data_PCOD9221624
_publ_section_title
;
Structure prediction by ZEFSAII (Michael W. Deem and Ramdas Pophale) SiO2 
 PCOD9221624
Probable space group: C 2/M
;
_chemical_formula_sum "Si O2"
_cell_formula_units_Z 40
_cell_length_a 16.997764
_cell_length_b 23.225430
_cell_length_c 7.784139
_cell_angle_alpha 90.000000
_cell_angle_beta 144.920434
_cell_angle_gamma 90.000000
_cell_volume 1766.108932
_symmetry_space_group_name_H-M "C 2/M"
_symmetry_group_IT_number 12
_symmetry_cell_setting 'monoclinic'
loop_
_space_group_symop_operation_xyz
x,y,z
-x,y,-z
-x,-y,-z
x,-y,z
1/2+x,1/2+y,z
1/2-x,1/2+y,-z
1/2-x,1/2-y,-z
1/2+x,1/2-y,z
loop_
_atom_site_type_symbol
_atom_site_label
_atom_site_fract_x
_atom_site_fract_y
_atom_site_fract_z
Si Si1 0.815739 0.293310 0.256437
Si Si2 0.820930 0.000000 0.978784
Si Si3 0.416728 0.000000 0.151382
Si Si4 0.981570 0.217042 0.164234
Si Si5 0.750208 0.000000 0.449489
Si Si6 0.500000 0.895488 0.500000
Si Si7 0.462837 0.407010 0.732030
O O1 0.869619 0.353732 0.280512
O O2 0.945396 0.265426 0.588248
O O3 0.750000 0.250000 0.000000
O O4 0.679172 0.299988 0.123630
O O5 0.712575 0.000000 0.941357
O O6 0.760659 0.000000 0.674335
O O7 0.921136 0.055885 0.158128
O O8 0.492190 0.059640 0.330160
O O9 0.386190 0.000000 0.898837
O O10 0.053576 0.158045 0.357017
O O11 0.000000 0.233979 0.000000
O O12 0.828909 0.054634 0.507865
O O13 0.500000 0.401533 0.000000
#
# Coordination Sequence:
#
# PCOD9221624 Si02
#       7
#     8   4   4   8   4   4   8
#     4  12  24  45  66  93 135 182 221 276 342 400
#     4   9  17  39  60  91 137 167 215 281 333 393
#     4  11  24  41  66  94 130 174 228 276 332 413
#     4  11  23  41  69 101 130 174 230 284 340 406
#     4   9  19  35  64  93 131 175 220 269 342 398
#     4  11  26  46  62  96 138 175 226 278 334 401
#     4   8  17  33  57  94 130 164 213 279 330 399
#
# _framework density 22.648658999999999
#
# number of rings (size 3 to 8) (size 9 to 14) (size 15 to 20)
#    0.000    1.800    2.000    3.000    2.800    1.600 
#    3.600    4.000    0.000    0.000    0.000    0.000 
#    0.000    0.000    0.000    0.000    0.000    0.000 
#
# Total GULP energy -111517.471304 kJ/mol
# GULP energy per Si atom -5575.873565 kJ/mol
# Density = 2.259711 g / cm^3
# Si number density = 22.648659 Si / 1000 Ang^3
#
#
#
# Elastic Constant Matrix: (Units=GPa)
#
#
# Indices 1 2 3 4 5 6 
#
# 1 88.4096 13.4132 29.2885 0.0000 20.3722 0.0000
# 2 13.4132 133.0848 38.7564 0.0000 -1.6564 0.0000
# 3 29.2885 38.7564 107.3212 0.0000 -5.7249 0.0000
# 4 0.0000 0.0000 0.0000 97.1834 0.0000 1.2101
# 5 20.3722 -1.6564 -5.7249 0.0000 30.9143 0.0000
# 6 0.0000 0.0000 0.0000 1.2101 0.0000 18.1023
#
#
#
# Elastic Compliance Matrix: (Units=1/GPa)
#
#
# Indices 1 2 3 4 5 6 
#
# 1 0.015469 -0.000330 -0.004694 0.000000 -0.011081 0.000000
# 2 -0.000330 0.008405 -0.002938 0.000000 0.000124 0.000000
# 3 -0.004694 -0.002938 0.011934 0.000000 0.005146 0.000000
# 4 0.000000 0.000000 0.000000 0.010298 0.000000 -0.000688
# 5 -0.011081 0.000124 0.005146 0.000000 0.040609 0.000000
# 6 0.000000 0.000000 0.000000 -0.000688 0.000000 0.055288
#
#
# Mechanical properties :
#
#
# Convention : Reuss Voigt Hill
#
# Bulk Modulus (GPa) = 50.29164 54.63687 52.46426
# Shear Modulus (GPa) = 30.38482 45.73048 38.05765
#
# Velocity S-wave (km/s) = 3.66672 4.49834 4.10365
# Velocity P-wave (km/s) = 6.33875 7.15235 6.75781
#
# Compressibility (1/GPa) = 0.01988402
#
# Stress axis : x y z
#
# Youngs Moduli (GPa) = 64.64382 118.98352 83.79196
#
# Poissons Ratio (x) = 0.03929 0.39328
# Poissons Ratio (y) = 0.02135 0.24621
# Poissons Ratio (z) = 0.30341 0.34962
#
# Static dielectric constant tensor:
#      x y z
#    x 2.036970 0.000000 0.125790 
#    y 0.000000 1.931920 0.000000 
#    z 0.125790 0.000000 1.918030 
# 
# From -- ./inp_files/90776.got.cif
#   From: 2010.05.17/outbox.cif.g08.bks.cpg/sg12_46_cif.got.tgz:90776.got - 2010.06.03 13:09:07.
