data_PCOD9221915
_publ_section_title
;
Structure prediction by ZEFSAII (Michael W. Deem and Ramdas Pophale) SiO2 
 PCOD9221915
Probable space group: C 2/M
;
_chemical_formula_sum "Si O2"
_cell_formula_units_Z 48
_cell_length_a 20.478359
_cell_length_b 18.455566
_cell_length_c 21.844644
_cell_angle_alpha 90.000000
_cell_angle_beta 20.371084
_cell_angle_gamma 90.000000
_cell_volume 2873.890642
_symmetry_space_group_name_H-M "C 2/M"
_symmetry_group_IT_number 12
_symmetry_cell_setting 'monoclinic'
loop_
_space_group_symop_operation_xyz
x,y,z
-x,y,-z
-x,-y,-z
x,-y,z
1/2+x,1/2+y,z
1/2-x,1/2+y,-z
1/2-x,1/2-y,-z
1/2+x,1/2-y,z
loop_
_atom_site_type_symbol
_atom_site_label
_atom_site_fract_x
_atom_site_fract_y
_atom_site_fract_z
Si Si1 0.645044 0.696835 0.044313
Si Si2 0.733624 0.196875 0.455707
Si Si3 0.370997 0.084296 0.250056
Si Si4 0.118304 0.306570 0.956160
Si Si5 0.030499 0.806656 0.543958
Si Si6 0.471551 0.084464 0.749969
O O1 0.441854 0.678936 0.250019
O O2 0.750000 0.750000 0.000000
O O3 0.621690 0.741913 0.002386
O O4 0.775883 0.627435 0.919926
O O5 0.750000 0.250000 0.500000
O O6 0.626529 0.242015 0.497542
O O7 0.615592 0.127486 0.580153
O O8 0.173699 0.126089 0.420372
O O9 0.449518 0.090297 0.250102
O O10 0.353163 0.000000 0.249855
O O11 0.514137 0.126239 0.079947
O O12 0.330413 0.323880 0.750078
O O13 0.000000 0.286644 0.000000
O O14 0.000000 0.786738 0.500000
O O15 0.454183 0.000000 0.749926
#
# Coordination Sequence:
#
# PCOD9221915 Si02
#       6
#     8   8   8   8   8   8
#     4  12  20  37  64  87 114 154 198 241 289 342
#     4  12  20  37  64  87 114 154 198 241 289 342
#     4  11  24  39  54  86 126 156 195 242 289 342
#     4  12  22  38  60  88 115 155 204 242 286 347
#     4  12  22  38  60  88 115 155 204 242 286 347
#     4  11  24  39  60  92 122 148 195 250 293 342
#
# _framework density 16.702096999999998
#
# number of rings (size 3 to 8) (size 9 to 14) (size 15 to 20)
#    0.000    0.333   10.000    0.000    0.000    2.000 
#    0.000    3.333    0.000    1.000    0.000    0.000 
#    0.000    0.000    0.000    0.000    0.000    0.000 
#
# Total GULP energy -134142.671662 kJ/mol
# GULP energy per Si atom -5589.277986 kJ/mol
# Density = 1.666408 g / cm^3
# Si number density = 16.702097 Si / 1000 Ang^3
#
#
#
# Elastic Constant Matrix: (Units=GPa)
#
#
# Indices 1 2 3 4 5 6 
#
# 1 118.9226 76.7289 50.0776 -0.0096 1.4980 0.0006
# 2 76.7289 151.2089 87.5843 -0.0217 -1.0117 0.0013
# 3 50.0776 87.5843 209.9894 -0.0342 -9.4315 0.0038
# 4 -0.0096 -0.0217 -0.0342 31.1609 0.0126 -0.8495
# 5 1.4980 -1.0117 -9.4315 0.0126 26.1508 0.0006
# 6 0.0006 0.0013 0.0038 -0.8495 0.0006 21.1274
#
#
#
# Elastic Compliance Matrix: (Units=1/GPa)
#
#
# Indices 1 2 3 4 5 6 
#
# 1 0.012566 -0.006090 -0.000508 0.000000 -0.001139 0.000000
# 2 -0.006090 0.011697 -0.003446 0.000003 -0.000441 0.000000
# 3 -0.000508 -0.003446 0.006420 0.000004 0.002211 -0.000001
# 4 0.000000 0.000003 0.000004 0.032127 -0.000014 0.001292
# 5 -0.001139 -0.000441 0.002211 -0.000014 0.039085 -0.000002
# 6 0.000000 0.000000 -0.000001 0.001292 -0.000002 0.047384
#
#
# Mechanical properties :
#
#
# Convention : Reuss Voigt Hill
#
# Bulk Modulus (GPa) = 94.38377 100.98917 97.68647
# Shear Modulus (GPa) = 28.91867 33.40316 31.16092
#
# Velocity S-wave (km/s) = 4.16557 4.47692 4.32405
# Velocity P-wave (km/s) = 8.93134 9.34452 9.14026
#
# Compressibility (1/GPa) = 0.01059504
#
# Stress axis : x y z
#
# Youngs Moduli (GPa) = 79.57771 85.49330 155.76591
#
# Poissons Ratio (x) = 0.52066 0.07910
# Poissons Ratio (y) = 0.48464 0.53679
# Poissons Ratio (z) = 0.04041 0.29462
#
# Static dielectric constant tensor:
#      x y z
#    x 1.559150 0.000000 -0.000460 
#    y 0.000000 1.528860 0.000010 
#    z -0.000460 0.000010 1.563910 
# 
# From -- ./inp_files/285335.got.cif
#   From: 2010.05.17/outbox.cif.g08.bks.cpg/sg12_143_cif.got.tgz:285335.got - 2010.06.03 13:09:07.
