data_PCOD9221723
_publ_section_title
;
Structure prediction by ZEFSAII (Michael W. Deem and Ramdas Pophale) SiO2 
 PCOD9221723
Probable space group: C 2/M
;
_chemical_formula_sum "Si O2"
_cell_formula_units_Z 36
_cell_length_a 11.612173
_cell_length_b 22.484952
_cell_length_c 12.442569
_cell_angle_alpha 90.000000
_cell_angle_beta 30.300527
_cell_angle_gamma 90.000000
_cell_volume 1639.107002
_symmetry_space_group_name_H-M "C 2/M"
_symmetry_group_IT_number 12
_symmetry_cell_setting 'monoclinic'
loop_
_space_group_symop_operation_xyz
x,y,z
-x,y,-z
-x,-y,-z
x,-y,z
1/2+x,1/2+y,z
1/2-x,1/2+y,-z
1/2-x,1/2-y,-z
1/2+x,1/2-y,z
loop_
_atom_site_type_symbol
_atom_site_label
_atom_site_fract_x
_atom_site_fract_y
_atom_site_fract_z
Si Si1 0.011025 0.389243 0.689740
Si Si2 0.007683 0.935035 0.622621
Si Si3 0.965650 0.265439 0.403903
Si Si4 0.715915 0.000000 0.230557
Si Si5 0.186241 0.673247 0.942776
O O1 0.238939 0.423714 0.539362
O O2 0.047999 0.336505 0.575743
O O3 0.840028 0.439145 0.786619
O O4 0.929901 0.349797 0.855814
O O5 0.000000 0.935851 0.500000
O O6 0.863252 0.879238 0.775354
O O7 0.923904 0.000000 0.728483
O O8 0.750000 0.250000 0.500000
O O9 0.000000 0.242011 0.500000
O O10 0.179178 0.235159 0.171306
O O11 0.500000 0.000000 0.500000
O O12 0.000000 0.000000 0.000000
O O13 0.000000 0.675056 0.000000
#
# Coordination Sequence:
#
# PCOD9221723 Si02
#       5
#     8   8   8   4   8
#     4  12  26  45  76 107 146 204 253 314 391 476
#     4  11  23  42  71 106 150 193 247 310 387 467
#     4  12  26  48  77 104 150 202 257 326 399 474
#     4  12  32  54  76 110 158 206 264 330 390 476
#     4  12  25  43  73 110 148 187 250 321 391 464
#
# _framework density 21.963177000000002
#
# number of rings (size 3 to 8) (size 9 to 14) (size 15 to 20)
#    0.000    0.222    5.556    3.333    4.667    3.111 
#    0.000    0.000    0.000    0.000    0.000    0.000 
#    0.000    0.000    0.000    0.000    0.000    0.000 
#
# Total GULP energy -100368.515184 kJ/mol
# GULP energy per Si atom -5576.028621 kJ/mol
# Density = 2.191319 g / cm^3
# Si number density = 21.963177 Si / 1000 Ang^3
#
#
#
# Elastic Constant Matrix: (Units=GPa)
#
#
# Indices 1 2 3 4 5 6 
#
# 1 164.3492 43.9393 54.3123 -0.0011 -21.7683 -0.0126
# 2 43.9393 123.6800 -10.0721 -0.0118 -22.6000 -0.0045
# 3 54.3123 -10.0721 47.3277 -0.0405 -11.7682 -0.0230
# 4 -0.0011 -0.0118 -0.0405 92.3606 0.0115 17.6226
# 5 -21.7683 -22.6000 -11.7682 0.0115 52.1666 0.0154
# 6 -0.0126 -0.0045 -0.0230 17.6226 0.0154 52.1110
#
#
#
# Elastic Compliance Matrix: (Units=1/GPa)
#
#
# Indices 1 2 3 4 5 6 
#
# 1 0.013081 -0.006170 -0.016561 -0.000007 -0.000950 -0.000002
# 2 -0.006170 0.012106 0.010934 0.000005 0.005137 0.000001
# 3 -0.016561 0.010934 0.044412 0.000018 0.007845 0.000008
# 4 -0.000007 0.000005 0.000018 0.011574 0.000002 -0.003914
# 5 -0.000950 0.005137 0.007845 0.000002 0.022768 -0.000004
# 6 -0.000002 0.000001 0.000008 -0.003914 -0.000004 0.020513
#
#
# Mechanical properties :
#
#
# Convention : Reuss Voigt Hill
#
# Bulk Modulus (GPa) = 21.73639 56.85734 39.29687
# Shear Modulus (GPa) = 30.60299 55.80613 43.20456
#
# Velocity S-wave (km/s) = 3.73685 5.04620 4.44005
# Velocity P-wave (km/s) = 5.34200 7.73925 6.64954
#
# Compressibility (1/GPa) = 0.04600579
#
# Stress axis : x y z
#
# Youngs Moduli (GPa) = 76.44663 82.60182 22.51661
#
# Poissons Ratio (x) = 0.50961 0.37289
# Poissons Ratio (y) = 0.47164 -0.24619
# Poissons Ratio (z) = 1.26602 -0.90315
#
# Static dielectric constant tensor:
#      x y z
#    x 1.837260 0.000000 0.066920 
#    y 0.000000 1.754540 0.000020 
#    z 0.066920 0.000020 1.907910 
# 
# From -- ./inp_files/7073.got.cif
#   From: 2010.05.17/outbox.cif.g08.bks.cpg/sg12_4_cif.got.tgz:7073.got - 2010.06.03 13:09:07.
