data_PCOD9221464
_publ_section_title
;
Structure prediction by ZEFSAII (Michael W. Deem and Ramdas Pophale) SiO2 
 PCOD9221464
Probable space group: C 2/M
;
_chemical_formula_sum "Si O2"
_cell_formula_units_Z 32
_cell_length_a 17.421201
_cell_length_b 15.064217
_cell_length_c 13.583808
_cell_angle_alpha 90.000000
_cell_angle_beta 23.623792
_cell_angle_gamma 90.000000
_cell_volume 1428.556828
_symmetry_space_group_name_H-M "C 2/M"
_symmetry_group_IT_number 12
_symmetry_cell_setting 'monoclinic'
loop_
_space_group_symop_operation_xyz
x,y,z
-x,y,-z
-x,-y,-z
x,-y,z
1/2+x,1/2+y,z
1/2-x,1/2+y,-z
1/2-x,1/2-y,-z
1/2+x,1/2-y,z
loop_
_atom_site_type_symbol
_atom_site_label
_atom_site_fract_x
_atom_site_fract_y
_atom_site_fract_z
Si Si1 0.332490 0.396149 0.267191
Si Si2 0.422321 0.000000 0.935316
Si Si3 0.006597 0.843552 0.254374
Si Si4 0.680207 0.500000 0.410033
Si Si5 0.926096 0.356739 0.759540
O O1 0.367504 0.500000 0.247303
O O2 0.355613 0.345785 0.343225
O O3 0.117795 0.387331 0.479282
O O4 0.500000 0.363247 0.000000
O O5 0.621053 0.000000 0.761575
O O6 0.420133 0.914362 0.867182
O O7 0.248140 0.000000 0.217388
O O8 0.936902 0.913713 0.417472
O O9 0.039820 0.746957 0.259983
O O10 0.214254 0.871223 0.965925
#
# Coordination Sequence:
#
# PCOD9221464 Si02
#       5
#     8   4   8   4   8
#     4  11  23  40  62  89 122 162 206 250 306 366
#     4  11  23  41  67  95 125 164 209 258 314 372
#     4  11  23  41  65  92 125 164 206 253 311 371
#     4  11  23  41  67  95 125 164 209 258 314 372
#     4  11  23  41  65  92 125 164 206 253 311 371
#
# _framework density 22.400230000000001
#
# number of rings (size 3 to 8) (size 9 to 14) (size 15 to 20)
#    0.000    1.000    5.000    1.500    0.000    5.000 
#    0.000    7.500    0.000    0.000    0.000    0.000 
#    0.000    0.000    0.000    0.000    0.000    0.000 
#
# Total GULP energy -89440.916755 kJ/mol
# GULP energy per Si atom -5590.057297 kJ/mol
# Density = 2.234925 g / cm^3
# Si number density = 22.400230 Si / 1000 Ang^3
#
#
#
# Elastic Constant Matrix: (Units=GPa)
#
#
# Indices 1 2 3 4 5 6 
#
# 1 34.5541 16.0240 22.0331 -0.0005 3.0684 0.0003
# 2 16.0240 129.8682 29.4347 0.0004 17.7726 0.0001
# 3 22.0331 29.4347 174.3952 -0.0038 10.4010 0.0018
# 4 -0.0005 0.0004 -0.0038 -8.6812 0.0006 -3.0929
# 5 3.0684 17.7726 10.4010 0.0006 44.7105 -0.0007
# 6 0.0003 0.0001 0.0018 -3.0929 -0.0007 0.5073
#
#
#
# Elastic Compliance Matrix: (Units=1/GPa)
#
#
# Indices 1 2 3 4 5 6 
#
# 1 0.032725 -0.003207 -0.003585 0.000000 -0.000137 -0.000003
# 2 -0.003207 0.008712 -0.000884 0.000000 -0.003037 0.000001
# 3 -0.003585 -0.000884 0.006389 0.000002 -0.000889 -0.000012
# 4 0.000000 0.000000 0.000002 -0.036311 -0.000003 -0.221403
# 5 -0.000137 -0.003037 -0.000889 -0.000003 0.023790 0.000015
# 6 -0.000003 0.000001 -0.000012 -0.221403 0.000015 0.621441
#
#
# Mechanical properties :
#
#
# Convention : Reuss Voigt Hill
#
# Bulk Modulus (GPa) = 30.79308 52.64455 41.71882
# Shear Modulus (GPa) = 7.32148 25.39570 16.35859
#
# Velocity S-wave (km/s) = 1.80986 3.37074 2.70531
# Velocity P-wave (km/s) = 4.25958 6.22109 5.33132
#
# Compressibility (1/GPa) = 0.03247482
#
# Stress axis : x y z
#
# Youngs Moduli (GPa) = 30.55742 114.78697 156.51202
#
# Poissons Ratio (x) = 0.36806 0.56112
# Poissons Ratio (y) = 0.09798 0.13838
# Poissons Ratio (z) = 0.10955 0.10149
#
# Static dielectric constant tensor:
#      x y z
#    x 1.804490 0.000000 -0.002450 
#    y 0.000000 1.783020 0.000000 
#    z -0.002450 0.000000 1.882640 
# 
# From -- ./inp_files/283907.got.cif
#   From: 2010.05.17/outbox.cif.g08.bks.cpg/sg12_142_cif.got.tgz:283907.got - 2010.06.03 13:09:07.
