data_PCOD9221862
_publ_section_title
;
Structure prediction by ZEFSAII (Michael W. Deem and Ramdas Pophale) SiO2 
 PCOD9221862
Probable space group: C 2/M
;
_chemical_formula_sum "Si O2"
_cell_formula_units_Z 40
_cell_length_a 13.705643
_cell_length_b 27.228634
_cell_length_c 9.235460
_cell_angle_alpha 90.000000
_cell_angle_beta 148.405891
_cell_angle_gamma 90.000000
_cell_volume 1805.638541
_symmetry_space_group_name_H-M "C 2/M"
_symmetry_group_IT_number 12
_symmetry_cell_setting 'monoclinic'
loop_
_space_group_symop_operation_xyz
x,y,z
-x,y,-z
-x,-y,-z
x,-y,z
1/2+x,1/2+y,z
1/2-x,1/2+y,-z
1/2-x,1/2-y,-z
1/2+x,1/2-y,z
loop_
_atom_site_type_symbol
_atom_site_label
_atom_site_fract_x
_atom_site_fract_y
_atom_site_fract_z
Si Si1 0.219265 0.261940 0.291253
Si Si2 0.292801 0.629484 0.583201
Si Si3 0.203405 0.836036 0.109800
Si Si4 0.189488 0.943720 0.645297
Si Si5 0.368936 0.148380 0.006358
O O1 0.250000 0.250000 0.500000
O O2 0.093862 0.347546 0.282670
O O3 0.280416 0.214776 0.273847
O O4 0.253681 0.312038 0.241304
O O5 0.272535 0.624595 0.730554
O O6 0.331305 0.580878 0.539116
O O7 0.479286 0.662700 0.798334
O O8 0.306031 0.846424 0.091536
O O9 0.326146 0.906303 0.898586
O O10 0.000000 0.941753 0.500000
O O11 0.250330 0.000000 0.714227
O O12 0.500000 0.240754 0.000000
#
# Coordination Sequence:
#
# PCOD9221862 Si02
#       5
#     8   8   8   8   8
#     4  12  25  42  69  99 144 194 234 286 354 420
#     4  11  23  45  70 100 138 183 226 295 346 425
#     4  11  24  45  67 102 148 180 230 290 352 422
#     4  11  24  46  73 102 138 184 239 298 365 427
#     4  12  25  42  74 102 136 186 240 287 355 421
#
# _framework density 22.152828
#
# number of rings (size 3 to 8) (size 9 to 14) (size 15 to 20)
#    0.000    0.600    4.000    5.400    0.000    1.600 
#    0.000    5.000    0.000    2.400    0.000    0.000 
#    0.000    0.000    0.000    0.000    0.000    0.000 
#
# Total GULP energy -111608.090189 kJ/mol
# GULP energy per Si atom -5580.404509 kJ/mol
# Density = 2.210241 g / cm^3
# Si number density = 22.152828 Si / 1000 Ang^3
#
#
#
# Elastic Constant Matrix: (Units=GPa)
#
#
# Indices 1 2 3 4 5 6 
#
# 1 176.2282 72.0392 49.6942 0.0000 -38.4546 0.0000
# 2 72.0392 186.6027 63.6693 0.0000 -30.4480 0.0000
# 3 49.6942 63.6693 139.0896 0.0000 -13.7042 0.0000
# 4 0.0000 0.0000 0.0000 26.7952 0.0000 -2.8025
# 5 -38.4546 -30.4480 -13.7042 0.0000 51.2698 0.0000
# 6 0.0000 0.0000 0.0000 -2.8025 0.0000 27.6875
#
#
#
# Elastic Compliance Matrix: (Units=1/GPa)
#
#
# Indices 1 2 3 4 5 6 
#
# 1 0.007787 -0.001765 -0.001543 0.000000 0.004380 0.000000
# 2 -0.001765 0.007261 -0.002464 0.000000 0.002330 0.000000
# 3 -0.001543 -0.002464 0.008843 0.000000 -0.000256 0.000000
# 4 0.000000 0.000000 0.000000 0.037719 0.000000 0.003818
# 5 0.004380 0.002330 -0.000256 0.000000 0.024105 0.000000
# 6 0.000000 0.000000 0.000000 0.003818 0.000000 0.036504
#
#
# Mechanical properties :
#
#
# Convention : Reuss Voigt Hill
#
# Bulk Modulus (GPa) = 80.98160 96.96954 88.97557
# Shear Modulus (GPa) = 36.26397 42.25169 39.25783
#
# Velocity S-wave (km/s) = 4.05036 4.37198 4.21424
# Velocity P-wave (km/s) = 7.64913 8.32788 7.99571
#
# Compressibility (1/GPa) = 0.01234848
#
# Stress axis : x y z
#
# Youngs Moduli (GPa) = 128.42406 137.71863 113.08096
#
# Poissons Ratio (x) = 0.24309 0.17443
# Poissons Ratio (y) = 0.22669 0.27859
# Poissons Ratio (z) = 0.19809 0.33929
#
# Static dielectric constant tensor:
#      x y z
#    x 1.893820 0.000000 -0.033100 
#    y 0.000000 1.880980 0.000000 
#    z -0.033100 0.000000 1.892330 
# 
# From -- ./inp_files/52346.got.cif
#   From: 2010.05.17/outbox.cif.g08.bks.cpg/sg12_27_cif.got.tgz:52346.got - 2010.06.03 13:09:07.
