data_PCOD9221806
_publ_section_title
;
Structure prediction by ZEFSAII (Michael W. Deem and Ramdas Pophale) SiO2 
 PCOD9221806
Probable space group: C 2/M
;
_chemical_formula_sum "Si O2"
_cell_formula_units_Z 42
_cell_length_a 13.453092
_cell_length_b 24.703385
_cell_length_c 5.171465
_cell_angle_alpha 90.000000
_cell_angle_beta 90.215943
_cell_angle_gamma 90.000000
_cell_volume 1718.656497
_symmetry_space_group_name_H-M "C 2/M"
_symmetry_group_IT_number 12
_symmetry_cell_setting 'monoclinic'
loop_
_space_group_symop_operation_xyz
x,y,z
-x,y,-z
-x,-y,-z
x,-y,z
1/2+x,1/2+y,z
1/2-x,1/2+y,-z
1/2-x,1/2-y,-z
1/2+x,1/2-y,z
loop_
_atom_site_type_symbol
_atom_site_label
_atom_site_fract_x
_atom_site_fract_y
_atom_site_fract_z
Si Si1 0.500000 0.105531 0.000000
Si Si2 0.873861 0.837743 0.785800
Si Si3 0.500000 0.500000 0.000000
Si Si4 0.353302 0.939735 0.607572
Si Si5 0.132604 0.909516 0.722417
Si Si6 0.649675 0.831272 0.735332
Si Si7 0.500000 0.253593 0.500000
O O1 0.450891 0.066704 0.785632
O O2 0.591349 0.148692 0.986141
O O3 0.880667 0.885472 0.566731
O O4 0.762503 0.814767 0.762040
O O5 0.951717 0.792339 0.712679
O O6 0.879270 0.861551 0.071368
O O7 0.445373 0.453534 0.181204
O O8 0.245532 0.932706 0.746414
O O9 0.355552 0.888583 0.417256
O O10 0.351445 0.000000 0.488594
O O11 0.585798 0.784931 0.606354
#
# Coordination Sequence:
#
# PCOD9221806 Si02
#       7
#     4   8   2   8   8   8   4
#     4  12  21  42  69  96 141 182 238 293 350 418
#     4  11  26  48  71 104 144 186 239 294 356 418
#     4  12  24  46  74 108 144 186 236 294 350 426
#     4  11  23  44  66 102 141 189 223 297 357 428
#     4  11  25  46  71 107 141 184 237 288 354 433
#     4  11  25  44  68 103 142 180 249 288 354 433
#     4  12  24  48  71 101 136 198 228 304 358 408
#
# _framework density 24.437694
#
# number of rings (size 3 to 8) (size 9 to 14) (size 15 to 20)
#    0.000    0.762    4.762    2.000    0.000    5.333 
#    1.714    3.810    0.000    0.000    0.000    0.000 
#    0.000    0.000    0.000    0.000    0.000    0.000 
#
# Total GULP energy -117216.226485 kJ/mol
# GULP energy per Si atom -5581.725071 kJ/mol
# Density = 2.438207 g / cm^3
# Si number density = 24.437694 Si / 1000 Ang^3
#
#
#
# Elastic Constant Matrix: (Units=GPa)
#
#
# Indices 1 2 3 4 5 6 
#
# 1 137.8447 61.0828 17.0748 0.0000 -16.2016 0.0000
# 2 61.0828 120.2018 12.1504 0.0000 0.2465 0.0000
# 3 17.0748 12.1504 33.9087 0.0000 4.3825 0.0000
# 4 0.0000 0.0000 0.0000 -2.0116 0.0000 -11.0685
# 5 -16.2016 0.2465 4.3825 0.0000 35.5971 0.0000
# 6 0.0000 0.0000 0.0000 -11.0685 0.0000 -3.3863
#
#
#
# Elastic Compliance Matrix: (Units=1/GPa)
#
#
# Indices 1 2 3 4 5 6 
#
# 1 0.010622 -0.004978 -0.004262 0.000000 0.005394 0.000000
# 2 -0.004978 0.010969 -0.001139 0.000000 -0.002202 0.000000
# 3 -0.004262 -0.001139 0.032817 0.000000 -0.005972 0.000000
# 4 0.000000 0.000000 0.000000 0.029268 0.000000 -0.095666
# 5 0.005394 -0.002202 -0.005972 0.000000 0.031298 0.000000
# 6 0.000000 0.000000 0.000000 -0.095666 0.000000 0.017387
#
#
# Mechanical properties :
#
#
# Convention : Reuss Voigt Hill
#
# Bulk Modulus (GPa) = 29.71820 52.50789 41.11305
# Shear Modulus (GPa) = 30.42544 19.48298 24.95421
#
# Velocity S-wave (km/s) = 3.53231 2.82663 3.19899
# Velocity P-wave (km/s) = 5.36875 5.67329 5.52312
#
# Compressibility (1/GPa) = 0.03364941
#
# Stress axis : x y z
#
# Youngs Moduli (GPa) = 94.13998 91.16785 30.47174
#
# Poissons Ratio (x) = 0.45385 0.12988
# Poissons Ratio (y) = 0.46865 0.03471
# Poissons Ratio (z) = 0.40125 0.10385
#
# Static dielectric constant tensor:
#      x y z
#    x 2.038490 0.000000 -0.095780 
#    y 0.000000 1.909280 0.000000 
#    z -0.095780 0.000000 2.071740 
# 
# From -- ./inp_files/11637.got.cif
#   From: 2010.05.17/outbox.cif.g08.bks.cpg/sg12_6_cif.got.tgz:11637.got - 2010.06.03 13:09:07.
