data_PCOD9221177
_publ_section_title
;
Structure prediction by ZEFSAII (Michael W. Deem and Ramdas Pophale) SiO2 
 PCOD9221177
Probable space group: C 2/M
;
_chemical_formula_sum "Si O2"
_cell_formula_units_Z 40
_cell_length_a 12.574672
_cell_length_b 15.872339
_cell_length_c 9.650113
_cell_angle_alpha 90.000000
_cell_angle_beta 79.446029
_cell_angle_gamma 90.000000
_cell_volume 1893.477276
_symmetry_space_group_name_H-M "C 2/M"
_symmetry_group_IT_number 12
_symmetry_cell_setting 'monoclinic'
loop_
_space_group_symop_operation_xyz
x,y,z
-x,y,-z
-x,-y,-z
x,-y,z
1/2+x,1/2+y,z
1/2-x,1/2+y,-z
1/2-x,1/2-y,-z
1/2+x,1/2-y,z
loop_
_atom_site_type_symbol
_atom_site_label
_atom_site_fract_x
_atom_site_fract_y
_atom_site_fract_z
Si Si1 0.863309 0.330117 0.335569
Si Si2 0.342157 0.500000 0.945738
Si Si3 0.202853 0.855881 0.588585
Si Si4 0.429898 0.500000 0.240438
Si Si5 0.307399 0.836634 0.031589
Si Si6 0.095126 0.398918 0.266582
O O1 0.851296 0.235754 0.397316
O O2 0.759578 0.376207 0.428500
O O3 0.855084 0.325668 0.172526
O O4 0.976524 0.372875 0.346163
O O5 0.443513 0.500000 0.818756
O O6 0.274709 0.415062 0.941655
O O7 0.379217 0.500000 0.097770
O O8 0.305892 0.860336 0.668776
O O9 0.115241 0.920571 0.665536
O O10 0.250000 0.750000 0.000000
O O11 0.390701 0.863588 0.892127
O O12 0.106323 0.500000 0.265592
#
# Coordination Sequence:
#
# PCOD9221177 Si02
#       6
#     8   4   8   4   8   8
#     4  11  27  39  69  98 135 170 219 278 337 387
#     4  11  24  41  68  98 127 170 231 271 322 404
#     4  11  23  47  63  99 133 174 223 271 326 412
#     4  11  22  43  70  90 129 180 221 265 332 396
#     4  12  23  45  66  97 133 171 221 281 331 392
#     4  12  24  45  70  99 133 179 225 269 334 403
#
# _framework density 21.125153999999998
#
# number of rings (size 3 to 8) (size 9 to 14) (size 15 to 20)
#    0.000    0.600    6.000    1.200    5.600    1.600 
#    0.000    2.000    0.000    0.000    0.000    0.000 
#    0.000    0.000    0.000    0.000    0.000    0.000 
#
# Total GULP energy -111863.117226 kJ/mol
# GULP energy per Si atom -5593.155861 kJ/mol
# Density = 2.107707 g / cm^3
# Si number density = 21.125154 Si / 1000 Ang^3
#
#
#
# Elastic Constant Matrix: (Units=GPa)
#
#
# Indices 1 2 3 4 5 6 
#
# 1 70.7924 45.4250 25.8573 0.0000 -30.7644 0.0000
# 2 45.4250 116.4564 17.5723 0.0000 -26.9103 0.0000
# 3 25.8573 17.5723 105.1986 0.0000 -16.0275 0.0000
# 4 0.0000 0.0000 0.0000 30.4647 0.0000 -12.4684
# 5 -30.7644 -26.9103 -16.0275 0.0000 44.9960 0.0000
# 6 0.0000 0.0000 0.0000 -12.4684 0.0000 -2.0791
#
#
#
# Elastic Compliance Matrix: (Units=1/GPa)
#
#
# Indices 1 2 3 4 5 6 
#
# 1 0.024488 -0.006343 -0.003158 0.000000 0.011824 0.000000
# 2 -0.006343 0.011671 0.000013 0.000000 0.002648 0.000000
# 3 -0.003158 0.000013 0.010523 0.000000 0.001597 0.000000
# 4 0.000000 0.000000 0.000000 0.009502 0.000000 -0.056985
# 5 0.011824 0.002648 0.001597 0.000000 0.032461 0.000000
# 6 0.000000 0.000000 0.000000 -0.056985 0.000000 -0.139236
#
#
# Mechanical properties :
#
#
# Convention : Reuss Voigt Hill
#
# Bulk Modulus (GPa) = 36.09312 52.23961 44.16637
# Shear Modulus (GPa) = -223.42195 28.24919 -97.58638
#
# Velocity S-wave (km/s) = -10.29518 3.66078 -6.80402
# Velocity P-wave (km/s) = 11.14444 6.53075 6.38544
#
# Compressibility (1/GPa) = 0.02770611
#
# Stress axis : x y z
#
# Youngs Moduli (GPa) = 40.83662 85.68328 95.02828
#
# Poissons Ratio (x) = 0.54348 0.30010
# Poissons Ratio (y) = 0.25902 -0.00123
# Poissons Ratio (z) = 0.12896 -0.00111
#
# Static dielectric constant tensor:
#      x y z
#    x 1.734320 0.000000 0.004350 
#    y 0.000000 1.728990 0.000000 
#    z 0.004350 0.000000 1.789440 
# 
# From -- ./inp_files/59015.got.cif
#   From: 2010.05.17/outbox.cif.g08.bks.cpg/sg12_30_cif.got.tgz:59015.got - 2010.06.03 13:09:07.
