data_PCOD9221648
_publ_section_title
;
Structure prediction by ZEFSAII (Michael W. Deem and Ramdas Pophale) SiO2 
 PCOD9221648
Probable space group: C 2/M
;
_chemical_formula_sum "Si O2"
_cell_formula_units_Z 32
_cell_length_a 26.923156
_cell_length_b 10.747357
_cell_length_c 9.945880
_cell_angle_alpha 90.000000
_cell_angle_beta 148.845787
_cell_angle_gamma 90.000000
_cell_volume 1488.845667
_symmetry_space_group_name_H-M "C 2/M"
_symmetry_group_IT_number 12
_symmetry_cell_setting 'monoclinic'
loop_
_space_group_symop_operation_xyz
x,y,z
-x,y,-z
-x,-y,-z
x,-y,z
1/2+x,1/2+y,z
1/2-x,1/2+y,-z
1/2-x,1/2-y,-z
1/2+x,1/2-y,z
loop_
_atom_site_type_symbol
_atom_site_label
_atom_site_fract_x
_atom_site_fract_y
_atom_site_fract_z
Si Si1 0.907608 0.141856 0.466732
Si Si2 0.105844 0.221015 0.279052
Si Si3 0.190612 0.366403 0.252130
Si Si4 0.864573 0.141679 0.066669
O O1 0.889171 0.231925 0.548719
O O2 0.855864 0.167291 0.205893
O O3 0.021300 0.141634 0.700433
O O4 0.882105 0.000000 0.449944
O O5 0.125191 0.340535 0.231104
O O6 0.196997 0.137565 0.448659
O O7 0.000000 0.170522 0.000000
O O8 0.166701 0.500000 0.136612
O O9 0.176877 0.252106 0.118513
O O10 0.829770 0.000000 0.959047
#
# Coordination Sequence:
#
# PCOD9221648 Si02
#       4
#     8   8   8   8
#     4   9  18  36  65  93 118 163 219 255 293 372
#     4  11  23  42  63  89 124 174 210 252 308 378
#     4  11  25  41  62  98 131 158 208 267 314 370
#     4   9  19  39  65  93 124 161 211 260 305 369
#
# _framework density 21.493161000000001
#
# number of rings (size 3 to 8) (size 9 to 14) (size 15 to 20)
#    0.000    2.000    2.500    2.250    0.000    8.500 
#    0.000    3.750    0.000    0.000    0.000    0.000 
#    0.000    0.000    0.000    0.000    0.000    0.000 
#
# Total GULP energy -89236.947668 kJ/mol
# GULP energy per Si atom -5577.309229 kJ/mol
# Density = 2.144424 g / cm^3
# Si number density = 21.493161 Si / 1000 Ang^3
#
#
#
# Elastic Constant Matrix: (Units=GPa)
#
#
# Indices 1 2 3 4 5 6 
#
# 1 128.9388 44.2983 48.8078 0.0000 -21.4589 0.0000
# 2 44.2983 138.6510 63.6676 0.0000 -28.4504 0.0000
# 3 48.8078 63.6676 78.1878 0.0000 -5.0369 0.0000
# 4 0.0000 0.0000 0.0000 10.5844 0.0000 -6.7729
# 5 -21.4589 -28.4504 -5.0369 0.0000 33.0968 0.0000
# 6 0.0000 0.0000 0.0000 -6.7729 0.0000 16.7926
#
#
#
# Elastic Compliance Matrix: (Units=1/GPa)
#
#
# Indices 1 2 3 4 5 6 
#
# 1 0.011489 0.001514 -0.007918 0.000000 0.007545 0.000000
# 2 0.001514 0.014752 -0.012197 0.000000 0.011806 0.000000
# 3 -0.007918 -0.012197 0.026922 0.000000 -0.011521 0.000000
# 4 0.000000 0.000000 0.000000 0.127345 0.000000 0.051362
# 5 0.007545 0.011806 -0.011521 0.000000 0.043502 0.000000
# 6 0.000000 0.000000 0.000000 0.051362 0.000000 0.080266
#
#
# Mechanical properties :
#
#
# Convention : Reuss Voigt Hill
#
# Bulk Modulus (GPa) = 62.65607 73.25832 67.95719
# Shear Modulus (GPa) = 14.41767 24.69501 19.55634
#
# Velocity S-wave (km/s) = 2.59280 3.39332 3.01970
# Velocity P-wave (km/s) = 6.17886 7.03643 6.62154
#
# Compressibility (1/GPa) = 0.01596015
#
# Stress axis : x y z
#
# Youngs Moduli (GPa) = 87.04342 67.78777 37.14467
#
# Poissons Ratio (x) = -0.10260 0.29411
# Poissons Ratio (y) = -0.13174 0.45304
# Poissons Ratio (z) = 0.68921 0.82678
#
# Static dielectric constant tensor:
#      x y z
#    x 1.817330 0.000000 -0.006790 
#    y 0.000000 1.786360 0.000000 
#    z -0.006790 0.000000 1.815490 
# 
# From -- ./inp_files/187827.got.cif
#   From: 2010.05.17/outbox.cif.g08.bks.cpg/sg12_94_cif.got.tgz:187827.got - 2010.06.03 13:09:07.
