data_PCOD9221200
_publ_section_title
;
Structure prediction by ZEFSAII (Michael W. Deem and Ramdas Pophale) SiO2 
 PCOD9221200
Probable space group: C 2/M
;
_chemical_formula_sum "Si O2"
_cell_formula_units_Z 40
_cell_length_a 12.395981
_cell_length_b 18.691911
_cell_length_c 17.319780
_cell_angle_alpha 90.000000
_cell_angle_beta 151.877737
_cell_angle_gamma 90.000000
_cell_volume 1891.580089
_symmetry_space_group_name_H-M "C 2/M"
_symmetry_group_IT_number 12
_symmetry_cell_setting 'monoclinic'
loop_
_space_group_symop_operation_xyz
x,y,z
-x,y,-z
-x,-y,-z
x,-y,z
1/2+x,1/2+y,z
1/2-x,1/2+y,-z
1/2-x,1/2-y,-z
1/2+x,1/2-y,z
loop_
_atom_site_type_symbol
_atom_site_label
_atom_site_fract_x
_atom_site_fract_y
_atom_site_fract_z
Si Si1 0.266740 0.650072 0.157820
Si Si2 0.000000 0.623532 0.500000
Si Si3 0.060940 0.000000 0.800812
Si Si4 0.160201 0.761318 0.356552
Si Si5 0.416181 0.000000 0.149026
Si Si6 0.025492 0.500000 0.402960
Si Si7 0.765989 0.880001 0.328160
O O1 0.330476 0.572222 0.165371
O O2 0.399864 0.711250 0.196292
O O3 0.341816 0.649454 0.293528
O O4 0.000000 0.661474 0.000000
O O5 0.198992 0.674922 0.595113
O O6 0.930346 0.570790 0.385712
O O7 0.795702 0.000000 0.602471
O O8 0.156252 0.000000 0.950431
O O9 0.250000 0.750000 0.500000
O O10 0.199376 0.688324 0.336493
O O11 0.552435 0.067282 0.198835
O O12 0.467781 0.000000 0.274831
O O13 0.000000 0.918487 0.500000
#
# Coordination Sequence:
#
# PCOD9221200 Si02
#       7
#     8   4   4   8   4   4   8
#     4  12  24  43  67 101 138 178 223 286 351 400
#     4  11  22  44  70 101 142 182 236 283 342 414
#     4  12  23  46  72  97 145 176 225 298 336 407
#     4  12  23  43  71 101 137 182 232 283 345 418
#     4  12  25  44  68 106 137 179 238 281 347 416
#     4  11  24  43  74 103 135 192 231 281 346 416
#     4  12  23  40  68 100 131 178 229 285 342 411
#
# _framework density 21.146341
#
# number of rings (size 3 to 8) (size 9 to 14) (size 15 to 20)
#    0.000    0.200    7.000    3.600    0.000    0.800 
#    0.000    2.000    0.000    0.000    0.000    0.000 
#    0.000    0.000    0.000    0.000    0.000    0.000 
#
# Total GULP energy -111615.508402 kJ/mol
# GULP energy per Si atom -5580.775420 kJ/mol
# Density = 2.109821 g / cm^3
# Si number density = 21.146341 Si / 1000 Ang^3
#
#
#
# Elastic Constant Matrix: (Units=GPa)
#
#
# Indices 1 2 3 4 5 6 
#
# 1 109.2540 50.4141 43.1579 0.0090 -7.1102 0.0037
# 2 50.4141 143.6870 28.8584 0.0003 5.8320 0.0016
# 3 43.1579 28.8584 104.0700 0.0119 8.8949 0.0013
# 4 0.0090 0.0003 0.0119 -13.2132 0.0124 -5.0046
# 5 -7.1102 5.8320 8.8949 0.0124 28.5081 0.0026
# 6 0.0037 0.0016 0.0013 -5.0046 0.0026 33.2069
#
#
#
# Elastic Compliance Matrix: (Units=1/GPa)
#
#
# Indices 1 2 3 4 5 6 
#
# 1 0.013250 -0.003894 -0.004896 0.000010 0.005629 0.000000
# 2 -0.003894 0.008537 -0.000534 -0.000005 -0.002551 -0.000001
# 3 -0.004896 -0.000534 0.012208 0.000003 -0.004921 0.000001
# 4 0.000010 -0.000005 0.000003 -0.071595 0.000035 -0.010790
# 5 0.005629 -0.002551 -0.004921 0.000035 0.038539 0.000002
# 6 0.000000 -0.000001 0.000001 -0.010790 0.000002 0.028488
#
#
# Mechanical properties :
#
#
# Convention : Reuss Voigt Hill
#
# Bulk Modulus (GPa) = 65.16386 66.87465 66.01925
# Shear Modulus (GPa) = 93.99923 25.33905 59.66914
#
# Velocity S-wave (km/s) = 6.67445 3.46536 5.31775
# Velocity P-wave (km/s) = 9.50159 6.90688 8.30618
#
# Compressibility (1/GPa) = 0.01534593
#
# Stress axis : x y z
#
# Youngs Moduli (GPa) = 75.46969 117.14102 81.91263
#
# Poissons Ratio (x) = 0.45616 0.40106
# Poissons Ratio (y) = 0.29389 0.04376
# Poissons Ratio (z) = 0.36952 0.06259
#
# Static dielectric constant tensor:
#      x y z
#    x 1.746340 0.000000 -0.001000 
#    y 0.000000 1.716590 -0.000010 
#    z -0.001000 -0.000010 1.756550 
# 
# From -- ./inp_files/47200.got.cif
#   From: 2010.05.17/outbox.cif.g08.bks.cpg/sg12_24_cif.got.tgz:47200.got - 2010.06.03 13:09:07.
