data_PCOD9221803
_publ_section_title
;
Structure prediction by ZEFSAII (Michael W. Deem and Ramdas Pophale) SiO2 
 PCOD9221803
Probable space group: C 2/M
;
_chemical_formula_sum "Si O2"
_cell_formula_units_Z 32
_cell_length_a 7.888382
_cell_length_b 14.437474
_cell_length_c 11.737029
_cell_angle_alpha 90.000000
_cell_angle_beta 73.681395
_cell_angle_gamma 90.000000
_cell_volume 1282.859821
_symmetry_space_group_name_H-M "C 2/M"
_symmetry_group_IT_number 12
_symmetry_cell_setting 'monoclinic'
loop_
_space_group_symop_operation_xyz
x,y,z
-x,y,-z
-x,-y,-z
x,-y,z
1/2+x,1/2+y,z
1/2-x,1/2+y,-z
1/2-x,1/2-y,-z
1/2+x,1/2-y,z
loop_
_atom_site_type_symbol
_atom_site_label
_atom_site_fract_x
_atom_site_fract_y
_atom_site_fract_z
Si Si1 0.542259 0.399088 0.678179
Si Si2 0.235144 0.351532 0.556552
Si Si3 0.009485 0.610236 0.806126
Si Si4 0.358456 0.715541 0.124091
O O1 0.500309 0.500000 0.735318
O O2 0.387991 0.369355 0.621123
O O3 0.713304 0.407591 0.564986
O O4 0.574975 0.325150 0.768792
O O5 0.250000 0.250000 0.500000
O O6 0.063146 0.374598 0.662846
O O7 0.008989 0.500000 0.829639
O O8 0.823168 0.661297 0.863726
O O9 0.144759 0.673049 0.855756
O O10 0.500000 0.695372 0.000000
#
# Coordination Sequence:
#
# PCOD9221803 Si02
#       4
#     8   8   8   8
#     4  11  24  45  75 108 151 200 248 310 384 453
#     4  11  23  43  76 111 152 193 247 317 388 451
#     4  12  27  49  79 114 151 202 256 312 385 453
#     4  12  28  51  78 111 157 204 257 318 372 447
#
# _framework density 24.944268000000001
#
# number of rings (size 3 to 8) (size 9 to 14) (size 15 to 20)
#    0.000    0.500    2.500    6.000    3.500    3.500 
#    0.000    3.750    0.000    0.000    0.000    0.000 
#    0.000    0.000    0.000    0.000    0.000    0.000 
#
# Total GULP energy -89524.581501 kJ/mol
# GULP energy per Si atom -5595.286344 kJ/mol
# Density = 2.488749 g / cm^3
# Si number density = 24.944268 Si / 1000 Ang^3
#
#
#
# Elastic Constant Matrix: (Units=GPa)
#
#
# Indices 1 2 3 4 5 6 
#
# 1 77.2619 37.2999 38.7246 0.0000 -18.4225 0.0000
# 2 37.2999 248.6907 31.4588 0.0000 -6.0073 0.0000
# 3 38.7246 31.4588 174.3018 0.0000 -33.2939 0.0000
# 4 0.0000 0.0000 0.0000 -0.3523 0.0000 -15.6280
# 5 -18.4225 -6.0073 -33.2939 0.0000 54.2314 0.0000
# 6 0.0000 0.0000 0.0000 -15.6280 0.0000 7.9851
#
#
#
# Elastic Compliance Matrix: (Units=1/GPa)
#
#
# Indices 1 2 3 4 5 6 
#
# 1 0.016041 -0.002001 -0.002497 0.000000 0.003695 0.000000
# 2 -0.002001 0.004365 -0.000431 0.000000 -0.000461 0.000000
# 3 -0.002497 -0.000431 0.007022 0.000000 0.003415 0.000000
# 4 0.000000 0.000000 0.000000 -0.032322 0.000000 -0.063259
# 5 0.003695 -0.000461 0.003415 0.000000 0.021740 0.000000
# 6 0.000000 0.000000 0.000000 -0.063259 0.000000 0.001426
#
#
# Mechanical properties :
#
#
# Convention : Reuss Voigt Hill
#
# Bulk Modulus (GPa) = 56.91601 79.46899 68.19250
# Shear Modulus (GPa) = 147.11478 38.55760 92.83619
#
# Velocity S-wave (km/s) = 7.68801 3.93587 6.10723
# Velocity P-wave (km/s) = 10.08335 7.25138 8.78227
#
# Compressibility (1/GPa) = 0.01756975
#
# Stress axis : x y z
#
# Youngs Moduli (GPa) = 62.33843 229.11737 142.40765
#
# Poissons Ratio (x) = 0.45843 0.35560
# Poissons Ratio (y) = 0.12473 0.06142
# Poissons Ratio (z) = 0.15566 0.09881
#
# Static dielectric constant tensor:
#      x y z
#    x 2.143810 0.000000 -0.093730 
#    y 0.000000 2.083800 0.000000 
#    z -0.093730 0.000000 1.977900 
# 
# From -- ./inp_files/117660.got.cif
#   From: 2010.05.17/outbox.cif.g08.bks.cpg/sg12_59_cif.got.tgz:117660.got - 2010.06.03 13:09:07.
