data_PCOD9221368
_publ_section_title
;
Structure prediction by ZEFSAII (Michael W. Deem and Ramdas Pophale) SiO2 
 PCOD9221368
Probable space group: C 2/M
;
_chemical_formula_sum "Si O2"
_cell_formula_units_Z 40
_cell_length_a 14.938399
_cell_length_b 8.392993
_cell_length_c 31.306994
_cell_angle_alpha 90.000000
_cell_angle_beta 32.916678
_cell_angle_gamma 90.000000
_cell_volume 2133.030021
_symmetry_space_group_name_H-M "C 2/M"
_symmetry_group_IT_number 12
_symmetry_cell_setting 'monoclinic'
loop_
_space_group_symop_operation_xyz
x,y,z
-x,y,-z
-x,-y,-z
x,-y,z
1/2+x,1/2+y,z
1/2-x,1/2+y,-z
1/2-x,1/2-y,-z
1/2+x,1/2-y,z
loop_
_atom_site_type_symbol
_atom_site_label
_atom_site_fract_x
_atom_site_fract_y
_atom_site_fract_z
Si Si1 0.862279 0.187380 0.916175
Si Si2 0.712608 0.811375 0.803045
Si Si3 0.178391 0.811929 0.910141
Si Si4 0.033446 0.807594 0.622170
Si Si5 0.900428 0.692521 0.498000
O O1 0.807865 0.277866 0.895417
O O2 0.051309 0.221290 0.851215
O O3 0.833084 0.000000 0.922593
O O4 0.750000 0.250000 0.000000
O O5 0.723002 0.779090 0.849264
O O6 0.877388 0.757676 0.712728
O O7 0.690584 0.000000 0.804478
O O8 0.168062 0.000000 0.904793
O O9 0.000000 0.761143 0.000000
O O10 0.023218 0.747153 0.577645
O O11 0.208729 0.754740 0.572098
O O12 0.036134 0.000000 0.620146
O O13 0.901558 0.500000 0.498483
O O14 0.000000 0.748592 0.500000
#
# Coordination Sequence:
#
# PCOD9221368 Si02
#       5
#     8   8   8   8   8
#     4  12  24  39  60  84 112 150 197 246 298 349
#     4  11  23  39  59  85 121 158 198 246 292 347
#     4  11  23  39  60  85 114 151 197 244 293 352
#     4   9  20  37  56  85 119 151 189 235 287 341
#     4   9  18  35  60  86 116 152 190 232 282 343
#
# _framework density 18.752665
#
# number of rings (size 3 to 8) (size 9 to 14) (size 15 to 20)
#    0.000    1.600    2.000    3.000    0.000    4.400 
#    0.000    2.000    0.000    0.000    0.000    0.000 
#    0.000    0.000    0.000    0.000    0.000    0.000 
#
# Total GULP energy -111733.471253 kJ/mol
# GULP energy per Si atom -5586.673563 kJ/mol
# Density = 1.870998 g / cm^3
# Si number density = 18.752665 Si / 1000 Ang^3
#
#
#
# Elastic Constant Matrix: (Units=GPa)
#
#
# Indices 1 2 3 4 5 6 
#
# 1 136.4781 -9.7141 59.2179 -0.0004 4.7505 -0.0016
# 2 -9.7141 20.9607 14.4304 -0.0010 -1.7689 -0.0028
# 3 59.2179 14.4304 155.1791 0.0001 3.9496 -0.0003
# 4 -0.0004 -0.0010 0.0001 25.0968 -0.0002 4.3755
# 5 4.7505 -1.7689 3.9496 -0.0002 15.4760 -0.0001
# 6 -0.0016 -0.0028 -0.0003 4.3755 -0.0001 30.5770
#
#
#
# Elastic Compliance Matrix: (Units=1/GPa)
#
#
# Indices 1 2 3 4 5 6 
#
# 1 0.009813 0.007501 -0.004416 0.000000 -0.001028 0.000001
# 2 0.007501 0.057489 -0.008372 0.000002 0.006405 0.000005
# 3 -0.004416 -0.008372 0.008956 0.000000 -0.001887 -0.000001
# 4 0.000000 0.000002 0.000000 0.040865 0.000001 -0.005848
# 5 -0.001028 0.006405 -0.001887 0.000001 0.066145 0.000001
# 6 0.000001 0.000005 -0.000001 -0.005848 0.000001 0.033541
#
#
# Mechanical properties :
#
#
# Convention : Reuss Voigt Hill
#
# Bulk Modulus (GPa) = 15.22414 48.94291 32.08353
# Shear Modulus (GPa) = 20.05797 30.80886 25.43342
#
# Velocity S-wave (km/s) = 3.27403 4.05767 3.68673
# Velocity P-wave (km/s) = 4.73586 6.93605 5.93874
#
# Compressibility (1/GPa) = 0.06568514
#
# Stress axis : x y z
#
# Youngs Moduli (GPa) = 101.90487 17.39465 111.65760
#
# Poissons Ratio (x) = -0.13048 0.49310
# Poissons Ratio (y) = -0.76443 0.93476
# Poissons Ratio (z) = 0.45003 0.14562
#
# Static dielectric constant tensor:
#      x y z
#    x 1.623220 0.000000 -0.019760 
#    y 0.000000 1.638550 0.000000 
#    z -0.019760 0.000000 1.626960 
# 
# From -- ./inp_files/211217.got.cif
#   From: 2010.05.17/outbox.cif.g08.bks.cpg/sg12_106_cif.got.tgz:211217.got - 2010.06.03 13:09:07.
