data_PCOD9221050
_publ_section_title
;
Structure prediction by ZEFSAII (Michael W. Deem and Ramdas Pophale) SiO2 
 PCOD9221050
Probable space group: C 2/M
;
_chemical_formula_sum "Si O2"
_cell_formula_units_Z 58
_cell_length_a 19.193713
_cell_length_b 7.558200
_cell_length_c 21.107230
_cell_angle_alpha 90.000000
_cell_angle_beta 57.699787
_cell_angle_gamma 90.000000
_cell_volume 2588.206107
_symmetry_space_group_name_H-M "C 2/M"
_symmetry_group_IT_number 12
_symmetry_cell_setting 'monoclinic'
loop_
_space_group_symop_operation_xyz
x,y,z
-x,y,-z
-x,-y,-z
x,-y,z
1/2+x,1/2+y,z
1/2-x,1/2+y,-z
1/2-x,1/2-y,-z
1/2+x,1/2-y,z
loop_
_atom_site_type_symbol
_atom_site_label
_atom_site_fract_x
_atom_site_fract_y
_atom_site_fract_z
Si Si1 0.927407 0.201944 0.463565
Si Si2 0.881746 0.297392 0.346501
Si Si3 0.053337 0.794096 0.211303
Si Si4 0.876087 0.284367 0.096590
Si Si5 0.302109 0.717053 0.766682
Si Si6 0.452523 0.213728 0.927476
Si Si7 0.000000 0.500000 0.500000
Si Si8 0.213047 0.214938 0.369014
O O1 0.899429 0.207504 0.404740
O O2 0.852371 0.264436 0.545392
O O3 0.996513 0.343230 0.446774
O O4 0.950183 0.000000 0.466686
O O5 0.861307 0.500000 0.372296
O O6 0.803727 0.224871 0.346183
O O7 0.964853 0.293028 0.265461
O O8 0.123778 0.724337 0.223969
O O9 0.076652 0.777294 0.126497
O O10 0.041544 0.000000 0.232551
O O11 0.876131 0.500000 0.097446
O O12 0.787144 0.226603 0.163723
O O13 0.953423 0.229428 0.102662
O O14 0.897811 0.230313 0.014229
O O15 0.302746 0.500000 0.767142
O O16 0.309352 0.774882 0.690427
O O17 0.452171 0.000000 0.926433
O O18 0.213499 0.000000 0.366710
#
# Coordination Sequence:
#
# PCOD9221050 Si02
#       8
#     8   8   8   8   8   8   2   8
#     4  11  24  43  67  96 131 168 210 262 314 372
#     4  11  22  41  65  91 119 158 211 262 313 373
#     4  11  23  35  52  83 120 160 195 240 307 373
#     4   8  15  31  58  83 105 142 195 247 297 359
#     4   9  18  33  53  81 115 154 195 240 301 372
#     4   9  17  33  58  84 106 141 195 250 299 358
#     4  12  26  44  64 102 128 172 212 252 320 382
#     4   9  20  38  65  91 118 158 205 259 316 368
#
# _framework density 22.409341999999999
#
# number of rings (size 3 to 8) (size 9 to 14) (size 15 to 20)
#    0.000    2.207    0.690    3.103    1.931    2.759 
#    2.483    1.379    0.000    2.483    0.000    0.000 
#    0.000    0.000    0.000    0.000    0.000    0.000 
#
# Total GULP energy -161866.236751 kJ/mol
# GULP energy per Si atom -5581.594371 kJ/mol
# Density = 2.235834 g / cm^3
# Si number density = 22.409342 Si / 1000 Ang^3
#
#
#
# Elastic Constant Matrix: (Units=GPa)
#
#
# Indices 1 2 3 4 5 6 
#
# 1 79.7154 15.5448 32.4867 -0.0003 29.2526 -0.0001
# 2 15.5448 81.1483 2.1562 -0.0008 -0.5069 -0.0010
# 3 32.4867 2.1562 98.1062 0.0000 18.1607 -0.0003
# 4 -0.0003 -0.0008 0.0000 20.1658 0.0000 14.0372
# 5 29.2526 -0.5069 18.1607 0.0000 43.5303 -0.0002
# 6 -0.0001 -0.0010 -0.0003 14.0372 -0.0002 8.7730
#
#
#
# Elastic Compliance Matrix: (Units=1/GPa)
#
#
# Indices 1 2 3 4 5 6 
#
# 1 0.019009 -0.003600 -0.004165 -0.000005 -0.011079 0.000008
# 2 -0.003600 0.013015 0.000466 0.000005 0.002376 -0.000007
# 3 -0.004165 0.000466 0.011967 0.000003 -0.002188 -0.000004
# 4 -0.000005 0.000005 0.000003 -0.435802 0.000006 0.697308
# 5 -0.011079 0.002376 -0.002188 0.000006 0.031358 -0.000009
# 6 0.000008 -0.000007 -0.000004 0.697308 -0.000009 -1.001746
#
#
# Mechanical properties :
#
#
# Convention : Reuss Voigt Hill
#
# Bulk Modulus (GPa) = 34.02008 39.92724 36.97366
# Shear Modulus (GPa) = -3.73747 28.41262 12.33758
#
# Velocity S-wave (km/s) = -1.29284 3.56461 2.34894
# Velocity P-wave (km/s) = 3.60355 5.89897 4.88791
#
# Compressibility (1/GPa) = 0.02939441
#
# Stress axis : x y z
#
# Youngs Moduli (GPa) = 52.60537 76.83330 83.56304
#
# Poissons Ratio (x) = 0.27660 0.34802
# Poissons Ratio (y) = 0.18938 -0.03895
# Poissons Ratio (z) = 0.21909 -0.03582
#
# Static dielectric constant tensor:
#      x y z
#    x 1.831980 0.000000 -0.017100 
#    y 0.000000 2.112840 0.000000 
#    z -0.017100 0.000000 1.796740 
# 
# From -- ./inp_files/314724.got.cif
#   From: 2010.05.17/outbox.cif.g08.bks.cpg/sg12_158_cif.got.tgz:314724.got - 2010.06.03 13:09:07.
