data_PCOD9221782
_publ_section_title
;
Structure prediction by ZEFSAII (Michael W. Deem and Ramdas Pophale) SiO2 
 PCOD9221782
Probable space group: C 2/M
;
_chemical_formula_sum "Si O2"
_cell_formula_units_Z 48
_cell_length_a 19.228290
_cell_length_b 15.972342
_cell_length_c 14.619671
_cell_angle_alpha 90.000000
_cell_angle_beta 28.595332
_cell_angle_gamma 90.000000
_cell_volume 2149.007847
_symmetry_space_group_name_H-M "C 2/M"
_symmetry_group_IT_number 12
_symmetry_cell_setting 'monoclinic'
loop_
_space_group_symop_operation_xyz
x,y,z
-x,y,-z
-x,-y,-z
x,-y,z
1/2+x,1/2+y,z
1/2-x,1/2+y,-z
1/2-x,1/2-y,-z
1/2+x,1/2-y,z
loop_
_atom_site_type_symbol
_atom_site_label
_atom_site_fract_x
_atom_site_fract_y
_atom_site_fract_z
Si Si1 0.762950 0.097769 0.352857
Si Si2 0.768156 0.904588 0.134443
Si Si3 0.047286 0.154415 0.709805
Si Si4 0.203693 0.599009 0.708147
Si Si5 0.606854 0.100704 0.010903
Si Si6 0.447046 0.829190 0.743369
O O1 0.803843 0.109353 0.199686
O O2 0.849208 0.159662 0.320231
O O3 0.592491 0.116181 0.561729
O O4 0.792578 0.000000 0.343828
O O5 0.649345 0.839450 0.235227
O O6 0.711032 0.000000 0.192774
O O7 0.909601 0.894912 0.908213
O O8 0.150853 0.112877 0.515090
O O9 0.993663 0.238661 0.724026
O O10 0.180653 0.500000 0.742996
O O11 0.199548 0.631429 0.817000
O O12 0.059346 0.628220 0.820788
O O13 0.611726 0.000000 0.010521
O O14 0.645676 0.134638 0.064776
#
# Coordination Sequence:
#
# PCOD9221782 Si02
#       6
#     8   8   8   8   8   8
#     4  11  23  43  70  96 126 175 230 271 316 391
#     4  11  25  45  68  94 132 180 223 269 325 395
#     4  12  24  40  64  99 137 165 213 278 338 383
#     4   9  18  35  61  90 121 164 215 263 309 375
#     4   9  18  35  61  90 121 164 216 259 308 380
#     4  12  24  40  64  97 135 170 214 270 339 393
#
# _framework density 22.335889000000002
#
# number of rings (size 3 to 8) (size 9 to 14) (size 15 to 20)
#    0.000    1.333    1.667    6.000    0.000    4.000 
#    3.000    2.500    0.000    3.000    0.000    0.000 
#    0.000    0.000    0.000    0.000    0.000    0.000 
#
# Total GULP energy -134168.488291 kJ/mol
# GULP energy per Si atom -5590.353679 kJ/mol
# Density = 2.228505 g / cm^3
# Si number density = 22.335889 Si / 1000 Ang^3
#
#
#
# Elastic Constant Matrix: (Units=GPa)
#
#
# Indices 1 2 3 4 5 6 
#
# 1 54.3812 20.9602 27.0931 0.0000 0.3765 0.0001
# 2 20.9602 46.4035 5.6686 -0.0001 3.8154 0.0001
# 3 27.0931 5.6686 80.0248 0.0000 12.9039 0.0001
# 4 0.0000 -0.0001 0.0000 -3.4806 0.0001 -21.7641
# 5 0.3765 3.8154 12.9039 0.0001 34.9103 -0.0001
# 6 0.0001 0.0001 0.0001 -21.7641 -0.0001 29.1798
#
#
#
# Elastic Compliance Matrix: (Units=1/GPa)
#
#
# Indices 1 2 3 4 5 6 
#
# 1 0.027396 -0.011615 -0.009155 0.000000 0.004358 0.000000
# 2 -0.011615 0.026784 0.002644 0.000000 -0.003779 0.000000
# 3 -0.009155 0.002644 0.016418 0.000000 -0.006259 0.000000
# 4 0.000000 0.000000 0.000000 -0.050726 0.000000 -0.037835
# 5 0.004358 -0.003779 -0.006259 0.000000 0.031324 0.000000
# 6 0.000000 0.000000 0.000000 -0.037835 0.000000 0.006051
#
#
# Mechanical properties :
#
#
# Convention : Reuss Voigt Hill
#
# Bulk Modulus (GPa) = 29.11463 32.02816 30.57140
# Shear Modulus (GPa) = 47.64312 20.59441 34.11876
#
# Velocity S-wave (km/s) = 4.62348 3.03979 3.91260
# Velocity P-wave (km/s) = 6.44712 5.16632 5.84193
#
# Compressibility (1/GPa) = 0.03434699
#
# Stress axis : x y z
#
# Youngs Moduli (GPa) = 36.50110 37.33557 60.91015
#
# Poissons Ratio (x) = 0.43364 0.55765
# Poissons Ratio (y) = 0.42395 -0.16107
# Poissons Ratio (z) = 0.33418 -0.09873
#
# Static dielectric constant tensor:
#      x y z
#    x 1.848060 0.000000 -0.002420 
#    y 0.000000 1.822410 0.000000 
#    z -0.002420 0.000000 1.822790 
# 
# From -- ./inp_files/226749.got.cif
#   From: 2010.05.17/outbox.cif.g08.bks.cpg/sg12_114_cif.got.tgz:226749.got - 2010.06.03 13:09:07.
