data_PCOD9221443
_publ_section_title
;
Structure prediction by ZEFSAII (Michael W. Deem and Ramdas Pophale) SiO2 
 PCOD9221443
Probable space group: C 2/M
;
_chemical_formula_sum "Si O2"
_cell_formula_units_Z 42
_cell_length_a 29.668400
_cell_length_b 9.144819
_cell_length_c 7.116524
_cell_angle_alpha 90.000000
_cell_angle_beta 62.575391
_cell_angle_gamma 90.000000
_cell_volume 1713.811625
_symmetry_space_group_name_H-M "C 2/M"
_symmetry_group_IT_number 12
_symmetry_cell_setting 'monoclinic'
loop_
_space_group_symop_operation_xyz
x,y,z
-x,y,-z
-x,-y,-z
x,-y,z
1/2+x,1/2+y,z
1/2-x,1/2+y,-z
1/2-x,1/2-y,-z
1/2+x,1/2-y,z
loop_
_atom_site_type_symbol
_atom_site_label
_atom_site_fract_x
_atom_site_fract_y
_atom_site_fract_z
Si Si1 0.375552 0.164556 0.127121
Si Si2 0.000000 0.000000 0.500000
Si Si3 0.953112 0.825619 0.229955
Si Si4 0.185520 0.839927 0.285088
Si Si5 0.724009 0.336361 0.785662
Si Si6 0.924201 0.745594 0.652532
O O1 0.405532 0.159018 0.869369
O O2 0.375339 0.000000 0.206710
O O3 0.404325 0.282816 0.200710
O O4 0.319312 0.225077 0.197868
O O5 0.960002 0.125837 0.656265
O O6 0.953676 0.708850 0.401005
O O7 0.953945 0.000000 0.302854
O O8 0.000000 0.813028 0.000000
O O9 0.219470 0.728322 0.337733
O O10 0.128406 0.798774 0.342042
O O11 0.185825 0.000000 0.371658
O O12 0.212310 0.849970 0.030569
O O13 0.720126 0.500000 0.715114
#
# Coordination Sequence:
#
# PCOD9221443 Si02
#       6
#     8   2   8   8   8   8
#     4  11  25  42  65  98 138 180 221 274 337 401
#     4  12  20  40  68 100 124 166 230 268 324 394
#     4  11  24  42  67  98 128 173 225 285 331 391
#     4   9  16  31  55  90 130 165 206 273 337 391
#     4   9  18  33  60  93 127 171 222 271 324 399
#     4  11  23  39  68  97 132 170 225 274 332 396
#
# _framework density 24.506778000000001
#
# number of rings (size 3 to 8) (size 9 to 14) (size 15 to 20)
#    0.000    1.714    1.905    2.286    5.333    5.714 
#    0.000    4.286    0.000    0.000    0.000    0.000 
#    0.000    0.000    0.000    0.000    0.000    0.000 
#
# Total GULP energy -116960.387470 kJ/mol
# GULP energy per Si atom -5569.542260 kJ/mol
# Density = 2.445100 g / cm^3
# Si number density = 24.506778 Si / 1000 Ang^3
#
#
#
# Elastic Constant Matrix: (Units=GPa)
#
#
# Indices 1 2 3 4 5 6 
#
# 1 88.4679 23.9125 -7.5931 0.0000 -23.8256 0.0000
# 2 23.9125 87.7996 11.4205 0.0000 -20.1595 0.0000
# 3 -7.5931 11.4205 88.3952 0.0000 22.6959 0.0000
# 4 0.0000 0.0000 0.0000 6.3066 0.0000 3.4413
# 5 -23.8256 -20.1595 22.6959 0.0000 45.7408 0.0000
# 6 0.0000 0.0000 0.0000 3.4413 0.0000 23.4316
#
#
#
# Elastic Compliance Matrix: (Units=1/GPa)
#
#
# Indices 1 2 3 4 5 6 
#
# 1 0.013555 -0.002273 -0.000112 0.000000 0.006114 0.000000
# 2 -0.002273 0.014087 -0.003788 0.000000 0.006904 0.000000
# 3 -0.000112 -0.003788 0.014023 0.000000 -0.008685 0.000000
# 4 0.000000 0.000000 0.000000 0.172378 0.000000 -0.025316
# 5 0.006114 0.006904 -0.008685 0.000000 0.032399 0.000000
# 6 0.000000 0.000000 0.000000 -0.025316 0.000000 0.046395
#
#
# Mechanical properties :
#
#
# Convention : Reuss Voigt Hill
#
# Bulk Modulus (GPa) = 34.10827 35.57140 34.83983
# Shear Modulus (GPa) = 15.87524 30.89067 23.38296
#
# Velocity S-wave (km/s) = 2.54793 3.55420 3.09227
# Velocity P-wave (km/s) = 4.75437 5.60264 5.19584
#
# Compressibility (1/GPa) = 0.02931841
#
# Stress axis : x y z
#
# Youngs Moduli (GPa) = 73.77333 70.98964 71.31336
#
# Poissons Ratio (x) = 0.16139 0.00797
# Poissons Ratio (y) = 0.16772 0.27012
# Poissons Ratio (z) = 0.00824 0.26889
#
# Static dielectric constant tensor:
#      x y z
#    x 1.735710 0.000000 -0.001000 
#    y 0.000000 1.915550 0.000000 
#    z -0.001000 0.000000 2.016690 
# 
# From -- ./inp_files/108480.got.cif
#   From: 2010.05.17/outbox.cif.g08.bks.cpg/sg12_55_cif.got.tgz:108480.got - 2010.06.03 13:09:07.
