data_PCOD9221097
_publ_section_title
;
Structure prediction by ZEFSAII (Michael W. Deem and Ramdas Pophale) SiO2 
 PCOD9221097
Probable space group: C 2/M
;
_chemical_formula_sum "Si O2"
_cell_formula_units_Z 40
_cell_length_a 9.567840
_cell_length_b 21.328453
_cell_length_c 18.547436
_cell_angle_alpha 90.000000
_cell_angle_beta 150.168014
_cell_angle_gamma 90.000000
_cell_volume 1882.841852
_symmetry_space_group_name_H-M "C 2/M"
_symmetry_group_IT_number 12
_symmetry_cell_setting 'monoclinic'
loop_
_space_group_symop_operation_xyz
x,y,z
-x,y,-z
-x,-y,-z
x,-y,z
1/2+x,1/2+y,z
1/2-x,1/2+y,-z
1/2-x,1/2-y,-z
1/2+x,1/2-y,z
loop_
_atom_site_type_symbol
_atom_site_label
_atom_site_fract_x
_atom_site_fract_y
_atom_site_fract_z
Si Si1 0.791582 0.068579 0.087382
Si Si2 0.216664 0.616843 0.907242
Si Si3 0.701814 0.258643 0.892657
Si Si4 0.911321 0.072811 0.377895
Si Si5 0.334011 0.639316 0.645084
O O1 0.046214 0.081785 0.254288
O O2 0.816166 0.000000 0.064813
O O3 0.500000 0.070351 0.000000
O O4 0.786489 0.119536 0.023081
O O5 0.169767 0.685921 0.853424
O O6 0.925890 0.579961 0.773899
O O7 0.500000 0.589274 0.000000
O O8 0.471969 0.300632 0.747959
O O9 0.750000 0.250000 0.000000
O O10 0.000000 0.284102 0.000000
O O11 0.000000 0.084896 0.500000
O O12 0.048102 0.121967 0.382138
O O13 0.984282 0.000000 0.392311
O O14 0.000000 0.643663 0.500000
#
# Coordination Sequence:
#
# PCOD9221097 Si02
#       5
#     8   8   8   8   8
#     4  11  22  41  71 101 136 185 237 291 347 414
#     4  11  24  42  70 101 135 180 239 288 347 415
#     4  11  23  44  72  99 139 183 236 298 349 408
#     4  11  26  47  69 101 148 189 227 290 357 417
#     4  12  26  44  70 106 142 187 237 290 352 422
#
# _framework density 21.244482000000001
#
# number of rings (size 3 to 8) (size 9 to 14) (size 15 to 20)
#    0.000    0.800    4.000    3.000    2.800    4.000 
#    0.000    3.000    0.000    0.000    0.000    0.000 
#    0.000    0.000    0.000    0.000    0.000    0.000 
#
# Total GULP energy -111556.869944 kJ/mol
# GULP energy per Si atom -5577.843497 kJ/mol
# Density = 2.119613 g / cm^3
# Si number density = 21.244482 Si / 1000 Ang^3
#
#
#
# Elastic Constant Matrix: (Units=GPa)
#
#
# Indices 1 2 3 4 5 6 
#
# 1 150.0987 38.1102 82.9841 -0.0025 3.4102 -0.0015
# 2 38.1102 110.1002 32.6168 -0.0595 -3.4533 -0.0036
# 3 82.9841 32.6168 171.0275 -0.2334 10.8515 0.0028
# 4 -0.0025 -0.0595 -0.2334 239.0301 -0.0363 -11.6837
# 5 3.4102 -3.4533 10.8515 -0.0363 41.0588 -0.0021
# 6 -0.0015 -0.0036 0.0028 -11.6837 -0.0021 28.5842
#
#
#
# Elastic Compliance Matrix: (Units=1/GPa)
#
#
# Indices 1 2 3 4 5 6 
#
# 1 0.009520 -0.002034 -0.004241 -0.000005 0.000159 -0.000001
# 2 -0.002034 0.010132 -0.001027 0.000002 0.001293 0.000002
# 3 -0.004241 -0.001027 0.008222 0.000008 -0.001907 0.000002
# 4 -0.000005 0.000002 0.000008 0.004269 0.000002 0.001745
# 5 0.000159 0.001293 -0.001907 0.000002 0.024955 0.000003
# 6 -0.000001 0.000002 0.000002 0.001745 0.000003 0.035698
#
#
# Mechanical properties :
#
#
# Convention : Reuss Voigt Hill
#
# Bulk Modulus (GPa) = 75.36784 82.07204 78.71994
# Shear Modulus (GPa) = 44.71369 80.23564 62.47466
#
# Velocity S-wave (km/s) = 4.59270 6.15221 5.42875
# Velocity P-wave (km/s) = 7.97981 9.44364 8.74242
#
# Compressibility (1/GPa) = 0.01326826
#
# Stress axis : x y z
#
# Youngs Moduli (GPa) = 105.04236 98.70206 121.62574
#
# Poissons Ratio (x) = 0.20074 0.51587
# Poissons Ratio (y) = 0.21363 0.12496
# Poissons Ratio (z) = 0.44553 0.10141
#
# Static dielectric constant tensor:
#      x y z
#    x 1.677910 -0.000100 0.110320 
#    y -0.000100 1.830380 0.000100 
#    z 0.110320 0.000100 1.578870 
# 
# From -- ./inp_files/198674.got.cif
#   From: 2010.05.17/outbox.cif.g08.bks.cpg/sg12_100_cif.got.tgz:198674.got - 2010.06.03 13:09:07.
