data_PCOD9221166
_publ_section_title
;
Structure prediction by ZEFSAII (Michael W. Deem and Ramdas Pophale) SiO2 
 PCOD9221166
Probable space group: C 2/M
;
_chemical_formula_sum "Si O2"
_cell_formula_units_Z 50
_cell_length_a 30.945901
_cell_length_b 16.929436
_cell_length_c 15.291707
_cell_angle_alpha 90.000000
_cell_angle_beta 162.033503
_cell_angle_gamma 90.000000
_cell_volume 2471.164195
_symmetry_space_group_name_H-M "C 2/M"
_symmetry_group_IT_number 12
_symmetry_cell_setting 'monoclinic'
loop_
_space_group_symop_operation_xyz
x,y,z
-x,y,-z
-x,-y,-z
x,-y,z
1/2+x,1/2+y,z
1/2-x,1/2+y,-z
1/2-x,1/2-y,-z
1/2+x,1/2-y,z
loop_
_atom_site_type_symbol
_atom_site_label
_atom_site_fract_x
_atom_site_fract_y
_atom_site_fract_z
Si Si1 0.361752 0.790253 0.780489
Si Si2 0.000000 0.000000 0.500000
Si Si3 0.158447 0.413296 0.774602
Si Si4 0.032650 0.208258 0.855739
Si Si5 0.832734 0.863562 0.267858
Si Si6 0.664044 0.795953 0.639277
Si Si7 0.788634 0.092442 0.371778
O O1 0.250000 0.750000 0.500000
O O2 0.293038 0.854035 0.714526
O O3 0.500000 0.824573 0.000000
O O4 0.422453 0.721248 0.958965
O O5 0.948190 0.929404 0.469417
O O6 0.230655 0.500000 0.917650
O O7 0.152227 0.377289 0.666983
O O8 0.000000 0.420415 0.500000
O O9 0.238530 0.361381 0.999848
O O10 0.928659 0.278635 0.624451
O O11 0.946206 0.128007 0.677280
O O12 0.173280 0.212704 0.070497
O O13 0.883324 0.775725 0.388223
O O14 0.747691 0.890978 0.191303
O O15 0.779513 0.000000 0.372606
#
# Coordination Sequence:
#
# PCOD9221166 Si02
#       7
#     8   2   8   8   8   8   8
#     4  12  23  45  75  99 131 172 219 283 356 428
#     4  12  24  36  66  92 128 182 228 276 326 376
#     4  11  24  38  55  87 133 178 224 277 327 382
#     4  11  22  43  67 100 130 174 221 279 346 409
#     4  11  23  40  61  93 132 176 229 274 325 389
#     4  11  24  38  66  92 133 178 233 277 333 404
#     4  11  24  43  71 103 139 177 224 290 345 408
#
# _framework density 20.233377999999998
#
# number of rings (size 3 to 8) (size 9 to 14) (size 15 to 20)
#    0.000    0.800    6.400    1.440    5.600    0.960 
#    0.000    1.600    0.000    3.840    0.000    0.000 
#    0.000    0.000    0.000    0.000    0.000    0.000 
#
# Total GULP energy -139301.685163 kJ/mol
# GULP energy per Si atom -5572.067407 kJ/mol
# Density = 2.018733 g / cm^3
# Si number density = 20.233378 Si / 1000 Ang^3
#
#
#
# Elastic Constant Matrix: (Units=GPa)
#
#
# Indices 1 2 3 4 5 6 
#
# 1 88.7414 25.8249 22.5001 0.0000 11.0135 0.0000
# 2 25.8249 52.4546 -6.0256 0.0000 3.5283 0.0000
# 3 22.5001 -6.0256 76.9401 0.0000 -2.7629 0.0000
# 4 0.0000 0.0000 0.0000 -3.4121 0.0000 -25.7880
# 5 11.0135 3.5283 -2.7629 0.0000 48.9753 0.0000
# 6 0.0000 0.0000 0.0000 -25.7880 0.0000 -27.9265
#
#
#
# Elastic Compliance Matrix: (Units=1/GPa)
#
#
# Indices 1 2 3 4 5 6 
#
# 1 0.015281 -0.007908 -0.005202 0.000000 -0.003160 0.000000
# 2 -0.007908 0.023413 0.004158 0.000000 0.000326 0.000000
# 3 -0.005202 0.004158 0.014905 0.000000 0.001711 0.000000
# 4 0.000000 0.000000 0.000000 0.049017 0.000000 -0.045263
# 5 -0.003160 0.000326 0.001711 0.000000 0.021202 0.000000
# 6 0.000000 0.000000 0.000000 -0.045263 0.000000 0.005989
#
#
# Mechanical properties :
#
#
# Convention : Reuss Voigt Hill
#
# Bulk Modulus (GPa) = 28.01435 33.63722 30.82579
# Shear Modulus (GPa) = 31.32628 15.24978 23.28803
#
# Velocity S-wave (km/s) = 3.93905 2.74833 3.39628
# Velocity P-wave (km/s) = 5.87910 5.17028 5.53604
#
# Compressibility (1/GPa) = 0.03569599
#
# Stress axis : x y z
#
# Youngs Moduli (GPa) = 65.44003 42.71085 67.09003
#
# Poissons Ratio (x) = 0.33777 0.34898
# Poissons Ratio (y) = 0.51752 -0.27896
# Poissons Ratio (z) = 0.34039 -0.17759
#
# Static dielectric constant tensor:
#      x y z
#    x 1.804860 0.000000 0.102220 
#    y 0.000000 1.756070 0.000000 
#    z 0.102220 0.000000 1.930250 
# 
# From -- ./inp_files/251755.got.cif
#   From: 2010.05.17/outbox.cif.g08.bks.cpg/sg12_126_cif.got.tgz:251755.got - 2010.06.03 13:09:07.
