data_PCOD9221946
_publ_section_title
;
Structure prediction by ZEFSAII (Michael W. Deem and Ramdas Pophale) SiO2 
 PCOD9221946
Probable space group: C 2/M
;
_chemical_formula_sum "Si O2"
_cell_formula_units_Z 64
_cell_length_a 13.487780
_cell_length_b 14.075839
_cell_length_c 25.553577
_cell_angle_alpha 90.000000
_cell_angle_beta 143.043644
_cell_angle_gamma 90.000000
_cell_volume 2916.689076
_symmetry_space_group_name_H-M "C 2/M"
_symmetry_group_IT_number 12
_symmetry_cell_setting 'monoclinic'
loop_
_space_group_symop_operation_xyz
x,y,z
-x,y,-z
-x,-y,-z
x,-y,z
1/2+x,1/2+y,z
1/2-x,1/2+y,-z
1/2-x,1/2-y,-z
1/2+x,1/2-y,z
loop_
_atom_site_type_symbol
_atom_site_label
_atom_site_fract_x
_atom_site_fract_y
_atom_site_fract_z
Si Si1 0.338301 0.884156 0.366914
Si Si2 0.968516 0.392846 0.714763
Si Si3 0.389192 0.615792 0.632663
Si Si4 0.988918 0.738632 0.063034
Si Si5 0.675918 0.116353 0.451223
Si Si6 0.188642 0.104746 0.201018
Si Si7 0.860154 0.269086 0.123256
Si Si8 0.701044 0.387261 0.830361
O O1 0.253586 0.857182 0.385653
O O2 0.520077 0.857881 0.423036
O O3 0.217916 0.850484 0.269992
O O4 0.338610 0.000000 0.366635
O O5 0.917509 0.500000 0.710094
O O6 0.130006 0.403453 0.746798
O O7 0.033743 0.330924 0.790956
O O8 0.842789 0.352480 0.617361
O O9 0.391080 0.500000 0.633302
O O10 0.335533 0.646632 0.552014
O O11 0.569626 0.644430 0.729988
O O12 0.091281 0.830573 0.121167
O O13 0.117314 0.655768 0.102045
O O14 0.913529 0.707984 0.087255
O O15 0.840022 0.774934 0.963639
O O16 0.675712 0.000000 0.448119
O O17 0.116363 0.000000 0.175910
O O18 0.869911 0.159828 0.146761
O O19 0.704766 0.500000 0.834551
#
# Coordination Sequence:
#
# PCOD9221946 Si02
#       8
#     8   8   8   8   8   8   8   8
#     4   8  13  23  46  82 120 152 186 237 295 348
#     4   9  18  34  58  86 117 152 188 236 299 361
#     4   9  16  28  50  81 117 158 201 242 291 353
#     4  11  24  40  61  87 117 154 201 254 307 366
#     4   8  14  26  49  84 120 154 194 243 299 354
#     4   9  17  32  56  84 113 145 182 232 297 356
#     4  11  24  41  61  86 116 156 202 252 308 366
#     4  11  24  42  63  88 123 166 206 250 304 365
#
# _framework density 21.942689000000001
#
# number of rings (size 3 to 8) (size 9 to 14) (size 15 to 20)
#    0.000    2.500    1.250    3.000    0.000    5.000 
#    0.000    4.375    0.000    0.750    0.000    3.500 
#    0.000    0.000    0.000    0.000    0.000    0.000 
#
# Total GULP energy -178280.809951 kJ/mol
# GULP energy per Si atom -5571.275311 kJ/mol
# Density = 2.189275 g / cm^3
# Si number density = 21.942689 Si / 1000 Ang^3
#
#
#
# Elastic Constant Matrix: (Units=GPa)
#
#
# Indices 1 2 3 4 5 6 
#
# 1 31.7794 3.9917 4.4073 0.0000 -2.5610 0.0000
# 2 3.9917 62.4242 25.3463 0.0000 -6.5493 0.0000
# 3 4.4073 25.3463 114.9283 0.0000 -24.9155 0.0001
# 4 0.0000 0.0000 0.0000 32.5775 0.0000 -6.2719
# 5 -2.5610 -6.5493 -24.9155 0.0000 32.2615 0.0000
# 6 0.0000 0.0000 0.0001 -6.2719 0.0000 25.1994
#
#
#
# Elastic Compliance Matrix: (Units=1/GPa)
#
#
# Indices 1 2 3 4 5 6 
#
# 1 0.031887 -0.001660 -0.000458 0.000000 0.001841 0.000000
# 2 -0.001660 0.017694 -0.003710 0.000000 0.000595 0.000000
# 3 -0.000458 -0.003710 0.011249 0.000000 0.007898 0.000000
# 4 0.000000 0.000000 0.000000 0.032241 0.000000 0.008025
# 5 0.001841 0.000595 0.007898 0.000000 0.037363 0.000000
# 6 0.000000 0.000000 0.000000 0.008025 0.000000 0.041681
#
#
# Mechanical properties :
#
#
# Convention : Reuss Voigt Hill
#
# Bulk Modulus (GPa) = 20.33513 30.73584 25.53549
# Shear Modulus (GPa) = 24.97975 29.70012 27.33993
#
# Velocity S-wave (km/s) = 3.37769 3.68303 3.53366
# Velocity P-wave (km/s) = 4.94967 5.66780 5.32087
#
# Compressibility (1/GPa) = 0.04917599
#
# Stress axis : x y z
#
# Youngs Moduli (GPa) = 31.36047 56.51556 88.89683
#
# Poissons Ratio (x) = 0.09382 0.04068
# Poissons Ratio (y) = 0.05206 0.32977
# Poissons Ratio (z) = 0.01435 0.20965
#
# Static dielectric constant tensor:
#      x y z
#    x 1.846980 0.000000 -0.005650 
#    y 0.000000 1.811530 0.000000 
#    z -0.005650 0.000000 1.885000 
# 
# From -- ./inp_files/340173.got.cif
#   From: 2010.05.17/outbox.cif.g08.bks.cpg/sg12_171_cif.got.tgz:340173.got - 2010.06.03 13:09:07.
