data_PCOD9221769
_publ_section_title
;
Structure prediction by ZEFSAII (Michael W. Deem and Ramdas Pophale) SiO2 
 PCOD9221769
Probable space group: C 2/M
;
_chemical_formula_sum "Si O2"
_cell_formula_units_Z 48
_cell_length_a 11.457904
_cell_length_b 17.721800
_cell_length_c 11.710559
_cell_angle_alpha 90.000000
_cell_angle_beta 72.063480
_cell_angle_gamma 90.000000
_cell_volume 2262.314657
_symmetry_space_group_name_H-M "C 2/M"
_symmetry_group_IT_number 12
_symmetry_cell_setting 'monoclinic'
loop_
_space_group_symop_operation_xyz
x,y,z
-x,y,-z
-x,-y,-z
x,-y,z
1/2+x,1/2+y,z
1/2-x,1/2+y,-z
1/2-x,1/2-y,-z
1/2+x,1/2-y,z
loop_
_atom_site_type_symbol
_atom_site_label
_atom_site_fract_x
_atom_site_fract_y
_atom_site_fract_z
Si Si1 0.098614 0.415463 0.671864
Si Si2 0.267899 0.131648 0.160453
Si Si3 0.718954 0.693007 0.792433
Si Si4 0.862629 0.585127 0.904055
Si Si5 0.631167 0.787657 0.476834
Si Si6 0.996023 0.088408 0.862725
O O1 0.093634 0.500000 0.628207
O O2 0.214803 0.403782 0.719864
O O3 0.098668 0.356671 0.569936
O O4 0.985942 0.405030 0.794194
O O5 0.297236 0.220124 0.167867
O O6 0.134003 0.113737 0.150330
O O7 0.361204 0.096242 0.039996
O O8 0.770960 0.647320 0.883538
O O9 0.818419 0.689780 0.661904
O O10 0.597589 0.648409 0.790561
O O11 0.817061 0.500000 0.894816
O O12 0.500000 0.745175 0.500000
O O13 0.750000 0.750000 0.500000
O O14 0.019236 0.000000 0.826478
O O15 0.000000 0.092983 0.000000
#
# Coordination Sequence:
#
# PCOD9221769 Si02
#       6
#     8   8   8   8   8   8
#     4  11  25  44  72 104 138 184 237 290 359 429
#     4  12  25  43  71 104 148 184 232 293 360 430
#     4  12  26  42  73 102 138 183 239 293 348 427
#     4  11  23  43  69 103 144 183 227 287 355 426
#     4  12  27  50  74  99 141 187 241 302 359 421
#     4  11  25  44  68 102 146 187 229 287 360 435
#
# _framework density 21.217206999999998
#
# number of rings (size 3 to 8) (size 9 to 14) (size 15 to 20)
#    0.000    0.500    5.000    3.000    4.667    3.000 
#    0.000    0.000    0.000    2.500    0.000    0.000 
#    0.000    0.000    0.000    0.000    0.000    0.000 
#
# Total GULP energy -134113.681195 kJ/mol
# GULP energy per Si atom -5588.070050 kJ/mol
# Density = 2.116892 g / cm^3
# Si number density = 21.217207 Si / 1000 Ang^3
#
#
#
# Elastic Constant Matrix: (Units=GPa)
#
#
# Indices 1 2 3 4 5 6 
#
# 1 111.8072 27.2267 -6.5328 0.0000 -10.6404 0.0000
# 2 27.2267 122.6093 14.9330 0.0000 -14.9864 0.0000
# 3 -6.5328 14.9330 62.8610 0.0000 -5.5102 0.0000
# 4 0.0000 0.0000 0.0000 -3.3807 0.0000 -39.1405
# 5 -10.6404 -14.9864 -5.5102 0.0000 36.0015 0.0000
# 6 0.0000 0.0000 0.0000 -39.1405 0.0000 -28.1514
#
#
#
# Elastic Compliance Matrix: (Units=1/GPa)
#
#
# Indices 1 2 3 4 5 6 
#
# 1 0.009772 -0.002101 0.001714 0.000000 0.002276 0.000000
# 2 -0.002101 0.009239 -0.002159 0.000000 0.002895 0.000000
# 3 0.001714 -0.002159 0.016790 0.000000 0.002178 0.000000
# 4 0.000000 0.000000 0.000000 0.019593 0.000000 -0.027241
# 5 0.002276 0.002895 0.002178 0.000000 0.029988 0.000000
# 6 0.000000 0.000000 0.000000 -0.027241 0.000000 0.002353
#
#
# Mechanical properties :
#
#
# Convention : Reuss Voigt Hill
#
# Bulk Modulus (GPa) = 32.56283 40.94793 36.75538
# Shear Modulus (GPa) = 48.51373 18.33725 33.42549
#
# Velocity S-wave (km/s) = 4.78695 2.94302 3.97343
# Velocity P-wave (km/s) = 6.77746 5.55786 6.19773
#
# Compressibility (1/GPa) = 0.03070986
#
# Stress axis : x y z
#
# Youngs Moduli (GPa) = 102.33049 108.23377 59.55890
#
# Poissons Ratio (x) = 0.22735 -0.10209
# Poissons Ratio (y) = 0.21495 0.12861
# Poissons Ratio (z) = -0.17541 0.23372
#
# Static dielectric constant tensor:
#      x y z
#    x 1.859060 0.000000 0.004210 
#    y 0.000000 1.750210 0.000000 
#    z 0.004210 0.000000 1.748440 
# 
# From -- ./inp_files/131672.got.cif
#   From: 2010.05.17/outbox.cif.g08.bks.cpg/sg12_66_cif.got.tgz:131672.got - 2010.06.03 13:09:07.
