data_PCOD9221243
_publ_section_title
;
Structure prediction by ZEFSAII (Michael W. Deem and Ramdas Pophale) SiO2 
 PCOD9221243
Probable space group: C 2/M
;
_chemical_formula_sum "Si O2"
_cell_formula_units_Z 56
_cell_length_a 13.960395
_cell_length_b 16.591565
_cell_length_c 17.975658
_cell_angle_alpha 90.000000
_cell_angle_beta 52.555991
_cell_angle_gamma 90.000000
_cell_volume 3305.687825
_symmetry_space_group_name_H-M "C 2/M"
_symmetry_group_IT_number 12
_symmetry_cell_setting 'monoclinic'
loop_
_space_group_symop_operation_xyz
x,y,z
-x,y,-z
-x,-y,-z
x,-y,z
1/2+x,1/2+y,z
1/2-x,1/2+y,-z
1/2-x,1/2-y,-z
1/2+x,1/2-y,z
loop_
_atom_site_type_symbol
_atom_site_label
_atom_site_fract_x
_atom_site_fract_y
_atom_site_fract_z
Si Si1 0.578121 0.901442 0.392831
Si Si2 0.461210 0.903476 0.753681
Si Si3 0.805958 0.906446 0.086081
Si Si4 0.305659 0.905789 0.076836
Si Si5 0.582241 0.321646 0.105703
Si Si6 0.020030 0.644550 0.875993
Si Si7 0.649985 0.593121 0.759347
O O1 0.500000 0.874842 0.500000
O O2 0.524284 0.875633 0.338104
O O3 0.718973 0.876800 0.328884
O O4 0.579402 0.000000 0.392351
O O5 0.330450 0.873898 0.844579
O O6 0.550859 0.881674 0.777442
O O7 0.452336 0.000000 0.753962
O O8 0.847700 0.904133 0.151582
O O9 0.803376 0.000000 0.063880
O O10 0.886243 0.861405 0.988799
O O11 0.200752 0.846115 0.097215
O O12 0.368706 0.868237 0.120489
O O13 0.267544 0.000000 0.105468
O O14 0.411883 0.906497 0.964679
O O15 0.536936 0.233055 0.105482
O O16 0.469565 0.359179 0.203571
O O17 0.638671 0.500000 0.742328
#
# Coordination Sequence:
#
# PCOD9221243 Si02
#       7
#     8   8   8   8   8   8   8
#     4   8  15  29  52  80 100 118 156 212 266 315
#     4   9  16  30  50  69  97 133 169 206 255 311
#     4   9  17  28  45  68 100 137 166 198 248 308
#     4  11  23  37  50  67 102 150 186 210 245 300
#     4  12  22  31  49  72 102 135 179 220 248 292
#     4  11  23  33  48  71 100 140 181 221 245 292
#     4   9  18  29  46  72 103 135 164 205 264 321
#
# _framework density 16.940498999999999
#
# number of rings (size 3 to 8) (size 9 to 14) (size 15 to 20)
#    0.000    2.143    1.429    5.571    4.000    2.286 
#    0.000    0.000    0.000    0.857    0.000    1.000 
#    0.000    5.714    0.000    0.000    0.000    0.286 
#
# Total GULP energy -155919.984849 kJ/mol
# GULP energy per Si atom -5568.570887 kJ/mol
# Density = 1.690194 g / cm^3
# Si number density = 16.940499 Si / 1000 Ang^3
#
#
#
# Elastic Constant Matrix: (Units=GPa)
#
#
# Indices 1 2 3 4 5 6 
#
# 1 74.9328 17.3854 35.7777 0.0000 -1.1912 0.0000
# 2 17.3854 57.0271 19.7437 0.0000 -1.8675 0.0000
# 3 35.7777 19.7437 111.2896 0.0000 4.6096 0.0000
# 4 0.0000 0.0000 0.0000 4.4716 0.0000 -2.0778
# 5 -1.1912 -1.8675 4.6096 0.0000 16.4044 0.0000
# 6 0.0000 0.0000 0.0000 -2.0778 0.0000 15.9509
#
#
#
# Elastic Compliance Matrix: (Units=1/GPa)
#
#
# Indices 1 2 3 4 5 6 
#
# 1 0.016427 -0.003279 -0.004789 0.000000 0.002165 0.000000
# 2 -0.003279 0.019494 -0.002516 0.000000 0.002688 0.000000
# 3 -0.004789 -0.002516 0.011127 0.000000 -0.003761 0.000000
# 4 0.000000 0.000000 0.000000 0.238043 0.000000 0.031008
# 5 0.002165 0.002688 -0.003761 0.000000 0.062479 0.000000
# 6 0.000000 0.000000 0.000000 0.031008 0.000000 0.066732
#
#
# Mechanical properties :
#
#
# Convention : Reuss Voigt Hill
#
# Bulk Modulus (GPa) = 38.63814 43.22923 40.93369
# Shear Modulus (GPa) = 11.25880 18.72155 14.99018
#
# Velocity S-wave (km/s) = 2.58080 3.32796 2.97791
# Velocity P-wave (km/s) = 5.63368 6.35144 6.00330
#
# Compressibility (1/GPa) = 0.02588116
#
# Stress axis : x y z
#
# Youngs Moduli (GPa) = 60.87513 51.29743 89.86988
#
# Poissons Ratio (x) = 0.16821 0.43039
# Poissons Ratio (y) = 0.19961 0.22608
# Poissons Ratio (z) = 0.29153 0.12904
#
# Static dielectric constant tensor:
#      x y z
#    x 1.660300 0.000000 0.007480 
#    y 0.000000 1.618120 0.000000 
#    z 0.007480 0.000000 1.546310 
# 
# From -- ./inp_files/270188.got.cif
#   From: 2010.05.17/outbox.cif.g08.bks.cpg/sg12_136_cif.got.tgz:270188.got - 2010.06.03 13:09:07.
