data_PCOD9221827
_publ_section_title
;
Structure prediction by ZEFSAII (Michael W. Deem and Ramdas Pophale) SiO2 
 PCOD9221827
Probable space group: C 2/M
;
_chemical_formula_sum "Si O2"
_cell_formula_units_Z 48
_cell_length_a 9.825870
_cell_length_b 22.321973
_cell_length_c 11.624395
_cell_angle_alpha 90.000000
_cell_angle_beta 111.922969
_cell_angle_gamma 90.000000
_cell_volume 2365.240247
_symmetry_space_group_name_H-M "C 2/M"
_symmetry_group_IT_number 12
_symmetry_cell_setting 'monoclinic'
loop_
_space_group_symop_operation_xyz
x,y,z
-x,y,-z
-x,-y,-z
x,-y,z
1/2+x,1/2+y,z
1/2-x,1/2+y,-z
1/2-x,1/2-y,-z
1/2+x,1/2-y,z
loop_
_atom_site_type_symbol
_atom_site_label
_atom_site_fract_x
_atom_site_fract_y
_atom_site_fract_z
Si Si1 0.374688 0.428413 0.167956
Si Si2 0.647363 0.068274 0.892166
Si Si3 0.142283 0.358427 0.228692
Si Si4 0.663883 0.737941 0.089260
Si Si5 0.844508 0.689637 0.510941
Si Si6 0.699020 0.375126 0.257212
O O1 0.395520 0.500000 0.183363
O O2 0.276811 0.402173 0.240500
O O3 0.530235 0.395316 0.209998
O O4 0.277481 0.416548 0.022533
O O5 0.507615 0.110630 0.859921
O O6 0.710277 0.075007 0.783288
O O7 0.602751 0.000000 0.901160
O O8 0.165925 0.297440 0.166236
O O9 0.130777 0.341440 0.358439
O O10 0.720327 0.683360 0.183550
O O11 0.500000 0.723191 0.000000
O O12 0.750000 0.750000 0.000000
O O13 0.750000 0.750000 0.500000
O O14 0.759714 0.644179 0.399688
O O15 0.000000 0.704305 0.500000
#
# Coordination Sequence:
#
# PCOD9221827 Si02
#       6
#     8   8   8   8   8   8
#     4  11  25  44  70 103 138 184 230 285 350 406
#     4  11  23  44  70  99 140 183 226 284 345 408
#     4  12  24  44  69 101 140 179 234 278 346 411
#     4  12  24  37  64 101 135 167 214 283 348 402
#     4  12  28  48  70  99 139 189 227 280 348 414
#     4  12  24  44  68 100 139 178 234 280 344 411
#
# _framework density 20.293922999999999
#
# number of rings (size 3 to 8) (size 9 to 14) (size 15 to 20)
#    0.000    0.333    3.333    7.000    2.333    2.667 
#    0.000    5.000    0.000    0.000    0.000    0.000 
#    0.000    0.000    0.000    0.000    0.000    0.000 
#
# Total GULP energy -134398.937026 kJ/mol
# GULP energy per Si atom -5599.955709 kJ/mol
# Density = 2.024773 g / cm^3
# Si number density = 20.293923 Si / 1000 Ang^3
#
#
#
# Elastic Constant Matrix: (Units=GPa)
#
#
# Indices 1 2 3 4 5 6 
#
# 1 135.0997 46.6948 41.5020 0.0000 -7.6709 0.0000
# 2 46.6948 104.2248 51.8840 0.0000 5.0119 0.0000
# 3 41.5020 51.8840 128.5523 0.0000 -17.8106 0.0000
# 4 0.0000 0.0000 0.0000 18.9406 0.0000 15.0303
# 5 -7.6709 5.0119 -17.8106 0.0000 31.5232 0.0000
# 6 0.0000 0.0000 0.0000 15.0303 0.0000 -36.2261
#
#
#
# Elastic Compliance Matrix: (Units=1/GPa)
#
#
# Indices 1 2 3 4 5 6 
#
# 1 0.009134 -0.003594 -0.001206 0.000000 0.002113 0.000000
# 2 -0.003594 0.014208 -0.005434 0.000000 -0.006203 0.000000
# 3 -0.001206 -0.005434 0.011327 0.000000 0.006970 0.000000
# 4 0.000000 0.000000 0.000000 0.039719 0.000000 0.016480
# 5 0.002113 -0.006203 0.006970 0.000000 0.037161 0.000000
# 6 0.000000 0.000000 0.000000 0.016480 0.000000 -0.020767
#
#
# Mechanical properties :
#
#
# Convention : Reuss Voigt Hill
#
# Bulk Modulus (GPa) = 70.40774 72.00428 71.20601
# Shear Modulus (GPa) = 43.10960 18.03394 30.57177
#
# Velocity S-wave (km/s) = 4.61397 2.98424 3.88551
# Velocity P-wave (km/s) = 7.94697 6.88709 7.43593
#
# Compressibility (1/GPa) = 0.01420298
#
# Stress axis : x y z
#
# Youngs Moduli (GPa) = 109.47573 70.38329 88.28519
#
# Poissons Ratio (x) = 0.25294 0.10645
# Poissons Ratio (y) = 0.39343 0.47971
# Poissons Ratio (z) = 0.13200 0.38243
#
# Static dielectric constant tensor:
#      x y z
#    x 1.708090 0.000000 -0.006800 
#    y 0.000000 1.732750 0.000000 
#    z -0.006800 0.000000 1.700160 
# 
# From -- ./inp_files/122570.got.cif
#   From: 2010.05.17/outbox.cif.g08.bks.cpg/sg12_62_cif.got.tgz:122570.got - 2010.06.03 13:09:07.
