data_PCOD9221977
_publ_section_title
;
Structure prediction by ZEFSAII (Michael W. Deem and Ramdas Pophale) SiO2 
 PCOD9221977
Probable space group: C 2/M
;
_chemical_formula_sum "Si O2"
_cell_formula_units_Z 44
_cell_length_a 9.278919
_cell_length_b 17.407488
_cell_length_c 15.505186
_cell_angle_alpha 90.000000
_cell_angle_beta 106.852849
_cell_angle_gamma 90.000000
_cell_volume 2396.879639
_symmetry_space_group_name_H-M "C 2/M"
_symmetry_group_IT_number 12
_symmetry_cell_setting 'monoclinic'
loop_
_space_group_symop_operation_xyz
x,y,z
-x,y,-z
-x,-y,-z
x,-y,z
1/2+x,1/2+y,z
1/2-x,1/2+y,-z
1/2-x,1/2-y,-z
1/2+x,1/2-y,z
loop_
_atom_site_type_symbol
_atom_site_label
_atom_site_fract_x
_atom_site_fract_y
_atom_site_fract_z
Si Si1 0.852655 0.304436 0.331419
Si Si2 0.849198 0.910798 0.203015
Si Si3 0.097752 0.786076 0.936692
Si Si4 0.500000 0.697133 0.500000
Si Si5 0.368627 0.589357 0.617769
Si Si6 0.095861 0.310039 0.224670
O O1 0.776425 0.380559 0.356003
O O2 0.719768 0.256384 0.262477
O O3 0.909798 0.251170 0.419084
O O4 0.988277 0.317773 0.288635
O O5 0.873623 0.853172 0.127555
O O6 0.693143 0.884955 0.220036
O O7 0.985305 0.899672 0.295029
O O8 0.847799 0.000000 0.177629
O O9 0.005765 0.719169 0.871735
O O10 0.250000 0.750000 0.000000
O O11 0.000000 0.815097 0.000000
O O12 0.393887 0.642558 0.538976
O O13 0.358365 0.500000 0.593450
#
# Coordination Sequence:
#
# PCOD9221977 Si02
#       6
#     8   8   8   4   8   8
#     4  12  22  38  67  91 122 162 216 249 300 370
#     4  11  24  43  64  93 128 164 203 256 318 367
#     4  12  22  38  68  94 118 161 207 255 303 369
#     4  12  21  38  67  92 120 168 214 252 297 376
#     4  11  24  41  62  92 129 163 205 259 313 362
#     4  12  21  42  63  91 124 164 206 251 309 371
#
# _framework density 18.357202000000001
#
# number of rings (size 3 to 8) (size 9 to 14) (size 15 to 20)
#    0.000    0.364    9.091    0.818    0.000    1.091 
#    0.000    2.273    0.000    0.000    0.000    0.000 
#    0.000    0.000    0.000    0.000    0.000    0.000 
#
# Total GULP energy -122989.599493 kJ/mol
# GULP energy per Si atom -5590.436341 kJ/mol
# Density = 1.831542 g / cm^3
# Si number density = 18.357202 Si / 1000 Ang^3
#
#
#
# Elastic Constant Matrix: (Units=GPa)
#
#
# Indices 1 2 3 4 5 6 
#
# 1 126.5383 43.3830 42.8869 0.0000 -27.2927 0.0000
# 2 43.3830 82.3310 30.8600 0.0000 -3.9675 0.0000
# 3 42.8869 30.8600 85.8023 0.0000 -10.6694 0.0000
# 4 0.0000 0.0000 0.0000 10.5546 0.0000 2.7796
# 5 -27.2927 -3.9675 -10.6694 0.0000 35.4385 0.0000
# 6 0.0000 0.0000 0.0000 2.7796 0.0000 27.8306
#
#
#
# Elastic Compliance Matrix: (Units=1/GPa)
#
#
# Indices 1 2 3 4 5 6 
#
# 1 0.012491 -0.004888 -0.003488 0.000000 0.008023 0.000000
# 2 -0.004888 0.015952 -0.003678 0.000000 -0.003086 0.000000
# 3 -0.003488 -0.003678 0.014893 0.000000 0.001386 0.000000
# 4 0.000000 0.000000 0.000000 0.097304 0.000000 -0.009718
# 5 0.008023 -0.003086 0.001386 0.000000 0.034468 0.000000
# 6 0.000000 0.000000 0.000000 -0.009718 0.000000 0.036902
#
#
# Mechanical properties :
#
#
# Convention : Reuss Voigt Hill
#
# Bulk Modulus (GPa) = 52.00583 58.77016 55.38799
# Shear Modulus (GPa) = 20.61624 26.60086 23.60855
#
# Velocity S-wave (km/s) = 3.35484 3.81079 3.59007
# Velocity P-wave (km/s) = 6.58772 7.17267 6.88641
#
# Compressibility (1/GPa) = 0.01922861
#
# Stress axis : x y z
#
# Youngs Moduli (GPa) = 80.05725 62.68980 67.14511
#
# Poissons Ratio (x) = 0.30643 0.23419
# Poissons Ratio (y) = 0.39132 0.24694
# Poissons Ratio (z) = 0.27923 0.23056
#
# Static dielectric constant tensor:
#      x y z
#    x 1.644160 0.000000 -0.003880 
#    y 0.000000 1.603760 0.000000 
#    z -0.003880 0.000000 1.638380 
# 
# From -- ./inp_files/195451.got.cif
#   From: 2010.05.17/outbox.cif.g08.bks.cpg/sg12_98_cif.got.tgz:195451.got - 2010.06.03 13:09:07.
