data_PCOD9221285
_publ_section_title
;
Structure prediction by ZEFSAII (Michael W. Deem and Ramdas Pophale) SiO2 
 PCOD9221285
Probable space group: C 2/M
;
_chemical_formula_sum "Si O2"
_cell_formula_units_Z 48
_cell_length_a 24.227514
_cell_length_b 15.070910
_cell_length_c 6.345500
_cell_angle_alpha 90.000000
_cell_angle_beta 106.271897
_cell_angle_gamma 90.000000
_cell_volume 2224.126845
_symmetry_space_group_name_H-M "C 2/M"
_symmetry_group_IT_number 12
_symmetry_cell_setting 'monoclinic'
loop_
_space_group_symop_operation_xyz
x,y,z
-x,y,-z
-x,-y,-z
x,-y,z
1/2+x,1/2+y,z
1/2-x,1/2+y,-z
1/2-x,1/2-y,-z
1/2+x,1/2-y,z
loop_
_atom_site_type_symbol
_atom_site_label
_atom_site_fract_x
_atom_site_fract_y
_atom_site_fract_z
Si Si1 0.049862 0.094545 0.727218
Si Si2 0.674363 0.405895 0.651988
Si Si3 0.877687 0.398407 0.911410
Si Si4 0.733968 0.147421 0.935013
Si Si5 0.947439 0.711413 0.282243
Si Si6 0.661642 0.786327 0.521624
O O1 0.109029 0.093169 0.660725
O O2 0.046243 0.192274 0.824801
O O3 0.000000 0.094567 0.500000
O O4 0.046692 0.000000 0.844420
O O5 0.687280 0.500000 0.556999
O O6 0.682755 0.315582 0.529082
O O7 0.711855 0.400920 0.906298
O O8 0.883768 0.500000 0.847857
O O9 0.864537 0.329705 0.711790
O O10 0.820861 0.389033 0.995685
O O11 0.933181 0.364962 0.100383
O O12 0.712083 0.151978 0.671916
O O13 0.750000 0.250000 0.000000
O O14 0.889673 0.716372 0.361995
O O15 0.000000 0.696666 0.500000
#
# Coordination Sequence:
#
# PCOD9221285 Si02
#       6
#     8   8   8   8   8   8
#     4   8  14  28  53  81 106 135 171 215 272 329
#     4   9  16  29  52  79 107 140 178 220 267 324
#     4  11  23  37  55  80 110 145 185 227 274 327
#     4   9  19  36  56  77 106 142 179 223 272 324
#     4   9  19  37  58  80 109 144 184 230 275 325
#     4   9  20  36  54  78 111 146 179 226 280 325
#
# _framework density 21.581503999999999
#
# number of rings (size 3 to 8) (size 9 to 14) (size 15 to 20)
#    0.000    2.833    0.000    1.500    0.000    7.000 
#    0.000    1.667    0.000    9.000    0.000   11.667 
#    0.000    0.000    0.000    0.000    0.000    0.000 
#
# Total GULP energy -133648.613616 kJ/mol
# GULP energy per Si atom -5568.692234 kJ/mol
# Density = 2.153238 g / cm^3
# Si number density = 21.581504 Si / 1000 Ang^3
#
#
#
# Elastic Constant Matrix: (Units=GPa)
#
#
# Indices 1 2 3 4 5 6 
#
# 1 62.2080 12.8630 21.7299 0.0000 24.9348 0.0000
# 2 12.8630 156.5012 57.9839 0.0000 13.9557 0.0000
# 3 21.7299 57.9839 85.5527 0.0000 27.2723 0.0000
# 4 0.0000 0.0000 0.0000 35.3691 0.0000 22.7150
# 5 24.9348 13.9557 27.2723 0.0000 31.6145 0.0000
# 6 0.0000 0.0000 0.0000 22.7150 0.0000 38.8580
#
#
#
# Elastic Compliance Matrix: (Units=1/GPa)
#
#
# Indices 1 2 3 4 5 6 
#
# 1 0.023520 -0.000342 0.000170 0.000000 -0.018547 0.000000
# 2 -0.000342 0.008603 -0.006371 0.000000 0.001969 0.000000
# 3 0.000170 -0.006371 0.020841 0.000000 -0.015300 0.000000
# 4 0.000000 0.000000 0.000000 0.045268 0.000000 -0.026462
# 5 -0.018547 0.001969 -0.015300 0.000000 0.058589 0.000000
# 6 0.000000 0.000000 0.000000 -0.026462 0.000000 0.041204
#
#
# Mechanical properties :
#
#
# Convention : Reuss Voigt Hill
#
# Bulk Modulus (GPa) = 25.07676 54.37951 39.72814
# Shear Modulus (GPa) = 22.28124 35.28065 28.78095
#
# Velocity S-wave (km/s) = 3.21662 4.04761 3.65580
# Velocity P-wave (km/s) = 5.04384 6.86266 6.02231
#
# Compressibility (1/GPa) = 0.03987756
#
# Stress axis : x y z
#
# Youngs Moduli (GPa) = 42.51620 116.24020 47.98228
#
# Poissons Ratio (x) = 0.03980 -0.00817
# Poissons Ratio (y) = 0.01456 0.30571
# Poissons Ratio (z) = -0.00724 0.74060
#
# Static dielectric constant tensor:
#      x y z
#    x 1.788330 0.000000 0.003630 
#    y 0.000000 1.865340 0.000000 
#    z 0.003630 0.000000 1.782910 
# 
# From -- ./inp_files/31597.got.cif
#   From: 2010.05.17/outbox.cif.g08.bks.cpg/sg12_16_cif.got.tgz:31597.got - 2010.06.03 13:09:07.
