data_PCOD9221324
_publ_section_title
;
Structure prediction by ZEFSAII (Michael W. Deem and Ramdas Pophale) SiO2 
 PCOD9221324
Probable space group: C 2/M
;
_chemical_formula_sum "Si O2"
_cell_formula_units_Z 48
_cell_length_a 25.424012
_cell_length_b 7.932125
_cell_length_c 9.654527
_cell_angle_alpha 90.000000
_cell_angle_beta 100.826531
_cell_angle_gamma 90.000000
_cell_volume 1912.338342
_symmetry_space_group_name_H-M "C 2/M"
_symmetry_group_IT_number 12
_symmetry_cell_setting 'monoclinic'
loop_
_space_group_symop_operation_xyz
x,y,z
-x,y,-z
-x,-y,-z
x,-y,z
1/2+x,1/2+y,z
1/2-x,1/2+y,-z
1/2-x,1/2-y,-z
1/2+x,1/2-y,z
loop_
_atom_site_type_symbol
_atom_site_label
_atom_site_fract_x
_atom_site_fract_y
_atom_site_fract_z
Si Si1 0.511991 0.306883 0.852677
Si Si2 0.773552 0.799953 0.229241
Si Si3 0.170577 0.704398 0.008678
Si Si4 0.943744 0.697356 0.403241
Si Si5 0.338745 0.304331 0.507113
Si Si6 0.400959 0.804455 0.788346
O O1 0.529205 0.500000 0.875524
O O2 0.548800 0.216515 0.758450
O O3 0.451466 0.299543 0.762364
O O4 0.500000 0.233203 0.000000
O O5 0.721004 0.732724 0.126122
O O6 0.791941 0.731252 0.386322
O O7 0.766339 0.000000 0.242359
O O8 0.820479 0.770499 0.140088
O O9 0.171846 0.500000 0.005094
O O10 0.118781 0.753634 0.070624
O O11 0.936653 0.500000 0.434288
O O12 0.892719 0.790474 0.440829
O O13 0.000000 0.753078 0.500000
O O14 0.328414 0.500000 0.532347
O O15 0.352418 0.212502 0.656312
O O16 0.416414 0.000000 0.800793
#
# Coordination Sequence:
#
# PCOD9221324 Si02
#       6
#     8   8   8   8   8   8
#     4  11  25  42  61  87 118 154 195 239 290 346
#     4   9  20  39  61  87 117 151 194 238 288 348
#     4   9  20  39  61  86 118 153 191 239 290 344
#     4  11  23  40  62  87 117 155 195 238 288 345
#     4  11  23  38  60  88 118 155 196 241 290 343
#     4  11  23  39  59  87 119 154 195 241 290 344
#
# _framework density 25.100159999999999
#
# number of rings (size 3 to 8) (size 9 to 14) (size 15 to 20)
#    0.000    1.667    1.667    2.000    2.333    5.333 
#    0.000    0.000    0.000    0.000    0.000    0.000 
#    0.000    0.000    0.000    0.000    0.000    0.000 
#
# Total GULP energy -134295.643047 kJ/mol
# GULP energy per Si atom -5595.651794 kJ/mol
# Density = 2.504303 g / cm^3
# Si number density = 25.100160 Si / 1000 Ang^3
#
#
#
# Elastic Constant Matrix: (Units=GPa)
#
#
# Indices 1 2 3 4 5 6 
#
# 1 42.7478 1.1086 6.0056 0.0000 -5.8581 0.0000
# 2 1.1086 53.9234 -6.5068 0.0000 5.5378 0.0000
# 3 6.0056 -6.5068 116.5861 0.0000 -2.6449 0.0000
# 4 0.0000 0.0000 0.0000 26.2299 0.0000 4.8321
# 5 -5.8581 5.5378 -2.6449 0.0000 47.7064 0.0000
# 6 0.0000 0.0000 0.0000 4.8321 0.0000 13.9361
#
#
#
# Elastic Compliance Matrix: (Units=1/GPa)
#
#
# Indices 1 2 3 4 5 6 
#
# 1 0.023999 -0.000948 -0.001221 0.000000 0.002989 0.000000
# 2 -0.000948 0.018923 0.001054 0.000000 -0.002255 0.000000
# 3 -0.001221 0.001054 0.008704 0.000000 0.000210 0.000000
# 4 0.000000 0.000000 0.000000 0.040726 0.000000 -0.014121
# 5 0.002989 -0.002255 0.000210 0.000000 0.021602 0.000000
# 6 0.000000 0.000000 0.000000 -0.014121 0.000000 0.076652
#
#
# Mechanical properties :
#
#
# Convention : Reuss Voigt Hill
#
# Bulk Modulus (GPa) = 20.24491 23.83023 22.03757
# Shear Modulus (GPa) = 23.88899 31.75113 27.82006
#
# Velocity S-wave (km/s) = 3.08839 3.56051 3.33282
# Velocity P-wave (km/s) = 4.56077 5.13981 4.85893
#
# Compressibility (1/GPa) = 0.04939512
#
# Stress axis : x y z
#
# Youngs Moduli (GPa) = 41.66869 52.84570 114.89175
#
# Poissons Ratio (x) = 0.05009 0.14032
# Poissons Ratio (y) = 0.03949 -0.12107
# Poissons Ratio (z) = 0.05089 -0.05569
#
# Static dielectric constant tensor:
#      x y z
#    x 2.047300 0.000000 0.071660 
#    y 0.000000 1.857730 0.000000 
#    z 0.071660 0.000000 2.025100 
# 
# From -- ./inp_files/108751.got.cif
#   From: 2010.05.17/outbox.cif.g08.bks.cpg/sg12_55_cif.got.tgz:108751.got - 2010.06.03 13:09:07.
