data_PCOD9221660
_publ_section_title
;
Structure prediction by ZEFSAII (Michael W. Deem and Ramdas Pophale) SiO2 
 PCOD9221660
Probable space group: C 2/M
;
_chemical_formula_sum "Si O2"
_cell_formula_units_Z 52
_cell_length_a 17.152025
_cell_length_b 30.426202
_cell_length_c 5.655070
_cell_angle_alpha 90.000000
_cell_angle_beta 59.609527
_cell_angle_gamma 90.000000
_cell_volume 2545.713210
_symmetry_space_group_name_H-M "C 2/M"
_symmetry_group_IT_number 12
_symmetry_cell_setting 'monoclinic'
loop_
_space_group_symop_operation_xyz
x,y,z
-x,y,-z
-x,-y,-z
x,-y,z
1/2+x,1/2+y,z
1/2-x,1/2+y,-z
1/2-x,1/2-y,-z
1/2+x,1/2-y,z
loop_
_atom_site_type_symbol
_atom_site_label
_atom_site_fract_x
_atom_site_fract_y
_atom_site_fract_z
Si Si1 0.779434 0.793608 0.323102
Si Si2 0.185527 0.136541 0.362749
Si Si3 0.444980 0.749402 0.861675
Si Si4 0.791647 0.450410 0.318086
Si Si5 0.500000 0.669804 0.500000
Si Si6 0.857564 0.666219 0.784818
Si Si7 0.602629 0.933480 0.340346
O O1 0.750000 0.750000 0.500000
O O2 0.827906 0.831263 0.396230
O O3 0.688792 0.816486 0.379176
O O4 0.847784 0.774417 0.026195
O O5 0.217716 0.088366 0.397787
O O6 0.091195 0.140741 0.364282
O O7 0.271528 0.157044 0.090319
O O8 0.504879 0.707453 0.694182
O O9 0.421051 0.794269 0.766096
O O10 0.500000 0.765954 0.000000
O O11 0.754364 0.500000 0.388439
O O12 0.846657 0.443413 0.484576
O O13 0.849329 0.448073 0.981447
O O14 0.900450 0.619230 0.678218
O O15 0.500000 0.950260 0.500000
#
# Coordination Sequence:
#
# PCOD9221660 Si02
#       7
#     8   8   8   8   4   8   8
#     4  12  21  38  60  85 120 174 222 262 323 390
#     4  11  23  42  65  90 127 172 221 276 342 398
#     4  12  25  35  57  92 128 177 225 271 317 385
#     4  11  25  47  73 100 132 177 226 283 352 414
#     4  12  24  40  59  94 126 170 223 276 326 394
#     4  11  24  39  58  88 133 175 217 265 322 398
#     4  11  25  43  70 103 139 176 220 277 337 403
#
# _framework density 20.426497000000001
#
# number of rings (size 3 to 8) (size 9 to 14) (size 15 to 20)
#    0.000    0.615    6.154    2.308    1.077    4.308 
#    0.000    0.385    0.000    0.000    0.000    4.308 
#    0.000    0.000    0.000    0.000    0.000    0.000 
#
# Total GULP energy -144791.892452 kJ/mol
# GULP energy per Si atom -5568.918940 kJ/mol
# Density = 2.038001 g / cm^3
# Si number density = 20.426497 Si / 1000 Ang^3
#
#
#
# Elastic Constant Matrix: (Units=GPa)
#
#
# Indices 1 2 3 4 5 6 
#
# 1 133.4729 58.7396 28.5304 0.0000 2.0156 0.0000
# 2 58.7396 179.6025 33.2188 0.0000 -9.8094 0.0000
# 3 28.5304 33.2188 58.9616 0.0000 2.2044 0.0000
# 4 0.0000 0.0000 0.0000 2.8446 0.0000 45.0111
# 5 2.0156 -9.8094 2.2044 0.0000 25.2978 0.0000
# 6 0.0000 0.0000 0.0000 45.0111 0.0000 -68.4480
#
#
#
# Elastic Compliance Matrix: (Units=1/GPa)
#
#
# Indices 1 2 3 4 5 6 
#
# 1 0.009282 -0.002563 -0.002992 0.000000 -0.001472 0.000000
# 2 -0.002563 0.007116 -0.002889 0.000000 0.003215 0.000000
# 3 -0.002992 -0.002889 0.020135 0.000000 -0.002636 0.000000
# 4 0.000000 0.000000 0.000000 0.030823 0.000000 0.020269
# 5 -0.001472 0.003215 -0.002636 0.000000 0.041123 0.000000
# 6 0.000000 0.000000 0.000000 0.020269 0.000000 -0.001281
#
#
# Mechanical properties :
#
#
# Convention : Reuss Voigt Hill
#
# Bulk Modulus (GPa) = 50.90726 68.11273 59.50999
# Shear Modulus (GPa) = 38.27497 8.70875 23.49186
#
# Velocity S-wave (km/s) = 4.33343 2.06705 3.39494
# Velocity P-wave (km/s) = 7.07208 6.25417 6.67566
#
# Compressibility (1/GPa) = 0.01964357
#
# Stress axis : x y z
#
# Youngs Moduli (GPa) = 107.73762 140.52910 49.66575
#
# Poissons Ratio (x) = 0.36012 0.14862
# Poissons Ratio (y) = 0.27609 0.14350
# Poissons Ratio (z) = 0.32240 0.40604
#
# Static dielectric constant tensor:
#      x y z
#    x 1.942300 0.000000 -0.087260 
#    y 0.000000 1.682840 0.000000 
#    z -0.087260 0.000000 1.828630 
# 
# From -- ./inp_files/17584.got.cif
#   From: 2010.05.17/outbox.cif.g08.bks.cpg/sg12_9_cif.got.tgz:17584.got - 2010.06.03 13:09:07.
