data_PCOD9221975
_publ_section_title
;
Structure prediction by ZEFSAII (Michael W. Deem and Ramdas Pophale) SiO2 
 PCOD9221975
Probable space group: C 2/M
;
_chemical_formula_sum "Si O2"
_cell_formula_units_Z 44
_cell_length_a 9.347154
_cell_length_b 16.654667
_cell_length_c 22.937402
_cell_angle_alpha 90.000000
_cell_angle_beta 139.838865
_cell_angle_gamma 90.000000
_cell_volume 2302.918208
_symmetry_space_group_name_H-M "C 2/M"
_symmetry_group_IT_number 12
_symmetry_cell_setting 'monoclinic'
loop_
_space_group_symop_operation_xyz
x,y,z
-x,y,-z
-x,-y,-z
x,-y,z
1/2+x,1/2+y,z
1/2-x,1/2+y,-z
1/2-x,1/2-y,-z
1/2+x,1/2-y,z
loop_
_atom_site_type_symbol
_atom_site_label
_atom_site_fract_x
_atom_site_fract_y
_atom_site_fract_z
Si Si1 0.260356 0.746269 0.934464
Si Si2 0.392594 0.310349 0.657527
Si Si3 0.500000 0.708787 0.500000
Si Si4 0.653077 0.092491 0.824862
Si Si5 0.872982 0.909142 0.355868
Si Si6 0.214065 0.184790 0.243163
O O1 0.253116 0.659328 0.899836
O O2 0.040335 0.789905 0.844425
O O3 0.500000 0.785331 0.000000
O O4 0.250000 0.750000 0.000000
O O5 0.213825 0.265252 0.561759
O O6 0.479752 0.390851 0.654848
O O7 0.610645 0.252329 0.724781
O O8 0.276396 0.323797 0.683946
O O9 0.551939 0.652506 0.571199
O O10 0.386072 0.103675 0.740070
O O11 0.735906 0.111565 0.784921
O O12 0.700889 0.000000 0.855675
O O13 0.898859 0.000000 0.384314
#
# Coordination Sequence:
#
# PCOD9221975 Si02
#       6
#     8   8   4   8   8   8
#     4  12  22  38  67  94 118 161 208 258 303 370
#     4  12  22  38  67  90 124 164 215 257 301 373
#     4  12  21  38  67  92 120 170 218 258 295 376
#     4  11  24  43  65  93 129 167 203 257 321 373
#     4  11  24  41  62  91 129 166 206 261 319 365
#     4  12  21  42  63  91 125 163 210 252 314 377
#
# _framework density 19.106193000000001
#
# number of rings (size 3 to 8) (size 9 to 14) (size 15 to 20)
#    0.000    0.364    9.091    0.818    0.000    1.091 
#    0.000    0.455    0.000    1.091    0.000    0.000 
#    0.000    0.000    0.000    0.000    0.000    0.000 
#
# Total GULP energy -122705.829182 kJ/mol
# GULP energy per Si atom -5577.537690 kJ/mol
# Density = 1.906271 g / cm^3
# Si number density = 19.106193 Si / 1000 Ang^3
#
#
#
# Elastic Constant Matrix: (Units=GPa)
#
#
# Indices 1 2 3 4 5 6 
#
# 1 114.3555 14.7921 10.8294 0.0001 0.4628 0.0000
# 2 14.7921 59.2655 21.6925 0.0000 10.9414 0.0000
# 3 10.8294 21.6925 82.4828 0.0003 16.1702 0.0001
# 4 0.0001 0.0000 0.0003 -23.0732 0.0001 -17.2462
# 5 0.4628 10.9414 16.1702 0.0001 35.8377 0.0000
# 6 0.0000 0.0000 0.0001 -17.2462 0.0000 21.3042
#
#
#
# Elastic Compliance Matrix: (Units=1/GPa)
#
#
# Indices 1 2 3 4 5 6 
#
# 1 0.009094 -0.002141 -0.000808 0.000000 0.000900 0.000000
# 2 -0.002141 0.019664 -0.004080 0.000000 -0.004135 0.000000
# 3 -0.000808 -0.004080 0.014324 0.000000 -0.005207 0.000000
# 4 0.000000 0.000000 0.000000 -0.027002 0.000000 -0.021859
# 5 0.000900 -0.004135 -0.005207 0.000000 0.031504 0.000000
# 6 0.000000 0.000000 0.000000 -0.021859 0.000000 0.029244
#
#
# Mechanical properties :
#
#
# Convention : Reuss Voigt Hill
#
# Bulk Modulus (GPa) = 34.45175 38.97019 36.71097
# Shear Modulus (GPa) = 49.72188 20.73306 35.22747
#
# Velocity S-wave (km/s) = 5.10690 3.29773 4.29858
# Velocity P-wave (km/s) = 7.26944 5.91109 6.62517
#
# Compressibility (1/GPa) = 0.02902610
#
# Stress axis : x y z
#
# Youngs Moduli (GPa) = 109.95806 50.85383 69.81522
#
# Poissons Ratio (x) = 0.10885 0.05638
# Poissons Ratio (y) = 0.23537 0.28484
# Poissons Ratio (z) = 0.08880 0.20748
#
# Static dielectric constant tensor:
#      x y z
#    x 1.712280 0.000000 -0.082380 
#    y 0.000000 1.665180 0.000000 
#    z -0.082380 0.000000 1.740710 
# 
# From -- ./inp_files/333269.got.cif
#   From: 2010.05.17/outbox.cif.g08.bks.cpg/sg12_167_cif.got.tgz:333269.got - 2010.06.03 13:09:07.
