data_PCOD9221303
_publ_section_title
;
Structure prediction by ZEFSAII (Michael W. Deem and Ramdas Pophale) SiO2 
 PCOD9221303
Probable space group: C 2/M
;
_chemical_formula_sum "Si O2"
_cell_formula_units_Z 42
_cell_length_a 14.943984
_cell_length_b 12.203381
_cell_length_c 15.274612
_cell_angle_alpha 90.000000
_cell_angle_beta 52.673872
_cell_angle_gamma 90.000000
_cell_volume 2215.090706
_symmetry_space_group_name_H-M "C 2/M"
_symmetry_group_IT_number 12
_symmetry_cell_setting 'monoclinic'
loop_
_space_group_symop_operation_xyz
x,y,z
-x,y,-z
-x,-y,-z
x,-y,z
1/2+x,1/2+y,z
1/2-x,1/2+y,-z
1/2-x,1/2-y,-z
1/2+x,1/2-y,z
loop_
_atom_site_type_symbol
_atom_site_label
_atom_site_fract_x
_atom_site_fract_y
_atom_site_fract_z
Si Si1 0.252020 0.875595 0.573436
Si Si2 0.365418 0.287515 0.644663
Si Si3 0.000000 0.000000 0.500000
Si Si4 0.816549 0.371027 0.119055
Si Si5 0.062500 0.277954 0.644461
Si Si6 0.029290 0.629014 0.124077
O O1 0.297012 0.789369 0.618566
O O2 0.127890 0.837118 0.618277
O O3 0.337290 0.860680 0.441308
O O4 0.252823 0.000000 0.603793
O O5 0.406818 0.402253 0.579383
O O6 0.287340 0.311389 0.775089
O O7 0.475531 0.227585 0.616861
O O8 0.790465 0.500000 0.125090
O O9 0.919891 0.362625 0.126465
O O10 0.865680 0.331213 0.996930
O O11 0.999017 0.309975 0.770110
O O12 0.046198 0.500000 0.132468
#
# Coordination Sequence:
#
# PCOD9221303 Si02
#       6
#     8   8   2   8   8   8
#     4  11  25  41  58  89 128 163 197 246 313 369
#     4  12  23  39  63  89 121 163 195 256 301 362
#     4  12  24  40  62  94 124 148 212 250 310 352
#     4   9  18  34  60  85 116 148 196 253 303 343
#     4  11  23  37  61  89 113 164 205 244 300 361
#     4   9  18  35  59  88 112 151 199 252 296 354
#
# _framework density 18.960850000000001
#
# number of rings (size 3 to 8) (size 9 to 14) (size 15 to 20)
#    0.000    1.524    4.762    1.714    1.333    3.048 
#    0.000    0.000    0.000    2.286    0.000    0.000 
#    0.000    0.000    0.000    0.000    0.000    0.000 
#
# Total GULP energy -116942.635809 kJ/mol
# GULP energy per Si atom -5568.696943 kJ/mol
# Density = 1.891769 g / cm^3
# Si number density = 18.960850 Si / 1000 Ang^3
#
#
#
# Elastic Constant Matrix: (Units=GPa)
#
#
# Indices 1 2 3 4 5 6 
#
# 1 56.8613 8.6084 15.8941 0.0000 2.4317 0.0000
# 2 8.6084 72.2500 31.8429 0.0000 1.5055 0.0000
# 3 15.8941 31.8429 138.1787 0.0000 -4.3181 0.0000
# 4 0.0000 0.0000 0.0000 15.7097 0.0000 -2.6312
# 5 2.4317 1.5055 -4.3181 0.0000 31.0361 0.0000
# 6 0.0000 0.0000 0.0000 -2.6312 0.0000 11.5897
#
#
#
# Elastic Compliance Matrix: (Units=1/GPa)
#
#
# Indices 1 2 3 4 5 6 
#
# 1 0.018378 -0.001337 -0.001857 0.000000 -0.001633 0.000000
# 2 -0.001337 0.015551 -0.003465 0.000000 -0.001132 0.000000
# 3 -0.001857 -0.003465 0.008295 0.000000 0.001468 0.000000
# 4 0.000000 0.000000 0.000000 0.066171 0.000000 0.015023
# 5 -0.001633 -0.001132 0.001468 0.000000 0.032608 0.000000
# 6 0.000000 0.000000 0.000000 0.015023 0.000000 0.089694
#
#
# Mechanical properties :
#
#
# Convention : Reuss Voigt Hill
#
# Bulk Modulus (GPa) = 34.59572 42.22010 38.40791
# Shear Modulus (GPa) = 19.71220 25.73008 22.72114
#
# Velocity S-wave (km/s) = 3.22782 3.68776 3.46543
# Velocity P-wave (km/s) = 5.67250 6.35988 6.02600
#
# Compressibility (1/GPa) = 0.02890531
#
# Stress axis : x y z
#
# Youngs Moduli (GPa) = 54.41290 64.30456 120.55451
#
# Poissons Ratio (x) = 0.08599 0.22385
# Poissons Ratio (y) = 0.07277 0.41775
# Poissons Ratio (z) = 0.10103 0.22283
#
# Static dielectric constant tensor:
#      x y z
#    x 1.662240 0.000000 -0.003070 
#    y 0.000000 1.628440 0.000000 
#    z -0.003070 0.000000 1.703890 
# 
# From -- ./inp_files/212469.got.cif
#   From: 2010.05.17/outbox.cif.g08.bks.cpg/sg12_107_cif.got.tgz:212469.got - 2010.06.03 13:09:07.
