data_PCOD9221429
_publ_section_title
;
Structure prediction by ZEFSAII (Michael W. Deem and Ramdas Pophale) SiO2 
 PCOD9221429
Probable space group: C 2/M
;
_chemical_formula_sum "Si O2"
_cell_formula_units_Z 48
_cell_length_a 16.239903
_cell_length_b 27.070627
_cell_length_c 5.046921
_cell_angle_alpha 90.000000
_cell_angle_beta 103.984440
_cell_angle_gamma 90.000000
_cell_volume 2152.988750
_symmetry_space_group_name_H-M "C 2/M"
_symmetry_group_IT_number 12
_symmetry_cell_setting 'monoclinic'
loop_
_space_group_symop_operation_xyz
x,y,z
-x,y,-z
-x,-y,-z
x,-y,z
1/2+x,1/2+y,z
1/2-x,1/2+y,-z
1/2-x,1/2-y,-z
1/2+x,1/2-y,z
loop_
_atom_site_type_symbol
_atom_site_label
_atom_site_fract_x
_atom_site_fract_y
_atom_site_fract_z
Si Si1 0.583813 0.701061 0.741891
Si Si2 0.687803 0.885417 0.702328
Si Si3 0.907298 0.313021 0.051990
Si Si4 0.556400 0.595532 0.808476
Si Si5 0.241747 0.058140 0.764211
Si Si6 0.248191 0.192457 0.543501
O O1 0.500000 0.708407 0.500000
O O2 0.601954 0.755187 0.874256
O O3 0.571843 0.652430 0.908828
O O4 0.661373 0.683514 0.622260
O O5 0.604523 0.853377 0.721552
O O6 0.718570 0.914355 0.461984
O O7 0.749402 0.837625 0.726824
O O8 0.701851 0.923531 0.947167
O O9 0.831620 0.321429 0.779953
O O10 0.000000 0.318540 0.000000
O O11 0.500000 0.596432 0.500000
O O12 0.646026 0.571922 0.787730
O O13 0.500000 0.571509 0.000000
O O14 0.245193 0.000000 0.721308
O O15 0.250000 0.250000 0.500000
#
# Coordination Sequence:
#
# PCOD9221429 Si02
#       6
#     8   8   8   8   8   8
#     4  11  23  39  65 107 153 198 232 271 338 433
#     4  12  25  47  72 102 138 183 239 301 368 429
#     4  12  26  43  71 108 147 193 240 293 360 439
#     4  11  24  40  65 101 146 192 235 289 345 421
#     4  12  27  48  75 101 134 187 252 311 376 431
#     4  12  24  41  70 104 146 195 239 287 347 438
#
# _framework density 22.294588000000001
#
# number of rings (size 3 to 8) (size 9 to 14) (size 15 to 20)
#    0.000    0.333    5.000    3.500    4.667    0.667 
#    0.000    0.000    0.000    3.000    0.000    0.000 
#    0.000    0.000    0.000    0.000    0.000    0.000 
#
# Total GULP energy -133907.817982 kJ/mol
# GULP energy per Si atom -5579.492416 kJ/mol
# Density = 2.224384 g / cm^3
# Si number density = 22.294588 Si / 1000 Ang^3
#
#
#
# Elastic Constant Matrix: (Units=GPa)
#
#
# Indices 1 2 3 4 5 6 
#
# 1 136.7070 21.8567 31.3752 0.0000 -25.8354 0.0000
# 2 21.8567 152.4249 20.9295 0.0000 -16.7477 0.0000
# 3 31.3752 20.9295 85.5210 0.0000 -19.5032 0.0000
# 4 0.0000 0.0000 0.0000 21.7190 0.0000 -6.8826
# 5 -25.8354 -16.7477 -19.5032 0.0000 54.0871 0.0000
# 6 0.0000 0.0000 0.0000 -6.8826 0.0000 12.5486
#
#
#
# Elastic Compliance Matrix: (Units=1/GPa)
#
#
# Indices 1 2 3 4 5 6 
#
# 1 0.008509 -0.000570 -0.002283 0.000000 0.003065 0.000000
# 2 -0.000570 0.006963 -0.001161 0.000000 0.001465 0.000000
# 3 -0.002283 -0.001161 0.013603 0.000000 0.003455 0.000000
# 4 0.000000 0.000000 0.000000 0.055729 0.000000 0.030566
# 5 0.003065 0.001465 0.003455 0.000000 0.021652 0.000000
# 6 0.000000 0.000000 0.000000 0.030566 0.000000 0.096455
#
#
# Mechanical properties :
#
#
# Convention : Reuss Voigt Hill
#
# Bulk Modulus (GPa) = 47.51375 58.10841 52.81108
# Shear Modulus (GPa) = 22.94063 37.70368 30.32215
#
# Velocity S-wave (km/s) = 3.21125 4.11683 3.69191
# Velocity P-wave (km/s) = 5.92516 6.97984 6.47402
#
# Compressibility (1/GPa) = 0.02104654
#
# Stress axis : x y z
#
# Youngs Moduli (GPa) = 117.51881 143.62244 73.51468
#
# Poissons Ratio (x) = 0.08185 0.16787
# Poissons Ratio (y) = 0.06697 0.08533
# Poissons Ratio (z) = 0.26835 0.16671
#
# Static dielectric constant tensor:
#      x y z
#    x 1.914500 0.000000 -0.031430 
#    y 0.000000 1.834710 0.000000 
#    z -0.031430 0.000000 1.919360 
# 
# From -- ./inp_files/12377.got.cif
#   From: 2010.05.17/outbox.cif.g08.bks.cpg/sg12_7_cif.got.tgz:12377.got - 2010.06.03 13:09:07.
