data_PCOD9221941
_publ_section_title
;
Structure prediction by ZEFSAII (Michael W. Deem and Ramdas Pophale) SiO2 
 PCOD9221941
Probable space group: C 2/M
;
_chemical_formula_sum "Si O2"
_cell_formula_units_Z 64
_cell_length_a 33.911737
_cell_length_b 13.712317
_cell_length_c 9.869327
_cell_angle_alpha 90.000000
_cell_angle_beta 43.157238
_cell_angle_gamma 90.000000
_cell_volume 3139.108562
_symmetry_space_group_name_H-M "C 2/M"
_symmetry_group_IT_number 12
_symmetry_cell_setting 'monoclinic'
loop_
_space_group_symop_operation_xyz
x,y,z
-x,y,-z
-x,-y,-z
x,-y,z
1/2+x,1/2+y,z
1/2-x,1/2+y,-z
1/2-x,1/2-y,-z
1/2+x,1/2-y,z
loop_
_atom_site_type_symbol
_atom_site_label
_atom_site_fract_x
_atom_site_fract_y
_atom_site_fract_z
Si Si1 0.466558 0.267773 0.214795
Si Si2 0.745967 0.617063 0.839475
Si Si3 0.781068 0.887135 0.800415
Si Si4 0.967760 0.886873 0.723342
Si Si5 0.880444 0.384722 0.565502
Si Si6 0.146537 0.610414 0.059099
Si Si7 0.648679 0.304261 0.907811
Si Si8 0.634643 0.615949 0.644783
O O1 0.507378 0.313178 0.227146
O O2 0.424864 0.185868 0.380848
O O3 0.427527 0.356398 0.256702
O O4 0.500000 0.228740 0.000000
O O5 0.738465 0.500000 0.848181
O O6 0.814375 0.632824 0.682689
O O7 0.716901 0.654093 0.053096
O O8 0.711805 0.668111 0.805039
O O9 0.820659 0.848674 0.581920
O O10 0.799022 0.000000 0.770823
O O11 0.714912 0.887203 0.919833
O O12 0.899277 0.867426 0.891408
O O13 0.000000 0.870585 0.500000
O O14 0.977462 0.000000 0.737590
O O15 0.891995 0.500000 0.514388
O O16 0.882329 0.367908 0.723201
O O17 0.131560 0.500000 0.055532
O O18 0.134992 0.692571 0.978047
O O19 0.644128 0.330152 0.762392
O O20 0.641079 0.500000 0.650258
#
# Coordination Sequence:
#
# PCOD9221941 Si02
#       8
#     8   8   8   8   8   8   8   8
#     4  12  25  43  65  89 124 174 215 256 314 379
#     4   9  19  37  64  97 128 159 204 263 318 374
#     4   8  18  36  59  89 124 164 204 247 307 376
#     4  11  25  43  64  94 127 161 215 274 314 367
#     4   9  21  43  68  94 124 161 213 270 318 367
#     4   9  20  40  63  92 128 162 206 264 312 366
#     4  12  23  37  63  93 127 171 205 255 315 384
#     4  11  24  40  59  89 131 172 206 248 308 380
#
# _framework density 20.387951999999999
#
# number of rings (size 3 to 8) (size 9 to 14) (size 15 to 20)
#    0.000    1.875    1.250    3.750    5.250    2.250 
#    0.000    1.250    0.000    2.250    0.000    0.000 
#    0.000    0.000    0.000    0.000    0.000    0.000 
#
# Total GULP energy -178796.827787 kJ/mol
# GULP energy per Si atom -5587.400868 kJ/mol
# Density = 2.034155 g / cm^3
# Si number density = 20.387952 Si / 1000 Ang^3
#
#
#
# Elastic Constant Matrix: (Units=GPa)
#
#
# Indices 1 2 3 4 5 6 
#
# 1 52.0206 35.7987 4.0265 0.0000 4.7374 0.0000
# 2 35.7987 118.2731 32.4554 0.0000 9.0889 0.0000
# 3 4.0265 32.4554 75.9114 0.0000 -9.4142 0.0000
# 4 0.0000 0.0000 0.0000 21.5477 0.0000 -18.2008
# 5 4.7374 9.0889 -9.4142 0.0000 13.7316 0.0000
# 6 0.0000 0.0000 0.0000 -18.2008 0.0000 -92.9924
#
#
#
# Elastic Compliance Matrix: (Units=1/GPa)
#
#
# Indices 1 2 3 4 5 6 
#
# 1 0.024631 -0.007769 0.001748 0.000000 -0.002157 0.000000
# 2 -0.007769 0.013475 -0.006692 0.000000 -0.010826 0.000000
# 3 0.001748 -0.006692 0.017941 0.000000 0.016127 0.000000
# 4 0.000000 0.000000 0.000000 0.039825 0.000000 -0.007795
# 5 -0.002157 -0.010826 0.016127 0.000000 0.091791 0.000000
# 6 0.000000 0.000000 0.000000 -0.007795 0.000000 -0.009228
#
#
# Mechanical properties :
#
#
# Convention : Reuss Voigt Hill
#
# Bulk Modulus (GPa) = 32.65739 43.41847 38.03793
# Shear Modulus (GPa) = 23.35719 0.05236 11.70477
#
# Velocity S-wave (km/s) = 3.38840 0.16042 2.39864
# Velocity P-wave (km/s) = 5.60010 4.62349 5.13506
#
# Compressibility (1/GPa) = 0.03062094
#
# Stress axis : x y z
#
# Youngs Moduli (GPa) = 40.59975 74.21325 55.73697
#
# Poissons Ratio (x) = 0.57656 -0.09740
# Poissons Ratio (y) = 0.31542 0.37297
# Poissons Ratio (z) = -0.07095 0.49660
#
# Static dielectric constant tensor:
#      x y z
#    x 1.686440 0.000000 -0.004100 
#    y 0.000000 1.747380 0.000000 
#    z -0.004100 0.000000 1.726620 
# 
# From -- ./inp_files/111955.got.cif
#   From: 2010.05.17/outbox.cif.g08.bks.cpg/sg12_56_cif.got.tgz:111955.got - 2010.06.03 13:09:07.
