data_PCOD9221374
_publ_section_title
;
Structure prediction by ZEFSAII (Michael W. Deem and Ramdas Pophale) SiO2 
 PCOD9221374
Probable space group: C 2/M
;
_chemical_formula_sum "Si O2"
_cell_formula_units_Z 56
_cell_length_a 8.695642
_cell_length_b 25.711786
_cell_length_c 12.396990
_cell_angle_alpha 90.000000
_cell_angle_beta 108.934751
_cell_angle_gamma 90.000000
_cell_volume 2621.743469
_symmetry_space_group_name_H-M "C 2/M"
_symmetry_group_IT_number 12
_symmetry_cell_setting 'monoclinic'
loop_
_space_group_symop_operation_xyz
x,y,z
-x,y,-z
-x,-y,-z
x,-y,z
1/2+x,1/2+y,z
1/2-x,1/2+y,-z
1/2-x,1/2-y,-z
1/2+x,1/2-y,z
loop_
_atom_site_type_symbol
_atom_site_label
_atom_site_fract_x
_atom_site_fract_y
_atom_site_fract_z
Si Si1 0.285145 0.943971 0.764911
Si Si2 0.147851 0.585288 0.460535
Si Si3 0.534852 0.302932 0.630565
Si Si4 0.041297 0.639386 0.896597
Si Si5 0.593019 0.807296 0.329969
Si Si6 0.919446 0.093934 0.696063
Si Si7 0.680083 0.560566 0.091686
O O1 0.331275 0.941976 0.649259
O O2 0.391336 0.899867 0.843355
O O3 0.094654 0.932991 0.731079
O O4 0.323025 0.000000 0.821003
O O5 0.110531 0.645432 0.418718
O O6 0.308377 0.580460 0.568660
O O7 0.000000 0.566211 0.500000
O O8 0.500000 0.321028 0.500000
O O9 0.457853 0.246451 0.627921
O O10 0.729482 0.301694 0.684118
O O11 0.456381 0.344502 0.693810
O O12 0.199074 0.602488 0.933287
O O13 0.035425 0.676511 0.791398
O O14 0.000000 0.666614 0.000000
O O15 0.832391 0.076194 0.785345
O O16 0.732768 0.500000 0.093514
O O17 0.500000 0.564457 0.000000
#
# Coordination Sequence:
#
# PCOD9221374 Si02
#       7
#     8   8   8   8   8   8   8
#     4  11  23  40  64  93 127 171 217 265 323 387
#     4  11  23  39  59  93 137 169 212 266 321 385
#     4  12  23  41  67 100 130 172 213 262 321 388
#     4  11  24  46  68  94 130 168 214 270 325 386
#     4  11  25  41  65  99 128 168 218 262 327 382
#     4  12  22  41  65  94 133 169 214 270 322 381
#     4  11  26  44  68  99 127 170 222 267 320 379
#
# _framework density 21.359832000000001
#
# number of rings (size 3 to 8) (size 9 to 14) (size 15 to 20)
#    0.000    0.714    4.286    4.714    4.000    4.286 
#    0.000    1.429    0.000    0.000    0.000    0.000 
#    0.000    0.000    0.000    0.000    0.000    0.000 
#
# Total GULP energy -156651.976697 kJ/mol
# GULP energy per Si atom -5594.713453 kJ/mol
# Density = 2.131122 g / cm^3
# Si number density = 21.359832 Si / 1000 Ang^3
#
#
#
# Elastic Constant Matrix: (Units=GPa)
#
#
# Indices 1 2 3 4 5 6 
#
# 1 71.9317 -9.4753 -6.3454 0.0000 1.5631 0.0000
# 2 -9.4753 51.9199 -14.7485 0.0000 2.2869 0.0000
# 3 -6.3454 -14.7485 64.0962 0.0000 -2.9235 0.0000
# 4 0.0000 0.0000 0.0000 73.0291 0.0000 13.5392
# 5 1.5631 2.2869 -2.9235 0.0000 33.4671 0.0000
# 6 0.0000 0.0000 0.0000 13.5392 0.0000 5.2736
#
#
#
# Elastic Compliance Matrix: (Units=1/GPa)
#
#
# Indices 1 2 3 4 5 6 
#
# 1 0.014544 0.003301 0.002167 0.000000 -0.000716 0.000000
# 2 0.003301 0.021390 0.005196 0.000000 -0.001162 0.000000
# 3 0.002167 0.005196 0.017059 0.000000 0.001034 0.000000
# 4 0.000000 0.000000 0.000000 0.026131 0.000000 -0.067086
# 5 -0.000716 -0.001162 0.001034 0.000000 0.030083 0.000000
# 6 0.000000 0.000000 0.000000 -0.067086 0.000000 0.361855
#
#
# Mechanical properties :
#
#
# Convention : Reuss Voigt Hill
#
# Bulk Modulus (GPa) = 13.45543 14.08994 13.77269
# Shear Modulus (GPa) = 10.53726 36.92176 23.72951
#
# Velocity S-wave (km/s) = 2.22349 4.16211 3.33669
# Velocity P-wave (km/s) = 3.59235 5.45053 4.61591
#
# Compressibility (1/GPa) = 0.07431945
#
# Stress axis : x y z
#
# Youngs Moduli (GPa) = 68.75868 46.75088 58.62106
#
# Poissons Ratio (x) = -0.15433 -0.12702
# Poissons Ratio (y) = -0.22699 -0.30457
# Poissons Ratio (z) = -0.14898 -0.24290
#
# Static dielectric constant tensor:
#      x y z
#    x 1.765290 0.000000 -0.001470 
#    y 0.000000 1.756290 0.000000 
#    z -0.001470 0.000000 1.780250 
# 
# From -- ./inp_files/124341.got.cif
#   From: 2010.05.17/outbox.cif.g08.bks.cpg/sg12_63_cif.got.tgz:124341.got - 2010.06.03 13:09:07.
