data_PCOD9221866
_publ_section_title
;
Structure prediction by ZEFSAII (Michael W. Deem and Ramdas Pophale) SiO2 
 PCOD9221866
Probable space group: C 2/M
;
_chemical_formula_sum "Si O2"
_cell_formula_units_Z 52
_cell_length_a 18.780489
_cell_length_b 12.892864
_cell_length_c 11.812803
_cell_angle_alpha 90.000000
_cell_angle_beta 61.683785
_cell_angle_gamma 90.000000
_cell_volume 2518.032016
_symmetry_space_group_name_H-M "C 2/M"
_symmetry_group_IT_number 12
_symmetry_cell_setting 'monoclinic'
loop_
_space_group_symop_operation_xyz
x,y,z
-x,y,-z
-x,-y,-z
x,-y,z
1/2+x,1/2+y,z
1/2-x,1/2+y,-z
1/2-x,1/2-y,-z
1/2+x,1/2-y,z
loop_
_atom_site_type_symbol
_atom_site_label
_atom_site_fract_x
_atom_site_fract_y
_atom_site_fract_z
Si Si1 0.189865 0.686803 0.737157
Si Si2 0.872795 0.117248 0.596675
Si Si3 0.015297 0.500000 0.621700
Si Si4 0.657221 0.000000 0.131190
Si Si5 0.437945 0.382602 0.803096
Si Si6 0.903146 0.500000 0.081199
Si Si7 0.214332 0.827117 0.934214
Si Si8 0.425912 0.769918 0.364996
O O1 0.276953 0.633889 0.657920
O O2 0.127101 0.600699 0.829081
O O3 0.197436 0.772085 0.829078
O O4 0.154821 0.734124 0.648997
O O5 0.896483 0.126881 0.710464
O O6 0.915122 0.203425 0.487487
O O7 0.895059 0.000000 0.543675
O O8 0.929737 0.500000 0.748406
O O9 0.000000 0.500000 0.500000
O O10 0.057036 0.390870 0.623059
O O11 0.712061 0.094045 0.130787
O O12 0.641516 0.000000 0.007599
O O13 0.472509 0.500000 0.785122
O O14 0.503071 0.289867 0.757394
O O15 0.368003 0.371679 0.949695
O O16 0.000000 0.500000 0.000000
O O17 0.250000 0.750000 0.000000
#
# Coordination Sequence:
#
# PCOD9221866 Si02
#       8
#     8   8   4   4   8   4   8   8
#     4  12  26  44  68 103 140 179 227 287 349 411
#     4  11  23  46  75  98 130 183 239 286 334 414
#     4  12  28  46  72 104 145 184 231 288 347 423
#     4  12  24  46  66 104 133 179 231 278 348 415
#     4  11  23  45  72 102 132 178 237 287 341 410
#     4  12  24  42  72 101 136 175 229 288 346 414
#     4  12  23  41  72  99 134 173 226 286 342 411
#     4  12  27  46  67 103 143 184 227 284 352 415
#
# _framework density 20.651047999999999
#
# number of rings (size 3 to 8) (size 9 to 14) (size 15 to 20)
#    0.000    0.308    4.615    4.615    4.308    1.231 
#    2.769    0.769    0.000    0.000    0.000    0.000 
#    0.000    0.000    0.000    0.000    0.000    0.000 
#
# Total GULP energy -145457.120389 kJ/mol
# GULP energy per Si atom -5594.504630 kJ/mol
# Density = 2.060405 g / cm^3
# Si number density = 20.651048 Si / 1000 Ang^3
#
#
#
# Elastic Constant Matrix: (Units=GPa)
#
#
# Indices 1 2 3 4 5 6 
#
# 1 82.1882 37.8395 4.3200 0.0000 3.6878 0.0000
# 2 37.8395 141.6685 30.2032 0.0000 7.9724 0.0000
# 3 4.3200 30.2032 69.2896 0.0000 0.8489 0.0000
# 4 0.0000 0.0000 0.0000 30.6356 0.0000 -29.8868
# 5 3.6878 7.9724 0.8489 0.0000 42.3338 0.0000
# 6 0.0000 0.0000 0.0000 -29.8868 0.0000 -71.2425
#
#
#
# Elastic Compliance Matrix: (Units=1/GPa)
#
#
# Indices 1 2 3 4 5 6 
#
# 1 0.013927 -0.003867 0.000824 0.000000 -0.000501 0.000000
# 2 -0.003867 0.008939 -0.003640 0.000000 -0.001274 0.000000
# 3 0.000824 -0.003640 0.015964 0.000000 0.000294 0.000000
# 4 0.000000 0.000000 0.000000 0.023162 0.000000 -0.009717
# 5 -0.000501 -0.001274 0.000294 0.000000 0.023899 0.000000
# 6 0.000000 0.000000 0.000000 -0.009717 0.000000 -0.009960
#
#
# Mechanical properties :
#
#
# Convention : Reuss Voigt Hill
#
# Bulk Modulus (GPa) = 39.27278 48.65239 43.96258
# Shear Modulus (GPa) = 51.13178 15.06427 33.09803
#
# Velocity S-wave (km/s) = 4.98133 2.70380 4.00775
# Velocity P-wave (km/s) = 7.22104 5.77562 6.53840
#
# Compressibility (1/GPa) = 0.02546293
#
# Stress axis : x y z
#
# Youngs Moduli (GPa) = 71.80367 111.86490 62.64142
#
# Poissons Ratio (x) = 0.43260 -0.05159
# Poissons Ratio (y) = 0.27768 0.22801
# Poissons Ratio (z) = -0.05913 0.40718
#
# Static dielectric constant tensor:
#      x y z
#    x 1.771720 0.000000 0.048890 
#    y 0.000000 1.726910 0.000000 
#    z 0.048890 0.000000 1.800940 
# 
# From -- ./inp_files/165581.got.cif
#   From: 2010.05.17/outbox.cif.g08.bks.cpg/sg12_83_cif.got.tgz:165581.got - 2010.06.03 13:09:07.
