data_PCOD9221489
_publ_section_title
;
Structure prediction by ZEFSAII (Michael W. Deem and Ramdas Pophale) SiO2 
 PCOD9221489
Probable space group: C 2/M
;
_chemical_formula_sum "Si O2"
_cell_formula_units_Z 32
_cell_length_a 8.970123
_cell_length_b 9.701128
_cell_length_c 17.708858
_cell_angle_alpha 90.000000
_cell_angle_beta 65.084678
_cell_angle_gamma 90.000000
_cell_volume 1397.608784
_symmetry_space_group_name_H-M "C 2/M"
_symmetry_group_IT_number 12
_symmetry_cell_setting 'monoclinic'
loop_
_space_group_symop_operation_xyz
x,y,z
-x,y,-z
-x,-y,-z
x,-y,z
1/2+x,1/2+y,z
1/2-x,1/2+y,-z
1/2-x,1/2-y,-z
1/2+x,1/2-y,z
loop_
_atom_site_type_symbol
_atom_site_label
_atom_site_fract_x
_atom_site_fract_y
_atom_site_fract_z
Si Si1 0.848819 0.659113 0.418957
Si Si2 0.065360 0.787106 0.062242
Si Si3 0.276064 0.842137 0.683599
Si Si4 0.262208 0.350729 0.824906
O O1 0.791034 0.500000 0.429431
O O2 0.750000 0.750000 0.500000
O O3 0.828419 0.737178 0.343856
O O4 0.043090 0.656943 0.392287
O O5 0.924719 0.671381 0.104779
O O6 0.103672 0.849462 0.136410
O O7 0.750000 0.750000 0.000000
O O8 0.000000 0.860070 0.000000
O O9 0.289567 0.777547 0.763831
O O10 0.216439 0.000000 0.696865
O O11 0.272012 0.500000 0.784215
#
# Coordination Sequence:
#
# PCOD9221489 Si02
#       4
#     8   8   8   8
#     4  11  24  42  66  96 129 166 210 259 311 371
#     4   9  21  40  61  91 126 161 203 259 317 371
#     4  11  25  43  63  92 129 167 210 259 312 373
#     4  11  23  40  64  93 125 164 211 261 314 375
#
# _framework density 22.896250999999999
#
# number of rings (size 3 to 8) (size 9 to 14) (size 15 to 20)
#    0.000    1.500    0.000    3.750    0.000   18.000 
#    0.000    7.500    0.000    0.000    0.000    0.000 
#    0.000    0.000    0.000    0.000    0.000    0.000 
#
# Total GULP energy -89244.901646 kJ/mol
# GULP energy per Si atom -5577.806353 kJ/mol
# Density = 2.284414 g / cm^3
# Si number density = 22.896251 Si / 1000 Ang^3
#
#
#
# Elastic Constant Matrix: (Units=GPa)
#
#
# Indices 1 2 3 4 5 6 
#
# 1 126.6754 37.0092 20.9648 0.0000 5.1402 0.0000
# 2 37.0092 178.9490 38.4048 0.0000 10.1118 0.0000
# 3 20.9648 38.4048 86.8547 0.0000 10.2880 0.0000
# 4 0.0000 0.0000 0.0000 -142.4799 0.0000 59.9032
# 5 5.1402 10.1118 10.2880 0.0000 46.2104 0.0000
# 6 0.0000 0.0000 0.0000 59.9032 0.0000 -4.2769
#
#
#
# Elastic Compliance Matrix: (Units=1/GPa)
#
#
# Indices 1 2 3 4 5 6 
#
# 1 0.008562 -0.001455 -0.001385 0.000000 -0.000326 0.000000
# 2 -0.001455 0.006448 -0.002416 0.000000 -0.000711 0.000000
# 3 -0.001385 -0.002416 0.013183 0.000000 -0.002252 0.000000
# 4 0.000000 0.000000 0.000000 0.001436 0.000000 0.020108
# 5 -0.000326 -0.000711 -0.002252 0.000000 0.022333 0.000000
# 6 0.000000 0.000000 0.000000 0.020108 0.000000 0.047828
#
#
# Mechanical properties :
#
#
# Convention : Reuss Voigt Hill
#
# Bulk Modulus (GPa) = 56.55640 65.02629 60.79135
# Shear Modulus (GPa) = 43.03182 -0.36925 21.33128
#
# Velocity S-wave (km/s) = 4.33994 -0.40202 3.05560
# Velocity P-wave (km/s) = 7.06174 5.31475 6.24959
#
# Compressibility (1/GPa) = 0.01768147
#
# Stress axis : x y z
#
# Youngs Moduli (GPa) = 116.79947 155.09363 75.85782
#
# Poissons Ratio (x) = 0.22568 0.10503
# Poissons Ratio (y) = 0.16996 0.18324
# Poissons Ratio (z) = 0.16172 0.37463
#
# Static dielectric constant tensor:
#      x y z
#    x 1.878380 0.000000 0.011390 
#    y 0.000000 1.807850 0.000000 
#    z 0.011390 0.000000 1.927380 
# 
# From -- ./inp_files/193402.got.cif
#   From: 2010.05.17/outbox.cif.g08.bks.cpg/sg12_97_cif.got.tgz:193402.got - 2010.06.03 13:09:07.
