data_PCOD9221566
_publ_section_title
;
Structure prediction by ZEFSAII (Michael W. Deem and Ramdas Pophale) SiO2 
 PCOD9221566
Probable space group: C 2/M
;
_chemical_formula_sum "Si O2"
_cell_formula_units_Z 56
_cell_length_a 20.330847
_cell_length_b 19.299126
_cell_length_c 13.901429
_cell_angle_alpha 90.000000
_cell_angle_beta 150.406252
_cell_angle_gamma 90.000000
_cell_volume 2693.673583
_symmetry_space_group_name_H-M "C 2/M"
_symmetry_group_IT_number 12
_symmetry_cell_setting 'monoclinic'
loop_
_space_group_symop_operation_xyz
x,y,z
-x,y,-z
-x,-y,-z
x,-y,z
1/2+x,1/2+y,z
1/2-x,1/2+y,-z
1/2-x,1/2-y,-z
1/2+x,1/2-y,z
loop_
_atom_site_type_symbol
_atom_site_label
_atom_site_fract_x
_atom_site_fract_y
_atom_site_fract_z
Si Si1 0.320229 0.177345 0.065006
Si Si2 0.804605 0.000000 0.821047
Si Si3 0.272774 0.769343 0.715435
Si Si4 0.491596 0.761823 0.834135
Si Si5 0.898210 0.000000 0.722063
Si Si6 0.883763 0.078639 0.275963
Si Si7 0.342309 0.139224 0.309254
Si Si8 0.073076 0.871719 0.358837
O O1 0.466561 0.192354 0.205952
O O2 0.308105 0.142222 0.152587
O O3 0.250000 0.250000 0.000000
O O4 0.234244 0.133631 0.879351
O O5 0.720269 0.931339 0.732742
O O6 0.842710 0.000000 0.758097
O O7 0.941245 0.000000 0.056840
O O8 0.352843 0.763466 0.715514
O O9 0.204333 0.702510 0.679955
O O10 0.164341 0.827803 0.549581
O O11 0.392940 0.781346 0.943583
O O12 0.495108 0.683405 0.799272
O O13 0.854139 0.069123 0.609709
O O14 0.000000 0.093205 0.500000
O O15 0.961611 0.087452 0.275510
O O16 0.836228 0.000000 0.230147
O O17 0.500000 0.140701 0.500000
#
# Coordination Sequence:
#
# PCOD9221566 Si02
#       8
#     8   4   8   8   4   8   8   8
#     4  12  23  40  67  97 134 176 224 275 335 399
#     4  11  25  48  66  98 139 182 227 276 345 406
#     4  11  24  41  66  99 138 174 229 277 337 400
#     4  11  23  41  64  97 136 181 218 281 336 401
#     4  11  24  42  73  97 134 180 229 285 335 400
#     4  11  24  40  64  94 129 170 224 283 336 391
#     4  12  26  43  69 100 140 180 226 282 341 403
#     4  12  22  39  67  99 131 171 231 277 336 399
#
# _framework density 20.789453000000002
#
# number of rings (size 3 to 8) (size 9 to 14) (size 15 to 20)
#    0.000    0.571    3.571    4.929    1.000    3.429 
#    0.000    0.000    1.571    0.857    0.000    0.000 
#    0.000    0.000    0.000    0.000    0.000    0.000 
#
# Total GULP energy -156165.569352 kJ/mol
# GULP energy per Si atom -5577.341763 kJ/mol
# Density = 2.074213 g / cm^3
# Si number density = 20.789453 Si / 1000 Ang^3
#
#
#
# Elastic Constant Matrix: (Units=GPa)
#
#
# Indices 1 2 3 4 5 6 
#
# 1 140.3034 58.4020 28.5590 0.0000 14.8767 0.0000
# 2 58.4020 126.2332 46.8529 0.0000 3.4388 0.0000
# 3 28.5590 46.8529 76.4382 0.0000 -3.2085 0.0000
# 4 0.0000 0.0000 0.0000 -106.2650 0.0000 115.2408
# 5 14.8767 3.4388 -3.2085 0.0000 36.7634 0.0000
# 6 0.0000 0.0000 0.0000 115.2408 0.0000 -86.6346
#
#
#
# Elastic Compliance Matrix: (Units=1/GPa)
#
#
# Indices 1 2 3 4 5 6 
#
# 1 0.009325 -0.003715 -0.001356 0.000000 -0.003545 0.000000
# 2 -0.003715 0.011819 -0.005861 0.000000 -0.000114 0.000000
# 3 -0.001356 -0.005861 0.017291 0.000000 0.002606 0.000000
# 4 0.000000 0.000000 0.000000 0.021264 0.000000 0.028285
# 5 -0.003545 -0.000114 0.002606 0.000000 0.028873 0.000000
# 6 0.000000 0.000000 0.000000 0.028285 0.000000 0.026082
#
#
# Mechanical properties :
#
#
# Convention : Reuss Voigt Hill
#
# Bulk Modulus (GPa) = 60.34433 67.84474 64.09454
# Shear Modulus (GPa) = 35.20043 -17.28317 8.95863
#
# Velocity S-wave (km/s) = 4.11930 -2.88643 2.07812
# Velocity P-wave (km/s) = 7.19126 4.64719 6.05437
#
# Compressibility (1/GPa) = 0.01657156
#
# Stress axis : x y z
#
# Youngs Moduli (GPa) = 107.23296 84.60932 57.83250
#
# Poissons Ratio (x) = 0.31428 0.07843
# Poissons Ratio (y) = 0.39832 0.33898
# Poissons Ratio (z) = 0.14542 0.49593
#
# Static dielectric constant tensor:
#      x y z
#    x 1.838570 0.000000 -0.057740 
#    y 0.000000 1.696080 0.000000 
#    z -0.057740 0.000000 1.843720 
# 
# From -- ./inp_files/234754.got.cif
#   From: 2010.05.17/outbox.cif.g08.bks.cpg/sg12_118_cif.got.tgz:234754.got - 2010.06.03 13:09:07.
