data_PCOD9221338
_publ_section_title
;
Structure prediction by ZEFSAII (Michael W. Deem and Ramdas Pophale) SiO2 
 PCOD9221338
Probable space group: C 2/M
;
_chemical_formula_sum "Si O2"
_cell_formula_units_Z 48
_cell_length_a 9.139003
_cell_length_b 19.070433
_cell_length_c 28.806406
_cell_angle_alpha 90.000000
_cell_angle_beta 148.846431
_cell_angle_gamma 90.000000
_cell_volume 2597.282563
_symmetry_space_group_name_H-M "C 2/M"
_symmetry_group_IT_number 12
_symmetry_cell_setting 'monoclinic'
loop_
_space_group_symop_operation_xyz
x,y,z
-x,y,-z
-x,-y,-z
x,-y,z
1/2+x,1/2+y,z
1/2-x,1/2+y,-z
1/2-x,1/2-y,-z
1/2+x,1/2-y,z
loop_
_atom_site_type_symbol
_atom_site_label
_atom_site_fract_x
_atom_site_fract_y
_atom_site_fract_z
Si Si1 0.343617 0.919318 0.913306
Si Si2 0.240541 0.817468 0.463093
Si Si3 0.204571 0.183624 0.738293
Si Si4 0.350431 0.669101 0.738033
Si Si5 0.187947 0.417978 0.436731
Si Si6 0.173358 0.418421 0.906409
O O1 0.545404 0.917334 0.923427
O O2 0.060721 0.881265 0.822171
O O3 0.277188 0.000000 0.906309
O O4 0.500000 0.887326 0.000000
O O5 0.500000 0.804592 0.500000
O O6 0.250000 0.750000 0.500000
O O7 0.289746 0.887627 0.505602
O O8 0.969499 0.828519 0.356596
O O9 0.323797 0.260772 0.760817
O O10 0.460785 0.129679 0.818467
O O11 0.991127 0.181656 0.724948
O O12 0.048373 0.631086 0.650864
O O13 0.500000 0.409358 0.500000
O O14 0.109454 0.500000 0.413404
O O15 0.170782 0.500000 0.889439
O O16 0.500000 0.395330 0.000000
#
# Coordination Sequence:
#
# PCOD9221338 Si02
#       6
#     8   8   8   8   8   8
#     4   9  19  38  62  85 114 156 198 241 298 359
#     4  12  22  40  63  89 122 165 204 250 301 364
#     4  11  23  38  63  89 118 163 201 246 305 362
#     4  11  23  40  60  89 121 157 200 250 303 358
#     4  11  25  42  61  87 122 159 202 255 306 360
#     4   9  20  40  62  88 122 155 196 251 305 359
#
# _framework density 18.480854000000001
#
# number of rings (size 3 to 8) (size 9 to 14) (size 15 to 20)
#    0.000    1.500    3.333    1.000    2.333    3.667 
#    0.000    3.333    0.000    0.000    0.000    0.000 
#    0.000    0.000    0.000    0.000    0.000    0.000 
#
# Total GULP energy -133879.973891 kJ/mol
# GULP energy per Si atom -5578.332245 kJ/mol
# Density = 1.843879 g / cm^3
# Si number density = 18.480854 Si / 1000 Ang^3
#
#
#
# Elastic Constant Matrix: (Units=GPa)
#
#
# Indices 1 2 3 4 5 6 
#
# 1 60.0781 45.4647 46.4040 0.0002 -0.8633 0.0009
# 2 45.4647 105.0089 69.9635 -0.0023 4.2999 -0.0013
# 3 46.4040 69.9635 157.4829 -0.0003 -4.5080 0.0023
# 4 0.0002 -0.0023 -0.0003 36.4814 0.0004 0.9616
# 5 -0.8633 4.2999 -4.5080 0.0004 34.3088 0.0009
# 6 0.0009 -0.0013 0.0023 0.9616 0.0009 30.2380
#
#
#
# Elastic Compliance Matrix: (Units=1/GPa)
#
#
# Indices 1 2 3 4 5 6 
#
# 1 0.026336 -0.008963 -0.003741 -0.000001 0.001294 -0.000001
# 2 -0.008963 0.016793 -0.004905 0.000001 -0.002975 0.000001
# 3 -0.003741 -0.004905 0.009683 0.000000 0.001793 -0.000001
# 4 -0.000001 0.000001 0.000000 0.027434 0.000000 -0.000872
# 5 0.001294 -0.002975 0.001793 0.000000 0.029788 -0.000001
# 6 -0.000001 0.000001 -0.000001 -0.000872 -0.000001 0.033099
#
#
# Mechanical properties :
#
#
# Convention : Reuss Voigt Hill
#
# Bulk Modulus (GPa) = 56.83694 71.80379 64.32037
# Shear Modulus (GPa) = 27.14220 30.92150 29.03185
#
# Velocity S-wave (km/s) = 3.83648 4.09487 3.96778
# Velocity P-wave (km/s) = 7.10253 7.82909 7.47465
#
# Compressibility (1/GPa) = 0.01759419
#
# Stress axis : x y z
#
# Youngs Moduli (GPa) = 37.97081 59.54810 103.27793
#
# Poissons Ratio (x) = 0.53371 0.38640
# Poissons Ratio (y) = 0.34032 0.50655
# Poissons Ratio (z) = 0.14206 0.29207
#
# Static dielectric constant tensor:
#      x y z
#    x 1.625380 0.000000 0.014270 
#    y 0.000000 1.641560 -0.000010 
#    z 0.014270 -0.000010 1.256310 
# 
# From -- ./inp_files/373026.got.cif
#   From: 2010.05.17/outbox.cif.g08.bks.cpg/sg12_187_cif.got.tgz:373026.got - 2010.06.03 13:09:07.
