data_PCOD9221826
_publ_section_title
;
Structure prediction by ZEFSAII (Michael W. Deem and Ramdas Pophale) SiO2 
 PCOD9221826
Probable space group: C 2/M
;
_chemical_formula_sum "Si O2"
_cell_formula_units_Z 64
_cell_length_a 12.064278
_cell_length_b 17.441365
_cell_length_c 14.812472
_cell_angle_alpha 90.000000
_cell_angle_beta 93.851678
_cell_angle_gamma 90.000000
_cell_volume 3109.763008
_symmetry_space_group_name_H-M "C 2/M"
_symmetry_group_IT_number 12
_symmetry_cell_setting 'monoclinic'
loop_
_space_group_symop_operation_xyz
x,y,z
-x,y,-z
-x,-y,-z
x,-y,z
1/2+x,1/2+y,z
1/2-x,1/2+y,-z
1/2-x,1/2-y,-z
1/2+x,1/2-y,z
loop_
_atom_site_type_symbol
_atom_site_label
_atom_site_fract_x
_atom_site_fract_y
_atom_site_fract_z
Si Si1 0.599158 0.321161 0.247937
Si Si2 0.257765 0.645076 0.427518
Si Si3 0.023272 0.913272 0.604724
Si Si4 0.683740 0.830083 0.991714
Si Si5 0.603235 0.590092 0.062629
Si Si6 0.524727 0.909993 0.336612
Si Si7 0.976198 0.335984 0.847091
Si Si8 0.694723 0.180671 0.617345
O O1 0.527197 0.356789 0.324702
O O2 0.598893 0.374260 0.160850
O O3 0.551823 0.240248 0.211876
O O4 0.723853 0.318413 0.292883
O O5 0.343643 0.588914 0.384341
O O6 0.307117 0.730239 0.412402
O O7 0.248745 0.636594 0.534970
O O8 0.135950 0.629936 0.381221
O O9 0.000000 0.889290 0.500000
O O10 0.981170 0.000000 0.615441
O O11 0.779746 0.891039 0.977042
O O12 0.592377 0.829096 0.906925
O O13 0.750000 0.750000 0.000000
O O14 0.617736 0.843952 0.081060
O O15 0.588637 0.500000 0.068896
O O16 0.500000 0.623583 0.000000
O O17 0.523184 0.902018 0.227875
O O18 0.420391 0.860831 0.367348
O O19 0.519545 0.000000 0.362346
#
# Coordination Sequence:
#
# PCOD9221826 Si02
#       8
#     8   8   8   8   8   8   8   8
#     4  12  22  44  70 100 134 179 235 289 340 415
#     4  11  24  45  68  96 135 183 237 286 344 410
#     4  11  24  41  65  95 134 179 228 284 345 408
#     4  11  23  44  70  98 134 180 224 284 345 418
#     4  11  25  44  69 102 138 176 224 286 353 418
#     4  12  27  45  67 104 145 183 230 291 360 419
#     4  11  25  42  69 102 132 180 231 279 346 424
#     4  11  25  42  71  96 132 185 235 286 343 413
#
# _framework density 20.580348000000001
#
# number of rings (size 3 to 8) (size 9 to 14) (size 15 to 20)
#    0.000    0.750    3.750    3.375    0.000    6.500 
#    0.000    2.500    0.000    0.000    0.000    0.000 
#    0.000    0.000    0.000    0.000    0.000    0.000 
#
# Total GULP energy -178922.281785 kJ/mol
# GULP energy per Si atom -5591.321306 kJ/mol
# Density = 2.053351 g / cm^3
# Si number density = 20.580348 Si / 1000 Ang^3
#
#
#
# Elastic Constant Matrix: (Units=GPa)
#
#
# Indices 1 2 3 4 5 6 
#
# 1 125.2400 22.7084 35.8439 0.0000 -3.8523 0.0000
# 2 22.7084 79.9607 21.9475 0.0000 -8.2096 0.0000
# 3 35.8439 21.9475 110.9090 0.0000 -1.9109 0.0000
# 4 0.0000 0.0000 0.0000 59.3762 0.0000 -22.1213
# 5 -3.8523 -8.2096 -1.9109 0.0000 33.4857 0.0000
# 6 0.0000 0.0000 0.0000 -22.1213 0.0000 36.2376
#
#
#
# Elastic Compliance Matrix: (Units=1/GPa)
#
#
# Indices 1 2 3 4 5 6 
#
# 1 0.009062 -0.001825 -0.002560 0.000000 0.000449 0.000000
# 2 -0.001825 0.013921 -0.002112 0.000000 0.003082 0.000000
# 3 -0.002560 -0.002112 0.010258 0.000000 -0.000227 0.000000
# 4 0.000000 0.000000 0.000000 0.021800 0.000000 0.013308
# 5 0.000449 0.003082 -0.000227 0.000000 0.030658 0.000000
# 6 0.000000 0.000000 0.000000 0.013308 0.000000 0.035719
#
#
# Mechanical properties :
#
#
# Convention : Reuss Voigt Hill
#
# Bulk Modulus (GPa) = 49.38957 53.01216 51.20087
# Shear Modulus (GPa) = 35.42103 41.52723 38.47413
#
# Velocity S-wave (km/s) = 4.15313 4.49688 4.32842
# Velocity P-wave (km/s) = 6.85919 7.26478 7.06490
#
# Compressibility (1/GPa) = 0.02024719
#
# Stress axis : x y z
#
# Youngs Moduli (GPa) = 110.35111 71.83644 97.48787
#
# Poissons Ratio (x) = 0.13109 0.24955
# Poissons Ratio (y) = 0.20137 0.20588
# Poissons Ratio (z) = 0.28248 0.15171
#
# Static dielectric constant tensor:
#      x y z
#    x 1.753930 0.000000 -0.003260 
#    y 0.000000 1.739190 0.000000 
#    z -0.003260 0.000000 1.739650 
# 
# From -- ./inp_files/206676.got.cif
#   From: 2010.05.17/outbox.cif.g08.bks.cpg/sg12_104_cif.got.tgz:206676.got - 2010.06.03 13:09:07.
