data_PCOD9221292
_publ_section_title
;
Structure prediction by ZEFSAII (Michael W. Deem and Ramdas Pophale) SiO2 
 PCOD9221292
Probable space group: C 2/M
;
_chemical_formula_sum "Si O2"
_cell_formula_units_Z 56
_cell_length_a 19.073679
_cell_length_b 8.565862
_cell_length_c 25.641310
_cell_angle_alpha 90.000000
_cell_angle_beta 133.598660
_cell_angle_gamma 90.000000
_cell_volume 3033.870716
_symmetry_space_group_name_H-M "C 2/M"
_symmetry_group_IT_number 12
_symmetry_cell_setting 'monoclinic'
loop_
_space_group_symop_operation_xyz
x,y,z
-x,y,-z
-x,-y,-z
x,-y,z
1/2+x,1/2+y,z
1/2-x,1/2+y,-z
1/2-x,1/2-y,-z
1/2+x,1/2-y,z
loop_
_atom_site_type_symbol
_atom_site_label
_atom_site_fract_x
_atom_site_fract_y
_atom_site_fract_z
Si Si1 0.798280 0.823496 0.682846
Si Si2 0.912729 0.310585 0.417164
Si Si3 0.991775 0.684509 0.233380
Si Si4 0.778284 0.822367 0.796756
Si Si5 0.512077 0.690495 0.065332
Si Si6 0.077908 0.818002 0.695251
Si Si7 0.143721 0.811836 0.928574
O O1 0.692064 0.756843 0.613655
O O2 0.783945 0.835150 0.737553
O O3 0.898719 0.735429 0.725180
O O4 0.809046 0.000000 0.667025
O O5 0.907397 0.500000 0.411861
O O6 0.932546 0.250394 0.368622
O O7 0.000000 0.266324 0.500000
O O8 0.982080 0.500000 0.223647
O O9 0.977921 0.735362 0.286334
O O10 0.909909 0.758355 0.152660
O O11 0.881424 0.757392 0.865007
O O12 0.690095 0.714112 0.766577
O O13 0.763760 0.000000 0.810183
O O14 0.512512 0.500000 0.067791
O O15 0.430055 0.740357 0.063409
O O16 0.500000 0.738808 0.000000
O O17 0.055265 0.000000 0.683019
O O18 0.148356 0.000000 0.929694
O O19 0.250000 0.750000 0.000000
#
# Coordination Sequence:
#
# PCOD9221292 Si02
#       7
#     8   8   8   8   8   8   8
#     4   9  17  34  59  86 115 149 187 235 288 340
#     4   9  19  39  66  93 122 155 190 229 282 352
#     4  12  24  39  59  82 114 159 205 247 292 348
#     4   9  17  34  57  80 110 149 191 235 287 349
#     4   9  18  33  55  80 108 145 189 233 285 348
#     4  11  23  37  57  87 120 151 191 244 293 342
#     4  11  23  40  58  83 117 155 197 246 301 351
#
# _framework density 18.458269000000001
#
# number of rings (size 3 to 8) (size 9 to 14) (size 15 to 20)
#    0.000    2.000    1.429    3.857    2.000    2.571 
#    0.000    0.714    0.000    2.143    0.000    0.000 
#    0.000    0.000    0.000    0.000    0.000    0.000 
#
# Total GULP energy -156005.547871 kJ/mol
# GULP energy per Si atom -5571.626710 kJ/mol
# Density = 1.841626 g / cm^3
# Si number density = 18.458269 Si / 1000 Ang^3
#
#
#
# Elastic Constant Matrix: (Units=GPa)
#
#
# Indices 1 2 3 4 5 6 
#
# 1 78.1003 26.2447 46.3747 0.0000 1.9119 0.0000
# 2 26.2447 66.6275 26.9741 0.0000 3.6112 0.0000
# 3 46.3747 26.9741 127.6950 0.0000 22.7513 0.0000
# 4 0.0000 0.0000 0.0000 14.1815 0.0000 18.8260
# 5 1.9119 3.6112 22.7513 0.0000 27.2128 0.0000
# 6 0.0000 0.0000 0.0000 18.8260 0.0000 -13.3652
#
#
#
# Elastic Compliance Matrix: (Units=1/GPa)
#
#
# Indices 1 2 3 4 5 6 
#
# 1 0.018100 -0.004794 -0.006401 0.000000 0.004716 0.000000
# 2 -0.004794 0.017699 -0.001926 0.000000 -0.000402 0.000000
# 3 -0.006401 -0.001926 0.012264 0.000000 -0.009548 0.000000
# 4 0.000000 0.000000 0.000000 0.024570 0.000000 0.034609
# 5 0.004716 -0.000402 -0.009548 0.000000 0.044452 0.000000
# 6 0.000000 0.000000 0.000000 0.034609 0.000000 -0.026071
#
#
# Mechanical properties :
#
#
# Convention : Reuss Voigt Hill
#
# Bulk Modulus (GPa) = 45.82804 52.40108 49.11456
# Shear Modulus (GPa) = 40.15098 17.12777 28.63937
#
# Velocity S-wave (km/s) = 4.66900 3.04948 3.94328
# Velocity P-wave (km/s) = 7.34492 6.39138 6.88468
#
# Compressibility (1/GPa) = 0.02182070
#
# Stress axis : x y z
#
# Youngs Moduli (GPa) = 55.24739 56.50131 81.54065
#
# Poissons Ratio (x) = 0.27086 0.52195
# Poissons Ratio (y) = 0.26485 0.15706
# Poissons Ratio (z) = 0.35364 0.10883
#
# Static dielectric constant tensor:
#      x y z
#    x 1.630950 0.000000 0.041930 
#    y 0.000000 1.645140 0.000000 
#    z 0.041930 0.000000 1.387510 
# 
# From -- ./inp_files/342597.got.cif
#   From: 2010.05.17/outbox.cif.g08.bks.cpg/sg12_172_cif.got.tgz:342597.got - 2010.06.03 13:09:07.
