data_PCOD9221018
_publ_section_title
;
Structure prediction by ZEFSAII (Michael W. Deem and Ramdas Pophale) SiO2 
 PCOD9221018
Probable space group: C 2/M
;
_chemical_formula_sum "Si O2"
_cell_formula_units_Z 34
_cell_length_a 18.842460
_cell_length_b 21.680448
_cell_length_c 7.661783
_cell_angle_alpha 90.000000
_cell_angle_beta 28.770711
_cell_angle_gamma 90.000000
_cell_volume 1506.456736
_symmetry_space_group_name_H-M "C 2/M"
_symmetry_group_IT_number 12
_symmetry_cell_setting 'monoclinic'
loop_
_space_group_symop_operation_xyz
x,y,z
-x,y,-z
-x,-y,-z
x,-y,z
1/2+x,1/2+y,z
1/2-x,1/2+y,-z
1/2-x,1/2-y,-z
1/2+x,1/2-y,z
loop_
_atom_site_type_symbol
_atom_site_label
_atom_site_fract_x
_atom_site_fract_y
_atom_site_fract_z
Si Si1 0.000000 0.500000 0.000000
Si Si2 0.470916 0.430136 0.274357
Si Si3 0.665808 0.320028 0.861692
Si Si4 0.674559 0.114063 0.798062
Si Si5 0.538184 0.783751 0.614720
O O1 0.110603 0.554313 0.839276
O O2 0.489686 0.500000 0.294818
O O3 0.303547 0.406606 0.651756
O O4 0.500000 0.429928 0.000000
O O5 0.587018 0.381956 0.101092
O O6 0.749920 0.340358 0.505062
O O7 0.790555 0.291559 0.715849
O O8 0.538185 0.270207 0.110004
O O9 0.542519 0.151876 0.168925
O O10 0.500000 0.767234 0.500000
#
# Coordination Sequence:
#
# PCOD9221018 Si02
#       5
#     2   8   8   8   8
#     4  12  20  40  72  96 128 152 212 262 308 360
#     4   9  19  35  63  94 124 154 202 258 309 359
#     4  11  23  40  65  93 124 164 212 257 305 367
#     4  11  22  40  69  96 122 161 210 255 311 369
#     4  12  25  42  62  90 129 166 206 258 314 369
#
# _framework density 22.569517999999999
#
# number of rings (size 3 to 8) (size 9 to 14) (size 15 to 20)
#    0.000    1.176    3.529    2.824    1.647    3.765 
#    0.000    0.588    0.000    2.118    0.000    0.000 
#    0.000    0.000    0.000    0.000    0.000    0.000 
#
# Total GULP energy -94887.860640 kJ/mol
# GULP energy per Si atom -5581.638861 kJ/mol
# Density = 2.251815 g / cm^3
# Si number density = 22.569518 Si / 1000 Ang^3
#
#
#
# Elastic Constant Matrix: (Units=GPa)
#
#
# Indices 1 2 3 4 5 6 
#
# 1 83.0558 29.6781 48.5970 -0.0003 -24.2392 0.0000
# 2 29.6781 135.5546 50.2169 -0.0006 -16.4606 -0.0002
# 3 48.5970 50.2169 79.7155 -0.0002 -37.1483 -0.0001
# 4 -0.0003 -0.0006 -0.0002 -13.7750 0.0003 -19.6457
# 5 -24.2392 -16.4606 -37.1483 0.0003 41.5176 0.0001
# 6 0.0000 -0.0002 -0.0001 -19.6457 0.0001 19.3074
#
#
#
# Elastic Compliance Matrix: (Units=1/GPa)
#
#
# Indices 1 2 3 4 5 6 
#
# 1 0.018754 0.000088 -0.010925 0.000000 0.001208 0.000000
# 2 0.000088 0.009811 -0.007543 0.000000 -0.002808 0.000000
# 3 -0.010925 -0.007543 0.033601 0.000000 0.020696 0.000000
# 4 0.000000 0.000000 0.000000 -0.029617 0.000000 -0.030135
# 5 0.001208 -0.002808 0.020696 0.000000 0.042197 0.000000
# 6 0.000000 0.000000 0.000000 -0.030135 0.000000 0.021130
#
#
# Mechanical properties :
#
#
# Convention : Reuss Voigt Hill
#
# Bulk Modulus (GPa) = 39.36002 61.70110 50.53056
# Shear Modulus (GPa) = 35.43484 20.73227 28.08355
#
# Velocity S-wave (km/s) = 3.96666 3.03412 3.53131
# Velocity P-wave (km/s) = 6.20133 6.29858 6.25015
#
# Compressibility (1/GPa) = 0.02540649
#
# Stress axis : x y z
#
# Youngs Moduli (GPa) = 53.32253 101.92571 29.76105
#
# Poissons Ratio (x) = -0.00898 0.32515
# Poissons Ratio (y) = -0.00470 0.22447
# Poissons Ratio (z) = 0.58256 0.76878
#
# Static dielectric constant tensor:
#      x y z
#    x 1.864720 0.000000 0.019480 
#    y 0.000000 1.826670 0.000000 
#    z 0.019480 0.000000 1.842900 
# 
# From -- ./inp_files/88321.got.cif
#   From: 2010.05.17/outbox.cif.g08.bks.cpg/sg12_45_cif.got.tgz:88321.got - 2010.06.03 13:09:07.
