data_PCOD9221215
_publ_section_title
;
Structure prediction by ZEFSAII (Michael W. Deem and Ramdas Pophale) SiO2 
 PCOD9221215
Probable space group: C 2/M
;
_chemical_formula_sum "Si O2"
_cell_formula_units_Z 36
_cell_length_a 8.546871
_cell_length_b 29.894986
_cell_length_c 9.365011
_cell_angle_alpha 90.000000
_cell_angle_beta 131.589712
_cell_angle_gamma 90.000000
_cell_volume 1789.646972
_symmetry_space_group_name_H-M "C 2/M"
_symmetry_group_IT_number 12
_symmetry_cell_setting 'monoclinic'
loop_
_space_group_symop_operation_xyz
x,y,z
-x,y,-z
-x,-y,-z
x,-y,z
1/2+x,1/2+y,z
1/2-x,1/2+y,-z
1/2-x,1/2-y,-z
1/2+x,1/2-y,z
loop_
_atom_site_type_symbol
_atom_site_label
_atom_site_fract_x
_atom_site_fract_y
_atom_site_fract_z
Si Si1 0.855029 0.619204 0.534417
Si Si2 0.000000 0.825615 0.500000
Si Si3 0.460354 0.447863 0.805922
Si Si4 0.766242 0.705769 0.917751
Si Si5 0.159525 0.389893 0.968687
O O1 0.683628 0.646432 0.526853
O O2 0.725820 0.581250 0.372444
O O3 0.000000 0.643271 0.500000
O O4 0.023437 0.599469 0.747617
O O5 0.888852 0.796959 0.310099
O O6 0.434752 0.500000 0.758428
O O7 0.500000 0.442649 0.000000
O O8 0.673867 0.426084 0.879505
O O9 0.750000 0.750000 0.000000
O O10 0.734662 0.659098 0.984957
O O11 0.000000 0.705775 0.000000
O O12 0.000000 0.384992 0.000000
#
# Coordination Sequence:
#
# PCOD9221215 Si02
#       5
#     8   4   8   8   8
#     4  12  23  41  76  99 133 193 232 280 353 409
#     4  12  24  48  71 102 146 174 237 292 334 424
#     4  11  24  41  65 102 140 178 233 292 342 413
#     4  11  25  45  70 101 140 180 226 289 348 413
#     4  11  22  45  68  97 141 181 227 291 349 411
#
# _framework density 20.115697999999998
#
# number of rings (size 3 to 8) (size 9 to 14) (size 15 to 20)
#    0.000    0.667    8.889    0.000    0.000    5.333 
#    2.000    3.889    0.000    0.000    0.000    0.000 
#    0.000    0.000    0.000    0.000    0.000    0.000 
#
# Total GULP energy -100367.898808 kJ/mol
# GULP energy per Si atom -5575.994378 kJ/mol
# Density = 2.006991 g / cm^3
# Si number density = 20.115698 Si / 1000 Ang^3
#
#
#
# Elastic Constant Matrix: (Units=GPa)
#
#
# Indices 1 2 3 4 5 6 
#
# 1 96.4808 31.2449 27.2690 0.0000 -5.5471 0.0000
# 2 31.2449 88.4083 65.3672 0.0000 -11.6222 0.0000
# 3 27.2690 65.3672 188.4707 0.0000 11.5129 0.0000
# 4 0.0000 0.0000 0.0000 38.3498 0.0000 -3.0396
# 5 -5.5471 -11.6222 11.5129 0.0000 26.2753 0.0000
# 6 0.0000 0.0000 0.0000 -3.0396 0.0000 16.2780
#
#
#
# Elastic Compliance Matrix: (Units=1/GPa)
#
#
# Indices 1 2 3 4 5 6 
#
# 1 0.011747 -0.003633 -0.000506 0.000000 0.001095 0.000000
# 2 -0.003633 0.018917 -0.006678 0.000000 0.010526 0.000000
# 3 -0.000506 -0.006678 0.008099 0.000000 -0.006610 0.000000
# 4 0.000000 0.000000 0.000000 0.026467 0.000000 0.004942
# 5 0.001095 0.010526 -0.006610 0.000000 0.045842 0.000000
# 6 0.000000 0.000000 0.000000 0.004942 0.000000 0.062355
#
#
# Mechanical properties :
#
#
# Convention : Reuss Voigt Hill
#
# Bulk Modulus (GPa) = 58.38618 69.01354 63.69986
# Shear Modulus (GPa) = 24.90371 32.81252 28.85812
#
# Velocity S-wave (km/s) = 3.52237 4.04318 3.79173
# Velocity P-wave (km/s) = 6.75507 7.49528 7.13478
#
# Compressibility (1/GPa) = 0.01712734
#
# Stress axis : x y z
#
# Youngs Moduli (GPa) = 85.12455 52.86313 123.47073
#
# Poissons Ratio (x) = 0.19207 0.06253
# Poissons Ratio (y) = 0.30929 0.82456
# Poissons Ratio (z) = 0.04311 0.35303
#
# Static dielectric constant tensor:
#      x y z
#    x 1.794610 0.000000 -0.002870 
#    y 0.000000 1.717300 0.000000 
#    z -0.002870 0.000000 1.705410 
# 
# From -- ./inp_files/41339.got.cif
#   From: 2010.05.17/outbox.cif.g08.bks.cpg/sg12_21_cif.got.tgz:41339.got - 2010.06.03 13:09:07.
