data_PCOD9221717
_publ_section_title
;
Structure prediction by ZEFSAII (Michael W. Deem and Ramdas Pophale) SiO2 
 PCOD9221717
Probable space group: C 2/M
;
_chemical_formula_sum "Si O2"
_cell_formula_units_Z 24
_cell_length_a 7.228603
_cell_length_b 15.838302
_cell_length_c 8.068401
_cell_angle_alpha 90.000000
_cell_angle_beta 78.255071
_cell_angle_gamma 90.000000
_cell_volume 904.401605
_symmetry_space_group_name_H-M "C 2/M"
_symmetry_group_IT_number 12
_symmetry_cell_setting 'monoclinic'
loop_
_space_group_symop_operation_xyz
x,y,z
-x,y,-z
-x,-y,-z
x,-y,z
1/2+x,1/2+y,z
1/2-x,1/2+y,-z
1/2-x,1/2-y,-z
1/2+x,1/2-y,z
loop_
_atom_site_type_symbol
_atom_site_label
_atom_site_fract_x
_atom_site_fract_y
_atom_site_fract_z
Si Si1 0.591231 0.646902 0.156094
Si Si2 0.461833 0.161967 0.244681
Si Si3 0.238969 0.906554 0.575596
O O1 0.545784 0.746522 0.188323
O O2 0.815110 0.633416 0.129884
O O3 0.473409 0.603290 0.323596
O O4 0.500000 0.620212 0.000000
O O5 0.632174 0.106460 0.283625
O O6 0.317972 0.160811 0.429631
O O7 0.272568 0.000000 0.501596
#
# Coordination Sequence:
#
# PCOD9221717 Si02
#       3
#     8   8   8
#     4  12  25  41  70 100 131 170 219 268 324 387
#     4  11  23  42  70  95 128 173 219 269 314 383
#     4  11  26  44  67  99 131 170 220 269 325 384
#
# _framework density 26.536881999999999
#
# number of rings (size 3 to 8) (size 9 to 14) (size 15 to 20)
#    0.000    0.667    3.333    5.000    4.667    4.667 
#    0.000    1.667    0.000    0.000    0.000    0.000 
#    0.000    0.000    0.000    0.000    0.000    0.000 
#
# Total GULP energy -67245.736107 kJ/mol
# GULP energy per Si atom -5603.811342 kJ/mol
# Density = 2.647648 g / cm^3
# Si number density = 26.536882 Si / 1000 Ang^3
#
#
#
# Elastic Constant Matrix: (Units=GPa)
#
#
# Indices 1 2 3 4 5 6 
#
# 1 184.3739 -10.9906 13.0715 0.0000 17.5600 0.0000
# 2 -10.9906 36.9418 0.4639 0.0000 -3.7327 0.0000
# 3 13.0715 0.4639 101.6092 0.0000 15.0039 0.0000
# 4 0.0000 0.0000 0.0000 9.5423 0.0000 9.9679
# 5 17.5600 -3.7327 15.0039 0.0000 62.1382 0.0000
# 6 0.0000 0.0000 0.0000 9.9679 0.0000 18.8188
#
#
#
# Elastic Compliance Matrix: (Units=1/GPa)
#
#
# Indices 1 2 3 4 5 6 
#
# 1 0.005686 0.001559 -0.000534 0.000000 -0.001384 0.000000
# 2 0.001559 0.027676 -0.000526 0.000000 0.001349 0.000000
# 3 -0.000534 -0.000526 0.010261 0.000000 -0.002358 0.000000
# 4 0.000000 0.000000 0.000000 0.234601 0.000000 -0.124262
# 5 -0.001384 0.001349 -0.002358 0.000000 0.017135 0.000000
# 6 0.000000 0.000000 0.000000 -0.124262 0.000000 0.118957
#
#
# Mechanical properties :
#
#
# Convention : Reuss Voigt Hill
#
# Bulk Modulus (GPa) = 22.41140 36.44605 29.42873
# Shear Modulus (GPa) = 11.67698 39.45854 25.56776
#
# Velocity S-wave (km/s) = 2.09996 3.86026 3.10737
# Velocity P-wave (km/s) = 3.78728 5.79937 4.89777
#
# Compressibility (1/GPa) = 0.04462015
#
# Stress axis : x y z
#
# Youngs Moduli (GPa) = 175.85852 36.13212 97.45653
#
# Poissons Ratio (x) = -0.05632 0.05206
# Poissons Ratio (y) = -0.27409 0.05127
# Poissons Ratio (z) = 0.09395 0.01901
#
# Static dielectric constant tensor:
#      x y z
#    x 2.093000 0.000000 0.064580 
#    y 0.000000 1.966170 0.000000 
#    z 0.064580 0.000000 2.181710 
# 
# From -- ./inp_files/35759.got.cif
#   From: 2010.05.17/outbox.cif.g08.bks.cpg/sg12_18_cif.got.tgz:35759.got - 2010.06.03 13:09:07.
