data_PCOD9221920
_publ_section_title
;
Structure prediction by ZEFSAII (Michael W. Deem and Ramdas Pophale) SiO2 
 PCOD9221920
Probable space group: C 2/M
;
_chemical_formula_sum "Si O2"
_cell_formula_units_Z 40
_cell_length_a 9.469467
_cell_length_b 25.280165
_cell_length_c 14.767859
_cell_angle_alpha 90.000000
_cell_angle_beta 144.336917
_cell_angle_gamma 90.000000
_cell_volume 2061.127344
_symmetry_space_group_name_H-M "C 2/M"
_symmetry_group_IT_number 12
_symmetry_cell_setting 'monoclinic'
loop_
_space_group_symop_operation_xyz
x,y,z
-x,y,-z
-x,-y,-z
x,-y,z
1/2+x,1/2+y,z
1/2-x,1/2+y,-z
1/2-x,1/2-y,-z
1/2+x,1/2-y,z
loop_
_atom_site_type_symbol
_atom_site_label
_atom_site_fract_x
_atom_site_fract_y
_atom_site_fract_z
Si Si1 0.156936 0.440549 0.718816
Si Si2 0.785324 0.152264 0.155143
Si Si3 0.608879 0.668160 0.147659
Si Si4 0.475003 0.741781 0.385265
Si Si5 0.868447 0.941175 0.623719
O O1 0.201706 0.500000 0.779842
O O2 0.281123 0.388812 0.824224
O O3 0.261272 0.441199 0.670374
O O4 0.868093 0.431967 0.561212
O O5 0.844195 0.201870 0.249410
O O6 0.905700 0.161424 0.119045
O O7 0.927835 0.102847 0.272961
O O8 0.500000 0.143350 0.000000
O O9 0.821856 0.703870 0.301216
O O10 0.500000 0.693384 0.000000
O O11 0.500000 0.721062 0.500000
O O12 0.750000 0.750000 0.500000
O O13 0.962551 0.000000 0.653840
#
# Coordination Sequence:
#
# PCOD9221920 Si02
#       5
#     8   8   8   8   8
#     4   8  15  31  59  88 115 149 195 244 288 339
#     4  11  24  40  59  89 124 157 193 240 300 352
#     4  11  24  39  60  90 124 154 195 244 292 352
#     4  12  25  42  65  86 113 154 202 251 294 347
#     4   8  15  32  59  87 114 152 197 240 286 344
#
# _framework density 19.406856000000001
#
# number of rings (size 3 to 8) (size 9 to 14) (size 15 to 20)
#    0.000    2.000    2.000    3.000    5.600    2.400 
#    0.000    0.000    0.000    0.600    0.000    0.000 
#    0.000    0.000    0.000    0.000    0.000    0.000 
#
# Total GULP energy -111584.678739 kJ/mol
# GULP energy per Si atom -5579.233937 kJ/mol
# Density = 1.936268 g / cm^3
# Si number density = 19.406856 Si / 1000 Ang^3
#
#
#
# Elastic Constant Matrix: (Units=GPa)
#
#
# Indices 1 2 3 4 5 6 
#
# 1 72.6046 27.7413 37.1695 0.0000 19.3763 0.0000
# 2 27.7413 104.3184 52.1609 0.0000 24.5115 0.0000
# 3 37.1695 52.1609 95.1769 0.0000 22.5666 0.0000
# 4 0.0000 0.0000 0.0000 26.1133 0.0000 0.4786
# 5 19.3763 24.5115 22.5666 0.0000 41.8137 0.0000
# 6 0.0000 0.0000 0.0000 0.4786 0.0000 12.0982
#
#
#
# Elastic Compliance Matrix: (Units=1/GPa)
#
#
# Indices 1 2 3 4 5 6 
#
# 1 0.018241 -0.000980 -0.005411 0.000000 -0.004958 0.000000
# 2 -0.000980 0.014002 -0.006253 0.000000 -0.004379 0.000000
# 3 -0.005411 -0.006253 0.016723 0.000000 -0.002853 0.000000
# 4 0.000000 0.000000 0.000000 0.038322 0.000000 -0.001516
# 5 -0.004958 -0.004379 -0.002853 0.000000 0.030320 0.000000
# 6 0.000000 0.000000 0.000000 -0.001516 0.000000 0.082717
#
#
# Mechanical properties :
#
#
# Convention : Reuss Voigt Hill
#
# Bulk Modulus (GPa) = 42.23237 56.24925 49.24081
# Shear Modulus (GPa) = 21.41279 26.34026 23.87652
#
# Velocity S-wave (km/s) = 3.32529 3.68811 3.51139
# Velocity P-wave (km/s) = 6.04585 6.86901 6.47053
#
# Compressibility (1/GPa) = 0.02367852
#
# Stress axis : x y z
#
# Youngs Moduli (GPa) = 54.82149 71.41773 59.79836
#
# Poissons Ratio (x) = 0.07001 0.32356
# Poissons Ratio (y) = 0.05374 0.37389
# Poissons Ratio (z) = 0.29663 0.44654
#
# Static dielectric constant tensor:
#      x y z
#    x 1.603680 0.000000 0.018570 
#    y 0.000000 1.719850 0.000000 
#    z 0.018570 0.000000 1.589270 
# 
# From -- ./inp_files/39246.got.cif
#   From: 2010.05.17/outbox.cif.g08.bks.cpg/sg12_20_cif.got.tgz:39246.got - 2010.06.03 13:09:07.
