data_PCOD9221108
_publ_section_title
;
Structure prediction by ZEFSAII (Michael W. Deem and Ramdas Pophale) SiO2 
 PCOD9221108
Probable space group: C 2/M
;
_chemical_formula_sum "Si O2"
_cell_formula_units_Z 48
_cell_length_a 15.248657
_cell_length_b 22.634401
_cell_length_c 8.815598
_cell_angle_alpha 90.000000
_cell_angle_beta 61.430010
_cell_angle_gamma 90.000000
_cell_volume 2672.159751
_symmetry_space_group_name_H-M "C 2/M"
_symmetry_group_IT_number 12
_symmetry_cell_setting 'monoclinic'
loop_
_space_group_symop_operation_xyz
x,y,z
-x,y,-z
-x,-y,-z
x,-y,z
1/2+x,1/2+y,z
1/2-x,1/2+y,-z
1/2-x,1/2-y,-z
1/2+x,1/2-y,z
loop_
_atom_site_type_symbol
_atom_site_label
_atom_site_fract_x
_atom_site_fract_y
_atom_site_fract_z
Si Si1 0.846672 0.000000 0.213155
Si Si2 0.213102 0.881394 0.590360
Si Si3 0.936297 0.000000 0.808277
Si Si4 0.608125 0.614085 0.358515
Si Si5 0.906852 0.692027 0.488628
Si Si6 0.723985 0.274802 0.184700
Si Si7 0.587093 0.268117 0.805684
O O1 0.791680 0.060090 0.304736
O O2 0.950141 0.000000 0.224486
O O3 0.871682 0.000000 0.014788
O O4 0.171951 0.897189 0.457707
O O5 0.323385 0.853463 0.498895
O O6 0.139460 0.830100 0.716767
O O7 0.914351 0.056881 0.723383
O O8 0.500000 0.637979 0.500000
O O9 0.670196 0.662591 0.215914
O O10 0.848878 0.733735 0.655944
O O11 0.944228 0.733851 0.320677
O O12 0.000000 0.664481 0.500000
O O13 0.827218 0.273045 0.191792
O O14 0.750000 0.250000 0.000000
O O15 0.500000 0.277166 0.000000
#
# Coordination Sequence:
#
# PCOD9221108 Si02
#       7
#     4   8   4   8   8   8   8
#     4  11  25  42  58  91 123 155 209 256 299 365
#     4  11  23  41  63  88 125 164 204 252 301 367
#     4  11  26  37  62  92 120 162 201 248 316 367
#     4  12  22  39  61  90 125 162 200 244 310 370
#     4  11  22  42  61  91 125 164 204 254 304 362
#     4  11  23  36  60  92 127 161 205 249 307 365
#     4  11  23  38  60  95 126 161 201 251 307 367
#
# _framework density 17.962997000000001
#
# number of rings (size 3 to 8) (size 9 to 14) (size 15 to 20)
#    0.000    0.833    5.000    3.250    9.333    0.000 
#    0.000    0.417    0.000    0.000    0.000    2.333 
#    0.000    0.000    0.000    0.000    0.000    0.000 
#
# Total GULP energy -134119.940861 kJ/mol
# GULP energy per Si atom -5588.330869 kJ/mol
# Density = 1.792211 g / cm^3
# Si number density = 17.962997 Si / 1000 Ang^3
#
#
#
# Elastic Constant Matrix: (Units=GPa)
#
#
# Indices 1 2 3 4 5 6 
#
# 1 103.4218 23.6370 35.4190 0.0000 8.0305 0.0000
# 2 23.6370 96.8886 42.1979 0.0000 -1.3372 0.0000
# 3 35.4190 42.1979 123.1821 0.0000 7.6812 0.0000
# 4 0.0000 0.0000 0.0000 94.0624 0.0000 -42.1097
# 5 8.0305 -1.3372 7.6812 0.0000 24.2467 0.0000
# 6 0.0000 0.0000 0.0000 -42.1097 0.0000 57.9415
#
#
#
# Elastic Compliance Matrix: (Units=1/GPa)
#
#
# Indices 1 2 3 4 5 6 
#
# 1 0.011122 -0.001697 -0.002429 0.000000 -0.003008 0.000000
# 2 -0.001697 0.012488 -0.003946 0.000000 0.002501 0.000000
# 3 -0.002429 -0.003946 0.010336 0.000000 -0.002687 0.000000
# 4 0.000000 0.000000 0.000000 0.015758 0.000000 0.011453
# 5 -0.003008 0.002501 -0.002687 0.000000 0.043228 0.000000
# 6 0.000000 0.000000 0.000000 0.011453 0.000000 0.025582
#
#
# Mechanical properties :
#
#
# Convention : Reuss Voigt Hill
#
# Bulk Modulus (GPa) = 56.17290 58.44449 57.30870
# Shear Modulus (GPa) = 35.56345 50.06601 42.81473
#
# Velocity S-wave (km/s) = 4.45434 5.28510 4.88740
# Velocity P-wave (km/s) = 7.60225 8.35761 7.98886
#
# Compressibility (1/GPa) = 0.01780218
#
# Stress axis : x y z
#
# Youngs Moduli (GPa) = 89.90809 80.07516 96.75013
#
# Poissons Ratio (x) = 0.13588 0.23503
# Poissons Ratio (y) = 0.15257 0.38178
# Poissons Ratio (z) = 0.21841 0.31598
#
# Static dielectric constant tensor:
#      x y z
#    x 1.635470 0.000000 0.018520 
#    y 0.000000 1.597100 0.000000 
#    z 0.018520 0.000000 1.624350 
# 
# From -- ./inp_files/63405.got.cif
#   From: 2010.05.17/outbox.cif.g08.bks.cpg/sg12_32_cif.got.tgz:63405.got - 2010.06.03 13:09:07.
