data_PCOD9221289
_publ_section_title
;
Structure prediction by ZEFSAII (Michael W. Deem and Ramdas Pophale) SiO2 
 PCOD9221289
Probable space group: C 2/M
;
_chemical_formula_sum "Si O2"
_cell_formula_units_Z 64
_cell_length_a 30.756490
_cell_length_b 8.821998
_cell_length_c 16.422912
_cell_angle_alpha 90.000000
_cell_angle_beta 134.217709
_cell_angle_gamma 90.000000
_cell_volume 3193.657385
_symmetry_space_group_name_H-M "C 2/M"
_symmetry_group_IT_number 12
_symmetry_cell_setting 'monoclinic'
loop_
_space_group_symop_operation_xyz
x,y,z
-x,y,-z
-x,-y,-z
x,-y,z
1/2+x,1/2+y,z
1/2-x,1/2+y,-z
1/2-x,1/2-y,-z
1/2+x,1/2-y,z
loop_
_atom_site_type_symbol
_atom_site_label
_atom_site_fract_x
_atom_site_fract_y
_atom_site_fract_z
Si Si1 0.675244 0.681035 0.180782
Si Si2 0.691149 0.167538 0.950316
Si Si3 0.697371 0.677365 0.687459
Si Si4 0.190278 0.680657 0.379513
Si Si5 0.904536 0.315957 0.051483
Si Si6 0.879418 0.178044 0.570630
Si Si7 0.600875 0.170445 0.680130
Si Si8 0.004426 0.683586 0.683972
O O1 0.674250 0.500000 0.178970
O O2 0.738417 0.737283 0.220681
O O3 0.679649 0.745708 0.277866
O O4 0.613606 0.745627 0.058458
O O5 0.652490 0.242305 0.970004
O O6 0.646236 0.155734 0.815826
O O7 0.708043 0.000000 0.000382
O O8 0.750000 0.250000 0.000000
O O9 0.706753 0.500000 0.716728
O O10 0.675003 0.694099 0.565282
O O11 0.641078 0.737314 0.668353
O O12 0.196460 0.500000 0.380105
O O13 0.250000 0.750000 0.500000
O O14 0.136041 0.725737 0.369826
O O15 0.903761 0.500000 0.044648
O O16 0.960341 0.278805 0.184851
O O17 0.939594 0.239867 0.606060
O O18 0.885458 0.000000 0.598127
O O19 0.540955 0.230496 0.649218
O O20 0.588221 0.000000 0.631219
O O21 0.001211 0.500000 0.676280
#
# Coordination Sequence:
#
# PCOD9221289 Si02
#       8
#     8   8   8   8   8   8   8   8
#     4  12  24  38  61  92 124 156 194 245 301 358
#     4   9  17  29  47  73 107 148 192 240 292 345
#     4  11  23  37  56  85 122 160 200 249 304 356
#     4  12  24  42  67  93 121 153 192 240 299 360
#     4   9  19  37  58  82 116 156 197 243 297 354
#     4  11  24  41  62  88 120 158 200 248 299 355
#     4   9  19  35  54  80 115 155 202 249 295 350
#     4   9  20  40  63  86 118 162 206 249 298 351
#
# _framework density 20.039719999999999
#
# number of rings (size 3 to 8) (size 9 to 14) (size 15 to 20)
#    0.000    1.750    1.250    5.250    0.000    6.000 
#    0.000    5.625    0.000    3.750    0.000    0.000 
#    0.000    0.000    0.000    0.000    0.000    0.000 
#
# Total GULP energy -178502.695188 kJ/mol
# GULP energy per Si atom -5578.209225 kJ/mol
# Density = 1.999411 g / cm^3
# Si number density = 20.039720 Si / 1000 Ang^3
#
#
#
# Elastic Constant Matrix: (Units=GPa)
#
#
# Indices 1 2 3 4 5 6 
#
# 1 68.6965 15.8993 2.6483 0.0000 -4.1045 0.0000
# 2 15.8993 76.8223 25.0108 0.0000 -3.4154 0.0000
# 3 2.6483 25.0108 77.0035 0.0000 -11.7742 0.0000
# 4 0.0000 0.0000 0.0000 26.1724 0.0000 -0.4426
# 5 -4.1045 -3.4154 -11.7742 0.0000 32.1006 0.0000
# 6 0.0000 0.0000 0.0000 -0.4426 0.0000 29.3811
#
#
#
# Elastic Compliance Matrix: (Units=1/GPa)
#
#
# Indices 1 2 3 4 5 6 
#
# 1 0.015423 -0.003388 0.000865 0.000000 0.001929 0.000000
# 2 -0.003388 0.015302 -0.004948 0.000000 -0.000620 0.000000
# 3 0.000865 -0.004948 0.015362 0.000000 0.005219 0.000000
# 4 0.000000 0.000000 0.000000 0.038218 0.000000 0.000576
# 5 0.001929 -0.000620 0.005219 0.000000 0.033247 0.000000
# 6 0.000000 0.000000 0.000000 0.000576 0.000000 0.034044
#
#
# Mechanical properties :
#
#
# Convention : Reuss Voigt Hill
#
# Bulk Modulus (GPa) = 32.10908 34.40435 33.25672
# Shear Modulus (GPa) = 28.26153 29.46173 28.86163
#
# Velocity S-wave (km/s) = 3.75944 3.83844 3.79914
# Velocity P-wave (km/s) = 5.90779 6.07043 5.98966
#
# Compressibility (1/GPa) = 0.03114383
#
# Stress axis : x y z
#
# Youngs Moduli (GPa) = 64.83930 65.35254 65.09630
#
# Poissons Ratio (x) = 0.22140 -0.05630
# Poissons Ratio (y) = 0.21966 0.32212
# Poissons Ratio (z) = -0.05608 0.32338
#
# Static dielectric constant tensor:
#      x y z
#    x 1.711900 0.000000 -0.026120 
#    y 0.000000 1.670200 0.000000 
#    z -0.026120 0.000000 1.738810 
# 
# From -- ./inp_files/249915.got.cif
#   From: 2010.05.17/outbox.cif.g08.bks.cpg/sg12_125_cif.got.tgz:249915.got - 2010.06.03 13:09:07.
