data_PCOD9221147
_publ_section_title
;
Structure prediction by ZEFSAII (Michael W. Deem and Ramdas Pophale) SiO2 
 PCOD9221147
Probable space group: C 2/M
;
_chemical_formula_sum "Si O2"
_cell_formula_units_Z 64
_cell_length_a 33.287741
_cell_length_b 16.566878
_cell_length_c 12.927808
_cell_angle_alpha 90.000000
_cell_angle_beta 26.282214
_cell_angle_gamma 90.000000
_cell_volume 3156.825082
_symmetry_space_group_name_H-M "C 2/M"
_symmetry_group_IT_number 12
_symmetry_cell_setting 'monoclinic'
loop_
_space_group_symop_operation_xyz
x,y,z
-x,y,-z
-x,-y,-z
x,-y,z
1/2+x,1/2+y,z
1/2-x,1/2+y,-z
1/2-x,1/2-y,-z
1/2+x,1/2-y,z
loop_
_atom_site_type_symbol
_atom_site_label
_atom_site_fract_x
_atom_site_fract_y
_atom_site_fract_z
Si Si1 0.203695 0.681229 0.177506
Si Si2 0.390067 0.909841 0.246630
Si Si3 0.014802 0.594435 0.588598
Si Si4 0.517057 0.403144 0.284516
Si Si5 0.514732 0.309871 0.845975
Si Si6 0.629125 0.593369 0.219467
Si Si7 0.794748 0.734566 0.593468
Si Si8 0.613824 0.828096 0.947368
O O1 0.100450 0.653797 0.406687
O O2 0.221394 0.705323 0.253841
O O3 0.250000 0.750000 0.000000
O O4 0.265542 0.604282 0.009939
O O5 0.335827 0.840252 0.432785
O O6 0.365614 0.897658 0.183027
O O7 0.366631 0.000000 0.337971
O O8 0.500000 0.902403 0.000000
O O9 0.029229 0.500000 0.588483
O O10 0.000000 0.593218 0.500000
O O11 0.932343 0.633584 0.844436
O O12 0.518821 0.500000 0.272806
O O13 0.519597 0.369888 0.163584
O O14 0.426888 0.373042 0.553787
O O15 0.593766 0.375410 0.189807
O O16 0.622223 0.297144 0.589937
O O17 0.500000 0.330727 0.000000
O O18 0.460185 0.228662 0.940131
O O19 0.605070 0.500000 0.273243
O O20 0.703735 0.775384 0.760153
#
# Coordination Sequence:
#
# PCOD9221147 Si02
#       8
#     8   8   8   8   8   8   8   8
#     4  12  23  39  62  99 127 165 216 267 333 401
#     4  11  22  42  70  99 130 172 224 274 331 394
#     4  11  25  44  66  97 135 174 217 277 340 397
#     4   9  20  39  62  89 126 172 215 261 323 392
#     4  12  23  41  63  93 132 171 217 273 333 388
#     4   9  19  38  63  90 123 167 214 267 323 385
#     4  12  24  41  65  98 129 171 219 272 333 389
#     4  12  23  44  67  93 132 176 218 276 330 396
#
# _framework density 20.273533
#
# number of rings (size 3 to 8) (size 9 to 14) (size 15 to 20)
#    0.000    1.000    3.750    4.125    0.000    2.250 
#    0.000    3.125    0.000    0.000    0.000    0.000 
#    0.000    0.000    0.000    0.000    0.000    0.000 
#
# Total GULP energy -178519.482909 kJ/mol
# GULP energy per Si atom -5578.733841 kJ/mol
# Density = 2.022739 g / cm^3
# Si number density = 20.273533 Si / 1000 Ang^3
#
#
#
# Elastic Constant Matrix: (Units=GPa)
#
#
# Indices 1 2 3 4 5 6 
#
# 1 83.1693 32.0279 25.3076 0.0000 17.7542 0.0000
# 2 32.0279 83.6633 36.0622 0.0000 6.5125 0.0000
# 3 25.3076 36.0622 94.5826 0.0000 -0.2722 0.0000
# 4 0.0000 0.0000 0.0000 26.7402 0.0000 1.2266
# 5 17.7542 6.5125 -0.2722 0.0000 43.2480 0.0000
# 6 0.0000 0.0000 0.0000 1.2266 0.0000 21.5773
#
#
#
# Elastic Compliance Matrix: (Units=1/GPa)
#
#
# Indices 1 2 3 4 5 6 
#
# 1 0.015762 -0.004495 -0.002520 0.000000 -0.005809 0.000000
# 2 -0.004495 0.015796 -0.004821 0.000000 -0.000563 0.000000
# 3 -0.002520 -0.004821 0.013091 0.000000 0.001843 0.000000
# 4 0.000000 0.000000 0.000000 0.037495 0.000000 -0.002131
# 5 -0.005809 -0.000563 0.001843 0.000000 0.025604 0.000000
# 6 0.000000 0.000000 0.000000 -0.002131 0.000000 0.046466
#
#
# Mechanical properties :
#
#
# Convention : Reuss Voigt Hill
#
# Bulk Modulus (GPa) = 47.67718 49.80119 48.73918
# Shear Modulus (GPa) = 27.04488 29.51426 28.27957
#
# Velocity S-wave (km/s) = 3.65636 3.81964 3.73889
# Velocity P-wave (km/s) = 6.43376 6.63858 6.53697
#
# Compressibility (1/GPa) = 0.02097440
#
# Stress axis : x y z
#
# Youngs Moduli (GPa) = 63.44438 63.30860 76.39055
#
# Poissons Ratio (x) = 0.28460 0.19251
# Poissons Ratio (y) = 0.28521 0.36830
# Poissons Ratio (z) = 0.15989 0.30523
#
# Static dielectric constant tensor:
#      x y z
#    x 1.711390 0.000000 0.007380 
#    y 0.000000 1.780570 0.000000 
#    z 0.007380 0.000000 1.678350 
# 
# From -- ./inp_files/190038.got.cif
#   From: 2010.05.17/outbox.cif.g08.bks.cpg/sg12_96_cif.got.tgz:190038.got - 2010.06.03 13:09:07.
