data_PCOD9221275
_publ_section_title
;
Structure prediction by ZEFSAII (Michael W. Deem and Ramdas Pophale) SiO2 
 PCOD9221275
Probable space group: C 2/M
;
_chemical_formula_sum "Si O2"
_cell_formula_units_Z 44
_cell_length_a 9.308858
_cell_length_b 17.488958
_cell_length_c 17.248471
_cell_angle_alpha 90.000000
_cell_angle_beta 47.182874
_cell_angle_gamma 90.000000
_cell_volume 2059.808734
_symmetry_space_group_name_H-M "C 2/M"
_symmetry_group_IT_number 12
_symmetry_cell_setting 'monoclinic'
loop_
_space_group_symop_operation_xyz
x,y,z
-x,y,-z
-x,-y,-z
x,-y,z
1/2+x,1/2+y,z
1/2-x,1/2+y,-z
1/2-x,1/2-y,-z
1/2+x,1/2-y,z
loop_
_atom_site_type_symbol
_atom_site_label
_atom_site_fract_x
_atom_site_fract_y
_atom_site_fract_z
Si Si1 0.030672 0.500000 0.645014
Si Si2 0.670155 0.871098 0.385357
Si Si3 0.500000 0.373212 0.000000
Si Si4 0.335682 0.000000 0.884477
Si Si5 0.376749 0.500000 0.413595
Si Si6 0.552068 0.274279 0.824183
Si Si7 0.693992 0.159923 0.879274
Si Si8 0.751929 0.500000 0.191163
O O1 0.260867 0.500000 0.537525
O O2 0.936292 0.427070 0.636441
O O3 0.951666 0.500000 0.760603
O O4 0.500000 0.834187 0.500000
O O5 0.800905 0.812904 0.289883
O O6 0.796444 0.926360 0.395165
O O7 0.310123 0.427475 0.056787
O O8 0.467472 0.322920 0.089084
O O9 0.514949 0.000000 0.879191
O O10 0.610537 0.500000 0.318077
O O11 0.627812 0.190931 0.820019
O O12 0.340712 0.279162 0.862648
O O13 0.793578 0.077357 0.838362
O O14 0.500000 0.153849 0.000000
#
# Coordination Sequence:
#
# PCOD9221275 Si02
#       8
#     4   8   4   4   4   8   8   4
#     4   9  17  33  64  94 126 165 222 264 315 384
#     4   9  18  37  67  94 121 167 222 264 318 388
#     4  11  24  40  64  95 134 174 218 261 330 388
#     4  11  23  36  62 101 132 170 219 270 318 389
#     4   9  18  37  63  93 122 173 214 266 320 389
#     4  12  24  43  68  94 131 172 218 271 326 387
#     4  12  27  43  67  94 136 173 217 262 332 390
#     4  12  25  42  65  94 137 169 216 268 328 387
#
# _framework density 21.361207
#
# number of rings (size 3 to 8) (size 9 to 14) (size 15 to 20)
#    0.000    1.273    4.545    3.000    2.545    1.818 
#    0.000    0.909    4.000    0.000    0.000    0.000 
#    0.000    0.000    0.000    0.000    0.000    0.000 
#
# Total GULP energy -122982.077280 kJ/mol
# GULP energy per Si atom -5590.094422 kJ/mol
# Density = 2.131259 g / cm^3
# Si number density = 21.361207 Si / 1000 Ang^3
#
#
#
# Elastic Constant Matrix: (Units=GPa)
#
#
# Indices 1 2 3 4 5 6 
#
# 1 64.7199 6.1283 14.1317 -0.0001 -15.0397 0.0000
# 2 6.1283 68.6800 30.9291 0.0000 -0.9152 0.0000
# 3 14.1317 30.9291 162.1308 -0.0001 -12.2727 0.0000
# 4 -0.0001 0.0000 -0.0001 -49.1067 0.0001 -0.4432
# 5 -15.0397 -0.9152 -12.2727 0.0001 36.3060 0.0000
# 6 0.0000 0.0000 0.0000 -0.4432 0.0000 13.4567
#
#
#
# Elastic Compliance Matrix: (Units=1/GPa)
#
#
# Indices 1 2 3 4 5 6 
#
# 1 0.017326 -0.001104 -0.000778 0.000000 0.006886 0.000000
# 2 -0.001104 0.016014 -0.003041 0.000000 -0.001081 0.000000
# 3 -0.000778 -0.003041 0.006964 0.000000 0.001955 0.000000
# 4 0.000000 0.000000 0.000000 -0.020358 0.000000 -0.000671
# 5 0.006886 -0.001081 0.001955 0.000000 0.031030 0.000000
# 6 0.000000 0.000000 0.000000 -0.000671 0.000000 0.074290
#
#
# Mechanical properties :
#
#
# Convention : Reuss Voigt Hill
#
# Bulk Modulus (GPa) = 32.83199 44.21210 38.52205
# Shear Modulus (GPa) = 34.42026 16.42065 25.42046
#
# Velocity S-wave (km/s) = 4.01851 2.77558 3.45342
# Velocity P-wave (km/s) = 6.07738 5.56903 5.82875
#
# Compressibility (1/GPa) = 0.03045810
#
# Stress axis : x y z
#
# Youngs Moduli (GPa) = 57.71702 62.44691 143.60170
#
# Poissons Ratio (x) = 0.06892 0.11177
# Poissons Ratio (y) = 0.06370 0.43662
# Poissons Ratio (z) = 0.04492 0.18987
#
# Static dielectric constant tensor:
#      x y z
#    x 1.799270 0.000000 -0.007250 
#    y 0.000000 1.791780 0.000000 
#    z -0.007250 0.000000 1.758820 
# 
# From -- ./inp_files/197312.got.cif
#   From: 2010.05.17/outbox.cif.g08.bks.cpg/sg12_99_cif.got.tgz:197312.got - 2010.06.03 13:09:07.
