data_PCOD9221568
_publ_section_title
;
Structure prediction by ZEFSAII (Michael W. Deem and Ramdas Pophale) SiO2 
 PCOD9221568
Probable space group: C 2/M
;
_chemical_formula_sum "Si O2"
_cell_formula_units_Z 40
_cell_length_a 12.303058
_cell_length_b 27.731044
_cell_length_c 8.524252
_cell_angle_alpha 90.000000
_cell_angle_beta 144.330599
_cell_angle_gamma 90.000000
_cell_volume 1695.837164
_symmetry_space_group_name_H-M "C 2/M"
_symmetry_group_IT_number 12
_symmetry_cell_setting 'monoclinic'
loop_
_space_group_symop_operation_xyz
x,y,z
-x,y,-z
-x,-y,-z
x,-y,z
1/2+x,1/2+y,z
1/2-x,1/2+y,-z
1/2-x,1/2-y,-z
1/2+x,1/2-y,z
loop_
_atom_site_type_symbol
_atom_site_label
_atom_site_fract_x
_atom_site_fract_y
_atom_site_fract_z
Si Si1 0.022400 0.297969 0.841203
Si Si2 0.322099 0.554846 0.179835
Si Si3 0.046451 0.199352 0.730558
Si Si4 0.934979 0.102082 0.755896
Si Si5 0.037940 0.395328 0.359514
O O1 0.975103 0.242234 0.756832
O O2 0.917521 0.338897 0.620088
O O3 0.230331 0.303811 0.013164
O O4 0.000000 0.308371 0.000000
O O5 0.500000 0.566646 0.500000
O O6 0.266905 0.500000 0.147259
O O7 0.418109 0.561885 0.123885
O O8 0.138264 0.587966 0.952378
O O9 0.000000 0.214023 0.500000
O O10 0.960620 0.147806 0.671324
O O11 0.728555 0.080858 0.523900
O O12 0.000000 0.120980 0.000000
O O13 0.000000 0.403228 0.500000
#
# Coordination Sequence:
#
# PCOD9221568 Si02
#       5
#     8   8   8   8   8
#     4  11  24  39  66 101 139 191 238 285 343 414
#     4  11  27  50  74 104 141 180 234 299 364 426
#     4  11  23  41  64  98 146 188 237 287 343 414
#     4  12  24  44  73 103 145 187 235 293 352 417
#     4  12  25  45  72 105 141 188 236 289 353 427
#
# _framework density 23.587171000000001
#
# number of rings (size 3 to 8) (size 9 to 14) (size 15 to 20)
#    0.000    0.600    4.000    3.000    2.800    8.000 
#    0.000    2.000    0.000    0.000    0.000    0.000 
#    0.000    0.000    0.000    0.000    0.000    0.000 
#
# Total GULP energy -111742.885342 kJ/mol
# GULP energy per Si atom -5587.144267 kJ/mol
# Density = 2.353349 g / cm^3
# Si number density = 23.587171 Si / 1000 Ang^3
#
#
#
# Elastic Constant Matrix: (Units=GPa)
#
#
# Indices 1 2 3 4 5 6 
#
# 1 84.2836 9.1102 19.1562 0.0000 12.2499 0.0000
# 2 9.1102 92.0461 21.0771 0.0000 -2.5622 0.0000
# 3 19.1562 21.0771 82.5189 0.0000 12.3909 0.0000
# 4 0.0000 0.0000 0.0000 48.3045 0.0000 18.3180
# 5 12.2499 -2.5622 12.3909 0.0000 38.3501 0.0000
# 6 0.0000 0.0000 0.0000 18.3180 0.0000 35.3167
#
#
#
# Elastic Compliance Matrix: (Units=1/GPa)
#
#
# Indices 1 2 3 4 5 6 
#
# 1 0.012978 -0.000861 -0.002272 0.000000 -0.003469 0.000000
# 2 -0.000861 0.011717 -0.003102 0.000000 0.002060 0.000000
# 3 -0.002272 -0.003102 0.014042 0.000000 -0.004018 0.000000
# 4 0.000000 0.000000 0.000000 0.025771 0.000000 -0.013367
# 5 -0.003469 0.002060 -0.004018 0.000000 0.028620 0.000000
# 6 0.000000 0.000000 0.000000 -0.013367 0.000000 0.035248
#
#
# Mechanical properties :
#
#
# Convention : Reuss Voigt Hill
#
# Bulk Modulus (GPa) = 38.07105 39.72618 38.89862
# Shear Modulus (GPa) = 33.42206 38.36127 35.89167
#
# Velocity S-wave (km/s) = 3.76834 4.03719 3.90508
# Velocity P-wave (km/s) = 5.92532 6.21375 6.07125
#
# Compressibility (1/GPa) = 0.02626668
#
# Stress axis : x y z
#
# Youngs Moduli (GPa) = 77.05149 85.34580 71.21664
#
# Poissons Ratio (x) = 0.07347 0.16181
# Poissons Ratio (y) = 0.06633 0.22094
# Poissons Ratio (z) = 0.17507 0.26477
#
# Static dielectric constant tensor:
#      x y z
#    x 1.473740 0.000000 -0.323900 
#    y 0.000000 1.851000 0.000000 
#    z -0.323900 0.000000 1.770620 
# 
# From -- ./inp_files/54468.got.cif
#   From: 2010.05.17/outbox.cif.g08.bks.cpg/sg12_28_cif.got.tgz:54468.got - 2010.06.03 13:09:07.
