data_PCOD9221966
_publ_section_title
;
Structure prediction by ZEFSAII (Michael W. Deem and Ramdas Pophale) SiO2 
 PCOD9221966
Probable space group: C 2/M
;
_chemical_formula_sum "Si O2"
_cell_formula_units_Z 40
_cell_length_a 14.949222
_cell_length_b 8.565530
_cell_length_c 17.324036
_cell_angle_alpha 90.000000
_cell_angle_beta 64.750674
_cell_angle_gamma 90.000000
_cell_volume 2006.371511
_symmetry_space_group_name_H-M "C 2/M"
_symmetry_group_IT_number 12
_symmetry_cell_setting 'monoclinic'
loop_
_space_group_symop_operation_xyz
x,y,z
-x,y,-z
-x,-y,-z
x,-y,z
1/2+x,1/2+y,z
1/2-x,1/2+y,-z
1/2-x,1/2-y,-z
1/2+x,1/2-y,z
loop_
_atom_site_type_symbol
_atom_site_label
_atom_site_fract_x
_atom_site_fract_y
_atom_site_fract_z
Si Si1 0.698827 0.810953 0.912201
Si Si2 0.595448 0.816047 0.096220
Si Si3 0.484238 0.687313 0.724374
Si Si4 0.696304 0.313907 0.595070
Si Si5 0.276841 0.312341 0.723993
O O1 0.795887 0.724518 0.909176
O O2 0.698423 0.776954 0.821474
O O3 0.714071 0.000000 0.914050
O O4 0.608145 0.769206 0.001786
O O5 0.522587 0.736421 0.183593
O O6 0.576264 0.000000 0.105426
O O7 0.484033 0.500000 0.722641
O O8 0.583647 0.745294 0.647227
O O9 0.384220 0.737419 0.717277
O O10 0.692960 0.500000 0.590477
O O11 0.750000 0.250000 0.500000
O O12 0.751653 0.265956 0.652970
O O13 0.277960 0.500000 0.713434
#
# Coordination Sequence:
#
# PCOD9221966 Si02
#       5
#     8   8   8   8   8
#     4   8  15  28  47  75 112 149 178 210 261 316
#     4   9  15  25  48  80 109 141 183 222 253 300
#     4   9  20  38  57  78 110 148 178 212 269 329
#     4  11  24  41  59  80 106 137 177 226 277 326
#     4   9  18  36  59  80 107 144 181 216 260 318
#
# _framework density 19.936487
#
# number of rings (size 3 to 8) (size 9 to 14) (size 15 to 20)
#    0.000    2.800    0.000    2.400    0.000    6.400 
#    0.000    5.000    0.000    6.000    0.000    0.000 
#    0.000    0.000    0.000    0.000    0.000    0.000 
#
# Total GULP energy -111495.288508 kJ/mol
# GULP energy per Si atom -5574.764425 kJ/mol
# Density = 1.989111 g / cm^3
# Si number density = 19.936487 Si / 1000 Ang^3
#
#
#
# Elastic Constant Matrix: (Units=GPa)
#
#
# Indices 1 2 3 4 5 6 
#
# 1 96.2813 20.1364 84.4592 0.0000 -18.1641 0.0000
# 2 20.1364 10.7478 38.3539 0.0000 -5.1394 0.0000
# 3 84.4592 38.3539 233.3190 0.0000 -28.7099 0.0000
# 4 0.0000 0.0000 0.0000 36.7022 0.0000 0.9201
# 5 -18.1641 -5.1394 -28.7099 0.0000 40.8550 0.0000
# 6 0.0000 0.0000 0.0000 0.9201 0.0000 16.3824
#
#
#
# Elastic Compliance Matrix: (Units=1/GPa)
#
#
# Indices 1 2 3 4 5 6 
#
# 1 0.018010 -0.025017 -0.001980 0.000000 0.003469 0.000000
# 2 -0.025017 0.260064 -0.033975 0.000000 -0.002283 0.000000
# 3 -0.001980 -0.033975 0.010896 0.000000 0.002502 0.000000
# 4 0.000000 0.000000 0.000000 0.027285 0.000000 -0.001532
# 5 0.003469 -0.002283 0.002502 0.000000 0.027490 0.000000
# 6 0.000000 0.000000 0.000000 -0.001532 0.000000 0.061127
#
#
# Mechanical properties :
#
#
# Convention : Reuss Voigt Hill
#
# Bulk Modulus (GPa) = 5.98716 69.58303 37.78509
# Shear Modulus (GPa) = 8.58381 31.94782 20.26582
#
# Velocity S-wave (km/s) = 2.07724 4.00744 3.19175
# Velocity P-wave (km/s) = 2.96021 7.50939 5.70762
#
# Compressibility (1/GPa) = 0.16702424
#
# Stress axis : x y z
#
# Youngs Moduli (GPa) = 55.52557 3.84520 91.77969
#
# Poissons Ratio (x) = 0.09620 0.18173
# Poissons Ratio (y) = 1.38910 3.11824
# Poissons Ratio (z) = 0.10995 0.13064
#
# Static dielectric constant tensor:
#      x y z
#    x 1.747930 0.000000 -0.017970 
#    y 0.000000 1.684790 0.000000 
#    z -0.017970 0.000000 1.721470 
# 
# From -- ./inp_files/211252.got.cif
#   From: 2010.05.17/outbox.cif.g08.bks.cpg/sg12_106_cif.got.tgz:211252.got - 2010.06.03 13:09:07.
