data_PCOD9221757
_publ_section_title
;
Structure prediction by ZEFSAII (Michael W. Deem and Ramdas Pophale) SiO2 
 PCOD9221757
Probable space group: C 2/M
;
_chemical_formula_sum "Si O2"
_cell_formula_units_Z 56
_cell_length_a 17.063276
_cell_length_b 27.546133
_cell_length_c 8.706362
_cell_angle_alpha 90.000000
_cell_angle_beta 39.866608
_cell_angle_gamma 90.000000
_cell_volume 2623.127765
_symmetry_space_group_name_H-M "C 2/M"
_symmetry_group_IT_number 12
_symmetry_cell_setting 'monoclinic'
loop_
_space_group_symop_operation_xyz
x,y,z
-x,y,-z
-x,-y,-z
x,-y,z
1/2+x,1/2+y,z
1/2-x,1/2+y,-z
1/2-x,1/2-y,-z
1/2+x,1/2-y,z
loop_
_atom_site_type_symbol
_atom_site_label
_atom_site_fract_x
_atom_site_fract_y
_atom_site_fract_z
Si Si1 0.791694 0.264537 0.609362
Si Si2 0.622410 0.356370 0.910858
Si Si3 0.007857 0.663881 0.316317
Si Si4 0.248011 0.159611 0.213957
Si Si5 0.580693 0.000000 0.630777
Si Si6 0.186691 0.500000 0.120981
Si Si7 0.610559 0.417319 0.237846
Si Si8 0.832988 0.600845 0.384843
O O1 0.750000 0.250000 0.500000
O O2 0.697426 0.305345 0.818138
O O3 0.797182 0.212644 0.678291
O O4 0.924883 0.288648 0.420556
O O5 0.715501 0.388362 0.668348
O O6 0.500000 0.345501 0.000000
O O7 0.588892 0.389227 0.109034
O O8 0.000000 0.644666 0.500000
O O9 0.947234 0.627158 0.290694
O O10 0.147169 0.669311 0.067121
O O11 0.146677 0.125836 0.296748
O O12 0.304037 0.128956 0.271438
O O13 0.627585 0.954568 0.660510
O O14 0.644152 0.000000 0.364571
O O15 0.435468 0.000000 0.803271
O O16 0.274281 0.453526 0.958333
O O17 0.500000 0.441949 0.500000
#
# Coordination Sequence:
#
# PCOD9221757 Si02
#       8
#     8   8   8   8   4   4   8   8
#     4  11  25  42  67 101 139 186 234 286 349 407
#     4  11  24  44  70  98 139 186 233 283 342 417
#     4  11  25  42  67  98 141 180 232 288 345 414
#     4  12  25  44  71 102 139 186 231 287 350 407
#     4  11  24  43  79 105 134 175 238 290 356 411
#     4  11  25  47  73 105 138 185 225 290 357 419
#     4  12  27  47  72 104 145 184 231 286 351 423
#     4  11  23  43  68 104 133 173 234 289 350 407
#
# _framework density 21.348559999999999
#
# number of rings (size 3 to 8) (size 9 to 14) (size 15 to 20)
#    0.000    0.714    4.286    4.071    4.000    3.429 
#    0.000    5.000    0.000    0.000    0.000    0.000 
#    0.000    0.000    0.000    0.000    0.000    0.000 
#
# Total GULP energy -156401.040865 kJ/mol
# GULP energy per Si atom -5585.751459 kJ/mol
# Density = 2.129997 g / cm^3
# Si number density = 21.348560 Si / 1000 Ang^3
#
#
#
# Elastic Constant Matrix: (Units=GPa)
#
#
# Indices 1 2 3 4 5 6 
#
# 1 49.3807 36.0408 -1.4583 0.0000 -4.0054 0.0000
# 2 36.0408 157.5569 38.7005 0.0000 -5.9605 0.0000
# 3 -1.4583 38.7005 91.4533 0.0000 -8.0701 0.0000
# 4 0.0000 0.0000 0.0000 -48.3725 0.0000 -7.3347
# 5 -4.0054 -5.9605 -8.0701 0.0000 31.3284 0.0000
# 6 0.0000 0.0000 0.0000 -7.3347 0.0000 9.9294
#
#
#
# Elastic Compliance Matrix: (Units=1/GPa)
#
#
# Indices 1 2 3 4 5 6 
#
# 1 0.025352 -0.006531 0.003422 0.000000 0.002880 0.000000
# 2 -0.006531 0.008776 -0.003831 0.000000 -0.000152 0.000000
# 3 0.003422 -0.003831 0.012877 0.000000 0.003026 0.000000
# 4 0.000000 0.000000 0.000000 -0.018591 0.000000 -0.013733
# 5 0.002880 -0.000152 0.003026 0.000000 0.033039 0.000000
# 6 0.000000 0.000000 0.000000 -0.013733 0.000000 0.090567
#
#
# Mechanical properties :
#
#
# Convention : Reuss Voigt Hill
#
# Bulk Modulus (GPa) = 30.18829 49.43967 39.81398
# Shear Modulus (GPa) = 28.25772 13.58425 20.92099
#
# Velocity S-wave (km/s) = 3.64213 2.52525 3.13385
# Velocity P-wave (km/s) = 5.64430 5.63126 5.63779
#
# Compressibility (1/GPa) = 0.03312543
#
# Stress axis : x y z
#
# Youngs Moduli (GPa) = 39.44447 113.94484 77.65510
#
# Poissons Ratio (x) = 0.74416 -0.26574
# Poissons Ratio (y) = 0.25761 0.29753
# Poissons Ratio (z) = -0.13498 0.43657
#
# Static dielectric constant tensor:
#      x y z
#    x 1.743400 0.000000 0.024420 
#    y 0.000000 1.835980 0.000000 
#    z 0.024420 0.000000 1.763530 
# 
# From -- ./inp_files/80064.got.cif
#   From: 2010.05.17/outbox.cif.g08.bks.cpg/sg12_41_cif.got.tgz:80064.got - 2010.06.03 13:09:07.
