data_PCOD9221071
_publ_section_title
;
Structure prediction by ZEFSAII (Michael W. Deem and Ramdas Pophale) SiO2 
 PCOD9221071
Probable space group: C 2/M
;
_chemical_formula_sum "Si O2"
_cell_formula_units_Z 40
_cell_length_a 24.082855
_cell_length_b 8.259972
_cell_length_c 9.722805
_cell_angle_alpha 90.000000
_cell_angle_beta 110.244845
_cell_angle_gamma 90.000000
_cell_volume 1814.612728
_symmetry_space_group_name_H-M "C 2/M"
_symmetry_group_IT_number 12
_symmetry_cell_setting 'monoclinic'
loop_
_space_group_symop_operation_xyz
x,y,z
-x,y,-z
-x,-y,-z
x,-y,z
1/2+x,1/2+y,z
1/2-x,1/2+y,-z
1/2-x,1/2-y,-z
1/2+x,1/2-y,z
loop_
_atom_site_type_symbol
_atom_site_label
_atom_site_fract_x
_atom_site_fract_y
_atom_site_fract_z
Si Si1 0.307244 0.812933 0.720215
Si Si2 0.149381 0.809063 0.955316
Si Si3 0.685122 0.811380 0.697765
Si Si4 0.901943 0.810375 0.591126
Si Si5 0.486384 0.303135 0.144119
O O1 0.239630 0.755549 0.655117
O O2 0.353455 0.711178 0.670253
O O3 0.312172 0.000000 0.682859
O O4 0.325079 0.788373 0.894561
O O5 0.182510 0.776664 0.841715
O O6 0.080661 0.761739 0.876795
O O7 0.151986 0.000000 0.991694
O O8 0.625039 0.779470 0.562781
O O9 0.694415 0.000000 0.729444
O O10 0.963686 0.747710 0.706284
O O11 0.907874 0.000000 0.561433
O O12 0.490617 0.500000 0.146361
O O13 0.500000 0.247847 0.000000
#
# Coordination Sequence:
#
# PCOD9221071 Si02
#       5
#     8   8   8   8   8
#     4  12  24  41  64  93 125 164 208 254 309 366
#     4  11  22  41  67  94 124 163 208 253 303 365
#     4  12  26  43  60  89 129 166 206 256 313 366
#     4  11  22  41  67  94 124 163 208 253 303 365
#     4   9  18  37  66  95 121 157 204 250 301 368
#
# _framework density 22.043272000000002
#
# number of rings (size 3 to 8) (size 9 to 14) (size 15 to 20)
#    0.000    1.000    2.000    6.000    0.000    0.800 
#    0.000    9.000    0.000    0.000    0.000    0.000 
#    0.000    0.000    0.000    0.000    0.000    0.000 
#
# Total GULP energy -111962.788494 kJ/mol
# GULP energy per Si atom -5598.139425 kJ/mol
# Density = 2.199310 g / cm^3
# Si number density = 22.043272 Si / 1000 Ang^3
#
#
#
# Elastic Constant Matrix: (Units=GPa)
#
#
# Indices 1 2 3 4 5 6 
#
# 1 72.0766 2.7547 -1.4562 0.0000 17.2984 0.0000
# 2 2.7547 50.1470 -15.6305 0.0000 8.9109 0.0000
# 3 -1.4562 -15.6305 62.3800 0.0000 15.3190 0.0000
# 4 0.0000 0.0000 0.0000 34.1807 0.0000 0.7627
# 5 17.2984 8.9109 15.3190 0.0000 45.1679 0.0000
# 6 0.0000 0.0000 0.0000 0.7627 0.0000 17.6050
#
#
#
# Elastic Compliance Matrix: (Units=1/GPa)
#
#
# Indices 1 2 3 4 5 6 
#
# 1 0.015553 0.001120 0.002357 0.000000 -0.006977 0.000000
# 2 0.001120 0.023719 0.007880 0.000000 -0.007781 0.000000
# 3 0.002357 0.007880 0.020360 0.000000 -0.009362 0.000000
# 4 0.000000 0.000000 0.000000 0.029285 0.000000 -0.001269
# 5 -0.006977 -0.007781 -0.009362 0.000000 0.029522 0.000000
# 6 0.000000 0.000000 0.000000 -0.001269 0.000000 0.056857
#
#
# Mechanical properties :
#
#
# Convention : Reuss Voigt Hill
#
# Bulk Modulus (GPa) = 12.14382 17.32661 14.73521
# Shear Modulus (GPa) = 27.77327 32.65310 30.21318
#
# Velocity S-wave (km/s) = 3.55342 3.85296 3.70622
# Velocity P-wave (km/s) = 4.72829 5.26033 5.00139
#
# Compressibility (1/GPa) = 0.08234642
#
# Stress axis : x y z
#
# Youngs Moduli (GPa) = 64.29448 42.16087 49.11709
#
# Poissons Ratio (x) = -0.04723 -0.11578
# Poissons Ratio (y) = -0.07202 -0.38705
# Poissons Ratio (z) = -0.15155 -0.33223
#
# Static dielectric constant tensor:
#      x y z
#    x 1.790450 0.000000 0.025320 
#    y 0.000000 1.751760 0.000000 
#    z 0.025320 0.000000 1.800840 
# 
# From -- ./inp_files/92815.got.cif
#   From: 2010.05.17/outbox.cif.g08.bks.cpg/sg12_47_cif.got.tgz:92815.got - 2010.06.03 13:09:07.
