data_PCOD9221985
_publ_section_title
;
Structure prediction by ZEFSAII (Michael W. Deem and Ramdas Pophale) SiO2 
 PCOD9221985
Probable space group: C 2/M
;
_chemical_formula_sum "Si O2"
_cell_formula_units_Z 32
_cell_length_a 10.307425
_cell_length_b 23.746619
_cell_length_c 10.007387
_cell_angle_alpha 90.000000
_cell_angle_beta 140.168964
_cell_angle_gamma 90.000000
_cell_volume 1568.950600
_symmetry_space_group_name_H-M "C 2/M"
_symmetry_group_IT_number 12
_symmetry_cell_setting 'monoclinic'
loop_
_space_group_symop_operation_xyz
x,y,z
-x,y,-z
-x,-y,-z
x,-y,z
1/2+x,1/2+y,z
1/2-x,1/2+y,-z
1/2-x,1/2-y,-z
1/2+x,1/2-y,z
loop_
_atom_site_type_symbol
_atom_site_label
_atom_site_fract_x
_atom_site_fract_y
_atom_site_fract_z
Si Si1 0.481613 0.236814 0.642561
Si Si2 0.373792 0.565465 0.110983
Si Si3 0.828455 0.672518 0.971750
Si Si4 0.278437 0.066347 0.315176
O O1 0.500000 0.225442 0.500000
O O2 0.250000 0.250000 0.500000
O O3 0.629941 0.289505 0.791851
O O4 0.574810 0.187599 0.808397
O O5 0.370869 0.500000 0.151125
O O6 0.240090 0.607830 0.090044
O O7 0.603556 0.588331 0.274676
O O8 0.292430 0.567559 0.894134
O O9 0.000000 0.686704 0.000000
O O10 0.500000 0.091620 0.500000
O O11 0.291795 0.000000 0.361932
#
# Coordination Sequence:
#
# PCOD9221985 Si02
#       4
#     8   8   8   8
#     4  11  24  45  68  90 121 163 212 266 319 362
#     4   9  19  34  56  88 126 161 198 246 304 370
#     4  11  24  41  64  93 126 162 209 258 313 384
#     4   8  15  31  52  80 117 159 205 247 287 351
#
# _framework density 20.395797999999999
#
# number of rings (size 3 to 8) (size 9 to 14) (size 15 to 20)
#    0.000    2.250    2.500    1.500    0.000    7.500 
#    0.000    0.000    0.000    0.750    0.000    0.000 
#    0.000    0.000    0.000    0.000    0.000    0.000 
#
# Total GULP energy -89271.886313 kJ/mol
# GULP energy per Si atom -5579.492895 kJ/mol
# Density = 2.034938 g / cm^3
# Si number density = 20.395798 Si / 1000 Ang^3
#
#
#
# Elastic Constant Matrix: (Units=GPa)
#
#
# Indices 1 2 3 4 5 6 
#
# 1 120.5190 32.2021 59.9801 0.0000 24.2607 0.0000
# 2 32.2021 82.8552 22.0364 0.0000 13.8279 0.0000
# 3 59.9801 22.0364 103.7941 0.0000 18.4010 0.0000
# 4 0.0000 0.0000 0.0000 9.3363 0.0000 0.9972
# 5 24.2607 13.8279 18.4010 0.0000 47.0747 0.0000
# 6 0.0000 0.0000 0.0000 0.9972 0.0000 27.1970
#
#
#
# Elastic Compliance Matrix: (Units=1/GPa)
#
#
# Indices 1 2 3 4 5 6 
#
# 1 0.012807 -0.002763 -0.006219 0.000000 -0.003358 0.000000
# 2 -0.002763 0.013766 -0.000926 0.000000 -0.002258 0.000000
# 3 -0.006219 -0.000926 0.013762 0.000000 -0.001903 0.000000
# 4 0.000000 0.000000 0.000000 0.107530 0.000000 -0.003943
# 5 -0.003358 -0.002258 -0.001903 0.000000 0.024380 0.000000
# 6 0.000000 0.000000 0.000000 -0.003943 0.000000 0.036913
#
#
# Mechanical properties :
#
#
# Convention : Reuss Voigt Hill
#
# Bulk Modulus (GPa) = 48.73360 59.51171 54.12265
# Shear Modulus (GPa) = 21.20320 29.58490 25.39405
#
# Velocity S-wave (km/s) = 3.22776 3.81273 3.53237
# Velocity P-wave (km/s) = 6.15118 6.97311 6.57500
#
# Compressibility (1/GPa) = 0.02051972
#
# Stress axis : x y z
#
# Youngs Moduli (GPa) = 78.08506 72.64205 72.66420
#
# Poissons Ratio (x) = 0.20071 0.45188
# Poissons Ratio (y) = 0.21575 0.06727
# Poissons Ratio (z) = 0.48559 0.06724
#
# Static dielectric constant tensor:
#      x y z
#    x 1.719960 0.000000 0.029700 
#    y 0.000000 1.742050 0.000000 
#    z 0.029700 0.000000 1.737100 
# 
# From -- ./inp_files/40076.got.cif
#   From: 2010.05.17/outbox.cif.g08.bks.cpg/sg12_21_cif.got.tgz:40076.got - 2010.06.03 13:09:07.
