data_PCOD9221748
_publ_section_title
;
Structure prediction by ZEFSAII (Michael W. Deem and Ramdas Pophale) SiO2 
 PCOD9221748
Probable space group: C 2/M
;
_chemical_formula_sum "Si O2"
_cell_formula_units_Z 48
_cell_length_a 27.791942
_cell_length_b 17.584012
_cell_length_c 14.978309
_cell_angle_alpha 90.000000
_cell_angle_beta 19.465897
_cell_angle_gamma 90.000000
_cell_volume 2439.294555
_symmetry_space_group_name_H-M "C 2/M"
_symmetry_group_IT_number 12
_symmetry_cell_setting 'monoclinic'
loop_
_space_group_symop_operation_xyz
x,y,z
-x,y,-z
-x,-y,-z
x,-y,z
1/2+x,1/2+y,z
1/2-x,1/2+y,-z
1/2-x,1/2-y,-z
1/2+x,1/2-y,z
loop_
_atom_site_type_symbol
_atom_site_label
_atom_site_fract_x
_atom_site_fract_y
_atom_site_fract_z
Si Si1 0.342180 0.587274 0.419212
Si Si2 0.850139 0.412140 0.415003
Si Si3 0.289968 0.409684 0.797296
Si Si4 0.637405 0.824854 0.911015
Si Si5 0.841715 0.853777 0.097249
Si Si6 0.377394 0.590472 0.841588
O O1 0.315739 0.500000 0.494401
O O2 0.278987 0.595635 0.430552
O O3 0.253809 0.643003 0.637768
O O4 0.510591 0.604599 0.132213
O O5 0.898885 0.500000 0.327806
O O6 0.788433 0.389673 0.619121
O O7 0.980939 0.357387 0.159914
O O8 0.260194 0.500000 0.841099
O O9 0.180152 0.360969 0.931680
O O10 0.451768 0.397045 0.475304
O O11 0.297212 0.390387 0.889466
O O12 0.643173 0.734609 0.905799
O O13 0.827026 0.865681 0.017072
O O14 0.359947 0.500000 0.887608
#
# Coordination Sequence:
#
# PCOD9221748 Si02
#       6
#     8   8   8   8   8   8
#     4  11  23  43  66  83 112 167 217 240 276 359
#     4  11  25  41  60  89 122 157 201 252 300 347
#     4   9  18  36  64  90 113 154 208 246 279 348
#     4  12  24  38  61  92 126 156 191 250 309 354
#     4  12  24  38  61  92 126 156 191 250 309 354
#     4   9  18  36  64  90 113 154 208 246 279 348
#
# _framework density 19.677820000000001
#
# number of rings (size 3 to 8) (size 9 to 14) (size 15 to 20)
#    0.000    1.333    1.667    6.000    0.000    7.333 
#    0.000    0.833    0.000    3.000    0.000    0.000 
#    0.000    0.000    0.000    0.000    0.000    0.000 
#
# Total GULP energy -134220.352892 kJ/mol
# GULP energy per Si atom -5592.514704 kJ/mol
# Density = 1.963303 g / cm^3
# Si number density = 19.677820 Si / 1000 Ang^3
#
#
#
# Elastic Constant Matrix: (Units=GPa)
#
#
# Indices 1 2 3 4 5 6 
#
# 1 59.8487 18.2415 -11.2993 0.0001 10.1930 0.0003
# 2 18.2415 67.4081 -2.9695 -0.0001 20.2061 0.0007
# 3 -11.2993 -2.9695 36.9493 -0.0002 12.0023 0.0000
# 4 0.0001 -0.0001 -0.0002 36.4630 0.0001 -1.0267
# 5 10.1930 20.2061 12.0023 0.0001 28.1539 -0.0002
# 6 0.0003 0.0007 0.0000 -1.0267 -0.0002 15.1006
#
#
#
# Elastic Compliance Matrix: (Units=1/GPa)
#
#
# Indices 1 2 3 4 5 6 
#
# 1 0.020874 -0.002243 0.009442 0.000000 -0.009973 0.000000
# 2 -0.002243 0.020779 0.006459 0.000000 -0.016854 -0.000001
# 3 0.009442 0.006459 0.038405 0.000000 -0.024427 -0.000001
# 4 0.000000 0.000000 0.000000 0.027478 0.000000 0.001868
# 5 -0.009973 -0.016854 -0.024427 0.000000 0.061639 0.000002
# 6 0.000000 -0.000001 -0.000001 0.001868 0.000002 0.066350
#
#
# Mechanical properties :
#
#
# Convention : Reuss Voigt Hill
#
# Bulk Modulus (GPa) = 9.31331 19.12793 14.22062
# Shear Modulus (GPa) = 20.49183 26.62573 23.55878
#
# Velocity S-wave (km/s) = 3.23052 3.68242 3.46385
# Velocity P-wave (km/s) = 4.31951 5.27465 4.82080
#
# Compressibility (1/GPa) = 0.10737320
#
# Stress axis : x y z
#
# Youngs Moduli (GPa) = 47.90706 48.12604 26.03812
#
# Poissons Ratio (x) = 0.10796 -0.24586
# Poissons Ratio (y) = 0.10747 -0.16817
# Poissons Ratio (z) = -0.45236 -0.31083
#
# Static dielectric constant tensor:
#      x y z
#    x 1.706160 0.000000 0.006220 
#    y 0.000000 1.656580 0.000000 
#    z 0.006220 0.000000 1.657320 
# 
# From -- ./inp_files/251398.got.cif
#   From: 2010.05.17/outbox.cif.g08.bks.cpg/sg12_126_cif.got.tgz:251398.got - 2010.06.03 13:09:07.
