data_PCOD9221890
_publ_section_title
;
Structure prediction by ZEFSAII (Michael W. Deem and Ramdas Pophale) SiO2 
 PCOD9221890
Probable space group: C 2/M
;
_chemical_formula_sum "Si O2"
_cell_formula_units_Z 28
_cell_length_a 22.842064
_cell_length_b 13.997164
_cell_length_c 9.255995
_cell_angle_alpha 90.000000
_cell_angle_beta 153.637158
_cell_angle_gamma 90.000000
_cell_volume 1314.118348
_symmetry_space_group_name_H-M "C 2/M"
_symmetry_group_IT_number 12
_symmetry_cell_setting 'monoclinic'
loop_
_space_group_symop_operation_xyz
x,y,z
-x,y,-z
-x,-y,-z
x,-y,z
1/2+x,1/2+y,z
1/2-x,1/2+y,-z
1/2-x,1/2-y,-z
1/2+x,1/2-y,z
loop_
_atom_site_type_symbol
_atom_site_label
_atom_site_fract_x
_atom_site_fract_y
_atom_site_fract_z
Si Si1 0.194182 0.000000 0.515720
Si Si2 0.346381 0.338573 0.819540
Si Si3 0.488439 0.000000 0.302848
Si Si4 0.941348 0.670539 0.731711
Si Si5 0.530839 0.500000 0.735746
O O1 0.168249 0.091554 0.352945
O O2 0.091863 0.000000 0.422719
O O3 0.339574 0.000000 0.907500
O O4 0.204167 0.296452 0.545838
O O5 0.459250 0.258794 0.065327
O O6 0.385071 0.408312 0.035072
O O7 0.500000 0.000000 0.500000
O O8 0.556173 0.096108 0.392216
O O9 0.000000 0.615042 0.000000
O O10 0.500000 0.500000 0.500000
#
# Coordination Sequence:
#
# PCOD9221890 Si02
#       5
#     4   8   4   8   4
#     4  11  23  47  72 100 137 182 233 281 340 406
#     4  11  25  45  75 103 136 178 236 289 336 404
#     4  12  28  43  68 102 146 182 225 282 348 411
#     4  12  24  45  72 104 134 178 234 286 339 401
#     4  11  26  45  69 101 144 185 223 279 352 414
#
# _framework density 21.307061999999998
#
# number of rings (size 3 to 8) (size 9 to 14) (size 15 to 20)
#    0.000    0.571    2.857    6.429    8.000    1.143 
#    0.000    2.857    0.000    0.000    0.000    0.000 
#    0.000    0.000    0.000    0.000    0.000    0.000 
#
# Total GULP energy -78308.521305 kJ/mol
# GULP energy per Si atom -5593.465808 kJ/mol
# Density = 2.125857 g / cm^3
# Si number density = 21.307062 Si / 1000 Ang^3
#
#
#
# Elastic Constant Matrix: (Units=GPa)
#
#
# Indices 1 2 3 4 5 6 
#
# 1 161.5876 81.7048 91.0769 0.0000 -7.1477 0.0000
# 2 81.7048 165.0416 66.8176 0.0000 10.3877 0.0000
# 3 91.0769 66.8176 135.3757 0.0000 23.6603 0.0000
# 4 0.0000 0.0000 0.0000 24.5296 0.0000 19.6509
# 5 -7.1477 10.3877 23.6603 0.0000 67.9094 0.0000
# 6 0.0000 0.0000 0.0000 19.6509 0.0000 7.8419
#
#
#
# Elastic Compliance Matrix: (Units=1/GPa)
#
#
# Indices 1 2 3 4 5 6 
#
# 1 0.012195 -0.003351 -0.007309 0.000000 0.004343 0.000000
# 2 -0.003351 0.008495 -0.001756 0.000000 -0.001040 0.000000
# 3 -0.007309 -0.001756 0.014118 0.000000 -0.005420 0.000000
# 4 0.000000 0.000000 0.000000 -0.040463 0.000000 0.101397
# 5 0.004343 -0.001040 -0.005420 0.000000 0.017230 0.000000
# 6 0.000000 0.000000 0.000000 0.101397 0.000000 -0.126571
#
#
# Mechanical properties :
#
#
# Convention : Reuss Voigt Hill
#
# Bulk Modulus (GPa) = 100.25805 104.57815 102.41810
# Shear Modulus (GPa) = -57.57921 34.88320 -11.34800
#
# Velocity S-wave (km/s) = -5.20406 4.05058 -2.31030
# Velocity P-wave (km/s) = 3.32362 8.42996 6.40745
#
# Compressibility (1/GPa) = 0.00997426
#
# Stress axis : x y z
#
# Youngs Moduli (GPa) = 81.99974 117.72078 70.82915
#
# Poissons Ratio (x) = 0.39453 0.51772
# Poissons Ratio (y) = 0.27481 0.12439
# Poissons Ratio (z) = 0.59937 0.20674
#
# Static dielectric constant tensor:
#      x y z
#    x 1.787180 0.000000 0.050960 
#    y 0.000000 1.777260 0.000000 
#    z 0.050960 0.000000 1.789980 
# 
# From -- ./inp_files/86220.got.cif
#   From: 2010.05.17/outbox.cif.g08.bks.cpg/sg12_44_cif.got.tgz:86220.got - 2010.06.03 13:09:07.
