data_PCOD9221408
_publ_section_title
;
Structure prediction by ZEFSAII (Michael W. Deem and Ramdas Pophale) SiO2 
 PCOD9221408
Probable space group: C 2/M
;
_chemical_formula_sum "Si O2"
_cell_formula_units_Z 52
_cell_length_a 19.992520
_cell_length_b 21.505602
_cell_length_c 11.547484
_cell_angle_alpha 90.000000
_cell_angle_beta 145.916071
_cell_angle_gamma 90.000000
_cell_volume 2782.337684
_symmetry_space_group_name_H-M "C 2/M"
_symmetry_group_IT_number 12
_symmetry_cell_setting 'monoclinic'
loop_
_space_group_symop_operation_xyz
x,y,z
-x,y,-z
-x,-y,-z
x,-y,z
1/2+x,1/2+y,z
1/2-x,1/2+y,-z
1/2-x,1/2-y,-z
1/2+x,1/2-y,z
loop_
_atom_site_type_symbol
_atom_site_label
_atom_site_fract_x
_atom_site_fract_y
_atom_site_fract_z
Si Si1 0.869769 0.673565 0.259333
Si Si2 0.232187 0.071525 0.188559
Si Si3 0.246571 0.200206 0.852620
Si Si4 0.031554 0.070748 0.296530
Si Si5 0.866638 0.704910 0.784039
Si Si6 0.500000 0.628234 0.500000
Si Si7 0.690208 0.345965 0.354224
O O1 0.826928 0.607472 0.245216
O O2 0.777765 0.726123 0.172879
O O3 0.000000 0.686814 0.500000
O O4 0.847880 0.679551 0.089893
O O5 0.214948 0.109684 0.281887
O O6 0.264513 0.000000 0.256669
O O7 0.104954 0.072828 0.941726
O O8 0.286253 0.187701 0.779230
O O9 0.118853 0.168629 0.697213
O O10 0.105339 0.118577 0.323412
O O11 0.031635 0.089039 0.431352
O O12 0.075845 0.000000 0.343617
O O13 0.811716 0.672613 0.593251
O O14 0.863337 0.779511 0.760821
O O15 0.000000 0.685050 0.000000
#
# Coordination Sequence:
#
# PCOD9221408 Si02
#       7
#     8   8   8   8   8   4   8
#     4  11  24  39  64  91 125 162 204 250 319 372
#     4  11  23  40  60  89 123 164 212 252 301 372
#     4  11  23  40  64  95 125 160 201 261 313 375
#     4  11  23  40  64  91 124 162 207 260 307 366
#     4  11  24  38  64  94 123 159 204 258 316 372
#     4  12  21  42  64  96 125 158 206 262 318 372
#     4  11  23  39  63  90 124 161 204 255 317 369
#
# _framework density 18.689319999999999
#
# number of rings (size 3 to 8) (size 9 to 14) (size 15 to 20)
#    0.000    0.923    5.385    2.077    2.154    1.538 
#    0.000    0.000    0.000    1.846    0.000    0.000 
#    0.000    0.000    0.000    0.000    0.000    0.000 
#
# Total GULP energy -145225.110049 kJ/mol
# GULP energy per Si atom -5585.581156 kJ/mol
# Density = 1.864678 g / cm^3
# Si number density = 18.689320 Si / 1000 Ang^3
#
#
#
# Elastic Constant Matrix: (Units=GPa)
#
#
# Indices 1 2 3 4 5 6 
#
# 1 58.1782 33.4446 15.7870 0.0000 -14.7137 0.0000
# 2 33.4446 87.8207 29.8103 0.0000 -9.2017 0.0000
# 3 15.7870 29.8103 110.2047 0.0000 -11.6637 0.0000
# 4 0.0000 0.0000 0.0000 19.0311 0.0000 -3.4333
# 5 -14.7137 -9.2017 -11.6637 0.0000 32.3437 0.0000
# 6 0.0000 0.0000 0.0000 -3.4333 0.0000 25.6926
#
#
#
# Elastic Compliance Matrix: (Units=1/GPa)
#
#
# Indices 1 2 3 4 5 6 
#
# 1 0.024144 -0.008185 -0.000342 0.000000 0.008532 0.000000
# 2 -0.008185 0.015500 -0.003065 0.000000 -0.000419 0.000000
# 3 -0.000342 -0.003065 0.010234 0.000000 0.002663 0.000000
# 4 0.000000 0.000000 0.000000 0.053843 0.000000 0.007195
# 5 0.008532 -0.000419 0.002663 0.000000 0.035640 0.000000
# 6 0.000000 0.000000 0.000000 0.007195 0.000000 0.039883
#
#
# Mechanical properties :
#
#
# Convention : Reuss Voigt Hill
#
# Bulk Modulus (GPa) = 37.45900 46.03195 41.74548
# Shear Modulus (GPa) = 23.66006 27.22426 25.44216
#
# Velocity S-wave (km/s) = 3.56190 3.82078 3.69361
# Velocity P-wave (km/s) = 6.08299 6.64440 6.36988
#
# Compressibility (1/GPa) = 0.02669585
#
# Stress axis : x y z
#
# Youngs Moduli (GPa) = 41.41774 64.51499 97.71524
#
# Poissons Ratio (x) = 0.52805 0.03339
# Poissons Ratio (y) = 0.33900 0.29946
# Poissons Ratio (z) = 0.01415 0.19772
#
# Static dielectric constant tensor:
#      x y z
#    x 1.633930 0.000000 -0.009250 
#    y 0.000000 1.640330 0.000000 
#    z -0.009250 0.000000 1.645570 
# 
# From -- ./inp_files/169827.got.cif
#   From: 2010.05.17/outbox.cif.g08.bks.cpg/sg12_85_cif.got.tgz:169827.got - 2010.06.03 13:09:07.
