data_PCOD9221677
_publ_section_title
;
Structure prediction by ZEFSAII (Michael W. Deem and Ramdas Pophale) SiO2 
 PCOD9221677
Probable space group: C 2/M
;
_chemical_formula_sum "Si O2"
_cell_formula_units_Z 40
_cell_length_a 14.585987
_cell_length_b 18.676265
_cell_length_c 13.257833
_cell_angle_alpha 90.000000
_cell_angle_beta 150.562897
_cell_angle_gamma 90.000000
_cell_volume 1774.980076
_symmetry_space_group_name_H-M "C 2/M"
_symmetry_group_IT_number 12
_symmetry_cell_setting 'monoclinic'
loop_
_space_group_symop_operation_xyz
x,y,z
-x,y,-z
-x,-y,-z
x,-y,z
1/2+x,1/2+y,z
1/2-x,1/2+y,-z
1/2-x,1/2-y,-z
1/2+x,1/2-y,z
loop_
_atom_site_type_symbol
_atom_site_label
_atom_site_fract_x
_atom_site_fract_y
_atom_site_fract_z
Si Si1 0.158265 0.712518 0.580857
Si Si2 0.335784 0.670510 0.095445
Si Si3 0.941951 0.577273 0.059281
Si Si4 0.775120 0.334745 0.571690
Si Si5 0.294657 0.581682 0.848717
O O1 0.116704 0.685829 0.427459
O O2 0.302044 0.775551 0.686857
O O3 0.209325 0.641259 0.691545
O O4 0.000000 0.746435 0.500000
O O5 0.555470 0.665232 0.334620
O O6 0.250000 0.750000 0.000000
O O7 0.305749 0.621581 0.967043
O O8 0.211777 0.635649 0.063547
O O9 0.864578 0.500000 0.013518
O O10 0.130515 0.593465 0.301389
O O11 0.000000 0.578003 0.000000
O O12 0.214035 0.500000 0.776577
O O13 0.500000 0.573616 0.000000
#
# Coordination Sequence:
#
# PCOD9221677 Si02
#       5
#     8   8   8   8   8
#     4  11  23  42  67 103 139 179 236 291 355 427
#     4  12  25  45  76 108 142 188 238 300 360 434
#     4  11  28  48  69 102 143 191 244 299 355 421
#     4  11  25  44  70 106 140 189 244 290 361 433
#     4  11  24  42  67 101 141 181 224 287 362 427
#
# _framework density 22.535464000000001
#
# number of rings (size 3 to 8) (size 9 to 14) (size 15 to 20)
#    0.000    0.800    2.000    5.400    5.600    2.800 
#    0.000    2.000    0.000    0.000    0.000    0.000 
#    0.000    0.000    0.000    0.000    0.000    0.000 
#
# Total GULP energy -111594.911332 kJ/mol
# GULP energy per Si atom -5579.745567 kJ/mol
# Density = 2.248417 g / cm^3
# Si number density = 22.535464 Si / 1000 Ang^3
#
#
#
# Elastic Constant Matrix: (Units=GPa)
#
#
# Indices 1 2 3 4 5 6 
#
# 1 135.1202 30.1595 27.5990 0.0000 -3.7479 0.0000
# 2 30.1595 109.8183 17.9535 0.0000 -8.6491 0.0000
# 3 27.5990 17.9535 85.0786 0.0000 11.7937 0.0000
# 4 0.0000 0.0000 0.0000 49.2296 0.0000 -4.9167
# 5 -3.7479 -8.6491 11.7937 0.0000 31.3650 0.0000
# 6 0.0000 0.0000 0.0000 -4.9167 0.0000 68.1928
#
#
#
# Elastic Compliance Matrix: (Units=1/GPa)
#
#
# Indices 1 2 3 4 5 6 
#
# 1 0.008354 -0.001763 -0.002541 0.000000 0.001468 0.000000
# 2 -0.001763 0.010190 -0.002045 0.000000 0.003368 0.000000
# 3 -0.002541 -0.002045 0.013852 0.000000 -0.006076 0.000000
# 4 0.000000 0.000000 0.000000 0.020460 0.000000 0.001475
# 5 0.001468 0.003368 -0.006076 0.000000 0.035272 0.000000
# 6 0.000000 0.000000 0.000000 0.001475 0.000000 0.014771
#
#
# Mechanical properties :
#
#
# Convention : Reuss Voigt Hill
#
# Bulk Modulus (GPa) = 50.77066 53.49347 52.13206
# Shear Modulus (GPa) = 40.92861 46.71117 43.81989
#
# Velocity S-wave (km/s) = 4.26630 4.55772 4.41442
# Velocity P-wave (km/s) = 6.84445 7.17538 7.01187
#
# Compressibility (1/GPa) = 0.01969642
#
# Stress axis : x y z
#
# Youngs Moduli (GPa) = 119.70038 98.13706 72.19102
#
# Poissons Ratio (x) = 0.17304 0.18347
# Poissons Ratio (y) = 0.21106 0.14765
# Poissons Ratio (z) = 0.30421 0.20071
#
# Static dielectric constant tensor:
#      x y z
#    x 1.815610 0.000000 0.028280 
#    y 0.000000 1.880630 0.000000 
#    z 0.028280 0.000000 1.946830 
# 
# From -- ./inp_files/134160.got.cif
#   From: 2010.05.17/outbox.cif.g08.bks.cpg/sg12_68_cif.got.tgz:134160.got - 2010.06.03 13:09:07.
