data_PCOD9221812
_publ_section_title
;
Structure prediction by ZEFSAII (Michael W. Deem and Ramdas Pophale) SiO2 
 PCOD9221812
Probable space group: C 2/M
;
_chemical_formula_sum "Si O2"
_cell_formula_units_Z 44
_cell_length_a 23.017081
_cell_length_b 18.358385
_cell_length_c 5.322530
_cell_angle_alpha 90.000000
_cell_angle_beta 119.386175
_cell_angle_gamma 90.000000
_cell_volume 1959.686584
_symmetry_space_group_name_H-M "C 2/M"
_symmetry_group_IT_number 12
_symmetry_cell_setting 'monoclinic'
loop_
_space_group_symop_operation_xyz
x,y,z
-x,y,-z
-x,-y,-z
x,-y,z
1/2+x,1/2+y,z
1/2-x,1/2+y,-z
1/2-x,1/2-y,-z
1/2+x,1/2-y,z
loop_
_atom_site_type_symbol
_atom_site_label
_atom_site_fract_x
_atom_site_fract_y
_atom_site_fract_z
Si Si1 0.700907 0.159325 0.950171
Si Si2 0.662336 0.624559 0.570991
Si Si3 0.549834 0.000000 0.377335
Si Si4 0.688060 0.000000 0.846081
Si Si5 0.000000 0.641474 0.000000
Si Si6 0.190769 0.000000 0.267432
Si Si7 0.363696 0.221971 0.701631
Si Si8 0.079034 0.000000 0.659884
O O1 0.677793 0.076280 0.962550
O O2 0.668423 0.183736 0.616771
O O3 0.781312 0.154180 0.117854
O O4 0.680905 0.207577 0.147087
O O5 0.699882 0.571318 0.454738
O O6 0.632660 0.693372 0.364501
O O7 0.608506 0.572086 0.586950
O O8 0.500000 0.000000 0.500000
O O9 0.628957 0.000000 0.522142
O O10 0.532080 0.081321 0.248687
O O11 0.759137 0.000000 0.860346
O O12 0.063254 0.691484 0.071092
O O13 0.115235 0.000000 0.006475
O O14 0.000000 0.000000 0.500000
#
# Coordination Sequence:
#
# PCOD9221812 Si02
#       8
#     8   8   4   4   4   4   8   4
#     4  12  25  45  74 113 145 195 249 305 380 431
#     4  11  26  47  74 109 146 191 247 320 373 456
#     4  11  23  44  68  99 149 192 247 303 351 446
#     4  12  21  44  79 105 150 195 254 309 364 442
#     4  11  26  44  66 105 148 194 252 281 374 438
#     4  11  24  47  76 109 143 190 252 310 382 449
#     4  12  28  45  74 109 155 197 243 308 377 443
#     4  11  26  48  77 107 143 193 254 309 388 459
#
# _framework density 22.452570000000001
#
# number of rings (size 3 to 8) (size 9 to 14) (size 15 to 20)
#    0.000    0.545    3.636    3.818    2.545    4.364 
#    0.000    0.000    0.000    0.000    0.000    0.000 
#    0.000    0.000    0.000    0.000    0.000    0.000 
#
# Total GULP energy -122774.033669 kJ/mol
# GULP energy per Si atom -5580.637894 kJ/mol
# Density = 2.240147 g / cm^3
# Si number density = 22.452570 Si / 1000 Ang^3
#
#
#
# Elastic Constant Matrix: (Units=GPa)
#
#
# Indices 1 2 3 4 5 6 
#
# 1 103.3823 39.2686 45.8946 0.0000 27.9532 0.0000
# 2 39.2686 163.5507 32.8183 0.0000 5.4385 0.0000
# 3 45.8946 32.8183 98.5547 0.0000 14.0478 0.0000
# 4 0.0000 0.0000 0.0000 38.9202 0.0000 -3.6395
# 5 27.9532 5.4385 14.0478 0.0000 38.1486 0.0000
# 6 0.0000 0.0000 0.0000 -3.6395 0.0000 15.0668
#
#
#
# Elastic Compliance Matrix: (Units=1/GPa)
#
#
# Indices 1 2 3 4 5 6 
#
# 1 0.015221 -0.002347 -0.005028 0.000000 -0.008967 0.000000
# 2 -0.002347 0.006915 -0.001387 0.000000 0.001245 0.000000
# 3 -0.005028 -0.001387 0.013083 0.000000 -0.000936 0.000000
# 4 0.000000 0.000000 0.000000 0.026287 0.000000 0.006350
# 5 -0.008967 0.001245 -0.000936 0.000000 0.032951 0.000000
# 6 0.000000 0.000000 0.000000 0.006350 0.000000 0.067905
#
#
# Mechanical properties :
#
#
# Convention : Reuss Voigt Hill
#
# Bulk Modulus (GPa) = 56.51602 66.82785 61.67193
# Shear Modulus (GPa) = 26.91267 34.92755 30.92011
#
# Velocity S-wave (km/s) = 3.46590 3.94841 3.71500
# Velocity P-wave (km/s) = 6.42204 7.11443 6.77708
#
# Compressibility (1/GPa) = 0.01769410
#
# Stress axis : x y z
#
# Youngs Moduli (GPa) = 65.69740 144.61652 76.43252
#
# Poissons Ratio (x) = 0.33948 0.38433
# Poissons Ratio (y) = 0.15422 0.10601
# Poissons Ratio (z) = 0.33035 0.20057
#
# Static dielectric constant tensor:
#      x y z
#    x 3.274270 0.000000 -1.248830 
#    y 0.000000 1.854530 0.000000 
#    z -1.248830 0.000000 2.948700 
# 
# From -- ./inp_files/24954.got.cif
#   From: 2010.05.17/outbox.cif.g08.bks.cpg/sg12_13_cif.got.tgz:24954.got - 2010.06.03 13:09:07.
