data_PCOD9221751
_publ_section_title
;
Structure prediction by ZEFSAII (Michael W. Deem and Ramdas Pophale) SiO2 
 PCOD9221751
Probable space group: C 2/M
;
_chemical_formula_sum "Si O2"
_cell_formula_units_Z 48
_cell_length_a 23.299698
_cell_length_b 21.330461
_cell_length_c 5.517932
_cell_angle_alpha 90.000000
_cell_angle_beta 51.201743
_cell_angle_gamma 90.000000
_cell_volume 2137.289406
_symmetry_space_group_name_H-M "C 2/M"
_symmetry_group_IT_number 12
_symmetry_cell_setting 'monoclinic'
loop_
_space_group_symop_operation_xyz
x,y,z
-x,y,-z
-x,-y,-z
x,-y,z
1/2+x,1/2+y,z
1/2-x,1/2+y,-z
1/2-x,1/2-y,-z
1/2+x,1/2-y,z
loop_
_atom_site_type_symbol
_atom_site_label
_atom_site_fract_x
_atom_site_fract_y
_atom_site_fract_z
Si Si1 0.416839 0.178097 0.739960
Si Si2 0.805413 0.279223 0.662785
Si Si3 0.929078 0.929835 0.861166
Si Si4 0.266434 0.404754 0.189984
Si Si5 0.814037 0.568015 0.112200
Si Si6 0.423220 0.707120 0.074417
O O1 0.500000 0.156474 0.500000
O O2 0.374509 0.185096 0.600140
O O3 0.368999 0.126450 0.007181
O O4 0.418175 0.247590 0.853395
O O5 0.753306 0.332690 0.694187
O O6 0.847951 0.225087 0.409393
O O7 0.750000 0.250000 0.000000
O O8 0.000000 0.926085 0.500000
O O9 0.929484 0.000000 0.972899
O O10 0.851639 0.921286 0.927518
O O11 0.929033 0.867221 0.022381
O O12 0.238496 0.435218 0.514200
O O13 0.226844 0.421318 0.039096
O O14 0.852036 0.500000 0.993545
O O15 0.500000 0.726233 0.000000
#
# Coordination Sequence:
#
# PCOD9221751 Si02
#       6
#     8   8   8   8   8   8
#     4  11  23  43  67 100 143 183 232 290 362 428
#     4  11  25  42  71 105 138 179 237 300 361 430
#     4  11  27  47  68 101 144 192 246 302 365 435
#     4  11  25  47  74 105 145 190 242 302 360 430
#     4  11  24  44  73 107 145 189 238 296 361 431
#     4  12  25  43  74 102 138 187 239 302 364 432
#
# _framework density 22.458351
#
# number of rings (size 3 to 8) (size 9 to 14) (size 15 to 20)
#    0.000    0.833    3.333    3.000    7.000    2.000 
#    0.000    1.667    0.000    3.500    0.000    0.000 
#    0.000    0.000    0.000    0.000    0.000    0.000 
#
# Total GULP energy -133906.256359 kJ/mol
# GULP energy per Si atom -5579.427348 kJ/mol
# Density = 2.240724 g / cm^3
# Si number density = 22.458351 Si / 1000 Ang^3
#
#
#
# Elastic Constant Matrix: (Units=GPa)
#
#
# Indices 1 2 3 4 5 6 
#
# 1 96.0347 35.0658 37.7047 0.0000 -11.7306 0.0000
# 2 35.0658 176.3833 53.5944 0.0000 -13.7603 0.0000
# 3 37.7047 53.5944 137.9876 0.0000 -20.7098 0.0000
# 4 0.0000 0.0000 0.0000 45.1409 0.0000 -15.3161
# 5 -11.7306 -13.7603 -20.7098 0.0000 36.2828 0.0000
# 6 0.0000 0.0000 0.0000 -15.3161 0.0000 -65.8724
#
#
#
# Elastic Compliance Matrix: (Units=1/GPa)
#
#
# Indices 1 2 3 4 5 6 
#
# 1 0.012167 -0.001525 -0.002437 0.000000 0.001964 0.000000
# 2 -0.001525 0.006660 -0.002040 0.000000 0.000869 0.000000
# 3 -0.002437 -0.002040 0.009265 0.000000 0.003726 0.000000
# 4 0.000000 0.000000 0.000000 0.020533 0.000000 -0.004774
# 5 0.001964 0.000869 0.003726 0.000000 0.030653 0.000000
# 6 0.000000 0.000000 0.000000 -0.004774 0.000000 -0.014071
#
#
# Mechanical properties :
#
#
# Convention : Reuss Voigt Hill
#
# Bulk Modulus (GPa) = 62.16170 73.68171 67.92170
# Shear Modulus (GPa) = 60.55256 22.04631 41.29943
#
# Velocity S-wave (km/s) = 5.19814 3.13653 4.29293
# Velocity P-wave (km/s) = 7.98538 6.78207 7.40820
#
# Compressibility (1/GPa) = 0.01608708
#
# Stress axis : x y z
#
# Youngs Moduli (GPa) = 82.19232 150.14599 107.93792
#
# Poissons Ratio (x) = 0.22896 0.26309
# Poissons Ratio (y) = 0.12534 0.22017
# Poissons Ratio (z) = 0.20034 0.30626
#
# Static dielectric constant tensor:
#      x y z
#    x 1.850470 0.000000 0.051160 
#    y 0.000000 1.917250 0.000000 
#    z 0.051160 0.000000 1.849960 
# 
# From -- ./inp_files/25515.got.cif
#   From: 2010.05.17/outbox.cif.g08.bks.cpg/sg12_13_cif.got.tgz:25515.got - 2010.06.03 13:09:07.
