data_PCOD9221949
_publ_section_title
;
Structure prediction by ZEFSAII (Michael W. Deem and Ramdas Pophale) SiO2 
 PCOD9221949
Probable space group: C 2/M
;
_chemical_formula_sum "Si O2"
_cell_formula_units_Z 40
_cell_length_a 28.580784
_cell_length_b 11.855685
_cell_length_c 5.482114
_cell_angle_alpha 90.000000
_cell_angle_beta 102.181401
_cell_angle_gamma 90.000000
_cell_volume 1815.761091
_symmetry_space_group_name_H-M "C 2/M"
_symmetry_group_IT_number 12
_symmetry_cell_setting 'monoclinic'
loop_
_space_group_symop_operation_xyz
x,y,z
-x,y,-z
-x,-y,-z
x,-y,z
1/2+x,1/2+y,z
1/2-x,1/2+y,-z
1/2-x,1/2-y,-z
1/2+x,1/2-y,z
loop_
_atom_site_type_symbol
_atom_site_label
_atom_site_fract_x
_atom_site_fract_y
_atom_site_fract_z
Si Si1 0.902228 0.000000 0.882831
Si Si2 0.648906 0.500000 0.683738
Si Si3 0.593838 0.241164 0.106439
Si Si4 0.812585 0.368884 0.638222
Si Si5 0.215779 0.205520 0.758119
Si Si6 0.942519 0.629923 0.431339
O O1 0.920900 0.871966 0.869860
O O2 0.862966 0.000000 0.617032
O O3 0.892786 0.000000 0.163874
O O4 0.679158 0.609289 0.782229
O O5 0.650926 0.210783 0.171257
O O6 0.575352 0.176117 0.327334
O O7 0.574174 0.197715 0.826573
O O8 0.825384 0.500000 0.670866
O O9 0.813952 0.311226 0.375765
O O10 0.755849 0.353955 0.629572
O O11 0.250000 0.250000 0.000000
O O12 0.926526 0.500000 0.387002
O O13 0.000000 0.632407 0.500000
#
# Coordination Sequence:
#
# PCOD9221949 Si02
#       6
#     4   4   8   8   8   8
#     4  12  26  46  69 102 142 190 238 282 338 423
#     4  12  24  46  66  90 143 198 235 279 351 404
#     4  12  25  46  72 106 140 183 233 286 348 414
#     4  11  24  40  61  94 132 174 233 290 337 396
#     4  11  25  39  60  92 132 187 231 287 340 400
#     4  11  25  48  77 108 141 177 221 284 359 429
#
# _framework density 22.029330000000002
#
# number of rings (size 3 to 8) (size 9 to 14) (size 15 to 20)
#    0.000    0.600    3.000    4.800    7.000    1.600 
#    0.000    3.000    0.000    0.000    0.000    0.000 
#    0.000    0.000    0.000    0.000    0.000    0.000 
#
# Total GULP energy -111535.310928 kJ/mol
# GULP energy per Si atom -5576.765546 kJ/mol
# Density = 2.197919 g / cm^3
# Si number density = 22.029330 Si / 1000 Ang^3
#
#
#
# Elastic Constant Matrix: (Units=GPa)
#
#
# Indices 1 2 3 4 5 6 
#
# 1 42.0672 2.5480 2.1035 0.0000 -7.5520 0.0000
# 2 2.5480 162.9680 44.7163 0.0000 -7.9125 0.0000
# 3 2.1035 44.7163 114.5547 0.0000 8.5769 0.0000
# 4 0.0000 0.0000 0.0000 28.2847 0.0000 23.0250
# 5 -7.5520 -7.9125 8.5769 0.0000 29.8903 0.0000
# 6 0.0000 0.0000 0.0000 23.0250 0.0000 -16.2893
#
#
#
# Elastic Compliance Matrix: (Units=1/GPa)
#
#
# Indices 1 2 3 4 5 6 
#
# 1 0.025009 0.000220 -0.001045 0.000000 0.006677 0.000000
# 2 0.000220 0.007085 -0.002978 0.000000 0.002786 0.000000
# 3 -0.001045 -0.002978 0.010209 0.000000 -0.003982 0.000000
# 4 0.000000 0.000000 0.000000 0.016439 0.000000 0.023237
# 5 0.006677 0.002786 -0.003982 0.000000 0.037023 0.000000
# 6 0.000000 0.000000 0.000000 0.023237 0.000000 -0.028545
#
#
# Mechanical properties :
#
#
# Convention : Reuss Voigt Hill
#
# Bulk Modulus (GPa) = 28.82108 46.48062 37.65085
# Shear Modulus (GPa) = 57.87513 26.39195 42.13354
#
# Velocity S-wave (km/s) = 5.13117 3.46502 4.37809
# Velocity P-wave (km/s) = 6.94382 6.09539 6.53339
#
# Compressibility (1/GPa) = 0.03469682
#
# Stress axis : x y z
#
# Youngs Moduli (GPa) = 39.98554 141.13926 97.94936
#
# Poissons Ratio (x) = -0.03103 0.10235
# Poissons Ratio (y) = -0.00879 0.29172
# Poissons Ratio (z) = 0.04178 0.42036
#
# Static dielectric constant tensor:
#      x y z
#    x 1.942210 0.000000 -0.111210 
#    y 0.000000 1.797400 0.000000 
#    z -0.111210 0.000000 1.802660 
# 
# From -- ./inp_files/30937.got.cif
#   From: 2010.05.17/outbox.cif.g08.bks.cpg/sg12_16_cif.got.tgz:30937.got - 2010.06.03 13:09:07.
