data_PCOD9221266
_publ_section_title
;
Structure prediction by ZEFSAII (Michael W. Deem and Ramdas Pophale) SiO2 
 PCOD9221266
Probable space group: C 2/M
;
_chemical_formula_sum "Si O2"
_cell_formula_units_Z 58
_cell_length_a 13.057125
_cell_length_b 14.843368
_cell_length_c 16.177668
_cell_angle_alpha 90.000000
_cell_angle_beta 88.554854
_cell_angle_gamma 90.000000
_cell_volume 3134.424232
_symmetry_space_group_name_H-M "C 2/M"
_symmetry_group_IT_number 12
_symmetry_cell_setting 'monoclinic'
loop_
_space_group_symop_operation_xyz
x,y,z
-x,y,-z
-x,-y,-z
x,-y,z
1/2+x,1/2+y,z
1/2-x,1/2+y,-z
1/2-x,1/2-y,-z
1/2+x,1/2-y,z
loop_
_atom_site_type_symbol
_atom_site_label
_atom_site_fract_x
_atom_site_fract_y
_atom_site_fract_z
Si Si1 0.500000 0.000000 0.000000
Si Si2 0.607990 0.897621 0.759085
Si Si3 0.278082 0.395197 0.513493
Si Si4 0.360763 0.399221 0.326165
Si Si5 0.731816 0.242987 0.225671
Si Si6 0.066689 0.816600 0.358255
Si Si7 0.433896 0.151437 0.428834
Si Si8 0.604477 0.099941 0.141758
O O1 0.564347 0.077549 0.051087
O O2 0.694194 0.828711 0.789331
O O3 0.590834 0.891194 0.660322
O O4 0.498163 0.879870 0.803119
O O5 0.636871 0.000000 0.780203
O O6 0.247395 0.500000 0.527585
O O7 0.322589 0.388887 0.421089
O O8 0.363903 0.367746 0.577001
O O9 0.177737 0.334735 0.529342
O O10 0.336693 0.500000 0.299758
O O11 0.302800 0.325760 0.274515
O O12 0.481665 0.381700 0.321648
O O13 0.640417 0.275265 0.287523
O O14 0.682018 0.182172 0.154276
O O15 0.000770 0.738612 0.404127
O O16 0.500000 0.103951 0.500000
O O17 0.643194 0.000000 0.171074
#
# Coordination Sequence:
#
# PCOD9221266 Si02
#       8
#     2   8   8   8   8   8   8   8
#     4   8  20  44  76  96 124 150 182 222 304 364
#     4  11  23  39  59  86 124 159 201 249 295 353
#     4  11  24  38  51  73 110 161 220 262 308 346
#     4  11  23  36  53  79 113 157 213 264 302 342
#     4  12  21  38  59  91 118 156 195 247 301 355
#     4  12  22  36  54  76 114 164 207 256 302 347
#     4  12  23  36  54  78 113 161 216 262 294 338
#     4   9  20  41  68  93 123 149 188 232 297 361
#
# _framework density 18.504197000000001
#
# number of rings (size 3 to 8) (size 9 to 14) (size 15 to 20)
#    0.414    0.552    4.138    3.310    0.000    4.414 
#    0.000    0.690    0.000    0.000    0.000    0.483 
#    0.000    0.000    0.000    0.000    0.000    0.000 
#
# Total GULP energy -161569.082243 kJ/mol
# GULP energy per Si atom -5571.347664 kJ/mol
# Density = 1.846208 g / cm^3
# Si number density = 18.504197 Si / 1000 Ang^3
#
#
#
# Elastic Constant Matrix: (Units=GPa)
#
#
# Indices 1 2 3 4 5 6 
#
# 1 164.3425 92.9468 26.5480 0.0000 30.1556 0.0000
# 2 92.9468 143.7899 19.0534 0.0000 24.3243 0.0000
# 3 26.5480 19.0534 30.4427 0.0000 32.9652 0.0000
# 4 0.0000 0.0000 0.0000 -14.8395 0.0000 18.4805
# 5 30.1556 24.3243 32.9652 0.0000 27.4400 0.0000
# 6 0.0000 0.0000 0.0000 18.4805 0.0000 12.5055
#
#
#
# Elastic Compliance Matrix: (Units=1/GPa)
#
#
# Indices 1 2 3 4 5 6 
#
# 1 0.010302 -0.005938 -0.004294 0.000000 -0.000899 0.000000
# 2 -0.005938 0.010913 -0.005839 0.000000 0.003867 0.000000
# 3 -0.004294 -0.005839 -0.098147 0.000000 0.127804 0.000000
# 4 0.000000 0.000000 0.000000 -0.023725 0.000000 0.035060
# 5 -0.000899 0.003867 0.127804 0.000000 -0.119536 0.000000
# 6 0.000000 0.000000 0.000000 0.035060 0.000000 0.028153
#
#
# Mechanical properties :
#
#
# Convention : Reuss Voigt Hill
#
# Bulk Modulus (GPa) = -9.16803 68.40794 29.61996
# Shear Modulus (GPa) = -25.47699 18.35631 -3.56034
#
# Velocity S-wave (km/s) = -3.71458 3.15303 -1.38861
# Velocity P-wave (km/s) = 4.83351 7.09258 3.67027
#
# Compressibility (1/GPa) = -0.10907467
#
# Stress axis : x y z
#
# Youngs Moduli (GPa) = 97.06979 91.63719 -10.18884
#
# Poissons Ratio (x) = 0.54416 -0.04375
# Poissons Ratio (y) = 0.57642 -0.05949
# Poissons Ratio (z) = 0.41682 0.53508
#
# Static dielectric constant tensor:
#      x y z
#    x 1.636220 0.000000 0.007520 
#    y 0.000000 1.673720 0.000000 
#    z 0.007520 0.000000 1.632190 
# 
# From -- ./inp_files/262916.got.cif
#   From: 2010.05.17/outbox.cif.g08.bks.cpg/sg12_132_cif.got.tgz:262916.got - 2010.06.03 13:09:07.
