data_PCOD9221396
_publ_section_title
;
Structure prediction by ZEFSAII (Michael W. Deem and Ramdas Pophale) SiO2 
 PCOD9221396
Probable space group: C 2/M
;
_chemical_formula_sum "Si O2"
_cell_formula_units_Z 48
_cell_length_a 11.194441
_cell_length_b 23.740351
_cell_length_c 7.536402
_cell_angle_alpha 90.000000
_cell_angle_beta 86.378764
_cell_angle_gamma 90.000000
_cell_volume 1998.874920
_symmetry_space_group_name_H-M "C 2/M"
_symmetry_group_IT_number 12
_symmetry_cell_setting 'monoclinic'
loop_
_space_group_symop_operation_xyz
x,y,z
-x,y,-z
-x,-y,-z
x,-y,z
1/2+x,1/2+y,z
1/2-x,1/2+y,-z
1/2-x,1/2-y,-z
1/2+x,1/2-y,z
loop_
_atom_site_type_symbol
_atom_site_label
_atom_site_fract_x
_atom_site_fract_y
_atom_site_fract_z
Si Si1 0.956860 0.436409 0.802442
Si Si2 0.446722 0.268904 0.195593
Si Si3 0.025032 0.937444 0.784890
Si Si4 0.232873 0.855424 0.857272
Si Si5 0.904419 0.655699 0.361086
Si Si6 0.152671 0.153560 0.279239
O O1 0.921372 0.500000 0.749663
O O2 0.856475 0.387275 0.807453
O O3 0.066863 0.408990 0.686515
O O4 0.000000 0.440369 0.000000
O O5 0.313001 0.295368 0.213438
O O6 0.435486 0.202442 0.211228
O O7 0.549835 0.298671 0.303954
O O8 0.500000 0.284537 0.000000
O O9 0.917005 0.905460 0.699244
O O10 0.138119 0.897175 0.774647
O O11 0.045604 0.000000 0.717145
O O12 0.000000 0.940577 0.000000
O O13 0.210807 0.850332 0.073274
O O14 0.762949 0.661110 0.401244
O O15 0.000000 0.671816 0.500000
#
# Coordination Sequence:
#
# PCOD9221396 Si02
#       6
#     8   8   8   8   8   8
#     4  11  23  39  62  89 119 157 198 241 293 353
#     4   9  21  38  64  88 116 150 194 251 299 346
#     4   8  14  27  53  85 113 140 180 239 296 340
#     4   9  17  35  60  91 116 142 190 250 298 344
#     4  12  26  40  56  84 121 166 200 238 291 353
#     4   9  19  35  55  87 116 150 193 237 295 345
#
# _framework density 24.013508000000002
#
# number of rings (size 3 to 8) (size 9 to 14) (size 15 to 20)
#    0.000    2.333    1.667    3.000    2.333    3.667 
#    0.000    0.000    0.000    0.000    0.000    3.500 
#    0.000    0.000    0.000    0.000    0.000    0.000 
#
# Total GULP energy -133904.834265 kJ/mol
# GULP energy per Si atom -5579.368094 kJ/mol
# Density = 2.395885 g / cm^3
# Si number density = 24.013508 Si / 1000 Ang^3
#
#
#
# Elastic Constant Matrix: (Units=GPa)
#
#
# Indices 1 2 3 4 5 6 
#
# 1 98.6533 39.6709 35.5356 0.0000 33.9568 0.0000
# 2 39.6709 123.0398 10.8440 0.0000 7.8869 0.0000
# 3 35.5356 10.8440 45.5847 0.0000 7.4984 0.0000
# 4 0.0000 0.0000 0.0000 688.2144 0.0000 -768.7432
# 5 33.9568 7.8869 7.4984 0.0000 37.2629 0.0000
# 6 0.0000 0.0000 0.0000 -768.7432 0.0000 882.3561
#
#
#
# Elastic Compliance Matrix: (Units=1/GPa)
#
#
# Indices 1 2 3 4 5 6 
#
# 1 0.023171 -0.005133 -0.014011 0.000000 -0.017209 0.000000
# 2 -0.005133 0.009510 0.001345 0.000000 0.002394 0.000000
# 3 -0.014011 0.001345 0.031530 0.000000 0.006139 0.000000
# 4 0.000000 0.000000 0.000000 0.054185 0.000000 0.047208
# 5 -0.017209 0.002394 0.006139 0.000000 0.040777 0.000000
# 6 0.000000 0.000000 0.000000 0.047208 0.000000 0.042263
#
#
# Mechanical properties :
#
#
# Convention : Reuss Voigt Hill
#
# Bulk Modulus (GPa) = 34.94845 48.81985 41.88415
# Shear Modulus (GPa) = 20.27811 333.64850 176.96330
#
# Velocity S-wave (km/s) = 2.90909 11.80015 8.59379
# Velocity P-wave (km/s) = 5.08616 14.35383 10.76804
#
# Compressibility (1/GPa) = 0.02861358
#
# Stress axis : x y z
#
# Youngs Moduli (GPa) = 43.15752 105.14790 31.71607
#
# Poissons Ratio (x) = 0.53971 0.44438
# Poissons Ratio (y) = 0.22152 -0.04266
# Poissons Ratio (z) = 0.60468 -0.14144
#
# Static dielectric constant tensor:
#      x y z
#    x 1.950650 0.000000 -0.008720 
#    y 0.000000 1.898420 0.000000 
#    z -0.008720 0.000000 2.000110 
# 
# From -- ./inp_files/50820.got.cif
#   From: 2010.05.17/outbox.cif.g08.bks.cpg/sg12_26_cif.got.tgz:50820.got - 2010.06.03 13:09:07.
