data_PCOD9221589
_publ_section_title
;
Structure prediction by ZEFSAII (Michael W. Deem and Ramdas Pophale) SiO2 
 PCOD9221589
Probable space group: C 2/M
;
_chemical_formula_sum "Si O2"
_cell_formula_units_Z 58
_cell_length_a 24.671255
_cell_length_b 15.264273
_cell_length_c 19.428698
_cell_angle_alpha 90.000000
_cell_angle_beta 21.862683
_cell_angle_gamma 90.000000
_cell_volume 2724.591371
_symmetry_space_group_name_H-M "C 2/M"
_symmetry_group_IT_number 12
_symmetry_cell_setting 'monoclinic'
loop_
_space_group_symop_operation_xyz
x,y,z
-x,y,-z
-x,-y,-z
x,-y,z
1/2+x,1/2+y,z
1/2-x,1/2+y,-z
1/2-x,1/2-y,-z
1/2+x,1/2-y,z
loop_
_atom_site_type_symbol
_atom_site_label
_atom_site_fract_x
_atom_site_fract_y
_atom_site_fract_z
Si Si1 0.774386 0.099265 0.962689
Si Si2 0.696798 0.700290 0.935996
Si Si3 0.716529 0.238858 0.390956
Si Si4 0.953167 0.176705 0.631382
Si Si5 0.428714 0.902857 0.343988
Si Si6 0.484781 0.150451 0.128993
Si Si7 0.844416 0.902523 0.144865
Si Si8 0.500000 0.000000 0.000000
O O1 0.825448 0.169950 0.959225
O O2 0.599572 0.105825 0.161826
O O3 0.808544 0.000000 0.944578
O O4 0.848808 0.116750 0.801262
O O5 0.863567 0.731835 0.731111
O O6 0.649937 0.621055 0.941954
O O7 0.605051 0.783021 0.016914
O O8 0.596160 0.306747 0.507805
O O9 0.659073 0.176664 0.519339
O O10 0.861952 0.289496 0.239118
O O11 0.747335 0.172462 0.292603
O O12 0.000000 0.146554 0.500000
O O13 0.418000 0.896065 0.274597
O O14 0.379211 0.000000 0.424967
O O15 0.536356 0.077568 0.014712
O O16 0.786206 0.000000 0.223256
O O17 0.000000 0.897943 0.000000
#
# Coordination Sequence:
#
# PCOD9221589 Si02
#       8
#     8   8   8   8   8   8   8   2
#     4  11  25  45  71 106 145 187 239 293 358 430
#     4  12  22  46  73 102 136 192 236 282 359 434
#     4  12  24  44  67 105 138 180 234 297 355 419
#     4  12  25  43  69 101 142 183 241 291 351 428
#     4  11  23  44  70 104 140 186 236 292 355 420
#     4  12  25  45  73  96 140 185 238 291 349 427
#     4  11  23  41  66 102 139 178 229 292 358 421
#     4  12  28  48  72 110 142 192 248 290 352 444
#
# _framework density 21.287596000000001
#
# number of rings (size 3 to 8) (size 9 to 14) (size 15 to 20)
#    0.000    0.414    6.207    3.310    0.000    0.276 
#    1.241    2.069    0.000    0.000    0.000    0.000 
#    0.000    0.000    0.000    0.000    0.000    0.000 
#
# Total GULP energy -161858.426643 kJ/mol
# GULP energy per Si atom -5581.325057 kJ/mol
# Density = 2.123914 g / cm^3
# Si number density = 21.287596 Si / 1000 Ang^3
#
#
#
# Elastic Constant Matrix: (Units=GPa)
#
#
# Indices 1 2 3 4 5 6 
#
# 1 98.7699 38.8068 10.3932 0.0000 13.7414 0.0001
# 2 38.8068 111.3597 22.9861 0.0001 -0.2262 0.0000
# 3 10.3932 22.9861 45.7911 0.0004 5.6527 0.0002
# 4 0.0000 0.0001 0.0004 -16.7813 -0.0001 -3.8261
# 5 13.7414 -0.2262 5.6527 -0.0001 39.0458 -0.0001
# 6 0.0001 0.0000 0.0002 -3.8261 -0.0001 22.7608
#
#
#
# Elastic Compliance Matrix: (Units=1/GPa)
#
#
# Indices 1 2 3 4 5 6 
#
# 1 0.012445 -0.004323 -0.000113 0.000000 -0.004389 0.000000
# 2 -0.004323 0.011544 -0.005101 0.000000 0.002327 0.000000
# 3 -0.000113 -0.005101 0.024868 0.000001 -0.003590 0.000000
# 4 0.000000 0.000000 0.000001 -0.057391 0.000000 -0.009647
# 5 -0.004389 0.002327 -0.003590 0.000000 0.027689 0.000000
# 6 0.000000 0.000000 0.000000 -0.009647 0.000000 0.042313
#
#
# Mechanical properties :
#
#
# Convention : Reuss Voigt Hill
#
# Bulk Modulus (GPa) = 33.57539 44.47697 39.02618
# Shear Modulus (GPa) = 55.26747 21.25405 38.26076
#
# Velocity S-wave (km/s) = 5.10085 3.16321 4.24409
# Velocity P-wave (km/s) = 7.10620 5.85491 6.51068
#
# Compressibility (1/GPa) = 0.02978372
#
# Stress axis : x y z
#
# Youngs Moduli (GPa) = 80.35146 86.62629 40.21288
#
# Poissons Ratio (x) = 0.37444 0.00455
# Poissons Ratio (y) = 0.34732 0.20512
# Poissons Ratio (z) = 0.00909 0.44187
#
# Static dielectric constant tensor:
#      x y z
#    x 1.763830 0.000000 0.025960 
#    y 0.000000 1.772450 0.000000 
#    z 0.025960 0.000000 1.787200 
# 
# From -- ./inp_files/328368.got.cif
#   From: 2010.05.17/outbox.cif.g08.bks.cpg/sg12_165_cif.got.tgz:328368.got - 2010.06.03 13:09:07.
