data_PCOD9221036
_publ_section_title
;
Structure prediction by ZEFSAII (Michael W. Deem and Ramdas Pophale) SiO2 
 PCOD9221036
Probable space group: C 2/M
;
_chemical_formula_sum "Si O2"
_cell_formula_units_Z 42
_cell_length_a 5.229607
_cell_length_b 27.401846
_cell_length_c 14.964979
_cell_angle_alpha 90.000000
_cell_angle_beta 61.856598
_cell_angle_gamma 90.000000
_cell_volume 1890.950740
_symmetry_space_group_name_H-M "C 2/M"
_symmetry_group_IT_number 12
_symmetry_cell_setting 'monoclinic'
loop_
_space_group_symop_operation_xyz
x,y,z
-x,y,-z
-x,-y,-z
x,-y,z
1/2+x,1/2+y,z
1/2-x,1/2+y,-z
1/2-x,1/2-y,-z
1/2+x,1/2-y,z
loop_
_atom_site_type_symbol
_atom_site_label
_atom_site_fract_x
_atom_site_fract_y
_atom_site_fract_z
Si Si1 0.647359 0.557191 0.147879
Si Si2 0.620750 0.352457 0.388544
Si Si3 0.836210 0.412275 0.646770
Si Si4 0.456825 0.150401 0.167467
Si Si5 0.000000 0.500000 0.500000
Si Si6 0.000000 0.108899 0.000000
Si Si7 0.500000 0.217305 0.000000
O O1 0.712147 0.500000 0.148363
O O2 0.324335 0.569705 0.237374
O O3 0.833564 0.595550 0.174759
O O4 0.666081 0.574113 0.042100
O O5 0.500000 0.328625 0.500000
O O6 0.350021 0.370416 0.372765
O O7 0.840139 0.328409 0.279976
O O8 0.834049 0.395734 0.389109
O O9 0.828148 0.457681 0.582975
O O10 0.795907 0.143105 0.093507
O O11 0.364386 0.183411 0.099561
O O12 0.250000 0.250000 0.000000
#
# Coordination Sequence:
#
# PCOD9221036 Si02
#       7
#     8   8   8   8   2   4   4
#     4  11  23  38  57  93 135 186 218 267 327 386
#     4  11  22  41  62  91 127 173 216 268 333 381
#     4  11  23  35  56  85 125 180 234 274 304 366
#     4  11  25  42  68  97 137 167 228 278 327 402
#     4  12  20  38  52  80 130 174 252 282 290 358
#     4  12  20  40  61  86 138 173 218 275 317 388
#     4  12  27  48  78 102 127 167 218 279 352 404
#
# _framework density 22.211048999999999
#
# number of rings (size 3 to 8) (size 9 to 14) (size 15 to 20)
#    0.000    0.762    6.667    0.857    0.000    3.810 
#    1.714    0.000    0.000    1.143    0.000    0.000 
#    0.000    0.000    0.000    0.000    0.000    0.000 
#
# Total GULP energy -116916.448630 kJ/mol
# GULP energy per Si atom -5567.449935 kJ/mol
# Density = 2.216050 g / cm^3
# Si number density = 22.211049 Si / 1000 Ang^3
#
#
#
# Elastic Constant Matrix: (Units=GPa)
#
#
# Indices 1 2 3 4 5 6 
#
# 1 93.6486 27.2770 8.4582 0.0000 0.4958 0.0000
# 2 27.2770 49.9235 22.7024 0.0000 6.6400 0.0000
# 3 8.4582 22.7024 194.7007 0.0000 0.3210 0.0000
# 4 0.0000 0.0000 0.0000 -0.3279 0.0000 -0.7665
# 5 0.4958 6.6400 0.3210 0.0000 30.6237 0.0000
# 6 0.0000 0.0000 0.0000 -0.7665 0.0000 23.7185
#
#
#
# Elastic Compliance Matrix: (Units=1/GPa)
#
#
# Indices 1 2 3 4 5 6 
#
# 1 0.012768 -0.007292 0.000293 0.000000 0.001371 0.000000
# 2 -0.007292 0.025974 -0.002703 0.000000 -0.005485 0.000000
# 3 0.000293 -0.002703 0.005438 0.000000 0.000524 0.000000
# 4 0.000000 0.000000 0.000000 -2.835342 0.000000 -0.091631
# 5 0.001371 -0.005485 0.000524 0.000000 0.033816 0.000000
# 6 0.000000 0.000000 0.000000 -0.091631 0.000000 0.039200
#
#
# Mechanical properties :
#
#
# Convention : Reuss Voigt Hill
#
# Bulk Modulus (GPa) = 40.36084 50.57200 45.46642
# Shear Modulus (GPa) = -1.85840 29.45853 13.80007
#
# Velocity S-wave (km/s) = -0.91571 3.64579 2.49532
# Velocity P-wave (km/s) = 4.13436 6.36716 5.36813
#
# Compressibility (1/GPa) = 0.02477649
#
# Stress axis : x y z
#
# Youngs Moduli (GPa) = 78.31803 38.50072 183.90390
#
# Poissons Ratio (x) = 0.28075 -0.05394
# Poissons Ratio (y) = 0.57111 0.49704
# Poissons Ratio (z) = -0.02297 0.10406
#
# Static dielectric constant tensor:
#      x y z
#    x 1.922040 0.000000 0.029380 
#    y 0.000000 1.762020 0.000000 
#    z 0.029380 0.000000 1.991420 
# 
# From -- ./inp_files/192314.got.cif
#   From: 2010.05.17/outbox.cif.g08.bks.cpg/sg12_97_cif.got.tgz:192314.got - 2010.06.03 13:09:07.
