data_PCOD9221620
_publ_section_title
;
Structure prediction by ZEFSAII (Michael W. Deem and Ramdas Pophale) SiO2 
 PCOD9221620
Probable space group: C 2/M
;
_chemical_formula_sum "Si O2"
_cell_formula_units_Z 32
_cell_length_a 9.954498
_cell_length_b 17.077754
_cell_length_c 8.055628
_cell_angle_alpha 90.000000
_cell_angle_beta 72.194608
_cell_angle_gamma 90.000000
_cell_volume 1303.864220
_symmetry_space_group_name_H-M "C 2/M"
_symmetry_group_IT_number 12
_symmetry_cell_setting 'monoclinic'
loop_
_space_group_symop_operation_xyz
x,y,z
-x,y,-z
-x,-y,-z
x,-y,z
1/2+x,1/2+y,z
1/2-x,1/2+y,-z
1/2-x,1/2-y,-z
1/2+x,1/2-y,z
loop_
_atom_site_type_symbol
_atom_site_label
_atom_site_fract_x
_atom_site_fract_y
_atom_site_fract_z
Si Si1 0.404049 0.284709 0.675241
Si Si2 0.077296 0.916015 0.792631
Si Si3 0.319146 0.088568 0.249177
Si Si4 0.640403 0.125346 0.154623
O O1 0.500000 0.244147 0.500000
O O2 0.510195 0.345531 0.719572
O O3 0.277642 0.339316 0.655058
O O4 0.355169 0.218826 0.821450
O O5 0.242616 0.907528 0.765674
O O6 0.047765 0.000000 0.724121
O O7 0.000000 0.915056 0.000000
O O8 0.480803 0.097943 0.243539
O O9 0.271495 0.000000 0.305566
O O10 0.320611 0.099734 0.047381
#
# Coordination Sequence:
#
# PCOD9221620 Si02
#       4
#     8   8   8   8
#     4  12  27  44  65  97 139 178 214 267 333 394
#     4  11  23  41  68  99 129 169 222 271 320 387
#     4  11  23  42  70 101 131 170 221 275 331 383
#     4  11  23  41  68  99 133 170 218 273 326 389
#
# _framework density 24.542431000000001
#
# number of rings (size 3 to 8) (size 9 to 14) (size 15 to 20)
#    0.000    0.750    2.500    6.000    3.500    6.000 
#    0.000    0.000    0.000    8.250    0.000    0.000 
#    0.000    0.000    0.000    0.000    0.000    0.000 
#
# Total GULP energy -89631.504232 kJ/mol
# GULP energy per Si atom -5601.969014 kJ/mol
# Density = 2.448657 g / cm^3
# Si number density = 24.542431 Si / 1000 Ang^3
#
#
#
# Elastic Constant Matrix: (Units=GPa)
#
#
# Indices 1 2 3 4 5 6 
#
# 1 144.6393 13.5545 -8.6024 0.0000 -7.7314 0.0000
# 2 13.5545 137.5890 3.6803 0.0000 2.5670 0.0000
# 3 -8.6024 3.6803 45.2865 0.0000 -18.7535 0.0000
# 4 0.0000 0.0000 0.0000 21.0791 0.0000 -0.8024
# 5 -7.7314 2.5670 -18.7535 0.0000 22.0095 0.0000
# 6 0.0000 0.0000 0.0000 -0.8024 0.0000 45.9124
#
#
#
# Elastic Compliance Matrix: (Units=1/GPa)
#
#
# Indices 1 2 3 4 5 6 
#
# 1 0.007587 -0.000975 0.004128 0.000000 0.006296 0.000000
# 2 -0.000975 0.007472 -0.002001 0.000000 -0.002920 0.000000
# 3 0.004128 -0.002001 0.036661 0.000000 0.032921 0.000000
# 4 0.000000 0.000000 0.000000 0.047472 0.000000 0.000830
# 5 0.006296 -0.002920 0.032921 0.000000 0.076038 0.000000
# 6 0.000000 0.000000 0.000000 0.000830 0.000000 0.021795
#
#
# Mechanical properties :
#
#
# Convention : Reuss Voigt Hill
#
# Bulk Modulus (GPa) = 18.51083 38.30885 28.40984
# Shear Modulus (GPa) = 23.50379 39.05902 31.28141
#
# Velocity S-wave (km/s) = 3.09800 3.99368 3.57401
# Velocity P-wave (km/s) = 4.51171 6.07528 5.35091
#
# Compressibility (1/GPa) = 0.05402244
#
# Stress axis : x y z
#
# Youngs Moduli (GPa) = 131.80112 133.83095 27.27669
#
# Poissons Ratio (x) = 0.13053 -0.11259
# Poissons Ratio (y) = 0.12855 0.05459
# Poissons Ratio (z) = -0.54404 0.26786
#
# Static dielectric constant tensor:
#      x y z
#    x 1.915930 0.000000 -0.029300 
#    y 0.000000 1.904040 0.000000 
#    z -0.029300 0.000000 1.962530 
# 
# From -- ./inp_files/45220.got.cif
#   From: 2010.05.17/outbox.cif.g08.bks.cpg/sg12_23_cif.got.tgz:45220.got - 2010.06.03 13:09:07.
