data_PCOD9221633
_publ_section_title
;
Structure prediction by ZEFSAII (Michael W. Deem and Ramdas Pophale) SiO2 
 PCOD9221633
Probable space group: C 2/M
;
_chemical_formula_sum "Si O2"
_cell_formula_units_Z 40
_cell_length_a 25.035938
_cell_length_b 10.898164
_cell_length_c 8.529844
_cell_angle_alpha 90.000000
_cell_angle_beta 134.287167
_cell_angle_gamma 90.000000
_cell_volume 1666.018447
_symmetry_space_group_name_H-M "C 2/M"
_symmetry_group_IT_number 12
_symmetry_cell_setting 'monoclinic'
loop_
_space_group_symop_operation_xyz
x,y,z
-x,y,-z
-x,-y,-z
x,-y,z
1/2+x,1/2+y,z
1/2-x,1/2+y,-z
1/2-x,1/2-y,-z
1/2+x,1/2-y,z
loop_
_atom_site_type_symbol
_atom_site_label
_atom_site_fract_x
_atom_site_fract_y
_atom_site_fract_z
Si Si1 0.763498 0.858736 0.793747
Si Si2 0.083788 0.500000 0.740408
Si Si3 0.481153 0.359975 0.729357
Si Si4 0.884345 0.230824 0.812892
Si Si5 0.359262 0.257295 0.268621
Si Si6 0.085296 0.500000 0.117976
O O1 0.809898 0.821955 0.735328
O O2 0.697048 0.766218 0.701681
O O3 0.740266 0.000000 0.738625
O O4 0.819191 0.839581 0.056441
O O5 0.124777 0.622371 0.765995
O O6 0.085312 0.500000 0.930523
O O7 0.000000 0.500000 0.500000
O O8 0.506114 0.500000 0.766358
O O9 0.422674 0.346496 0.753660
O O10 0.435135 0.315399 0.486371
O O11 0.551433 0.276656 0.919677
O O12 0.877893 0.373030 0.752024
O O13 0.000000 0.500000 0.000000
#
# Coordination Sequence:
#
# PCOD9221633 Si02
#       6
#     8   4   8   8   8   4
#     4  11  23  44  64  93 134 179 223 271 336 394
#     4  12  24  42  68 102 134 165 223 280 329 402
#     4  11  23  42  65  99 132 170 223 273 328 391
#     4  11  23  41  70  95 131 175 220 276 333 392
#     4  11  25  41  67  96 133 176 218 275 334 396
#     4  12  22  42  66 100 130 167 214 277 335 388
#
# _framework density 24.009339000000001
#
# number of rings (size 3 to 8) (size 9 to 14) (size 15 to 20)
#    0.000    0.800    5.000    4.200    0.000    0.800 
#    1.800    2.000    0.000    0.000    0.000    0.000 
#    0.000    0.000    0.000    0.000    0.000    0.000 
#
# Total GULP energy -112132.611630 kJ/mol
# GULP energy per Si atom -5606.630582 kJ/mol
# Density = 2.395469 g / cm^3
# Si number density = 24.009339 Si / 1000 Ang^3
#
#
#
# Elastic Constant Matrix: (Units=GPa)
#
#
# Indices 1 2 3 4 5 6 
#
# 1 128.0371 -0.5646 -25.0302 0.0000 3.7420 0.0000
# 2 -0.5646 129.6876 2.7253 0.0000 1.9769 0.0000
# 3 -25.0302 2.7253 88.5371 0.0000 11.2835 0.0000
# 4 0.0000 0.0000 0.0000 32.6722 0.0000 3.1592
# 5 3.7420 1.9769 11.2835 0.0000 16.5741 0.0000
# 6 0.0000 0.0000 0.0000 3.1592 0.0000 36.5782
#
#
#
# Elastic Compliance Matrix: (Units=1/GPa)
#
#
# Indices 1 2 3 4 5 6 
#
# 1 0.008490 0.000035 0.002895 0.000000 -0.003892 0.000000
# 2 0.000035 0.007726 -0.000120 0.000000 -0.000848 0.000000
# 3 0.002895 -0.000120 0.013357 0.000000 -0.009733 0.000000
# 4 0.000000 0.000000 0.000000 0.030865 0.000000 -0.002666
# 5 -0.003892 -0.000848 -0.009733 0.000000 0.067941 0.000000
# 6 0.000000 0.000000 0.000000 -0.002666 0.000000 0.027569
#
#
# Mechanical properties :
#
#
# Convention : Reuss Voigt Hill
#
# Bulk Modulus (GPa) = 28.41263 33.39143 30.90203
# Shear Modulus (GPa) = 30.85300 41.77365 36.31332
#
# Velocity S-wave (km/s) = 3.58864 4.17573 3.89326
# Velocity P-wave (km/s) = 5.38802 6.09810 5.75402
#
# Compressibility (1/GPa) = 0.03519562
#
# Stress axis : x y z
#
# Youngs Moduli (GPa) = 117.78388 129.42577 74.86557
#
# Poissons Ratio (x) = -0.00459 -0.21675
# Poissons Ratio (y) = -0.00418 0.00896
# Poissons Ratio (z) = -0.34100 0.01550
#
# Static dielectric constant tensor:
#      x y z
#    x 1.913330 0.000000 -0.037470 
#    y 0.000000 1.819550 0.000000 
#    z -0.037470 0.000000 1.939520 
# 
# From -- ./inp_files/102370.got.cif
#   From: 2010.05.17/outbox.cif.g08.bks.cpg/sg12_52_cif.got.tgz:102370.got - 2010.06.03 13:09:07.
