data_PCOD9221511
_publ_section_title
;
Structure prediction by ZEFSAII (Michael W. Deem and Ramdas Pophale) SiO2 
 PCOD9221511
Probable space group: C 2/M
;
_chemical_formula_sum "Si O2"
_cell_formula_units_Z 42
_cell_length_a 21.769201
_cell_length_b 12.978074
_cell_length_c 25.430904
_cell_angle_alpha 90.000000
_cell_angle_beta 163.753998
_cell_angle_gamma 90.000000
_cell_volume 2010.033489
_symmetry_space_group_name_H-M "C 2/M"
_symmetry_group_IT_number 12
_symmetry_cell_setting 'monoclinic'
loop_
_space_group_symop_operation_xyz
x,y,z
-x,y,-z
-x,-y,-z
x,-y,z
1/2+x,1/2+y,z
1/2-x,1/2+y,-z
1/2-x,1/2-y,-z
1/2+x,1/2-y,z
loop_
_atom_site_type_symbol
_atom_site_label
_atom_site_fract_x
_atom_site_fract_y
_atom_site_fract_z
Si Si1 0.065291 0.116767 0.640108
Si Si2 0.143800 0.288041 0.466713
Si Si3 0.420606 0.000000 0.307894
Si Si4 0.000000 0.500000 0.500000
Si Si5 0.064535 0.788030 0.887447
Si Si6 0.635488 0.116764 0.210301
Si Si7 0.530171 0.500000 0.917452
O O1 0.267731 0.139942 0.767732
O O2 0.024400 0.202046 0.650033
O O3 0.848798 0.117053 0.424409
O O4 0.088471 0.000000 0.679407
O O5 0.250000 0.250000 0.500000
O O6 0.339435 0.295439 0.669714
O O7 0.029885 0.398597 0.372222
O O8 0.460951 0.000000 0.403327
O O9 0.166581 0.000000 0.083269
O O10 0.730508 0.500000 0.288165
O O11 0.026893 0.702026 0.901257
O O12 0.250000 0.750000 0.000000
O O13 0.100747 0.898590 0.943080
O O14 0.547843 0.000000 0.138771
#
# Coordination Sequence:
#
# PCOD9221511 Si02
#       7
#     8   8   4   2   8   8   4
#     4   8  16  32  58  90 123 167 222 279 341 405
#     4  11  23  40  66  97 141 186 233 290 352 426
#     4  12  27  47  73 108 142 190 243 295 368 434
#     4  12  26  52  76 106 150 180 240 312 360 448
#     4  11  23  40  66  97 141 186 233 290 352 426
#     4   8  16  32  58  90 123 167 222 279 341 405
#     4  12  27  47  73 108 142 190 243 295 368 434
#
# _framework density 20.895174000000001
#
# number of rings (size 3 to 8) (size 9 to 14) (size 15 to 20)
#    0.000    1.905    1.905    2.571    5.333    0.000 
#    0.000    0.000    0.000    0.000    0.000   10.667 
#    0.000    0.000    0.000    0.000    0.000    0.000 
#
# Total GULP energy -117104.465307 kJ/mol
# GULP energy per Si atom -5576.403110 kJ/mol
# Density = 2.084762 g / cm^3
# Si number density = 20.895174 Si / 1000 Ang^3
#
#
#
# Elastic Constant Matrix: (Units=GPa)
#
#
# Indices 1 2 3 4 5 6 
#
# 1 138.3923 118.4967 43.7430 -0.0056 18.8888 -0.0103
# 2 118.4967 204.2700 49.9376 -0.0107 46.6841 -0.0138
# 3 43.7430 49.9376 114.6345 0.0097 -2.6762 -0.0007
# 4 -0.0056 -0.0107 0.0097 -2.6813 0.0042 3.8500
# 5 18.8888 46.6841 -2.6762 0.0042 48.1498 -0.0072
# 6 -0.0103 -0.0138 -0.0007 3.8500 -0.0072 3.0517
#
#
#
# Elastic Compliance Matrix: (Units=1/GPa)
#
#
# Indices 1 2 3 4 5 6 
#
# 1 0.015048 -0.008882 -0.001812 0.000009 0.002608 0.000005
# 2 -0.008882 0.012656 -0.002332 -0.000016 -0.008916 0.000026
# 3 -0.001812 -0.002332 0.010514 0.000017 0.003556 -0.000028
# 4 0.000009 -0.000016 0.000017 -0.132653 0.000050 0.167355
# 5 0.002608 -0.008916 0.003556 0.000050 0.028587 -0.000026
# 6 0.000005 0.000026 -0.000028 0.167355 -0.000026 0.116552
#
#
# Mechanical properties :
#
#
# Convention : Reuss Voigt Hill
#
# Bulk Modulus (GPa) = 82.20244 97.96127 90.08186
# Shear Modulus (GPa) = 61.87288 26.04535 43.95912
#
# Velocity S-wave (km/s) = 5.44751 3.53438 4.59169
# Velocity P-wave (km/s) = 8.88780 7.97746 8.44490
#
# Compressibility (1/GPa) = 0.01216509
#
# Stress axis : x y z
#
# Youngs Moduli (GPa) = 66.45377 79.01470 95.11496
#
# Poissons Ratio (x) = 0.70185 0.17233
# Poissons Ratio (y) = 0.59027 0.22180
# Poissons Ratio (z) = 0.12040 0.18425
#
# Static dielectric constant tensor:
#      x y z
#    x 1.722610 -0.000020 -0.032140 
#    y -0.000020 1.723360 -0.000030 
#    z -0.032140 -0.000030 1.769610 
# 
# From -- ./inp_files/366124.got.cif
#   From: 2010.05.17/outbox.cif.g08.bks.cpg/sg12_184_cif.got.tgz:366124.got - 2010.06.03 13:09:07.
