data_PCOD9221699
_publ_section_title
;
Structure prediction by ZEFSAII (Michael W. Deem and Ramdas Pophale) SiO2 
 PCOD9221699
Probable space group: C 2/M
;
_chemical_formula_sum "Si O2"
_cell_formula_units_Z 52
_cell_length_a 9.144292
_cell_length_b 19.737377
_cell_length_c 17.761272
_cell_angle_alpha 90.000000
_cell_angle_beta 129.675912
_cell_angle_gamma 90.000000
_cell_volume 2467.272042
_symmetry_space_group_name_H-M "C 2/M"
_symmetry_group_IT_number 12
_symmetry_cell_setting 'monoclinic'
loop_
_space_group_symop_operation_xyz
x,y,z
-x,y,-z
-x,-y,-z
x,-y,z
1/2+x,1/2+y,z
1/2-x,1/2+y,-z
1/2-x,1/2-y,-z
1/2+x,1/2-y,z
loop_
_atom_site_type_symbol
_atom_site_label
_atom_site_fract_x
_atom_site_fract_y
_atom_site_fract_z
Si Si1 0.546191 0.645941 0.737286
Si Si2 0.947343 0.279249 0.894899
Si Si3 0.820398 0.606716 0.098368
Si Si4 0.208243 0.260331 0.573602
Si Si5 0.418305 0.000000 0.756952
Si Si6 0.345583 0.607921 0.387407
Si Si7 0.024680 0.118286 0.123473
O O1 0.738971 0.689568 0.812175
O O2 0.369026 0.695688 0.665220
O O3 0.570623 0.602949 0.669417
O O4 0.502859 0.603954 0.798239
O O5 0.962066 0.199898 0.882192
O O6 0.098797 0.318745 0.892299
O O7 0.000000 0.290237 0.000000
O O8 0.713492 0.593771 0.142683
O O9 0.998389 0.558170 0.157760
O O10 0.658231 0.593793 0.983236
O O11 0.250000 0.250000 0.500000
O O12 0.196420 0.187159 0.610113
O O13 0.000000 0.293066 0.500000
O O14 0.334779 0.940136 0.673806
O O15 0.500000 0.587523 0.500000
#
# Coordination Sequence:
#
# PCOD9221699 Si02
#       7
#     8   8   8   8   4   8   8
#     4  12  23  40  71 108 136 177 221 287 360 406
#     4  12  21  39  69 107 142 177 226 278 356 419
#     4  11  24  44  63  99 141 180 227 276 335 414
#     4  11  23  42  69 106 142 165 219 296 356 401
#     4  12  27  45  73  91 131 202 240 262 327 428
#     4  11  24  46  70  98 136 178 234 282 340 411
#     4  11  24  38  68 103 144 173 217 292 357 402
#
# _framework density 21.075907000000001
#
# number of rings (size 3 to 8) (size 9 to 14) (size 15 to 20)
#    0.000    0.615    7.692    2.538    2.154    1.231 
#    0.000    4.231    0.000    0.923    0.000    0.000 
#    0.000    0.000    0.000    0.000    0.000    0.000 
#
# Total GULP energy -144803.851755 kJ/mol
# GULP energy per Si atom -5569.378914 kJ/mol
# Density = 2.102794 g / cm^3
# Si number density = 21.075907 Si / 1000 Ang^3
#
#
#
# Elastic Constant Matrix: (Units=GPa)
#
#
# Indices 1 2 3 4 5 6 
#
# 1 86.8381 -19.0911 45.5255 0.0000 -19.1266 0.0000
# 2 -19.0911 29.1332 8.1339 0.0000 1.5162 0.0000
# 3 45.5255 8.1339 140.2333 0.0000 -4.4157 0.0000
# 4 0.0000 0.0000 0.0000 26.1634 0.0000 -23.6420
# 5 -19.1266 1.5162 -4.4157 0.0000 51.7311 0.0000
# 6 0.0000 0.0000 0.0000 -23.6420 0.0000 -38.4006
#
#
#
# Elastic Compliance Matrix: (Units=1/GPa)
#
#
# Indices 1 2 3 4 5 6 
#
# 1 0.019845 0.014658 -0.007094 0.000000 0.006302 0.000000
# 2 0.014658 0.045790 -0.007306 0.000000 0.003454 0.000000
# 3 -0.007094 -0.007306 0.009808 0.000000 -0.001572 0.000000
# 4 0.000000 0.000000 0.000000 0.024559 0.000000 -0.015120
# 5 0.006302 0.003454 -0.001572 0.000000 0.021426 0.000000
# 6 0.000000 0.000000 0.000000 -0.015120 0.000000 -0.016732
#
#
# Mechanical properties :
#
#
# Convention : Reuss Voigt Hill
#
# Bulk Modulus (GPa) = 13.16498 36.14903 24.65700
# Shear Modulus (GPa) = 38.60994 22.67453 30.64223
#
# Velocity S-wave (km/s) = 4.28477 3.28357 3.81714
# Velocity P-wave (km/s) = 5.54428 5.61826 5.58139
#
# Compressibility (1/GPa) = 0.07595908
#
# Stress axis : x y z
#
# Youngs Moduli (GPa) = 50.38932 21.83873 101.95393
#
# Poissons Ratio (x) = -0.32010 0.72330
# Poissons Ratio (y) = -0.73858 0.74484
# Poissons Ratio (z) = 0.35748 0.15955
#
# Static dielectric constant tensor:
#      x y z
#    x 1.804210 0.000000 0.012090 
#    y 0.000000 1.616720 0.000000 
#    z 0.012090 0.000000 1.761810 
# 
# From -- ./inp_files/258554.got.cif
#   From: 2010.05.17/outbox.cif.g08.bks.cpg/sg12_130_cif.got.tgz:258554.got - 2010.06.03 13:09:07.
