data_PCOD9221983
_publ_section_title
;
Structure prediction by ZEFSAII (Michael W. Deem and Ramdas Pophale) SiO2 
 PCOD9221983
Probable space group: C 2/M
;
_chemical_formula_sum "Si O2"
_cell_formula_units_Z 40
_cell_length_a 13.351071
_cell_length_b 13.946580
_cell_length_c 10.726551
_cell_angle_alpha 90.000000
_cell_angle_beta 111.117700
_cell_angle_gamma 90.000000
_cell_volume 1863.168577
_symmetry_space_group_name_H-M "C 2/M"
_symmetry_group_IT_number 12
_symmetry_cell_setting 'monoclinic'
loop_
_space_group_symop_operation_xyz
x,y,z
-x,y,-z
-x,-y,-z
x,-y,z
1/2+x,1/2+y,z
1/2-x,1/2+y,-z
1/2-x,1/2-y,-z
1/2+x,1/2-y,z
loop_
_atom_site_type_symbol
_atom_site_label
_atom_site_fract_x
_atom_site_fract_y
_atom_site_fract_z
Si Si1 0.499173 0.109090 0.640503
Si Si2 0.585534 0.334192 0.932923
Si Si3 0.294556 0.198489 0.643325
Si Si4 0.999601 0.000000 0.284039
Si Si5 0.286969 0.826071 0.164501
Si Si6 0.669536 0.500000 0.566812
O O1 0.500000 0.147254 0.500000
O O2 0.420644 0.176061 0.684887
O O3 0.621425 0.107777 0.738109
O O4 0.456818 0.000000 0.620084
O O5 0.527863 0.407374 0.812555
O O6 0.642385 0.244970 0.890617
O O7 0.500000 0.306173 0.000000
O O8 0.690359 0.378036 0.049628
O O9 0.250000 0.250000 0.500000
O O10 0.265267 0.261142 0.750110
O O11 0.236891 0.095774 0.619233
O O12 0.919795 0.000000 0.365557
O O13 0.115509 0.000000 0.404289
#
# Coordination Sequence:
#
# PCOD9221983 Si02
#       6
#     8   8   8   4   8   4
#     4  11  24  41  64 102 137 175 230 285 349 414
#     4  11  25  45  66  99 134 183 236 275 344 420
#     4  12  24  44  73  99 141 183 228 292 358 415
#     4  11  25  44  69  97 143 175 229 295 344 411
#     4  11  25  43  71  96 138 182 231 286 347 417
#     4  11  26  44  72 107 135 178 235 295 355 417
#
# _framework density 21.468805
#
# number of rings (size 3 to 8) (size 9 to 14) (size 15 to 20)
#    0.000    0.800    5.000    1.500    7.000    0.000 
#    0.000    0.000    0.000    4.200    0.000    0.000 
#    0.000    0.000    0.000    0.000    0.000    0.000 
#
# Total GULP energy -111788.633576 kJ/mol
# GULP energy per Si atom -5589.431679 kJ/mol
# Density = 2.141994 g / cm^3
# Si number density = 21.468805 Si / 1000 Ang^3
#
#
#
# Elastic Constant Matrix: (Units=GPa)
#
#
# Indices 1 2 3 4 5 6 
#
# 1 126.2452 19.6278 36.2132 0.0000 -12.5492 0.0000
# 2 19.6278 67.4325 10.1784 0.0000 -14.5416 0.0000
# 3 36.2132 10.1784 101.5497 0.0000 1.9340 0.0000
# 4 0.0000 0.0000 0.0000 -165.4762 0.0000 -24.6789
# 5 -12.5492 -14.5416 1.9340 0.0000 46.1486 0.0000
# 6 0.0000 0.0000 0.0000 -24.6789 0.0000 17.4899
#
#
#
# Elastic Compliance Matrix: (Units=1/GPa)
#
#
# Indices 1 2 3 4 5 6 
#
# 1 0.009321 -0.001778 -0.003186 0.000000 0.002108 0.000000
# 2 -0.001778 0.016546 -0.001115 0.000000 0.004777 0.000000
# 3 -0.003186 -0.001115 0.011127 0.000000 -0.001684 0.000000
# 4 0.000000 0.000000 0.000000 -0.004993 0.000000 -0.007045
# 5 0.002108 0.004777 -0.001684 0.000000 0.023818 0.000000
# 6 0.000000 0.000000 0.000000 -0.007045 0.000000 0.047236
#
#
# Mechanical properties :
#
#
# Convention : Reuss Voigt Hill
#
# Bulk Modulus (GPa) = 40.26416 47.47404 43.86910
# Shear Modulus (GPa) = 40.48866 -5.08700 17.70083
#
# Velocity S-wave (km/s) = 4.34744 -1.54098 2.87451
# Velocity P-wave (km/s) = 6.63293 4.35831 5.61207
#
# Compressibility (1/GPa) = 0.02483599
#
# Stress axis : x y z
#
# Youngs Moduli (GPa) = 107.28623 60.43920 89.86859
#
# Poissons Ratio (x) = 0.10744 0.28631
# Poissons Ratio (y) = 0.19071 0.10024
# Poissons Ratio (z) = 0.34180 0.06742
#
# Static dielectric constant tensor:
#      x y z
#    x 1.765680 0.000000 0.023470 
#    y 0.000000 1.763670 0.000000 
#    z 0.023470 0.000000 1.807390 
# 
# From -- ./inp_files/129831.got.cif
#   From: 2010.05.17/outbox.cif.g08.bks.cpg/sg12_65_cif.got.tgz:129831.got - 2010.06.03 13:09:07.
