data_PCOD9221328
_publ_section_title
;
Structure prediction by ZEFSAII (Michael W. Deem and Ramdas Pophale) SiO2 
 PCOD9221328
Probable space group: C 2/M
;
_chemical_formula_sum "Si O2"
_cell_formula_units_Z 40
_cell_length_a 32.229801
_cell_length_b 8.264870
_cell_length_c 24.629874
_cell_angle_alpha 90.000000
_cell_angle_beta 162.604217
_cell_angle_gamma 90.000000
_cell_volume 1961.481716
_symmetry_space_group_name_H-M "C 2/M"
_symmetry_group_IT_number 12
_symmetry_cell_setting 'monoclinic'
loop_
_space_group_symop_operation_xyz
x,y,z
-x,y,-z
-x,-y,-z
x,-y,z
1/2+x,1/2+y,z
1/2-x,1/2+y,-z
1/2-x,1/2-y,-z
1/2+x,1/2-y,z
loop_
_atom_site_type_symbol
_atom_site_label
_atom_site_fract_x
_atom_site_fract_y
_atom_site_fract_z
Si Si1 0.359502 0.807090 0.592196
Si Si2 0.639113 0.184569 0.820108
Si Si3 0.150225 0.818382 0.540493
Si Si4 0.164750 0.309025 0.018941
Si Si5 0.346956 0.807897 0.334810
O O1 0.250000 0.750000 0.500000
O O2 0.315622 0.746633 0.477293
O O3 0.361341 0.000000 0.592279
O O4 0.513994 0.758973 0.807253
O O5 0.515805 0.309559 0.669119
O O6 0.718588 0.198705 0.863324
O O7 0.593486 0.000000 0.773962
O O8 0.750000 0.250000 0.000000
O O9 0.170070 0.722514 0.621660
O O10 0.203555 0.000000 0.612989
O O11 0.181234 0.500000 0.026372
O O12 0.213950 0.281511 0.141928
O O13 0.500000 0.754193 0.500000
O O14 0.340607 0.000000 0.318167
#
# Coordination Sequence:
#
# PCOD9221328 Si02
#       5
#     8   8   8   8   8
#     4  11  25  45  68  92 123 162 215 267 314 369
#     4  12  22  34  56  90 127 163 204 253 313 374
#     4  12  24  39  63  92 128 167 208 257 314 373
#     4  11  23  39  62  92 127 165 206 256 312 374
#     4  11  23  38  60  93 134 170 205 251 311 379
#
# _framework density 20.392748000000001
#
# number of rings (size 3 to 8) (size 9 to 14) (size 15 to 20)
#    0.000    0.600    4.000    5.400    0.000    3.200 
#    0.000    1.000    0.000    6.000    0.000    0.000 
#    0.000    0.000    0.000    0.000    0.000    0.000 
#
# Total GULP energy -111439.343755 kJ/mol
# GULP energy per Si atom -5571.967188 kJ/mol
# Density = 2.034633 g / cm^3
# Si number density = 20.392748 Si / 1000 Ang^3
#
#
#
# Elastic Constant Matrix: (Units=GPa)
#
#
# Indices 1 2 3 4 5 6 
#
# 1 145.8503 23.2884 28.7584 -0.0001 -8.0652 0.0000
# 2 23.2884 82.4448 5.2868 0.0000 2.2602 0.0000
# 3 28.7584 5.2868 26.0237 -0.0001 -10.1266 -0.0001
# 4 -0.0001 0.0000 -0.0001 24.9250 -0.0001 -5.7360
# 5 -8.0652 2.2602 -10.1266 -0.0001 38.2492 0.0000
# 6 0.0000 0.0000 -0.0001 -5.7360 0.0000 37.1850
#
#
#
# Elastic Compliance Matrix: (Units=1/GPa)
#
#
# Indices 1 2 3 4 5 6 
#
# 1 0.009075 -0.001915 -0.009868 0.000000 -0.000586 0.000000
# 2 -0.001915 0.012776 -0.001037 0.000000 -0.001433 0.000000
# 3 -0.009868 -0.001037 0.054357 0.000000 0.012372 0.000000
# 4 0.000000 0.000000 0.000000 0.041597 0.000000 0.006417
# 5 -0.000586 -0.001433 0.012372 0.000000 0.029381 0.000000
# 6 0.000000 0.000000 0.000000 0.006417 0.000000 0.027882
#
#
# Mechanical properties :
#
#
# Convention : Reuss Voigt Hill
#
# Bulk Modulus (GPa) = 19.77545 40.99843 30.38694
# Shear Modulus (GPa) = 22.98167 33.20417 28.09292
#
# Velocity S-wave (km/s) = 3.36065 4.03952 3.71562
# Velocity P-wave (km/s) = 4.97765 6.47341 5.77417
#
# Compressibility (1/GPa) = 0.05056775
#
# Stress axis : x y z
#
# Youngs Moduli (GPa) = 110.18727 78.27181 18.39702
#
# Poissons Ratio (x) = 0.14987 0.18154
# Poissons Ratio (y) = 0.21098 0.01908
# Poissons Ratio (z) = 1.08735 0.08119
#
# Static dielectric constant tensor:
#      x y z
#    x 1.853050 0.000000 -0.097910 
#    y 0.000000 1.679410 0.000000 
#    z -0.097910 0.000000 1.814550 
# 
# From -- ./inp_files/162503.got.cif
#   From: 2010.05.17/outbox.cif.g08.bks.cpg/sg12_82_cif.got.tgz:162503.got - 2010.06.03 13:09:07.
