data_PCOD9221188
_publ_section_title
;
Structure prediction by ZEFSAII (Michael W. Deem and Ramdas Pophale) SiO2 
 PCOD9221188
Probable space group: C 2/M
;
_chemical_formula_sum "Si O2"
_cell_formula_units_Z 44
_cell_length_a 31.550696
_cell_length_b 9.898115
_cell_length_c 24.653516
_cell_angle_alpha 90.000000
_cell_angle_beta 18.328812
_cell_angle_gamma 90.000000
_cell_volume 2421.136730
_symmetry_space_group_name_H-M "C 2/M"
_symmetry_group_IT_number 12
_symmetry_cell_setting 'monoclinic'
loop_
_space_group_symop_operation_xyz
x,y,z
-x,y,-z
-x,-y,-z
x,-y,z
1/2+x,1/2+y,z
1/2-x,1/2+y,-z
1/2-x,1/2-y,-z
1/2+x,1/2-y,z
loop_
_atom_site_type_symbol
_atom_site_label
_atom_site_fract_x
_atom_site_fract_y
_atom_site_fract_z
Si Si1 0.725527 0.500000 0.587015
Si Si2 0.478300 0.000000 0.202260
Si Si3 0.407049 0.500000 0.961058
Si Si4 0.340708 0.243005 0.973281
Si Si5 0.772731 0.724407 0.621716
Si Si6 0.399781 0.000000 0.173496
Si Si7 0.563793 0.659403 0.261143
Si Si8 0.351656 0.500000 0.154705
O O1 0.830360 0.500000 0.409908
O O2 0.570070 0.500000 0.757618
O O3 0.750607 0.631283 0.594918
O O4 0.560333 0.871313 0.124367
O O5 0.470278 0.000000 0.146932
O O6 0.347581 0.368804 0.004790
O O7 0.369493 0.500000 0.069367
O O8 0.392635 0.293449 0.851747
O O9 0.189731 0.189404 0.147255
O O10 0.721885 0.631960 0.732787
O O11 0.928825 0.760393 0.439011
O O12 0.689467 0.863485 0.719834
O O13 0.500000 0.000000 0.000000
O O14 0.536364 0.500000 0.293879
O O15 0.500000 0.500000 0.000000
#
# Coordination Sequence:
#
# PCOD9221188 Si02
#       8
#     4   4   4   8   8   4   8   4
#     4  11  24  39  66 103 131 162 213 279 324 380
#     4  12  25  40  65 100 136 165 219 269 323 390
#     4  12  25  43  67  95 132 170 222 264 326 390
#     4  11  25  40  69  94 133 174 211 271 330 384
#     4  11  23  42  67  94 130 175 215 265 328 385
#     4  12  28  40  64  95 132 178 216 258 331 392
#     4  11  22  44  65  99 135 166 216 269 334 382
#     4  11  24  45  67  91 133 178 215 265 320 394
#
# _framework density 18.173283000000001
#
# number of rings (size 3 to 8) (size 9 to 14) (size 15 to 20)
#    0.000    0.727    6.364    1.636    5.091    2.909 
#    0.000    1.818    0.000    2.182    0.000    0.000 
#    0.000    0.000    0.000    0.000    0.000    0.000 
#
# Total GULP energy -123004.807215 kJ/mol
# GULP energy per Si atom -5591.127601 kJ/mol
# Density = 1.813192 g / cm^3
# Si number density = 18.173283 Si / 1000 Ang^3
#
#
#
# Elastic Constant Matrix: (Units=GPa)
#
#
# Indices 1 2 3 4 5 6 
#
# 1 121.4846 43.3625 53.9416 0.0001 10.0393 0.0000
# 2 43.3625 132.8179 35.4847 -0.0007 3.5306 -0.0003
# 3 53.9416 35.4847 101.9269 -0.0002 1.1539 0.0000
# 4 0.0001 -0.0007 -0.0002 36.3818 0.0000 -7.1191
# 5 10.0393 3.5306 1.1539 0.0000 23.3277 0.0000
# 6 0.0000 -0.0003 0.0000 -7.1191 0.0000 26.8750
#
#
#
# Elastic Compliance Matrix: (Units=1/GPa)
#
#
# Indices 1 2 3 4 5 6 
#
# 1 0.011821 -0.002296 -0.005406 0.000000 -0.004472 0.000000
# 2 -0.002296 0.008776 -0.001837 0.000000 -0.000249 0.000000
# 3 -0.005406 -0.001837 0.013289 0.000000 0.001947 0.000000
# 4 0.000000 0.000000 0.000000 0.028989 0.000000 0.007679
# 5 -0.004472 -0.000249 0.001947 0.000000 0.044734 0.000000
# 6 0.000000 0.000000 0.000000 0.007679 0.000000 0.039243
#
#
# Mechanical properties :
#
#
# Convention : Reuss Voigt Hill
#
# Bulk Modulus (GPa) = 67.53148 69.08967 68.31058
# Shear Modulus (GPa) = 29.26244 32.21294 30.73769
#
# Velocity S-wave (km/s) = 4.01707 4.21473 4.11708
# Velocity P-wave (km/s) = 7.66526 7.86034 7.76341
#
# Compressibility (1/GPa) = 0.01480791
#
# Stress axis : x y z
#
# Youngs Moduli (GPa) = 84.59530 113.94362 75.24764
#
# Poissons Ratio (x) = 0.26163 0.40678
# Poissons Ratio (y) = 0.19424 0.13826
# Poissons Ratio (z) = 0.45731 0.20936
#
# Static dielectric constant tensor:
#      x y z
#    x 1.311590 0.000000 -0.268980 
#    y 0.000000 1.611360 0.000000 
#    z -0.268980 0.000000 1.349460 
# 
# From -- ./inp_files/353249.got.cif
#   From: 2010.05.17/outbox.cif.g08.bks.cpg/sg12_177_cif.got.tgz:353249.got - 2010.06.03 13:09:07.
