data_PCOD9221139
_publ_section_title
;
Structure prediction by ZEFSAII (Michael W. Deem and Ramdas Pophale) SiO2 
 PCOD9221139
Probable space group: C 2/M
;
_chemical_formula_sum "Si O2"
_cell_formula_units_Z 56
_cell_length_a 28.190692
_cell_length_b 17.771493
_cell_length_c 6.523805
_cell_angle_alpha 90.000000
_cell_angle_beta 53.435729
_cell_angle_gamma 90.000000
_cell_volume 2625.115635
_symmetry_space_group_name_H-M "C 2/M"
_symmetry_group_IT_number 12
_symmetry_cell_setting 'monoclinic'
loop_
_space_group_symop_operation_xyz
x,y,z
-x,y,-z
-x,-y,-z
x,-y,z
1/2+x,1/2+y,z
1/2-x,1/2+y,-z
1/2-x,1/2-y,-z
1/2+x,1/2-y,z
loop_
_atom_site_type_symbol
_atom_site_label
_atom_site_fract_x
_atom_site_fract_y
_atom_site_fract_z
Si Si1 0.951438 0.692996 0.486236
Si Si2 0.454281 0.341060 0.283025
Si Si3 0.741704 0.666114 0.123092
Si Si4 0.928333 0.584794 0.192424
Si Si5 0.356398 0.832813 0.028467
Si Si6 0.344201 0.688101 0.289860
Si Si7 0.364889 0.410460 0.840001
O O1 0.982465 0.766230 0.311251
O O2 0.919907 0.642010 0.399760
O O3 0.000000 0.650802 0.500000
O O4 0.900128 0.715213 0.772628
O O5 0.400958 0.306537 0.288895
O O6 0.420815 0.387922 0.547963
O O7 0.500000 0.376367 0.000000
O O8 0.806356 0.633685 0.009893
O O9 0.708638 0.665229 0.426575
O O10 0.696639 0.618549 0.101036
O O11 0.750000 0.750000 0.000000
O O12 0.909278 0.500000 0.286420
O O13 0.895079 0.613188 0.073884
O O14 0.000000 0.585284 0.000000
O O15 0.328097 0.769124 0.242342
O O16 0.363215 0.629840 0.064769
O O17 0.365260 0.500000 0.859799
#
# Coordination Sequence:
#
# PCOD9221139 Si02
#       7
#     8   8   8   8   8   8   8
#     4  12  22  38  67 100 131 173 226 276 331 399
#     4  11  23  40  69 102 133 176 234 279 329 411
#     4  11  24  42  72 101 128 173 230 282 334 402
#     4  11  25  42  60  94 138 175 214 275 340 396
#     4  12  22  39  69  97 126 175 233 270 328 409
#     4  11  22  42  69  96 133 175 222 279 338 400
#     4  11  26  45  66 100 141 178 220 287 349 396
#
# _framework density 21.332394000000001
#
# number of rings (size 3 to 8) (size 9 to 14) (size 15 to 20)
#    0.000    0.714    5.714    2.571    0.000    4.000 
#    0.000    2.143    0.000    0.000    0.000    0.000 
#    0.000    0.000    0.000    0.000    0.000    0.000 
#
# Total GULP energy -156167.489810 kJ/mol
# GULP energy per Si atom -5577.410350 kJ/mol
# Density = 2.128384 g / cm^3
# Si number density = 21.332394 Si / 1000 Ang^3
#
#
#
# Elastic Constant Matrix: (Units=GPa)
#
#
# Indices 1 2 3 4 5 6 
#
# 1 87.5575 19.9487 30.4756 0.0000 0.6296 0.0000
# 2 19.9487 115.0088 32.0874 0.0000 14.9004 0.0000
# 3 30.4756 32.0874 103.0255 0.0000 2.4652 0.0000
# 4 0.0000 0.0000 0.0000 17.2357 0.0000 1.7756
# 5 0.6296 14.9004 2.4652 0.0000 31.4895 0.0000
# 6 0.0000 0.0000 0.0000 1.7756 0.0000 18.2236
#
#
#
# Elastic Compliance Matrix: (Units=1/GPa)
#
#
# Indices 1 2 3 4 5 6 
#
# 1 0.012916 -0.001375 -0.003408 0.000000 0.000659 0.000000
# 2 -0.001375 0.010282 -0.002685 0.000000 -0.004628 0.000000
# 3 -0.003408 -0.002685 0.011540 0.000000 0.000435 0.000000
# 4 0.000000 0.000000 0.000000 0.058608 0.000000 -0.005711
# 5 0.000659 -0.004628 0.000435 0.000000 0.033899 0.000000
# 6 0.000000 0.000000 0.000000 -0.005711 0.000000 0.055430
#
#
# Mechanical properties :
#
#
# Convention : Reuss Voigt Hill
#
# Bulk Modulus (GPa) = 50.49905 52.29058 51.39481
# Shear Modulus (GPa) = 24.48438 28.26176 26.37307
#
# Velocity S-wave (km/s) = 3.39153 3.64377 3.51991
# Velocity P-wave (km/s) = 6.24984 6.50140 6.37686
#
# Compressibility (1/GPa) = 0.01980235
#
# Stress axis : x y z
#
# Youngs Moduli (GPa) = 77.42449 97.25629 86.65274
#
# Poissons Ratio (x) = 0.13371 0.29533
# Poissons Ratio (y) = 0.10644 0.23266
# Poissons Ratio (z) = 0.26388 0.26113
#
# Static dielectric constant tensor:
#      x y z
#    x 1.814150 0.000000 -0.006100 
#    y 0.000000 1.754710 0.000000 
#    z -0.006100 0.000000 1.849160 
# 
# From -- ./inp_files/31982.got.cif
#   From: 2010.05.17/outbox.cif.g08.bks.cpg/sg12_16_cif.got.tgz:31982.got - 2010.06.03 13:09:07.
