data_PCOD9221909
_publ_section_title
;
Structure prediction by ZEFSAII (Michael W. Deem and Ramdas Pophale) SiO2 
 PCOD9221909
Probable space group: C 2/M
;
_chemical_formula_sum "Si O2"
_cell_formula_units_Z 50
_cell_length_a 17.718567
_cell_length_b 18.853895
_cell_length_c 7.800910
_cell_angle_alpha 90.000000
_cell_angle_beta 62.691001
_cell_angle_gamma 90.000000
_cell_volume 2315.551607
_symmetry_space_group_name_H-M "C 2/M"
_symmetry_group_IT_number 12
_symmetry_cell_setting 'monoclinic'
loop_
_space_group_symop_operation_xyz
x,y,z
-x,y,-z
-x,-y,-z
x,-y,z
1/2+x,1/2+y,z
1/2-x,1/2+y,-z
1/2-x,1/2-y,-z
1/2+x,1/2-y,z
loop_
_atom_site_type_symbol
_atom_site_label
_atom_site_fract_x
_atom_site_fract_y
_atom_site_fract_z
Si Si1 0.591743 0.000000 0.169366
Si Si2 0.807969 0.645377 0.447109
Si Si3 0.154555 0.779501 0.090194
Si Si4 0.500000 0.500000 0.000000
Si Si5 0.593946 0.852512 0.984596
Si Si6 0.608315 0.000000 0.540568
Si Si7 0.382356 0.364229 0.219892
Si Si8 0.086611 0.770133 0.499064
O O1 0.631787 0.000000 0.315540
O O2 0.491372 0.000000 0.315210
O O3 0.612159 0.070737 0.044398
O O4 0.834117 0.667723 0.228719
O O5 0.855128 0.571220 0.420377
O O6 0.710759 0.632686 0.595254
O O7 0.850672 0.705571 0.520448
O O8 0.131090 0.813767 0.297853
O O9 0.250000 0.750000 0.000000
O O10 0.099319 0.708354 0.119243
O O11 0.134568 0.828822 0.948262
O O12 0.433469 0.436683 0.137692
O O13 0.500000 0.853182 0.000000
O O14 0.430031 0.313611 0.308598
O O15 0.000000 0.746576 0.500000
#
# Coordination Sequence:
#
# PCOD9221909 Si02
#       8
#     4   8   8   2   8   4   8   8
#     4  11  24  38  60 101 149 189 235 281 363 462
#     4  12  23  43  74 104 154 196 244 315 373 445
#     4  12  25  45  74 109 149 193 248 314 375 436
#     4  12  30  54  84  98 154 220 248 328 380 458
#     4  12  23  41  68 108 148 194 239 295 377 458
#     4  11  24  40  60 100 148 191 233 290 359 454
#     4  12  27  53  74 111 146 197 264 312 380 443
#     4  12  25  44  76 114 147 192 249 317 382 452
#
# _framework density 21.593126999999999
#
# number of rings (size 3 to 8) (size 9 to 14) (size 15 to 20)
#    0.000    0.160    4.800    5.520    3.360    0.000 
#    0.000    3.600    0.000    0.000    0.000    0.000 
#    0.000    0.000    0.000    0.000    0.000    0.000 
#
# Total GULP energy -139529.237398 kJ/mol
# GULP energy per Si atom -5581.169496 kJ/mol
# Density = 2.154398 g / cm^3
# Si number density = 21.593127 Si / 1000 Ang^3
#
#
#
# Elastic Constant Matrix: (Units=GPa)
#
#
# Indices 1 2 3 4 5 6 
#
# 1 78.8422 36.1974 49.0231 0.0000 1.8252 0.0000
# 2 36.1974 125.3939 35.3119 0.0000 7.2970 0.0000
# 3 49.0231 35.3119 157.8316 0.0000 2.1676 0.0000
# 4 0.0000 0.0000 0.0000 37.6439 0.0000 -11.7807
# 5 1.8252 7.2970 2.1676 0.0000 42.5326 0.0000
# 6 0.0000 0.0000 0.0000 -11.7807 0.0000 14.6618
#
#
#
# Elastic Compliance Matrix: (Units=1/GPa)
#
#
# Indices 1 2 3 4 5 6 
#
# 1 0.017183 -0.003697 -0.004512 0.000000 0.000127 0.000000
# 2 -0.003697 0.009386 -0.000932 0.000000 -0.001404 0.000000
# 3 -0.004512 -0.000932 0.007947 0.000000 -0.000051 0.000000
# 4 0.000000 0.000000 0.000000 0.035489 0.000000 0.028515
# 5 0.000127 -0.001404 -0.000051 0.000000 0.023749 0.000000
# 6 0.000000 0.000000 0.000000 0.028515 0.000000 0.091117
#
#
# Mechanical properties :
#
#
# Convention : Reuss Voigt Hill
#
# Bulk Modulus (GPa) = 61.60038 67.01474 64.30756
# Shear Modulus (GPa) = 23.97336 35.07002 29.52169
#
# Velocity S-wave (km/s) = 3.33563 4.03442 3.70155
# Velocity P-wave (km/s) = 6.58976 7.26668 6.93648
#
# Compressibility (1/GPa) = 0.01623367
#
# Stress axis : x y z
#
# Youngs Moduli (GPa) = 58.19566 106.53702 125.84049
#
# Poissons Ratio (x) = 0.39388 0.56777
# Poissons Ratio (y) = 0.21516 0.11733
# Poissons Ratio (z) = 0.26257 0.09934
#
# Static dielectric constant tensor:
#      x y z
#    x 1.858760 0.000000 0.014610 
#    y 0.000000 1.780620 0.000000 
#    z 0.014610 0.000000 1.867300 
# 
# From -- ./inp_files/75816.got.cif
#   From: 2010.05.17/outbox.cif.g08.bks.cpg/sg12_38_cif.got.tgz:75816.got - 2010.06.03 13:09:07.
