data_PCOD9221530
_publ_section_title
;
Structure prediction by ZEFSAII (Michael W. Deem and Ramdas Pophale) SiO2 
 PCOD9221530
Probable space group: C 2/M
;
_chemical_formula_sum "Si O2"
_cell_formula_units_Z 56
_cell_length_a 20.965135
_cell_length_b 18.602490
_cell_length_c 18.674867
_cell_angle_alpha 90.000000
_cell_angle_beta 158.261566
_cell_angle_gamma 90.000000
_cell_volume 2697.503315
_symmetry_space_group_name_H-M "C 2/M"
_symmetry_group_IT_number 12
_symmetry_cell_setting 'monoclinic'
loop_
_space_group_symop_operation_xyz
x,y,z
-x,y,-z
-x,-y,-z
x,-y,z
1/2+x,1/2+y,z
1/2-x,1/2+y,-z
1/2-x,1/2-y,-z
1/2+x,1/2-y,z
loop_
_atom_site_type_symbol
_atom_site_label
_atom_site_fract_x
_atom_site_fract_y
_atom_site_fract_z
Si Si1 0.953382 0.285927 0.535840
Si Si2 0.507083 0.584837 0.793141
Si Si3 0.477622 0.163478 0.105109
Si Si4 0.664988 0.826720 0.891051
Si Si5 0.635030 0.419031 0.701468
Si Si6 0.067581 0.825617 0.149384
Si Si7 0.647184 0.632648 0.501722
O O1 0.772889 0.325200 0.358042
O O2 0.918524 0.207331 0.533459
O O3 0.000000 0.283459 0.500000
O O4 0.089543 0.320426 0.732598
O O5 0.481721 0.500000 0.762898
O O6 0.491685 0.615069 0.856775
O O7 0.369157 0.628111 0.600653
O O8 0.693080 0.611278 0.960169
O O9 0.462587 0.160004 0.175573
O O10 0.502507 0.246399 0.107434
O O11 0.655120 0.123267 0.268432
O O12 0.301239 0.130551 0.888756
O O13 0.750000 0.750000 0.000000
O O14 0.500000 0.393763 0.500000
O O15 0.693162 0.500000 0.744716
O O16 0.501420 0.421283 0.627928
O O17 0.000000 0.837762 0.000000
#
# Coordination Sequence:
#
# PCOD9221530 Si02
#       7
#     8   8   8   8   8   8   8
#     4  11  23  40  69 103 134 170 226 291 341 397
#     4  12  25  43  66  98 139 181 223 281 347 409
#     4  11  24  41  70 100 134 177 238 286 332 406
#     4  12  21  41  69  97 134 175 228 280 338 401
#     4  11  25  42  62  97 145 188 225 278 348 413
#     4  11  25  42  68 100 130 177 232 284 345 397
#     4  11  23  40  68  98 134 174 227 277 341 402
#
# _framework density 20.759937999999998
#
# number of rings (size 3 to 8) (size 9 to 14) (size 15 to 20)
#    0.000    0.714    4.286    2.571    6.000    3.714 
#    0.000    3.571    0.000    1.714    0.000    0.000 
#    0.000    0.000    0.000    0.000    0.000    0.000 
#
# Total GULP energy -156383.680070 kJ/mol
# GULP energy per Si atom -5585.131431 kJ/mol
# Density = 2.071269 g / cm^3
# Si number density = 20.759938 Si / 1000 Ang^3
#
#
#
# Elastic Constant Matrix: (Units=GPa)
#
#
# Indices 1 2 3 4 5 6 
#
# 1 118.7112 28.8962 52.1241 -0.0073 -18.5029 0.0045
# 2 28.8962 53.0252 35.9278 -0.0026 2.5124 0.0051
# 3 52.1241 35.9278 157.1903 -0.0128 -5.8411 -0.0060
# 4 -0.0073 -0.0026 -0.0128 8.3709 -0.0096 -3.2886
# 5 -18.5029 2.5124 -5.8411 -0.0096 46.4687 -0.0024
# 6 0.0045 0.0051 -0.0060 -3.2886 -0.0024 18.0710
#
#
#
# Elastic Compliance Matrix: (Units=1/GPa)
#
#
# Indices 1 2 3 4 5 6 
#
# 1 0.011374 -0.004694 -0.002533 0.000010 0.004464 0.000000
# 2 -0.004694 0.024412 -0.004161 -0.000011 -0.003712 -0.000010
# 3 -0.002533 -0.004161 0.008162 0.000012 0.000242 0.000007
# 4 0.000010 -0.000011 0.000012 0.128660 0.000034 0.023414
# 5 0.004464 -0.003712 0.000242 0.000034 0.023529 0.000009
# 6 0.000000 -0.000010 0.000007 0.023414 0.000009 0.059598
#
#
# Mechanical properties :
#
#
# Convention : Reuss Voigt Hill
#
# Bulk Modulus (GPa) = 47.23134 62.53588 54.88361
# Shear Modulus (GPa) = 17.50892 28.71403 23.11147
#
# Velocity S-wave (km/s) = 2.90728 3.72310 3.34019
# Velocity P-wave (km/s) = 5.83698 6.97644 6.43199
#
# Compressibility (1/GPa) = 0.02117238
#
# Stress axis : x y z
#
# Youngs Moduli (GPa) = 87.91667 40.96313 122.52251
#
# Poissons Ratio (x) = 0.19227 0.31035
# Poissons Ratio (y) = 0.41266 0.50984
# Poissons Ratio (z) = 0.22269 0.17046
#
# Static dielectric constant tensor:
#      x y z
#    x 1.876710 0.000010 -0.041080 
#    y 0.000010 1.731880 0.000000 
#    z -0.041080 0.000000 1.781260 
# 
# From -- ./inp_files/286100.got.cif
#   From: 2010.05.17/outbox.cif.g08.bks.cpg/sg12_144_cif.got.tgz:286100.got - 2010.06.03 13:09:07.
