data_PCOD9221974
_publ_section_title
;
Structure prediction by ZEFSAII (Michael W. Deem and Ramdas Pophale) SiO2 
 PCOD9221974
Probable space group: C 2/M
;
_chemical_formula_sum "Si O2"
_cell_formula_units_Z 32
_cell_length_a 35.253160
_cell_length_b 8.256891
_cell_length_c 4.853233
_cell_angle_alpha 90.000000
_cell_angle_beta 74.089549
_cell_angle_gamma 90.000000
_cell_volume 1358.568193
_symmetry_space_group_name_H-M "C 2/M"
_symmetry_group_IT_number 12
_symmetry_cell_setting 'monoclinic'
loop_
_space_group_symop_operation_xyz
x,y,z
-x,y,-z
-x,-y,-z
x,-y,z
1/2+x,1/2+y,z
1/2-x,1/2+y,-z
1/2-x,1/2-y,-z
1/2+x,1/2-y,z
loop_
_atom_site_type_symbol
_atom_site_label
_atom_site_fract_x
_atom_site_fract_y
_atom_site_fract_z
Si Si1 0.289185 0.811923 0.572153
Si Si2 0.834559 0.189812 0.981209
Si Si3 0.585599 0.689683 0.479123
Si Si4 0.460009 0.810305 0.930077
O O1 0.250000 0.750000 0.500000
O O2 0.300227 0.714665 0.824288
O O3 0.285428 0.000000 0.649473
O O4 0.323511 0.783779 0.278619
O O5 0.874427 0.244952 0.750662
O O6 0.838539 0.000000 0.042345
O O7 0.589825 0.500000 0.538841
O O8 0.574157 0.783664 0.776546
O O9 0.551420 0.716335 0.321892
O O10 0.464228 0.000000 0.853548
O O11 0.500000 0.754670 0.000000
#
# Coordination Sequence:
#
# PCOD9221974 Si02
#       4
#     8   8   8   8
#     4  12  25  42  65  93 124 162 205 250 303 361
#     4  11  24  43  64  91 126 161 202 253 306 361
#     4  11  24  41  64  92 123 161 204 253 306 361
#     4  11  24  41  62  90 125 163 204 253 306 361
#
# _framework density 23.554210999999999
#
# number of rings (size 3 to 8) (size 9 to 14) (size 15 to 20)
#    0.000    0.750    0.000    7.500    0.000   15.000 
#    0.000    0.000    0.000    0.000    0.000    0.000 
#    0.000    0.000    0.000    0.000    0.000    0.000 
#
# Total GULP energy -89710.274985 kJ/mol
# GULP energy per Si atom -5606.892187 kJ/mol
# Density = 2.350060 g / cm^3
# Si number density = 23.554211 Si / 1000 Ang^3
#
#
#
# Elastic Constant Matrix: (Units=GPa)
#
#
# Indices 1 2 3 4 5 6 
#
# 1 74.2641 -4.2485 2.2365 0.0000 4.0200 0.0000
# 2 -4.2485 39.6020 2.3080 0.0000 -6.3263 0.0000
# 3 2.2365 2.3080 82.9059 0.0000 3.8281 0.0000
# 4 0.0000 0.0000 0.0000 7.2442 0.0000 -3.7783
# 5 4.0200 -6.3263 3.8281 0.0000 42.1422 0.0000
# 6 0.0000 0.0000 0.0000 -3.7783 0.0000 -14.0094
#
#
#
# Elastic Compliance Matrix: (Units=1/GPa)
#
#
# Indices 1 2 3 4 5 6 
#
# 1 0.013609 0.001310 -0.000354 0.000000 -0.001069 0.000000
# 2 0.001310 0.026065 -0.000940 0.000000 0.003873 0.000000
# 3 -0.000354 -0.000940 0.012154 0.000000 -0.001211 0.000000
# 4 0.000000 0.000000 0.000000 0.121018 0.000000 -0.032638
# 5 -0.001069 0.003873 -0.001211 0.000000 0.024523 0.000000
# 6 0.000000 0.000000 0.000000 -0.032638 0.000000 -0.062578
#
#
# Mechanical properties :
#
#
# Convention : Reuss Voigt Hill
#
# Bulk Modulus (GPa) = 19.28294 21.92933 20.60613
# Shear Modulus (GPa) = 32.88493 20.17380 26.52937
#
# Velocity S-wave (km/s) = 3.74055 2.92975 3.35970
# Velocity P-wave (km/s) = 5.18266 4.55795 4.88031
#
# Compressibility (1/GPa) = 0.05185931
#
# Stress axis : x y z
#
# Youngs Moduli (GPa) = 73.48113 38.36517 82.28069
#
# Poissons Ratio (x) = -0.05025 0.02914
# Poissons Ratio (y) = -0.09625 0.07733
# Poissons Ratio (z) = 0.02603 0.03606
#
# Static dielectric constant tensor:
#      x y z
#    x 1.932010 0.000000 -0.046010 
#    y 0.000000 1.848230 0.000000 
#    z -0.046010 0.000000 1.861980 
# 
# From -- ./inp_files/30183.got.cif
#   From: 2010.05.17/outbox.cif.g08.bks.cpg/sg12_16_cif.got.tgz:30183.got - 2010.06.03 13:09:07.
