data_PCOD9221272
_publ_section_title
;
Structure prediction by ZEFSAII (Michael W. Deem and Ramdas Pophale) SiO2 
 PCOD9221272
Probable space group: C 2/M
;
_chemical_formula_sum "Si O2"
_cell_formula_units_Z 64
_cell_length_a 16.794416
_cell_length_b 24.154935
_cell_length_c 14.194633
_cell_angle_alpha 90.000000
_cell_angle_beta 146.594700
_cell_angle_gamma 90.000000
_cell_volume 3170.282743
_symmetry_space_group_name_H-M "C 2/M"
_symmetry_group_IT_number 12
_symmetry_cell_setting 'monoclinic'
loop_
_space_group_symop_operation_xyz
x,y,z
-x,y,-z
-x,-y,-z
x,-y,z
1/2+x,1/2+y,z
1/2-x,1/2+y,-z
1/2-x,1/2-y,-z
1/2+x,1/2-y,z
loop_
_atom_site_type_symbol
_atom_site_label
_atom_site_fract_x
_atom_site_fract_y
_atom_site_fract_z
Si Si1 0.043239 0.350358 0.645212
Si Si2 0.224467 0.938522 0.573258
Si Si3 0.786064 0.933718 0.216303
Si Si4 0.942883 0.710094 0.846010
Si Si5 0.392460 0.741932 0.483507
Si Si6 0.008570 0.138919 0.705375
Si Si7 0.475751 0.100555 0.179166
Si Si8 0.182746 0.792667 0.011369
O O1 0.000000 0.373039 0.500000
O O2 0.918197 0.304720 0.541175
O O3 0.060543 0.393504 0.746685
O O4 0.190620 0.313265 0.794102
O O5 0.230059 0.920175 0.688797
O O6 0.387592 0.938107 0.700231
O O7 0.131763 0.898012 0.416534
O O8 0.161661 0.000000 0.508972
O O9 0.911694 0.895380 0.298103
O O10 0.813069 0.000000 0.236550
O O11 0.649239 0.918895 0.015444
O O12 0.776369 0.727629 0.693528
O O13 0.971901 0.662068 0.799647
O O14 0.050026 0.760944 0.928755
O O15 0.000000 0.685494 0.000000
O O16 0.500000 0.734278 0.500000
O O17 0.454331 0.698690 0.619336
O O18 0.120587 0.153202 0.897653
O O19 0.250000 0.750000 0.000000
#
# Coordination Sequence:
#
# PCOD9221272 Si02
#       8
#     8   8   8   8   8   8   8   8
#     4  11  24  43  64  88 125 164 211 261 310 367
#     4  11  24  40  60  94 130 160 204 260 312 379
#     4  11  23  41  63  91 126 164 205 254 316 380
#     4  12  24  37  63  95 130 168 208 250 310 377
#     4  11  23  36  59  90 128 167 204 246 300 373
#     4  12  22  37  63  87 127 171 206 246 306 371
#     4  12  23  38  64  92 123 166 208 256 316 371
#     4  12  23  42  60  92 132 168 210 259 305 368
#
# _framework density 20.187473000000001
#
# number of rings (size 3 to 8) (size 9 to 14) (size 15 to 20)
#    0.000    0.500    5.000    4.500    3.500    3.000 
#    0.000    0.000    0.000    1.500    0.000    0.875 
#    0.000    0.000    0.000    0.000    0.000    0.000 
#
# Total GULP energy -178770.825611 kJ/mol
# GULP energy per Si atom -5586.588300 kJ/mol
# Density = 2.014153 g / cm^3
# Si number density = 20.187473 Si / 1000 Ang^3
#
#
#
# Elastic Constant Matrix: (Units=GPa)
#
#
# Indices 1 2 3 4 5 6 
#
# 1 61.9828 6.9955 30.6232 0.0000 -2.3081 0.0000
# 2 6.9955 44.4903 12.6104 0.0000 -8.8926 0.0000
# 3 30.6232 12.6104 132.3634 0.0000 -1.7902 0.0000
# 4 0.0000 0.0000 0.0000 -26.7303 0.0000 -8.2276
# 5 -2.3081 -8.8926 -1.7902 0.0000 36.8206 0.0000
# 6 0.0000 0.0000 0.0000 -8.2276 0.0000 19.9841
#
#
#
# Elastic Compliance Matrix: (Units=1/GPa)
#
#
# Indices 1 2 3 4 5 6 
#
# 1 0.018355 -0.001616 -0.004085 0.000000 0.000562 0.000000
# 2 -0.001616 0.024401 -0.001874 0.000000 0.005701 0.000000
# 3 -0.004085 -0.001874 0.008675 0.000000 -0.000287 0.000000
# 4 0.000000 0.000000 0.000000 -0.033203 0.000000 -0.013670
# 5 0.000562 0.005701 -0.000287 0.000000 0.028557 0.000000
# 6 0.000000 0.000000 0.000000 -0.013670 0.000000 0.044412
#
#
# Mechanical properties :
#
#
# Convention : Reuss Voigt Hill
#
# Bulk Modulus (GPa) = 27.56210 37.69941 32.63076
# Shear Modulus (GPa) = 42.21544 18.58870 30.40207
#
# Velocity S-wave (km/s) = 4.57789 3.03777 3.88491
# Velocity P-wave (km/s) = 6.45178 5.56949 6.02680
#
# Compressibility (1/GPa) = 0.03628170
#
# Stress axis : x y z
#
# Youngs Moduli (GPa) = 54.48094 40.98117 115.27783
#
# Poissons Ratio (x) = 0.06622 0.47091
# Poissons Ratio (y) = 0.08804 0.21601
# Poissons Ratio (z) = 0.22256 0.07679
#
# Static dielectric constant tensor:
#      x y z
#    x 1.759730 0.000000 0.009050 
#    y 0.000000 1.719530 0.000000 
#    z 0.009050 0.000000 1.751700 
# 
# From -- ./inp_files/228163.got.cif
#   From: 2010.05.17/outbox.cif.g08.bks.cpg/sg12_115_cif.got.tgz:228163.got - 2010.06.03 13:09:07.
