data_PCOD9221514
_publ_section_title
;
Structure prediction by ZEFSAII (Michael W. Deem and Ramdas Pophale) SiO2 
 PCOD9221514
Probable space group: C 2/M
;
_chemical_formula_sum "Si O2"
_cell_formula_units_Z 56
_cell_length_a 9.792818
_cell_length_b 23.330322
_cell_length_c 16.110941
_cell_angle_alpha 90.000000
_cell_angle_beta 48.149401
_cell_angle_gamma 90.000000
_cell_volume 2741.825213
_symmetry_space_group_name_H-M "C 2/M"
_symmetry_group_IT_number 12
_symmetry_cell_setting 'monoclinic'
loop_
_space_group_symop_operation_xyz
x,y,z
-x,y,-z
-x,-y,-z
x,-y,z
1/2+x,1/2+y,z
1/2-x,1/2+y,-z
1/2-x,1/2-y,-z
1/2+x,1/2-y,z
loop_
_atom_site_type_symbol
_atom_site_label
_atom_site_fract_x
_atom_site_fract_y
_atom_site_fract_z
Si Si1 0.012203 0.383489 0.752523
Si Si2 0.974945 0.108334 0.263124
Si Si3 0.397294 0.564232 0.628182
Si Si4 0.573559 0.780997 0.108845
Si Si5 0.172472 0.778700 0.228430
Si Si6 0.604635 0.177051 0.369660
Si Si7 0.941569 0.000000 0.886442
Si Si8 0.797393 0.500000 0.859334
O O1 0.917742 0.346877 0.865562
O O2 0.991287 0.353913 0.670551
O O3 0.912100 0.443970 0.791383
O O4 0.223887 0.393792 0.689458
O O5 0.954634 0.079044 0.361160
O O6 0.125136 0.156225 0.225899
O O7 0.043332 0.058168 0.174225
O O8 0.796737 0.142459 0.303221
O O9 0.500000 0.564321 0.500000
O O10 0.326199 0.500000 0.675117
O O11 0.390543 0.770770 0.130999
O O12 0.554250 0.752618 0.206653
O O13 0.750000 0.750000 0.000000
O O14 0.127240 0.743814 0.331297
O O15 0.500000 0.174071 0.500000
O O16 0.118101 0.000000 0.874492
O O17 0.767926 0.000000 0.018286
#
# Coordination Sequence:
#
# PCOD9221514 Si02
#       8
#     8   8   8   8   8   8   4   4
#     4  11  23  44  68 100 137 177 233 284 340 422
#     4  12  23  45  69  99 142 173 237 284 336 424
#     4  11  23  40  66  99 141 185 221 280 349 405
#     4  11  24  43  66  96 131 179 221 282 349 400
#     4  11  24  43  66  96 136 174 226 280 336 412
#     4  11  25  44  69 100 134 184 233 284 343 406
#     4  11  26  45  70 101 135 189 225 287 348 405
#     4  11  24  45  72  99 135 183 231 281 350 405
#
# _framework density 20.42435
#
# number of rings (size 3 to 8) (size 9 to 14) (size 15 to 20)
#    0.000    0.857    5.714    1.286    2.000    1.143 
#    2.571    2.143    0.000    0.000    0.000    0.000 
#    0.000    0.000    0.000    0.000    0.000    0.000 
#
# Total GULP energy -156016.318981 kJ/mol
# GULP energy per Si atom -5572.011392 kJ/mol
# Density = 2.037786 g / cm^3
# Si number density = 20.424350 Si / 1000 Ang^3
#
#
#
# Elastic Constant Matrix: (Units=GPa)
#
#
# Indices 1 2 3 4 5 6 
#
# 1 117.8952 36.4515 19.0738 0.0000 9.7078 0.0000
# 2 36.4515 128.0430 46.8240 0.0000 3.7451 0.0000
# 3 19.0738 46.8240 87.0379 0.0000 13.0386 0.0000
# 4 0.0000 0.0000 0.0000 21.9649 0.0000 -8.1701
# 5 9.7078 3.7451 13.0386 0.0000 31.4481 0.0000
# 6 0.0000 0.0000 0.0000 -8.1701 0.0000 -5.4284
#
#
#
# Elastic Compliance Matrix: (Units=1/GPa)
#
#
# Indices 1 2 3 4 5 6 
#
# 1 0.009520 -0.002503 -0.000367 0.000000 -0.002489 0.000000
# 2 -0.002503 0.010415 -0.005315 0.000000 0.001736 0.000000
# 3 -0.000367 -0.005315 0.015265 0.000000 -0.005583 0.000000
# 4 0.000000 0.000000 0.000000 0.029187 0.000000 -0.043929
# 5 -0.002489 0.001736 -0.005583 0.000000 0.034675 0.000000
# 6 0.000000 0.000000 0.000000 -0.043929 0.000000 -0.118100
#
#
# Mechanical properties :
#
#
# Convention : Reuss Voigt Hill
#
# Bulk Modulus (GPa) = 53.10316 59.74163 56.42240
# Shear Modulus (GPa) = 1385.36771 24.97203 705.16987
#
# Velocity S-wave (km/s) = 26.07230 3.50045 18.60132
# Velocity P-wave (km/s) = 30.53538 6.75657 22.11403
#
# Compressibility (1/GPa) = 0.01883127
#
# Stress axis : x y z
#
# Youngs Moduli (GPa) = 105.03788 96.01311 65.50906
#
# Poissons Ratio (x) = 0.24035 0.02403
# Poissons Ratio (y) = 0.26295 0.34815
# Poissons Ratio (z) = 0.03853 0.51027
#
# Static dielectric constant tensor:
#      x y z
#    x 1.706030 0.000000 0.011130 
#    y 0.000000 1.842650 0.000000 
#    z 0.011130 0.000000 1.730350 
# 
# From -- ./inp_files/198818.got.cif
#   From: 2010.05.17/outbox.cif.g08.bks.cpg/sg12_100_cif.got.tgz:198818.got - 2010.06.03 13:09:07.
