data_PCOD9221800
_publ_section_title
;
Structure prediction by ZEFSAII (Michael W. Deem and Ramdas Pophale) SiO2 
 PCOD9221800
Probable space group: C 2/M
;
_chemical_formula_sum "Si O2"
_cell_formula_units_Z 44
_cell_length_a 7.220351
_cell_length_b 18.483731
_cell_length_c 16.818855
_cell_angle_alpha 90.000000
_cell_angle_beta 53.267317
_cell_angle_gamma 90.000000
_cell_volume 1798.922572
_symmetry_space_group_name_H-M "C 2/M"
_symmetry_group_IT_number 12
_symmetry_cell_setting 'monoclinic'
loop_
_space_group_symop_operation_xyz
x,y,z
-x,y,-z
-x,-y,-z
x,-y,z
1/2+x,1/2+y,z
1/2-x,1/2+y,-z
1/2-x,1/2-y,-z
1/2+x,1/2-y,z
loop_
_atom_site_type_symbol
_atom_site_label
_atom_site_fract_x
_atom_site_fract_y
_atom_site_fract_z
Si Si1 0.914514 0.500000 0.661515
Si Si2 0.353999 0.844726 0.866842
Si Si3 0.144325 0.340804 0.387226
Si Si4 0.145842 0.789158 0.262858
Si Si5 0.645325 0.340541 0.084466
Si Si6 0.616255 0.500000 0.153276
Si Si7 0.468237 0.000000 0.199669
O O1 0.930368 0.423012 0.613341
O O2 0.657321 0.500000 0.764803
O O3 0.082870 0.500000 0.693708
O O4 0.608441 0.820825 0.772247
O O5 0.118116 0.832880 0.878322
O O6 0.381934 0.930801 0.860538
O O7 0.310765 0.821356 0.968955
O O8 0.418089 0.337322 0.336015
O O9 0.000000 0.314874 0.500000
O O10 0.110901 0.284544 0.322562
O O11 0.167209 0.795276 0.160294
O O12 0.685137 0.424938 0.094375
O O13 0.739066 0.500000 0.206722
#
# Coordination Sequence:
#
# PCOD9221800 Si02
#       7
#     4   8   8   8   8   4   4
#     4  12  25  52  81 107 154 206 265 324 396 466
#     4  11  23  43  74 115 163 219 261 315 373 484
#     4  12  29  54  86 113 151 204 265 340 407 470
#     4  12  27  48  81 112 158 200 258 327 402 462
#     4  11  23  43  73 115 166 213 267 307 388 464
#     4  12  21  38  72 115 155 217 251 327 375 464
#     4  12  21  36  74 112 156 211 265 310 388 452
#
# _framework density 24.459085999999999
#
# number of rings (size 3 to 8) (size 9 to 14) (size 15 to 20)
#    0.000    0.364    5.455    1.909    5.091    2.182 
#    0.000    3.636    0.000    2.182    0.000    0.000 
#    0.000    0.000    0.000    0.000    0.000    0.000 
#
# Total GULP energy -123212.702250 kJ/mol
# GULP energy per Si atom -5600.577375 kJ/mol
# Density = 2.440342 g / cm^3
# Si number density = 24.459086 Si / 1000 Ang^3
#
#
#
# Elastic Constant Matrix: (Units=GPa)
#
#
# Indices 1 2 3 4 5 6 
#
# 1 175.4188 54.9737 63.4875 0.0000 -0.8506 0.0000
# 2 54.9737 168.0873 41.7483 0.0000 19.6607 0.0000
# 3 63.4875 41.7483 163.9856 0.0000 10.9292 0.0000
# 4 0.0000 0.0000 0.0000 33.8082 0.0000 -31.2649
# 5 -0.8506 19.6607 10.9292 0.0000 28.2596 0.0000
# 6 0.0000 0.0000 0.0000 -31.2649 0.0000 418.0848
#
#
#
# Elastic Compliance Matrix: (Units=1/GPa)
#
#
# Indices 1 2 3 4 5 6 
#
# 1 0.007249 -0.002066 -0.002454 0.000000 0.002605 0.000000
# 2 -0.002066 0.007386 -0.000753 0.000000 -0.004910 0.000000
# 3 -0.002454 -0.000753 0.007401 0.000000 -0.002412 0.000000
# 4 0.000000 0.000000 0.000000 0.031776 0.000000 0.002376
# 5 0.002605 -0.004910 -0.002412 0.000000 0.039813 0.000000
# 6 0.000000 0.000000 0.000000 0.002376 0.000000 0.002570
#
#
# Mechanical properties :
#
#
# Convention : Reuss Voigt Hill
#
# Bulk Modulus (GPa) = 87.03829 91.99007 89.51418
# Shear Modulus (GPa) = 45.21975 119.18267 82.20121
#
# Velocity S-wave (km/s) = 4.30442 6.98807 5.80350
# Velocity P-wave (km/s) = 7.76959 10.13915 9.03241
#
# Compressibility (1/GPa) = 0.01148920
#
# Stress axis : x y z
#
# Youngs Moduli (GPa) = 137.95251 135.38493 135.12149
#
# Poissons Ratio (x) = 0.27969 0.33160
# Poissons Ratio (y) = 0.28500 0.10180
# Poissons Ratio (z) = 0.33854 0.10200
#
# Static dielectric constant tensor:
#      x y z
#    x 1.939880 0.000000 0.065620 
#    y 0.000000 2.110540 0.000000 
#    z 0.065620 0.000000 1.910700 
# 
# From -- ./inp_files/256895.got.cif
#   From: 2010.05.17/outbox.cif.g08.bks.cpg/sg12_129_cif.got.tgz:256895.got - 2010.06.03 13:09:07.
