data_PCOD9221035
_publ_section_title
;
Structure prediction by ZEFSAII (Michael W. Deem and Ramdas Pophale) SiO2 
 PCOD9221035
Probable space group: C 2/M
;
_chemical_formula_sum "Si O2"
_cell_formula_units_Z 56
_cell_length_a 11.687442
_cell_length_b 17.296912
_cell_length_c 14.910970
_cell_angle_alpha 90.000000
_cell_angle_beta 74.146880
_cell_angle_gamma 90.000000
_cell_volume 2899.701391
_symmetry_space_group_name_H-M "C 2/M"
_symmetry_group_IT_number 12
_symmetry_cell_setting 'monoclinic'
loop_
_space_group_symop_operation_xyz
x,y,z
-x,y,-z
-x,-y,-z
x,-y,z
1/2+x,1/2+y,z
1/2-x,1/2+y,-z
1/2-x,1/2-y,-z
1/2+x,1/2-y,z
loop_
_atom_site_type_symbol
_atom_site_label
_atom_site_fract_x
_atom_site_fract_y
_atom_site_fract_z
Si Si1 0.548635 0.000000 0.842607
Si Si2 0.011372 0.179752 0.750095
Si Si3 0.806856 0.410243 0.459724
Si Si4 0.607339 0.689898 0.411336
Si Si5 0.719168 0.146987 0.337097
Si Si6 0.992131 0.639436 0.279742
Si Si7 0.419128 0.412020 0.933723
Si Si8 0.307035 0.000000 0.006864
O O1 0.555611 0.923840 0.779425
O O2 0.645644 0.000000 0.901051
O O3 0.420032 0.000000 0.918647
O O4 0.144256 0.145690 0.720843
O O5 0.948416 0.160354 0.669369
O O6 0.017685 0.273043 0.752943
O O7 0.938227 0.144564 0.847480
O O8 0.814856 0.500000 0.435455
O O9 0.688995 0.371932 0.443747
O O10 0.803857 0.399916 0.566978
O O11 0.916192 0.367645 0.387586
O O12 0.500000 0.712384 0.500000
O O13 0.685485 0.764803 0.370824
O O14 0.627958 0.122821 0.279008
O O15 0.459295 0.500000 0.899674
O O16 0.281241 0.426952 0.988159
O O17 0.500000 0.387686 0.000000
#
# Coordination Sequence:
#
# PCOD9221035 Si02
#       8
#     4   8   8   8   8   8   8   4
#     4  11  24  44  67  91 127 171 207 258 316 392
#     4  11  23  41  66  98 120 169 214 258 324 377
#     4  12  24  39  60  90 129 173 218 260 307 369
#     4  11  22  41  62  87 131 170 212 259 315 367
#     4  11  23  39  62  88 130 169 211 259 307 375
#     4  11  25  39  65  92 127 169 214 259 310 378
#     4   9  22  43  71  95 126 158 202 268 328 374
#     4   9  23  46  68  89 126 165 200 255 336 377
#
# _framework density 19.312334
#
# number of rings (size 3 to 8) (size 9 to 14) (size 15 to 20)
#    0.429    0.857    3.571    2.571    5.000    2.000 
#    2.571    0.714    0.000    0.000    0.000    0.000 
#    0.000    0.000    0.000    0.000    0.000    0.000 
#
# Total GULP energy -156397.290531 kJ/mol
# GULP energy per Si atom -5585.617519 kJ/mol
# Density = 1.926838 g / cm^3
# Si number density = 19.312334 Si / 1000 Ang^3
#
#
#
# Elastic Constant Matrix: (Units=GPa)
#
#
# Indices 1 2 3 4 5 6 
#
# 1 77.6631 -9.3195 7.1761 0.0000 2.1484 0.0000
# 2 -9.3195 34.0196 -5.2407 0.0000 7.6005 0.0000
# 3 7.1761 -5.2407 39.3055 0.0000 2.1644 0.0000
# 4 0.0000 0.0000 0.0000 23.4667 0.0000 -5.3451
# 5 2.1484 7.6005 2.1644 0.0000 35.1076 0.0000
# 6 0.0000 0.0000 0.0000 -5.3451 0.0000 4.9276
#
#
#
# Elastic Compliance Matrix: (Units=1/GPa)
#
#
# Indices 1 2 3 4 5 6 
#
# 1 0.013544 0.003761 -0.001887 0.000000 -0.001527 0.000000
# 2 0.003761 0.032748 0.004097 0.000000 -0.007572 0.000000
# 3 -0.001887 0.004097 0.026465 0.000000 -0.002403 0.000000
# 4 0.000000 0.000000 0.000000 0.056597 0.000000 0.061393
# 5 -0.001527 -0.007572 -0.002403 0.000000 0.030365 0.000000
# 6 0.000000 0.000000 0.000000 0.061393 0.000000 0.269532
#
#
# Mechanical properties :
#
#
# Convention : Reuss Voigt Hill
#
# Bulk Modulus (GPa) = 11.80679 15.13555 13.47117
# Shear Modulus (GPa) = 11.22226 23.25853 17.24039
#
# Velocity S-wave (km/s) = 2.41320 3.47412 2.99107
# Velocity P-wave (km/s) = 3.72714 4.89356 4.34963
#
# Compressibility (1/GPa) = 0.08469701
#
# Stress axis : x y z
#
# Youngs Moduli (GPa) = 73.83329 30.53628 37.78597
#
# Poissons Ratio (x) = -0.11484 0.07131
# Poissons Ratio (y) = -0.27766 -0.15480
# Poissons Ratio (z) = 0.13934 -0.12510
#
# Static dielectric constant tensor:
#      x y z
#    x 1.696860 0.000000 -0.007330 
#    y 0.000000 1.656750 0.000000 
#    z -0.007330 0.000000 1.650210 
# 
# From -- ./inp_files/206616.got.cif
#   From: 2010.05.17/outbox.cif.g08.bks.cpg/sg12_104_cif.got.tgz:206616.got - 2010.06.03 13:09:07.
