data_PCOD9221749
_publ_section_title
;
Structure prediction by ZEFSAII (Michael W. Deem and Ramdas Pophale) SiO2 
 PCOD9221749
Probable space group: C 2/M
;
_chemical_formula_sum "Si O2"
_cell_formula_units_Z 36
_cell_length_a 13.649015
_cell_length_b 29.324241
_cell_length_c 8.245761
_cell_angle_alpha 90.000000
_cell_angle_beta 32.842995
_cell_angle_gamma 90.000000
_cell_volume 1789.903131
_symmetry_space_group_name_H-M "C 2/M"
_symmetry_group_IT_number 12
_symmetry_cell_setting 'monoclinic'
loop_
_space_group_symop_operation_xyz
x,y,z
-x,y,-z
-x,-y,-z
x,-y,z
1/2+x,1/2+y,z
1/2-x,1/2+y,-z
1/2-x,1/2-y,-z
1/2+x,1/2-y,z
loop_
_atom_site_type_symbol
_atom_site_label
_atom_site_fract_x
_atom_site_fract_y
_atom_site_fract_z
Si Si1 0.504876 0.069422 0.684543
Si Si2 0.404344 0.160401 0.960567
Si Si3 0.295194 0.500000 0.855582
Si Si4 0.459245 0.261940 0.234289
Si Si5 0.000000 0.822104 0.500000
Si Si6 0.706477 0.500000 0.749199
O O1 0.500000 0.060839 0.500000
O O2 0.688216 0.043207 0.473853
O O3 0.500088 0.123158 0.716747
O O4 0.332989 0.043928 0.005651
O O5 0.190095 0.151779 0.246546
O O6 0.500000 0.153054 0.000000
O O7 0.436331 0.214071 0.883903
O O8 0.500000 0.500000 0.500000
O O9 0.296921 0.500000 0.049470
O O10 0.250000 0.250000 0.500000
O O11 0.497601 0.292455 0.337369
O O12 0.500000 0.282849 0.000000
O O13 0.500000 0.500000 0.000000
#
# Coordination Sequence:
#
# PCOD9221749 Si02
#       6
#     8   8   4   8   4   4
#     4   9  21  40  61  90 127 164 202 264 318 376
#     4  11  24  41  62  95 131 159 221 264 317 393
#     4   9  19  37  64  88 122 162 203 249 319 387
#     4  11  23  43  66  94 127 173 225 267 323 388
#     4  12  24  44  68  91 134 181 210 278 334 372
#     4   9  19  41  64  90 124 163 210 250 320 392
#
# _framework density 20.112818999999998
#
# number of rings (size 3 to 8) (size 9 to 14) (size 15 to 20)
#    0.000    1.778    4.444    2.000    3.111    1.778 
#    4.000    3.333    0.000    0.000    0.000    0.000 
#    0.000    0.000    0.000    0.000    0.000    0.000 
#
# Total GULP energy -100221.538514 kJ/mol
# GULP energy per Si atom -5567.863251 kJ/mol
# Density = 2.006704 g / cm^3
# Si number density = 20.112819 Si / 1000 Ang^3
#
#
#
# Elastic Constant Matrix: (Units=GPa)
#
#
# Indices 1 2 3 4 5 6 
#
# 1 96.4665 21.5184 45.9079 0.0000 -14.0465 0.0000
# 2 21.5184 58.9089 24.8177 0.0000 1.4599 0.0000
# 3 45.9079 24.8177 126.0443 0.0000 -16.6437 0.0000
# 4 0.0000 0.0000 0.0000 22.2577 0.0000 -0.9166
# 5 -14.0465 1.4599 -16.6437 0.0000 46.8512 0.0000
# 6 0.0000 0.0000 0.0000 -0.9166 0.0000 -26.3349
#
#
#
# Elastic Compliance Matrix: (Units=1/GPa)
#
#
# Indices 1 2 3 4 5 6 
#
# 1 0.013333 -0.003320 -0.003841 0.000000 0.002736 0.000000
# 2 -0.003320 0.019511 -0.002984 0.000000 -0.002663 0.000000
# 3 -0.003841 -0.002984 0.010262 0.000000 0.002587 0.000000
# 4 0.000000 0.000000 0.000000 0.044864 0.000000 -0.001562
# 5 0.002736 -0.002663 0.002587 0.000000 0.023167 0.000000
# 6 0.000000 0.000000 0.000000 -0.001562 0.000000 -0.037918
#
#
# Mechanical properties :
#
#
# Convention : Reuss Voigt Hill
#
# Bulk Modulus (GPa) = 43.82943 51.76752 47.79847
# Shear Modulus (GPa) = 49.44861 21.16652 35.30757
#
# Velocity S-wave (km/s) = 4.96377 3.24757 4.19439
# Velocity P-wave (km/s) = 7.39534 6.31322 6.87560
#
# Compressibility (1/GPa) = 0.02281572
#
# Stress axis : x y z
#
# Youngs Moduli (GPa) = 75.00000 51.25230 97.44742
#
# Poissons Ratio (x) = 0.17016 0.37432
# Poissons Ratio (y) = 0.24900 0.29080
# Poissons Ratio (z) = 0.28809 0.15295
#
# Static dielectric constant tensor:
#      x y z
#    x 1.741350 0.000000 -0.002660 
#    y 0.000000 1.751480 0.000000 
#    z -0.002660 0.000000 1.803900 
# 
# From -- ./inp_files/67271.got.cif
#   From: 2010.05.17/outbox.cif.g08.bks.cpg/sg12_34_cif.got.tgz:67271.got - 2010.06.03 13:09:07.
