data_PCOD9221375
_publ_section_title
;
Structure prediction by ZEFSAII (Michael W. Deem and Ramdas Pophale) SiO2 
 PCOD9221375
Probable space group: C 2/M
;
_chemical_formula_sum "Si O2"
_cell_formula_units_Z 64
_cell_length_a 22.064028
_cell_length_b 28.924222
_cell_length_c 15.893976
_cell_angle_alpha 90.000000
_cell_angle_beta 160.830069
_cell_angle_gamma 90.000000
_cell_volume 3330.763687
_symmetry_space_group_name_H-M "C 2/M"
_symmetry_group_IT_number 12
_symmetry_cell_setting 'monoclinic'
loop_
_space_group_symop_operation_xyz
x,y,z
-x,y,-z
-x,-y,-z
x,-y,z
1/2+x,1/2+y,z
1/2-x,1/2+y,-z
1/2-x,1/2-y,-z
1/2+x,1/2-y,z
loop_
_atom_site_type_symbol
_atom_site_label
_atom_site_fract_x
_atom_site_fract_y
_atom_site_fract_z
Si Si1 0.017205 0.292464 0.707261
Si Si2 0.690246 0.360832 0.698158
Si Si3 0.951376 0.382362 0.730602
Si Si4 0.669239 0.707692 0.002543
Si Si5 0.901140 0.876983 0.612072
Si Si6 0.315356 0.241386 0.809991
Si Si7 0.417965 0.944907 0.526448
Si Si8 0.206050 0.055372 0.084671
O O1 0.133971 0.307150 0.778088
O O2 0.964394 0.336230 0.692103
O O3 0.843457 0.261540 0.456537
O O4 0.139006 0.258363 0.923426
O O5 0.500000 0.362174 0.500000
O O6 0.651884 0.381256 0.555323
O O7 0.750145 0.307304 0.763223
O O8 0.855468 0.385725 0.965483
O O9 0.784859 0.377269 0.577573
O O10 0.914113 0.421762 0.612464
O O11 0.659527 0.718534 0.087794
O O12 0.516675 0.670616 0.775210
O O13 0.035408 0.916800 0.823330
O O14 0.500000 0.233100 0.000000
O O15 0.615449 0.936122 0.740491
O O16 0.264804 0.929637 0.256519
O O17 0.398570 0.000000 0.509194
O O18 0.174270 0.000000 0.044278
#
# Coordination Sequence:
#
# PCOD9221375 Si02
#       8
#     8   8   8   8   8   8   8   8
#     4  11  23  39  60  84 118 165 211 249 296 363
#     4  12  24  42  63  85 120 167 213 251 302 371
#     4  12  25  40  62  93 127 161 204 259 313 361
#     4  11  23  39  60  84 118 165 211 249 296 363
#     4  12  25  40  62  93 127 161 204 259 313 361
#     4  12  24  38  58  85 120 157 202 260 314 356
#     4   9  20  42  70  96 124 160 202 248 303 370
#     4   9  20  42  70  96 124 160 202 248 303 370
#
# _framework density 19.214812999999999
#
# number of rings (size 3 to 8) (size 9 to 14) (size 15 to 20)
#    0.000    1.000    2.500    6.000    1.750    2.000 
#    0.000    1.875    0.000    3.750    0.000    0.000 
#    0.000    0.000    0.000    0.000    0.000    0.000 
#
# Total GULP energy -178794.708655 kJ/mol
# GULP energy per Si atom -5587.334645 kJ/mol
# Density = 1.917108 g / cm^3
# Si number density = 19.214813 Si / 1000 Ang^3
#
#
#
# Elastic Constant Matrix: (Units=GPa)
#
#
# Indices 1 2 3 4 5 6 
#
# 1 139.9605 43.4016 68.7765 0.0000 9.8540 0.0000
# 2 43.4016 47.0102 20.6818 0.0001 -8.8668 0.0000
# 3 68.7765 20.6818 76.4929 0.0001 -10.6877 0.0000
# 4 0.0000 0.0001 0.0001 17.1269 0.0000 -3.9322
# 5 9.8540 -8.8668 -10.6877 0.0000 35.4050 0.0000
# 6 0.0000 0.0000 0.0000 -3.9322 0.0000 30.5588
#
#
#
# Elastic Compliance Matrix: (Units=1/GPa)
#
#
# Indices 1 2 3 4 5 6 
#
# 1 0.021187 -0.014821 -0.017107 0.000000 -0.014773 0.000000
# 2 -0.014821 0.035142 0.005879 0.000000 0.014701 0.000000
# 3 -0.017107 0.005879 0.028957 0.000000 0.014975 0.000000
# 4 0.000000 0.000000 0.000000 0.060165 0.000000 0.007742
# 5 -0.014773 0.014701 0.014975 0.000000 0.040558 0.000000
# 6 0.000000 0.000000 0.000000 0.007742 0.000000 0.033720
#
#
# Mechanical properties :
#
#
# Convention : Reuss Voigt Hill
#
# Bulk Modulus (GPa) = 30.13185 58.79817 44.46501
# Shear Modulus (GPa) = 17.67469 25.32505 21.49987
#
# Velocity S-wave (km/s) = 3.03619 3.63436 3.34866
# Velocity P-wave (km/s) = 5.29215 6.94826 6.17597
#
# Compressibility (1/GPa) = 0.03318747
#
# Stress axis : x y z
#
# Youngs Moduli (GPa) = 47.19832 28.45597 34.53403
#
# Poissons Ratio (x) = 0.42175 0.59076
# Poissons Ratio (y) = 0.69954 -0.20301
# Poissons Ratio (z) = 0.80741 -0.16728
#
# Static dielectric constant tensor:
#      x y z
#    x 1.688120 0.000000 -0.017500 
#    y 0.000000 1.649540 0.000000 
#    z -0.017500 0.000000 1.667110 
# 
# From -- ./inp_files/236016.got.cif
#   From: 2010.05.17/outbox.cif.g08.bks.cpg/sg12_119_cif.got.tgz:236016.got - 2010.06.03 13:09:07.
