data_PCOD9221813
_publ_section_title
;
Structure prediction by ZEFSAII (Michael W. Deem and Ramdas Pophale) SiO2 
 PCOD9221813
Probable space group: C 2/M
;
_chemical_formula_sum "Si O2"
_cell_formula_units_Z 44
_cell_length_a 9.470119
_cell_length_b 23.490101
_cell_length_c 13.765233
_cell_angle_alpha 90.000000
_cell_angle_beta 45.030669
_cell_angle_gamma 90.000000
_cell_volume 2166.412896
_symmetry_space_group_name_H-M "C 2/M"
_symmetry_group_IT_number 12
_symmetry_cell_setting 'monoclinic'
loop_
_space_group_symop_operation_xyz
x,y,z
-x,y,-z
-x,-y,-z
x,-y,z
1/2+x,1/2+y,z
1/2-x,1/2+y,-z
1/2-x,1/2-y,-z
1/2+x,1/2-y,z
loop_
_atom_site_type_symbol
_atom_site_label
_atom_site_fract_x
_atom_site_fract_y
_atom_site_fract_z
Si Si1 0.562959 0.646949 0.743250
Si Si2 0.999810 0.733056 0.882749
Si Si3 0.645514 0.347087 0.353589
Si Si4 0.500000 0.101541 0.500000
Si Si5 0.056836 0.434212 0.691077
Si Si6 0.801073 0.865595 0.033889
O O1 0.529253 0.710395 0.803254
O O2 0.490402 0.636280 0.670314
O O3 0.798633 0.634866 0.629379
O O4 0.405059 0.611035 0.885483
O O5 0.191601 0.695068 0.766790
O O6 0.817726 0.693028 0.933018
O O7 0.000000 0.738155 0.000000
O O8 0.500000 0.316867 0.500000
O O9 0.760580 0.398027 0.352377
O O10 0.447338 0.069892 0.424482
O O11 0.068528 0.500000 0.713486
O O12 0.856228 0.405630 0.834426
O O13 0.000000 0.856403 0.000000
#
# Coordination Sequence:
#
# PCOD9221813 Si02
#       6
#     8   8   8   4   8   8
#     4  12  25  43  67 102 141 179 217 270 336 392
#     4  11  25  41  70 100 139 187 221 261 325 404
#     4  11  25  45  66 100 139 177 225 274 327 405
#     4  12  25  46  70 104 136 170 221 282 332 412
#     4  11  26  48  71  97 130 174 228 286 340 393
#     4  11  23  44  69 101 137 174 228 277 324 395
#
# _framework density 20.310071000000001
#
# number of rings (size 3 to 8) (size 9 to 14) (size 15 to 20)
#    0.000    0.727    5.455    1.364    3.818    1.455 
#    0.000    1.818    0.000    0.000    0.000    0.000 
#    0.000    0.000    0.000    0.000    0.000    0.000 
#
# Total GULP energy -122673.690905 kJ/mol
# GULP energy per Si atom -5576.076859 kJ/mol
# Density = 2.026384 g / cm^3
# Si number density = 20.310071 Si / 1000 Ang^3
#
#
#
# Elastic Constant Matrix: (Units=GPa)
#
#
# Indices 1 2 3 4 5 6 
#
# 1 128.9561 28.5843 39.3087 0.0000 2.8718 0.0000
# 2 28.5843 93.0636 37.7201 0.0000 -1.9693 0.0000
# 3 39.3087 37.7201 147.8812 0.0000 1.8520 0.0000
# 4 0.0000 0.0000 0.0000 0.3213 0.0000 19.0354
# 5 2.8718 -1.9693 1.8520 0.0000 52.8383 0.0000
# 6 0.0000 0.0000 0.0000 19.0354 0.0000 0.0941
#
#
#
# Elastic Compliance Matrix: (Units=1/GPa)
#
#
# Indices 1 2 3 4 5 6 
#
# 1 0.008755 -0.001961 -0.001821 0.000000 -0.000485 0.000000
# 2 -0.001961 0.012440 -0.002660 0.000000 0.000663 0.000000
# 3 -0.001821 -0.002660 0.007928 0.000000 -0.000278 0.000000
# 4 0.000000 0.000000 0.000000 -0.000260 0.000000 0.052538
# 5 -0.000485 0.000663 -0.000278 0.000000 0.018987 0.000000
# 6 0.000000 0.000000 0.000000 0.052538 0.000000 -0.000887
#
#
# Mechanical properties :
#
#
# Convention : Reuss Voigt Hill
#
# Bulk Modulus (GPa) = 61.58099 64.56969 63.07534
# Shear Modulus (GPa) = 76.61557 28.26992 52.44274
#
# Velocity S-wave (km/s) = 6.14856 3.73489 5.08695
# Velocity P-wave (km/s) = 8.98848 7.10353 8.10101
#
# Compressibility (1/GPa) = 0.01623878
#
# Stress axis : x y z
#
# Youngs Moduli (GPa) = 114.21813 80.38615 126.13254
#
# Poissons Ratio (x) = 0.15767 0.22967
# Poissons Ratio (y) = 0.22402 0.33551
# Poissons Ratio (z) = 0.20798 0.21383
#
# Static dielectric constant tensor:
#      x y z
#    x 1.785550 0.000000 0.012300 
#    y 0.000000 1.709770 0.000000 
#    z 0.012300 0.000000 1.875630 
# 
# From -- ./inp_files/124054.got.cif
#   From: 2010.05.17/outbox.cif.g08.bks.cpg/sg12_63_cif.got.tgz:124054.got - 2010.06.03 13:09:07.
