data_PCOD9221618
_publ_section_title
;
Structure prediction by ZEFSAII (Michael W. Deem and Ramdas Pophale) SiO2 
 PCOD9221618
Probable space group: C 2/M
;
_chemical_formula_sum "Si O2"
_cell_formula_units_Z 56
_cell_length_a 14.926741
_cell_length_b 8.599040
_cell_length_c 24.850300
_cell_angle_alpha 90.000000
_cell_angle_beta 116.727418
_cell_angle_gamma 90.000000
_cell_volume 2848.879332
_symmetry_space_group_name_H-M "C 2/M"
_symmetry_group_IT_number 12
_symmetry_cell_setting 'monoclinic'
loop_
_space_group_symop_operation_xyz
x,y,z
-x,y,-z
-x,-y,-z
x,-y,z
1/2+x,1/2+y,z
1/2-x,1/2+y,-z
1/2-x,1/2-y,-z
1/2+x,1/2-y,z
loop_
_atom_site_type_symbol
_atom_site_label
_atom_site_fract_x
_atom_site_fract_y
_atom_site_fract_z
Si Si1 0.204086 0.686984 0.116055
Si Si2 0.357089 0.313908 0.008453
Si Si3 0.514339 0.316380 0.567415
Si Si4 0.360468 0.186001 0.781543
Si Si5 0.731017 0.183772 0.649477
Si Si6 0.320797 0.183303 0.566152
Si Si7 0.570616 0.687565 0.859563
O O1 0.199747 0.500000 0.111615
O O2 0.133787 0.752511 0.049511
O O3 0.172658 0.735249 0.167217
O O4 0.320121 0.731764 0.134623
O O5 0.354902 0.500000 0.006372
O O6 0.250000 0.250000 0.000000
O O7 0.430020 0.267691 0.077049
O O8 0.500000 0.283257 0.500000
O O9 0.495705 0.500000 0.570242
O O10 0.625687 0.272353 0.615260
O O11 0.433499 0.218687 0.578513
O O12 0.290766 0.264765 0.718421
O O13 0.476158 0.234945 0.805803
O O14 0.350731 0.000000 0.775006
O O15 0.794715 0.231467 0.614355
O O16 0.713109 0.000000 0.644705
O O17 0.250000 0.250000 0.500000
O O18 0.302511 0.000000 0.567155
O O19 0.562598 0.500000 0.853758
#
# Coordination Sequence:
#
# PCOD9221618 Si02
#       7
#     8   8   8   8   8   8   8
#     4   9  20  38  59  83 117 158 199 248 305 363
#     4   9  17  31  55  85 117 152 195 249 303 359
#     4  11  23  41  68  98 129 163 199 247 304 362
#     4  11  24  41  60  85 119 160 206 255 304 364
#     4  12  26  44  65  91 127 167 209 257 306 366
#     4  12  24  41  67  98 129 162 202 249 304 362
#     4   9  19  37  58  83 117 157 200 248 306 366
#
# _framework density 19.656853000000002
#
# number of rings (size 3 to 8) (size 9 to 14) (size 15 to 20)
#    0.000    1.571    1.429    4.714    0.000    6.286 
#    0.000    7.143    0.000    0.000    0.000    0.000 
#    0.000    0.000    0.000    0.000    0.000    0.000 
#
# Total GULP energy -156497.541200 kJ/mol
# GULP energy per Si atom -5589.197900 kJ/mol
# Density = 1.961211 g / cm^3
# Si number density = 19.656853 Si / 1000 Ang^3
#
#
#
# Elastic Constant Matrix: (Units=GPa)
#
#
# Indices 1 2 3 4 5 6 
#
# 1 55.6542 -6.7572 13.3493 0.0000 2.1652 0.0000
# 2 -6.7572 31.8866 13.0197 0.0000 -1.8833 0.0000
# 3 13.3493 13.0197 101.5808 0.0000 6.5270 0.0000
# 4 0.0000 0.0000 0.0000 33.5531 0.0000 0.5487
# 5 2.1652 -1.8833 6.5270 0.0000 33.0358 0.0000
# 6 0.0000 0.0000 0.0000 0.5487 0.0000 26.4416
#
#
#
# Elastic Compliance Matrix: (Units=1/GPa)
#
#
# Indices 1 2 3 4 5 6 
#
# 1 0.019411 0.005410 -0.003223 0.000000 -0.000327 0.000000
# 2 0.005410 0.034851 -0.005351 0.000000 0.002689 0.000000
# 3 -0.003223 -0.005351 0.011101 0.000000 -0.002287 0.000000
# 4 0.000000 0.000000 0.000000 0.029814 0.000000 -0.000619
# 5 -0.000327 0.002689 -0.002287 0.000000 0.030897 0.000000
# 6 0.000000 0.000000 0.000000 -0.000619 0.000000 0.037832
#
#
# Mechanical properties :
#
#
# Convention : Reuss Voigt Hill
#
# Bulk Modulus (GPa) = 16.93907 25.37169 21.15538
# Shear Modulus (GPa) = 26.32812 29.90677 28.11745
#
# Velocity S-wave (km/s) = 3.66373 3.90480 3.78618
# Velocity P-wave (km/s) = 5.15105 5.76760 5.46803
#
# Compressibility (1/GPa) = 0.05903513
#
# Stress axis : x y z
#
# Youngs Moduli (GPa) = 51.51763 28.69345 90.08427
#
# Poissons Ratio (x) = -0.15524 0.29037
# Poissons Ratio (y) = -0.27872 0.48201
# Poissons Ratio (z) = 0.16606 0.15353
#
# Static dielectric constant tensor:
#      x y z
#    x 1.690240 0.000000 -0.006730 
#    y 0.000000 1.657760 0.000000 
#    z -0.006730 0.000000 1.670100 
# 
# From -- ./inp_files/339077.got.cif
#   From: 2010.05.17/outbox.cif.g08.bks.cpg/sg12_170_cif.got.tgz:339077.got - 2010.06.03 13:09:07.
