data_PCOD9221509
_publ_section_title
;
Structure prediction by ZEFSAII (Michael W. Deem and Ramdas Pophale) SiO2 
 PCOD9221509
Probable space group: C 2/M
;
_chemical_formula_sum "Si O2"
_cell_formula_units_Z 40
_cell_length_a 30.434597
_cell_length_b 14.821924
_cell_length_c 9.644133
_cell_angle_alpha 90.000000
_cell_angle_beta 151.925552
_cell_angle_gamma 90.000000
_cell_volume 2047.407379
_symmetry_space_group_name_H-M "C 2/M"
_symmetry_group_IT_number 12
_symmetry_cell_setting 'monoclinic'
loop_
_space_group_symop_operation_xyz
x,y,z
-x,y,-z
-x,-y,-z
x,-y,z
1/2+x,1/2+y,z
1/2-x,1/2+y,-z
1/2-x,1/2-y,-z
1/2+x,1/2-y,z
loop_
_atom_site_type_symbol
_atom_site_label
_atom_site_fract_x
_atom_site_fract_y
_atom_site_fract_z
Si Si1 0.840372 0.773674 0.339274
Si Si2 0.893116 0.103422 0.243254
Si Si3 0.721969 0.340568 0.338802
Si Si4 0.890460 0.103287 0.713635
Si Si5 0.895826 0.399899 0.651710
O O1 0.894057 0.842208 0.388979
O O2 0.829197 0.830201 0.448964
O O3 0.884687 0.679426 0.509254
O O4 0.750000 0.750000 0.000000
O O5 0.000000 0.096714 0.500000
O O6 0.855783 0.000000 0.150291
O O7 0.834734 0.158635 0.964749
O O8 0.750000 0.250000 0.500000
O O9 0.651936 0.390829 0.250268
O O10 0.819794 0.384993 0.562540
O O11 0.884342 0.000000 0.648524
O O12 0.000000 0.130555 0.000000
O O13 0.880531 0.500000 0.550266
O O14 0.000000 0.394848 0.000000
#
# Coordination Sequence:
#
# PCOD9221509 Si02
#       5
#     8   8   8   8   8
#     4  12  23  40  63  94 127 165 205 261 320 376
#     4  11  24  41  66  98 132 164 201 263 336 390
#     4  12  23  41  65  95 129 170 211 259 316 378
#     4  11  23  40  66  96 125 158 205 266 323 378
#     4  11  25  44  66  89 126 178 224 261 304 371
#
# _framework density 19.536904
#
# number of rings (size 3 to 8) (size 9 to 14) (size 15 to 20)
#    0.000    0.600    4.000    4.200    2.800    4.000 
#    0.000    0.000    0.000    0.600    0.000    0.000 
#    0.000    0.000    0.000    0.000    0.000    0.000 
#
# Total GULP energy -111566.694339 kJ/mol
# GULP energy per Si atom -5578.334717 kJ/mol
# Density = 1.949244 g / cm^3
# Si number density = 19.536904 Si / 1000 Ang^3
#
#
#
# Elastic Constant Matrix: (Units=GPa)
#
#
# Indices 1 2 3 4 5 6 
#
# 1 118.9275 28.5087 33.9542 0.0000 -2.0108 0.0000
# 2 28.5087 140.4682 39.7466 0.0000 -21.2709 0.0000
# 3 33.9542 39.7466 91.2506 0.0000 3.3353 0.0000
# 4 0.0000 0.0000 0.0000 30.0768 0.0000 -5.7590
# 5 -2.0108 -21.2709 3.3353 0.0000 41.7928 0.0000
# 6 0.0000 0.0000 0.0000 -5.7590 0.0000 28.7097
#
#
#
# Elastic Compliance Matrix: (Units=1/GPa)
#
#
# Indices 1 2 3 4 5 6 
#
# 1 0.009546 -0.001030 -0.003110 0.000000 0.000184 0.000000
# 2 -0.001030 0.009139 -0.003777 0.000000 0.004903 0.000000
# 3 -0.003110 -0.003777 0.013878 0.000000 -0.003179 0.000000
# 4 0.000000 0.000000 0.000000 0.034576 0.000000 0.006936
# 5 0.000184 0.004903 -0.003179 0.000000 0.026686 0.000000
# 6 0.000000 0.000000 0.000000 0.006936 0.000000 0.036223
#
#
# Mechanical properties :
#
#
# Convention : Reuss Voigt Hill
#
# Bulk Modulus (GPa) = 59.77541 61.67392 60.72467
# Shear Modulus (GPa) = 33.01237 36.67832 34.84534
#
# Velocity S-wave (km/s) = 4.11511 4.33758 4.22781
# Velocity P-wave (km/s) = 7.29667 7.53144 7.41499
#
# Compressibility (1/GPa) = 0.01672929
#
# Stress axis : x y z
#
# Youngs Moduli (GPa) = 104.75114 109.41832 72.05868
#
# Poissons Ratio (x) = 0.11265 0.22414
# Poissons Ratio (y) = 0.10785 0.27216
# Poissons Ratio (z) = 0.32582 0.41327
#
# Static dielectric constant tensor:
#      x y z
#    x 1.729860 0.000000 0.014270 
#    y 0.000000 1.742640 0.000000 
#    z 0.014270 0.000000 1.680210 
# 
# From -- ./inp_files/58946.got.cif
#   From: 2010.05.17/outbox.cif.g08.bks.cpg/sg12_30_cif.got.tgz:58946.got - 2010.06.03 13:09:07.
