data_PCOD9221336
_publ_section_title
;
Structure prediction by ZEFSAII (Michael W. Deem and Ramdas Pophale) SiO2 
 PCOD9221336
Probable space group: C 2/M
;
_chemical_formula_sum "Si O2"
_cell_formula_units_Z 36
_cell_length_a 22.549162
_cell_length_b 17.037350
_cell_length_c 13.915650
_cell_angle_alpha 90.000000
_cell_angle_beta 20.862571
_cell_angle_gamma 90.000000
_cell_volume 1903.889056
_symmetry_space_group_name_H-M "C 2/M"
_symmetry_group_IT_number 12
_symmetry_cell_setting 'monoclinic'
loop_
_space_group_symop_operation_xyz
x,y,z
-x,y,-z
-x,-y,-z
x,-y,z
1/2+x,1/2+y,z
1/2-x,1/2+y,-z
1/2-x,1/2-y,-z
1/2+x,1/2-y,z
loop_
_atom_site_type_symbol
_atom_site_label
_atom_site_fract_x
_atom_site_fract_y
_atom_site_fract_z
Si Si1 0.000000 0.211248 0.000000
Si Si2 0.796876 0.911395 0.429605
Si Si3 0.765830 0.835088 0.677891
Si Si4 0.057049 0.727406 0.303442
Si Si5 0.045642 0.590759 0.171651
O O1 0.084538 0.154927 0.793685
O O2 0.137225 0.266688 0.841225
O O3 0.772732 0.894480 0.578395
O O4 0.620348 0.904043 0.642534
O O5 0.859732 0.000000 0.318912
O O6 0.942025 0.794616 0.430662
O O7 0.694919 0.876956 0.879612
O O8 0.026727 0.647213 0.291146
O O9 0.000000 0.719771 0.500000
O O10 0.250000 0.750000 0.000000
O O11 0.070788 0.500000 0.159486
#
# Coordination Sequence:
#
# PCOD9221336 Si02
#       5
#     4   8   8   8   8
#     4  12  21  36  63  98 126 164 212 262 329 380
#     4  11  23  38  62  99 135 161 200 270 342 390
#     4  12  22  40  68  95 126 168 219 263 323 391
#     4  12  26  45  68  94 128 180 228 262 307 381
#     4  11  23  42  66  97 131 166 211 274 332 380
#
# _framework density 18.908664999999999
#
# number of rings (size 3 to 8) (size 9 to 14) (size 15 to 20)
#    0.000    0.444    6.667    3.000    0.000    2.222 
#    0.000    3.333    0.000    0.000    0.000    0.000 
#    0.000    0.000    0.000    0.000    0.000    0.000 
#
# Total GULP energy -100695.274866 kJ/mol
# GULP energy per Si atom -5594.181937 kJ/mol
# Density = 1.886563 g / cm^3
# Si number density = 18.908665 Si / 1000 Ang^3
#
#
#
# Elastic Constant Matrix: (Units=GPa)
#
#
# Indices 1 2 3 4 5 6 
#
# 1 100.6937 48.3761 36.0285 -0.0001 3.2429 0.0013
# 2 48.3761 82.6012 16.7202 0.0008 1.6824 0.0000
# 3 36.0285 16.7202 85.1973 -0.0004 -4.2253 0.0023
# 4 -0.0001 0.0008 -0.0004 6.0592 0.0000 -11.2897
# 5 3.2429 1.6824 -4.2253 0.0000 38.3138 -0.0022
# 6 0.0013 0.0000 0.0023 -11.2897 -0.0022 -23.7369
#
#
#
# Elastic Compliance Matrix: (Units=1/GPa)
#
#
# Indices 1 2 3 4 5 6 
#
# 1 0.015727 -0.008141 -0.005129 0.000001 -0.001539 0.000000
# 2 -0.008141 0.016848 0.000135 -0.000002 -0.000036 0.000000
# 3 -0.005129 0.000135 0.013978 0.000001 0.001970 0.000000
# 4 0.000001 -0.000002 0.000001 0.087498 -0.000002 -0.041616
# 5 -0.001539 -0.000036 0.001970 -0.000002 0.026449 -0.000001
# 6 0.000000 0.000000 0.000000 -0.041616 -0.000001 -0.022335
#
#
# Mechanical properties :
#
#
# Convention : Reuss Voigt Hill
#
# Bulk Modulus (GPa) = 49.30745 52.30464 50.80605
# Shear Modulus (GPa) = 29.20606 15.28504 22.24555
#
# Velocity S-wave (km/s) = 3.93439 2.84625 3.43370
# Velocity P-wave (km/s) = 6.83904 6.20672 6.53054
#
# Compressibility (1/GPa) = 0.02028091
#
# Stress axis : x y z
#
# Youngs Moduli (GPa) = 63.58401 59.35502 71.54155
#
# Poissons Ratio (x) = 0.48322 0.36697
# Poissons Ratio (y) = 0.51765 -0.00963
# Poissons Ratio (z) = 0.32615 -0.00799
#
# Static dielectric constant tensor:
#      x y z
#    x 1.640770 0.000000 0.005220 
#    y 0.000000 1.630140 0.000000 
#    z 0.005220 0.000000 1.652570 
# 
# From -- ./inp_files/88318.got.cif
#   From: 2010.05.17/outbox.cif.g08.bks.cpg/sg12_45_cif.got.tgz:88318.got - 2010.06.03 13:09:07.
