data_PCOD9221070
_publ_section_title
;
Structure prediction by ZEFSAII (Michael W. Deem and Ramdas Pophale) SiO2 
 PCOD9221070
Probable space group: C 2/M
;
_chemical_formula_sum "Si O2"
_cell_formula_units_Z 56
_cell_length_a 12.023927
_cell_length_b 29.589031
_cell_length_c 8.740197
_cell_angle_alpha 90.000000
_cell_angle_beta 66.339416
_cell_angle_gamma 90.000000
_cell_volume 2848.162706
_symmetry_space_group_name_H-M "C 2/M"
_symmetry_group_IT_number 12
_symmetry_cell_setting 'monoclinic'
loop_
_space_group_symop_operation_xyz
x,y,z
-x,y,-z
-x,-y,-z
x,-y,z
1/2+x,1/2+y,z
1/2-x,1/2+y,-z
1/2-x,1/2-y,-z
1/2+x,1/2-y,z
loop_
_atom_site_type_symbol
_atom_site_label
_atom_site_fract_x
_atom_site_fract_y
_atom_site_fract_z
Si Si1 0.146699 0.909430 0.413791
Si Si2 0.786938 0.500000 0.238690
Si Si3 0.500000 0.934045 0.000000
Si Si4 0.719740 0.352300 0.670799
Si Si5 0.762087 0.826122 0.830265
Si Si6 0.505506 0.287053 0.827052
Si Si7 0.620335 0.794885 0.617137
Si Si8 0.407034 0.138658 0.820139
O O1 0.199738 0.959072 0.354820
O O2 0.196932 0.886592 0.543360
O O3 0.190599 0.874597 0.257487
O O4 0.000000 0.909596 0.500000
O O5 0.882346 0.461828 0.115312
O O6 0.534990 0.903660 0.126368
O O7 0.592215 0.330944 0.792135
O O8 0.799140 0.309122 0.570719
O O9 0.801453 0.373707 0.758636
O O10 0.707943 0.800811 0.714478
O O11 0.872997 0.800620 0.845990
O O12 0.657223 0.832582 0.011787
O O13 0.560546 0.253709 0.669166
O O14 0.500000 0.265926 0.000000
O O15 0.513957 0.832016 0.687794
#
# Coordination Sequence:
#
# PCOD9221070 Si02
#       8
#     8   4   4   8   8   8   8   8
#     4  11  22  44  67  95 128 170 211 264 334 387
#     4  11  23  40  73  99 121 163 219 259 324 413
#     4  11  22  42  70 100 124 164 210 270 324 395
#     4  11  25  42  64  95 133 173 212 270 329 376
#     4  11  22  41  67  88 129 174 222 263 319 386
#     4  12  24  39  63  94 128 176 230 270 308 368
#     4  11  25  39  60  93 131 177 219 270 315 372
#     4  12  21  44  67  93 132 171 212 265 329 380
#
# _framework density 19.661798000000001
#
# number of rings (size 3 to 8) (size 9 to 14) (size 15 to 20)
#    0.000    0.714    5.714    2.786    2.000    1.143 
#    5.143    2.143    0.000    0.857    0.000    0.000 
#    0.000    0.000    0.000    0.000    0.000    0.000 
#
# Total GULP energy -156019.883493 kJ/mol
# GULP energy per Si atom -5572.138696 kJ/mol
# Density = 1.961705 g / cm^3
# Si number density = 19.661798 Si / 1000 Ang^3
#
#
#
# Elastic Constant Matrix: (Units=GPa)
#
#
# Indices 1 2 3 4 5 6 
#
# 1 79.3734 11.5073 0.7561 0.0000 9.0986 0.0000
# 2 11.5073 75.8775 -8.0130 0.0000 -3.1498 0.0000
# 3 0.7561 -8.0130 42.3857 0.0000 -7.6273 0.0000
# 4 0.0000 0.0000 0.0000 26.3225 0.0000 -19.9409
# 5 9.0986 -3.1498 -7.6273 0.0000 40.5807 0.0000
# 6 0.0000 0.0000 0.0000 -19.9409 0.0000 17.4555
#
#
#
# Elastic Compliance Matrix: (Units=1/GPa)
#
#
# Indices 1 2 3 4 5 6 
#
# 1 0.013335 -0.002300 -0.001286 0.000000 -0.003410 0.000000
# 2 -0.002300 0.013942 0.003068 0.000000 0.002174 0.000000
# 3 -0.001286 0.003068 0.025141 0.000000 0.005252 0.000000
# 4 0.000000 0.000000 0.000000 0.282296 0.000000 0.322490
# 5 -0.003410 0.002174 0.005252 0.000000 0.026563 0.000000
# 6 0.000000 0.000000 0.000000 0.322490 0.000000 0.425696
#
#
# Mechanical properties :
#
#
# Convention : Reuss Voigt Hill
#
# Bulk Modulus (GPa) = 19.46194 22.90414 21.18304
# Shear Modulus (GPa) = 6.21013 29.76416 17.98714
#
# Velocity S-wave (km/s) = 1.77914 3.89499 3.02789
# Velocity P-wave (km/s) = 3.76036 5.64821 4.79805
#
# Compressibility (1/GPa) = 0.05138235
#
# Stress axis : x y z
#
# Youngs Moduli (GPa) = 74.98919 71.72474 39.77583
#
# Poissons Ratio (x) = 0.16495 0.05116
# Poissons Ratio (y) = 0.17246 -0.12204
# Poissons Ratio (z) = 0.09646 -0.22006
#
# Static dielectric constant tensor:
#      x y z
#    x 1.689640 0.000000 -0.004010 
#    y 0.000000 1.689610 0.000000 
#    z -0.004010 0.000000 1.708500 
# 
# From -- ./inp_files/54650.got.cif
#   From: 2010.05.17/outbox.cif.g08.bks.cpg/sg12_28_cif.got.tgz:54650.got - 2010.06.03 13:09:07.
