data_PCOD9221897
_publ_section_title
;
Structure prediction by ZEFSAII (Michael W. Deem and Ramdas Pophale) SiO2 
 PCOD9221897
Probable space group: C 2/M
;
_chemical_formula_sum "Si O2"
_cell_formula_units_Z 48
_cell_length_a 16.086405
_cell_length_b 19.924306
_cell_length_c 12.278223
_cell_angle_alpha 90.000000
_cell_angle_beta 143.130719
_cell_angle_gamma 90.000000
_cell_volume 2361.145426
_symmetry_space_group_name_H-M "C 2/M"
_symmetry_group_IT_number 12
_symmetry_cell_setting 'monoclinic'
loop_
_space_group_symop_operation_xyz
x,y,z
-x,y,-z
-x,-y,-z
x,-y,z
1/2+x,1/2+y,z
1/2-x,1/2+y,-z
1/2-x,1/2-y,-z
1/2+x,1/2-y,z
loop_
_atom_site_type_symbol
_atom_site_label
_atom_site_fract_x
_atom_site_fract_y
_atom_site_fract_z
Si Si1 0.225149 0.918103 0.251278
Si Si2 0.482249 0.886553 0.112274
Si Si3 0.500000 0.832055 0.500000
Si Si4 0.717215 0.000000 0.124333
Si Si5 0.985594 0.879471 0.161068
Si Si6 0.584887 0.760577 0.813067
Si Si7 0.681738 0.000000 0.333941
Si Si8 0.490848 0.500000 0.322457
O O1 0.371800 0.880312 0.399700
O O2 0.131567 0.898445 0.257501
O O3 0.235728 0.000000 0.256864
O O4 0.132461 0.889285 0.054371
O O5 0.464859 0.818103 0.156799
O O6 0.606901 0.932048 0.292055
O O7 0.500000 0.874767 0.000000
O O8 0.347467 0.932990 0.993730
O O9 0.545866 0.785661 0.650649
O O10 0.881456 0.000000 0.305565
O O11 0.651075 0.000000 0.173626
O O12 0.985065 0.808031 0.219128
O O13 0.951314 0.934381 0.214628
O O14 0.750000 0.750000 0.000000
O O15 0.844690 0.000000 0.507566
#
# Coordination Sequence:
#
# PCOD9221897 Si02
#       8
#     8   8   4   4   8   8   4   4
#     4  11  23  48  72 106 136 181 244 293 354 419
#     4   9  21  42  71  94 129 182 226 284 347 413
#     4  12  29  46  74 105 142 190 238 292 356 417
#     4   9  19  39  64  96 133 174 224 278 354 408
#     4  11  24  43  70  93 144 186 224 293 352 420
#     4  12  26  47  67 104 143 184 236 287 355 421
#     4   9  21  41  62 102 131 164 240 284 330 424
#     4  12  21  39  64 100 132 182 222 282 354 398
#
# _framework density 20.329117
#
# number of rings (size 3 to 8) (size 9 to 14) (size 15 to 20)
#    0.000    1.333    3.333    3.000    4.667    0.667 
#   12.000    0.000    0.000    0.000    0.000    0.000 
#    0.000    0.000    0.000    0.000    0.000    0.000 
#
# Total GULP energy -133910.732214 kJ/mol
# GULP energy per Si atom -5579.613842 kJ/mol
# Density = 2.028285 g / cm^3
# Si number density = 20.329117 Si / 1000 Ang^3
#
#
#
# Elastic Constant Matrix: (Units=GPa)
#
#
# Indices 1 2 3 4 5 6 
#
# 1 111.2460 75.4708 64.7002 0.0000 17.5187 0.0000
# 2 75.4708 193.4681 47.0245 0.0000 -8.4485 0.0000
# 3 64.7002 47.0245 112.8320 0.0000 18.2240 0.0000
# 4 0.0000 0.0000 0.0000 19.8912 0.0000 -6.3840
# 5 17.5187 -8.4485 18.2240 0.0000 40.1214 0.0000
# 6 0.0000 0.0000 0.0000 -6.3840 0.0000 32.3930
#
#
#
# Elastic Compliance Matrix: (Units=1/GPa)
#
#
# Indices 1 2 3 4 5 6 
#
# 1 0.017581 -0.005429 -0.006900 0.000000 -0.005686 0.000000
# 2 -0.005429 0.007667 -0.000783 0.000000 0.004341 0.000000
# 3 -0.006900 -0.000783 0.013690 0.000000 -0.003370 0.000000
# 4 0.000000 0.000000 0.000000 0.053668 0.000000 0.010577
# 5 -0.005686 0.004341 -0.003370 0.000000 0.029852 0.000000
# 6 0.000000 0.000000 0.000000 0.010577 0.000000 0.032955
#
#
# Mechanical properties :
#
#
# Convention : Reuss Voigt Hill
#
# Bulk Modulus (GPa) = 78.66183 87.99302 83.32742
# Shear Modulus (GPa) = 26.89972 33.83782 30.36877
#
# Velocity S-wave (km/s) = 3.64154 4.08425 3.86924
# Velocity P-wave (km/s) = 7.51394 8.10060 7.81278
#
# Compressibility (1/GPa) = 0.01271265
#
# Stress axis : x y z
#
# Youngs Moduli (GPa) = 56.87994 130.43546 73.04537
#
# Poissons Ratio (x) = 0.70818 0.50403
# Poissons Ratio (y) = 0.30882 0.05719
# Poissons Ratio (z) = 0.39248 0.10213
#
# Static dielectric constant tensor:
#      x y z
#    x 1.745010 0.000000 -0.029870 
#    y 0.000000 1.681090 0.000000 
#    z -0.029870 0.000000 1.764450 
# 
# From -- ./inp_files/148091.got.cif
#   From: 2010.05.17/outbox.cif.g08.bks.cpg/sg12_75_cif.got.tgz:148091.got - 2010.06.03 13:09:07.
