data_PCOD9221536
_publ_section_title
;
Structure prediction by ZEFSAII (Michael W. Deem and Ramdas Pophale) SiO2 
 PCOD9221536
Probable space group: C 2/M
;
_chemical_formula_sum "Si O2"
_cell_formula_units_Z 44
_cell_length_a 17.942483
_cell_length_b 17.972400
_cell_length_c 8.840874
_cell_angle_alpha 90.000000
_cell_angle_beta 133.173488
_cell_angle_gamma 90.000000
_cell_volume 2079.128265
_symmetry_space_group_name_H-M "C 2/M"
_symmetry_group_IT_number 12
_symmetry_cell_setting 'monoclinic'
loop_
_space_group_symop_operation_xyz
x,y,z
-x,y,-z
-x,-y,-z
x,-y,z
1/2+x,1/2+y,z
1/2-x,1/2+y,-z
1/2-x,1/2-y,-z
1/2+x,1/2-y,z
loop_
_atom_site_type_symbol
_atom_site_label
_atom_site_fract_x
_atom_site_fract_y
_atom_site_fract_z
Si Si1 0.250692 0.000000 0.919524
Si Si2 0.030523 0.862098 0.874249
Si Si3 0.165458 0.113337 0.589131
Si Si4 0.011852 0.500000 0.764635
Si Si5 0.818179 0.000000 0.860743
Si Si6 0.859349 0.240826 0.224161
Si Si7 0.500000 0.875148 0.500000
Si Si8 0.304534 0.000000 0.618576
O O1 0.180099 0.067938 0.765782
O O2 0.367857 0.000000 0.025088
O O3 0.260455 0.000000 0.110541
O O4 0.073748 0.802965 0.810772
O O5 0.932631 0.898431 0.653061
O O6 0.111128 0.927229 0.023478
O O7 0.000000 0.831258 0.000000
O O8 0.155619 0.195906 0.639552
O O9 0.260178 0.075509 0.633838
O O10 0.989673 0.428157 0.629914
O O11 0.924993 0.500000 0.769744
O O12 0.751962 0.000000 0.620013
O O13 0.907721 0.319523 0.334104
O O14 0.750000 0.250000 0.000000
#
# Coordination Sequence:
#
# PCOD9221536 Si02
#       8
#     4   8   8   4   4   8   4   4
#     4  11  23  40  72 100 141 192 244 298 353 425
#     4  12  24  43  69 110 145 179 234 292 371 425
#     4  11  23  44  69 108 140 184 234 295 366 427
#     4  11  26  47  71 103 138 195 259 297 347 426
#     4  12  21  37  69 105 145 183 228 293 358 434
#     4  12  26  46  71 104 146 193 240 292 367 441
#     4  11  24  46  74  99 136 196 248 295 350 432
#     4  11  25  43  73 108 148 186 243 307 356 419
#
# _framework density 21.162714000000001
#
# number of rings (size 3 to 8) (size 9 to 14) (size 15 to 20)
#    0.000    0.545    5.455    3.545    2.545    2.182 
#    3.273    1.818    0.000    0.000    0.000    0.000 
#    0.000    0.000    0.000    0.000    0.000    0.000 
#
# Total GULP energy -122750.926470 kJ/mol
# GULP energy per Si atom -5579.587567 kJ/mol
# Density = 2.111455 g / cm^3
# Si number density = 21.162714 Si / 1000 Ang^3
#
#
#
# Elastic Constant Matrix: (Units=GPa)
#
#
# Indices 1 2 3 4 5 6 
#
# 1 124.9605 43.3652 47.4460 0.0000 1.9897 0.0000
# 2 43.3652 113.4676 37.6584 0.0000 6.0211 0.0000
# 3 47.4460 37.6584 146.0654 0.0000 9.5266 0.0000
# 4 0.0000 0.0000 0.0000 -206.2354 0.0000 -196.7511
# 5 1.9897 6.0211 9.5266 0.0000 44.9308 0.0000
# 6 0.0000 0.0000 0.0000 -196.7511 0.0000 -162.8851
#
#
#
# Elastic Compliance Matrix: (Units=1/GPa)
#
#
# Indices 1 2 3 4 5 6 
#
# 1 0.009990 -0.003014 -0.002500 0.000000 0.000492 0.000000
# 2 -0.003014 0.010574 -0.001687 0.000000 -0.000926 0.000000
# 3 -0.002500 -0.001687 0.008184 0.000000 -0.001399 0.000000
# 4 0.000000 0.000000 0.000000 0.031824 0.000000 -0.038441
# 5 0.000492 -0.000926 -0.001399 0.000000 0.022655 0.000000
# 6 0.000000 0.000000 0.000000 -0.038441 0.000000 0.040294
#
#
# Mechanical properties :
#
#
# Convention : Reuss Voigt Hill
#
# Bulk Modulus (GPa) = 69.70349 71.27031 70.48690
# Shear Modulus (GPa) = 35.03727 -47.76968 -6.36620
#
# Velocity S-wave (km/s) = 4.07334 -4.75621 -1.73630
# Velocity P-wave (km/s) = 7.42504 1.89429 5.41846
#
# Compressibility (1/GPa) = 0.01434648
#
# Stress axis : x y z
#
# Youngs Moduli (GPa) = 100.10038 94.57130 122.18438
#
# Poissons Ratio (x) = 0.28507 0.30545
# Poissons Ratio (y) = 0.30174 0.20608
# Poissons Ratio (z) = 0.25024 0.15951
#
# Static dielectric constant tensor:
#      x y z
#    x 1.826910 0.000000 -0.031540 
#    y 0.000000 1.817080 0.000000 
#    z -0.031540 0.000000 1.747930 
# 
# From -- ./inp_files/76151.got.cif
#   From: 2010.05.17/outbox.cif.g08.bks.cpg/sg12_39_cif.got.tgz:76151.got - 2010.06.03 13:09:07.
