data_PCOD9221981
_publ_section_title
;
Structure prediction by ZEFSAII (Michael W. Deem and Ramdas Pophale) SiO2 
 PCOD9221981
Probable space group: C 2/M
;
_chemical_formula_sum "Si O2"
_cell_formula_units_Z 64
_cell_length_a 9.334159
_cell_length_b 17.211167
_cell_length_c 31.021238
_cell_angle_alpha 90.000000
_cell_angle_beta 136.689041
_cell_angle_gamma 90.000000
_cell_volume 3418.549511
_symmetry_space_group_name_H-M "C 2/M"
_symmetry_group_IT_number 12
_symmetry_cell_setting 'monoclinic'
loop_
_space_group_symop_operation_xyz
x,y,z
-x,y,-z
-x,-y,-z
x,-y,z
1/2+x,1/2+y,z
1/2-x,1/2+y,-z
1/2-x,1/2-y,-z
1/2+x,1/2-y,z
loop_
_atom_site_type_symbol
_atom_site_label
_atom_site_fract_x
_atom_site_fract_y
_atom_site_fract_z
Si Si1 0.067822 0.796267 0.347493
Si Si2 0.385705 0.689703 0.155622
Si Si3 0.449875 0.910509 0.438245
Si Si4 0.766354 0.215503 0.955943
Si Si5 0.262192 0.690778 0.462576
Si Si6 0.307536 0.910087 0.732805
Si Si7 0.589447 0.910200 0.142960
Si Si8 0.142359 0.304467 0.771433
O O1 0.266405 0.852031 0.384745
O O2 0.132483 0.731819 0.396301
O O3 0.878790 0.852083 0.320725
O O4 0.992477 0.751736 0.288618
O O5 0.277592 0.715401 0.087643
O O6 0.282766 0.614907 0.155119
O O7 0.631955 0.683420 0.200397
O O8 0.339061 0.758946 0.179305
O O9 0.500000 0.898321 0.500000
O O10 0.651653 0.887108 0.454784
O O11 0.390302 0.000000 0.419173
O O12 0.596183 0.148995 0.909303
O O13 0.750000 0.250000 0.000000
O O14 0.000000 0.185219 0.000000
O O15 0.500000 0.680547 0.500000
O O16 0.250000 0.750000 0.500000
O O17 0.347599 0.900202 0.792999
O O18 0.513889 0.882236 0.753054
O O19 0.257218 0.000000 0.713682
O O20 0.532484 0.000000 0.124104
#
# Coordination Sequence:
#
# PCOD9221981 Si02
#       8
#     8   8   8   8   8   8   8   8
#     4  12  21  39  69  90 119 166 212 252 301 387
#     4  12  21  42  63  93 126 163 208 253 305 368
#     4  11  24  42  63  90 125 164 204 255 317 370
#     4  12  22  38  68  94 120 167 212 251 295 369
#     4  12  23  41  64  90 123 161 211 256 306 368
#     4  11  24  41  63  95 129 160 203 262 315 364
#     4  11  24  43  64  94 131 164 204 262 319 358
#     4  12  22  38  68  93 121 163 213 251 310 369
#
# _framework density 18.721391000000001
#
# number of rings (size 3 to 8) (size 9 to 14) (size 15 to 20)
#    0.000    0.375    8.750    1.125    0.000    1.000 
#    0.000    1.875    0.000    0.000    0.000    0.000 
#    0.000    0.000    0.000    0.000    0.000    0.000 
#
# Total GULP energy -178879.055664 kJ/mol
# GULP energy per Si atom -5589.970489 kJ/mol
# Density = 1.867878 g / cm^3
# Si number density = 18.721391 Si / 1000 Ang^3
#
#
#
# Elastic Constant Matrix: (Units=GPa)
#
#
# Indices 1 2 3 4 5 6 
#
# 1 128.9883 35.8809 35.4477 0.0000 24.8713 0.0000
# 2 35.8809 79.6011 23.0982 0.0000 3.6004 0.0000
# 3 35.4477 23.0982 76.0818 0.0000 7.4012 0.0000
# 4 0.0000 0.0000 0.0000 9.8602 0.0000 0.9512
# 5 24.8713 3.6004 7.4012 0.0000 30.3578 0.0000
# 6 0.0000 0.0000 0.0000 0.9512 0.0000 29.3178
#
#
#
# Elastic Compliance Matrix: (Units=1/GPa)
#
#
# Indices 1 2 3 4 5 6 
#
# 1 0.011242 -0.003742 -0.003328 0.000000 -0.007955 0.000000
# 2 -0.003742 0.015034 -0.003017 0.000000 0.002018 0.000000
# 3 -0.003328 -0.003017 0.015682 0.000000 -0.000739 0.000000
# 4 0.000000 0.000000 0.000000 0.101737 0.000000 -0.003301
# 5 -0.007955 0.002018 -0.000739 0.000000 0.039399 0.000000
# 6 0.000000 0.000000 0.000000 -0.003301 0.000000 0.034216
#
#
# Mechanical properties :
#
#
# Convention : Reuss Voigt Hill
#
# Bulk Modulus (GPa) = 45.90551 52.61386 49.25968
# Shear Modulus (GPa) = 20.42950 26.59011 23.50981
#
# Velocity S-wave (km/s) = 3.30697 3.77278 3.54753
# Velocity P-wave (km/s) = 6.25740 6.86609 6.56880
#
# Compressibility (1/GPa) = 0.02178388
#
# Stress axis : x y z
#
# Youngs Moduli (GPa) = 88.95219 66.51796 63.76685
#
# Poissons Ratio (x) = 0.24891 0.21221
# Poissons Ratio (y) = 0.33285 0.19239
# Poissons Ratio (z) = 0.29602 0.20069
#
# Static dielectric constant tensor:
#      x y z
#    x 1.666250 0.000000 0.003480 
#    y 0.000000 1.627450 0.000000 
#    z 0.003480 0.000000 1.663400 
# 
# From -- ./inp_files/373018.got.cif
#   From: 2010.05.17/outbox.cif.g08.bks.cpg/sg12_187_cif.got.tgz:373018.got - 2010.06.03 13:09:07.
