data_PCOD9221042
_publ_section_title
;
Structure prediction by ZEFSAII (Michael W. Deem and Ramdas Pophale) SiO2 
 PCOD9221042
Probable space group: C 2/M
;
_chemical_formula_sum "Si O2"
_cell_formula_units_Z 36
_cell_length_a 18.212999
_cell_length_b 7.342055
_cell_length_c 12.370347
_cell_angle_alpha 90.000000
_cell_angle_beta 54.961535
_cell_angle_gamma 90.000000
_cell_volume 1354.382086
_symmetry_space_group_name_H-M "C 2/M"
_symmetry_group_IT_number 12
_symmetry_cell_setting 'monoclinic'
loop_
_space_group_symop_operation_xyz
x,y,z
-x,y,-z
-x,-y,-z
x,-y,z
1/2+x,1/2+y,z
1/2-x,1/2+y,-z
1/2-x,1/2-y,-z
1/2+x,1/2-y,z
loop_
_atom_site_type_symbol
_atom_site_label
_atom_site_fract_x
_atom_site_fract_y
_atom_site_fract_z
Si Si1 0.123541 0.000000 0.848718
Si Si2 0.312385 0.787092 0.342219
Si Si3 0.522343 0.719714 0.301221
Si Si4 0.339130 0.202183 0.996142
Si Si5 0.868355 0.779359 0.576219
O O1 0.109850 0.157736 0.763766
O O2 0.134049 0.157552 0.933860
O O3 0.250000 0.750000 0.500000
O O4 0.232810 0.715499 0.327055
O O5 0.329769 0.000000 0.318427
O O6 0.525138 0.500000 0.293269
O O7 0.576888 0.799109 0.156823
O O8 0.578669 0.769273 0.361690
O O9 0.422729 0.781303 0.422851
O O10 0.323467 0.000000 0.054701
O O11 0.250000 0.250000 0.000000
O O12 0.865748 0.000000 0.570963
#
# Coordination Sequence:
#
# PCOD9221042 Si02
#       5
#     4   8   8   8   8
#     4  12  24  40  62  87 124 158 206 253 310 358
#     4  11  22  41  64  91 119 158 209 263 307 351
#     4   9  16  35  58  89 124 159 195 243 310 372
#     4  12  23  37  57  89 129 168 199 240 302 382
#     4   8  17  32  61  88 120 158 199 253 305 356
#
# _framework density 26.580387000000002
#
# number of rings (size 3 to 8) (size 9 to 14) (size 15 to 20)
#    0.000    1.778    3.333    3.333    0.000    1.778 
#    2.000    1.111    0.000    2.667    0.000    3.111 
#    0.000    0.000    0.000    0.000    0.000    0.000 
#
# Total GULP energy -100204.544358 kJ/mol
# GULP energy per Si atom -5566.919131 kJ/mol
# Density = 2.651989 g / cm^3
# Si number density = 26.580387 Si / 1000 Ang^3
#
#
#
# Elastic Constant Matrix: (Units=GPa)
#
#
# Indices 1 2 3 4 5 6 
#
# 1 33.9077 -0.2510 15.9346 0.0000 -19.6286 0.0000
# 2 -0.2510 221.3164 43.0880 0.0000 21.3674 0.0001
# 3 15.9346 43.0880 182.0888 0.0000 16.9037 0.0000
# 4 0.0000 0.0000 0.0000 21.3105 0.0000 30.2376
# 5 -19.6286 21.3674 16.9037 0.0000 49.9596 0.0000
# 6 0.0000 0.0001 0.0000 30.2376 0.0000 -62.1196
#
#
#
# Elastic Compliance Matrix: (Units=1/GPa)
#
#
# Indices 1 2 3 4 5 6 
#
# 1 0.043021 -0.000746 -0.005355 0.000000 0.019034 0.000000
# 2 -0.000746 0.004894 -0.000899 0.000000 -0.002082 0.000000
# 3 -0.005355 -0.000899 0.006538 0.000000 -0.003931 0.000000
# 4 0.000000 0.000000 0.000000 0.027755 0.000000 0.013510
# 5 0.019034 -0.002082 -0.003931 0.000000 0.029715 0.000000
# 6 0.000000 0.000000 0.000000 0.013510 0.000000 -0.009522
#
#
# Mechanical properties :
#
#
# Convention : Reuss Voigt Hill
#
# Bulk Modulus (GPa) = 24.72102 61.65068 43.18585
# Shear Modulus (GPa) = 38.49503 27.06620 32.78061
#
# Velocity S-wave (km/s) = 3.80972 3.19451 3.51559
# Velocity P-wave (km/s) = 5.35468 6.07049 5.72379
#
# Compressibility (1/GPa) = 0.04045140
#
# Stress axis : x y z
#
# Youngs Moduli (GPa) = 23.24444 204.34525 152.94607
#
# Poissons Ratio (x) = 0.15249 0.81904
# Poissons Ratio (y) = 0.01735 0.13756
# Poissons Ratio (z) = 0.12448 0.18379
#
# Static dielectric constant tensor:
#      x y z
#    x 2.321390 0.000000 -0.022880 
#    y 0.000000 2.364680 0.000000 
#    z -0.022880 0.000000 2.169440 
# 
# From -- ./inp_files/171802.got.cif
#   From: 2010.05.17/outbox.cif.g08.bks.cpg/sg12_86_cif.got.tgz:171802.got - 2010.06.03 13:09:07.
