data_PCOD9221283
_publ_section_title
;
Structure prediction by ZEFSAII (Michael W. Deem and Ramdas Pophale) SiO2 
 PCOD9221283
Probable space group: C 2/M
;
_chemical_formula_sum "Si O2"
_cell_formula_units_Z 32
_cell_length_a 11.280853
_cell_length_b 15.962628
_cell_length_c 8.163644
_cell_angle_alpha 90.000000
_cell_angle_beta 103.744124
_cell_angle_gamma 90.000000
_cell_volume 1427.951594
_symmetry_space_group_name_H-M "C 2/M"
_symmetry_group_IT_number 12
_symmetry_cell_setting 'monoclinic'
loop_
_space_group_symop_operation_xyz
x,y,z
-x,y,-z
-x,-y,-z
x,-y,z
1/2+x,1/2+y,z
1/2-x,1/2+y,-z
1/2-x,1/2-y,-z
1/2+x,1/2-y,z
loop_
_atom_site_type_symbol
_atom_site_label
_atom_site_fract_x
_atom_site_fract_y
_atom_site_fract_z
Si Si1 0.639807 0.159967 0.891816
Si Si2 0.080752 0.593056 0.362905
Si Si3 0.201301 0.740878 0.257557
Si Si4 0.883740 0.091966 0.844008
O O1 0.520001 0.108856 0.810813
O O2 0.664868 0.228650 0.755183
O O3 0.759991 0.102246 0.911360
O O4 0.646933 0.207002 0.066031
O O5 0.134188 0.500000 0.367997
O O6 0.000000 0.597095 0.500000
O O7 0.178754 0.667063 0.376957
O O8 0.126872 0.825789 0.271943
O O9 0.883177 0.000000 0.765299
O O10 0.000000 0.098060 0.000000
#
# Coordination Sequence:
#
# PCOD9221283 Si02
#       4
#     8   8   8   8
#     4   9  19  34  56  78 108 135 178 224 272 314
#     4  11  23  37  54  79 112 149 184 219 266 323
#     4   9  20  34  56  80 107 133 183 224 273 315
#     4   9  16  28  51  79 106 134 170 220 273 319
#
# _framework density 22.409725000000002
#
# number of rings (size 3 to 8) (size 9 to 14) (size 15 to 20)
#    1.500    1.000    0.000    3.000    0.000    4.000 
#    0.000    0.000    0.000    0.750    0.000    0.000 
#    0.000    0.000    0.000    0.000    0.000    0.000 
#
# Total GULP energy -89112.141622 kJ/mol
# GULP energy per Si atom -5569.508851 kJ/mol
# Density = 2.235872 g / cm^3
# Si number density = 22.409725 Si / 1000 Ang^3
#
#
#
# Elastic Constant Matrix: (Units=GPa)
#
#
# Indices 1 2 3 4 5 6 
#
# 1 56.2789 22.8599 -0.1472 0.0000 3.5648 0.0000
# 2 22.8599 203.5472 28.8639 0.0000 -19.8408 0.0000
# 3 -0.1472 28.8639 58.8216 0.0000 -1.0960 0.0000
# 4 0.0000 0.0000 0.0000 -5.5525 0.0000 6.5417
# 5 3.5648 -19.8408 -1.0960 0.0000 28.1943 0.0000
# 6 0.0000 0.0000 0.0000 6.5417 0.0000 -1.9099
#
#
#
# Elastic Compliance Matrix: (Units=1/GPa)
#
#
# Indices 1 2 3 4 5 6 
#
# 1 0.019167 -0.002761 0.001322 0.000000 -0.004315 0.000000
# 2 -0.002761 0.006074 -0.002904 0.000000 0.004511 0.000000
# 3 0.001322 -0.002904 0.018401 0.000000 -0.001495 0.000000
# 4 0.000000 0.000000 0.000000 0.059332 0.000000 0.203225
# 5 -0.004315 0.004511 -0.001495 0.000000 0.039130 0.000000
# 6 0.000000 0.000000 0.000000 0.203225 0.000000 0.172494
#
#
# Mechanical properties :
#
#
# Convention : Reuss Voigt Hill
#
# Bulk Modulus (GPa) = 28.60584 46.86679 37.73631
# Shear Modulus (GPa) = 14.92831 21.95113 18.43972
#
# Velocity S-wave (km/s) = 2.58379 3.13315 2.87164
# Velocity P-wave (km/s) = 4.65768 5.83505 5.27929
#
# Compressibility (1/GPa) = 0.03495790
#
# Stress axis : x y z
#
# Youngs Moduli (GPa) = 52.17373 164.62719 54.34553
#
# Poissons Ratio (x) = 0.45448 -0.07186
# Poissons Ratio (y) = 0.14403 0.15780
# Poissons Ratio (z) = -0.06899 0.47800
#
# Static dielectric constant tensor:
#      x y z
#    x 1.847690 0.000000 -0.029380 
#    y 0.000000 1.897040 0.000000 
#    z -0.029380 0.000000 1.877890 
# 
# From -- ./inp_files/46198.got.cif
#   From: 2010.05.17/outbox.cif.g08.bks.cpg/sg12_24_cif.got.tgz:46198.got - 2010.06.03 13:09:07.
