data_PCOD9221669
_publ_section_title
;
Structure prediction by ZEFSAII (Michael W. Deem and Ramdas Pophale) SiO2 
 PCOD9221669
Probable space group: C 2/M
;
_chemical_formula_sum "Si O2"
_cell_formula_units_Z 40
_cell_length_a 8.450260
_cell_length_b 29.268016
_cell_length_c 9.574525
_cell_angle_alpha 90.000000
_cell_angle_beta 119.898236
_cell_angle_gamma 90.000000
_cell_volume 2052.842619
_symmetry_space_group_name_H-M "C 2/M"
_symmetry_group_IT_number 12
_symmetry_cell_setting 'monoclinic'
loop_
_space_group_symop_operation_xyz
x,y,z
-x,y,-z
-x,-y,-z
x,-y,z
1/2+x,1/2+y,z
1/2-x,1/2+y,-z
1/2-x,1/2-y,-z
1/2+x,1/2-y,z
loop_
_atom_site_type_symbol
_atom_site_label
_atom_site_fract_x
_atom_site_fract_y
_atom_site_fract_z
Si Si1 0.178757 0.882962 0.993106
Si Si2 0.790928 0.708287 0.919259
Si Si3 0.962533 0.616313 0.648503
Si Si4 0.211103 0.793944 0.577538
Si Si5 0.182558 0.447953 0.177249
O O1 0.349756 0.880393 0.177400
O O2 0.170900 0.833755 0.916726
O O3 0.193740 0.918311 0.871859
O O4 0.000000 0.893440 0.000000
O O5 0.751198 0.724416 0.748259
O O6 0.750000 0.750000 0.000000
O O7 0.000000 0.691666 0.000000
O O8 0.844934 0.663427 0.603303
O O9 0.854720 0.578142 0.693160
O O10 0.000000 0.606175 0.500000
O O11 0.250000 0.750000 0.500000
O O12 0.000000 0.809046 0.500000
O O13 0.242394 0.500000 0.226828
O O14 0.000000 0.449508 0.000000
#
# Coordination Sequence:
#
# PCOD9221669 Si02
#       5
#     8   8   8   8   8
#     4  11  23  42  66  96 128 170 214 262 313 377
#     4  12  23  41  62  89 127 166 218 264 306 376
#     4  11  24  41  65  96 132 166 211 263 318 379
#     4  12  26  42  62  91 132 171 210 264 322 371
#     4   9  19  42  69  94 127 166 210 264 319 377
#
# _framework density 19.485178000000001
#
# number of rings (size 3 to 8) (size 9 to 14) (size 15 to 20)
#    0.000    1.000    4.000    3.000    5.600    0.800 
#    0.000    0.000    0.000    4.200    0.000    0.000 
#    0.000    0.000    0.000    0.000    0.000    0.000 
#
# Total GULP energy -111542.378502 kJ/mol
# GULP energy per Si atom -5577.118925 kJ/mol
# Density = 1.944083 g / cm^3
# Si number density = 19.485178 Si / 1000 Ang^3
#
#
#
# Elastic Constant Matrix: (Units=GPa)
#
#
# Indices 1 2 3 4 5 6 
#
# 1 133.3985 73.1357 50.4853 0.0000 -34.9055 0.0000
# 2 73.1357 179.5589 52.7227 0.0000 -43.0340 0.0000
# 3 50.4853 52.7227 127.0137 0.0000 -49.3136 0.0000
# 4 0.0000 0.0000 0.0000 26.3168 0.0000 -8.8150
# 5 -34.9055 -43.0340 -49.3136 0.0000 51.6254 0.0000
# 6 0.0000 0.0000 0.0000 -8.8150 0.0000 26.6111
#
#
#
# Elastic Compliance Matrix: (Units=1/GPa)
#
#
# Indices 1 2 3 4 5 6 
#
# 1 0.010642 -0.003114 -0.001830 0.000000 0.002851 0.000000
# 2 -0.003114 0.007953 -0.000488 0.000000 0.004058 0.000000
# 3 -0.001830 -0.000488 0.012978 0.000000 0.010752 0.000000
# 4 0.000000 0.000000 0.000000 0.042741 0.000000 0.014158
# 5 0.002851 0.004058 0.010752 0.000000 0.034952 0.000000
# 6 0.000000 0.000000 0.000000 0.014158 0.000000 0.042268
#
#
# Mechanical properties :
#
#
# Convention : Reuss Voigt Hill
#
# Bulk Modulus (GPa) = 48.28850 88.07316 68.18083
# Shear Modulus (GPa) = 29.53291 38.48583 34.00937
#
# Velocity S-wave (km/s) = 3.89737 4.44907 4.18233
# Velocity P-wave (km/s) = 6.71481 8.46702 7.64131
#
# Compressibility (1/GPa) = 0.02070886
#
# Stress axis : x y z
#
# Youngs Moduli (GPa) = 93.96389 125.73197 77.05364
#
# Poissons Ratio (x) = 0.39151 0.14105
# Poissons Ratio (y) = 0.29259 0.03761
# Poissons Ratio (z) = 0.17200 0.06137
#
# Static dielectric constant tensor:
#      x y z
#    x 1.616650 0.000000 -0.051690 
#    y 0.000000 1.666230 0.000000 
#    z -0.051690 0.000000 1.613610 
# 
# From -- ./inp_files/41398.got.cif
#   From: 2010.05.17/outbox.cif.g08.bks.cpg/sg12_21_cif.got.tgz:41398.got - 2010.06.03 13:09:07.
