data_PCOD9221743
_publ_section_title
;
Structure prediction by ZEFSAII (Michael W. Deem and Ramdas Pophale) SiO2 
 PCOD9221743
Probable space group: C 2/M
;
_chemical_formula_sum "Si O2"
_cell_formula_units_Z 42
_cell_length_a 9.190905
_cell_length_b 16.098852
_cell_length_c 14.447151
_cell_angle_alpha 90.000000
_cell_angle_beta 118.354796
_cell_angle_gamma 90.000000
_cell_volume 1881.177128
_symmetry_space_group_name_H-M "C 2/M"
_symmetry_group_IT_number 12
_symmetry_cell_setting 'monoclinic'
loop_
_space_group_symop_operation_xyz
x,y,z
-x,y,-z
-x,-y,-z
x,-y,z
1/2+x,1/2+y,z
1/2-x,1/2+y,-z
1/2-x,1/2-y,-z
1/2+x,1/2-y,z
loop_
_atom_site_type_symbol
_atom_site_label
_atom_site_fract_x
_atom_site_fract_y
_atom_site_fract_z
Si Si1 0.979477 0.100327 0.344824
Si Si2 0.735376 0.899366 0.439814
Si Si3 0.542133 0.635729 0.166705
Si Si4 0.000000 0.000000 0.000000
Si Si5 0.408637 0.902585 0.252422
Si Si6 0.921324 0.699097 0.067367
O O1 0.840146 0.118356 0.378621
O O2 0.153779 0.130529 0.441142
O O3 0.946228 0.136268 0.234245
O O4 0.986326 0.000000 0.337423
O O5 0.550724 0.869558 0.363670
O O6 0.729659 0.000000 0.448635
O O7 0.727841 0.604996 0.240989
O O8 0.548982 0.727597 0.129616
O O9 0.469561 0.572686 0.069660
O O10 0.405781 0.859219 0.151637
O O11 0.440834 0.000000 0.245635
O O12 0.750000 0.750000 0.000000
O O13 0.000000 0.657046 0.000000
#
# Coordination Sequence:
#
# PCOD9221743 Si02
#       6
#     8   8   8   2   8   8
#     4   9  17  35  61  94 126 172 206 258 324 380
#     4   8  18  35  60  93 131 158 214 265 313 380
#     4  12  23  39  66  92 128 169 211 261 320 374
#     4  12  20  40  60  94 122 162 216 252 290 390
#     4  11  23  43  64  96 127 167 214 267 311 384
#     4  12  26  45  62  91 130 172 212 268 323 374
#
# _framework density 22.326446000000001
#
# number of rings (size 3 to 8) (size 9 to 14) (size 15 to 20)
#    0.000    1.524    4.762    1.143    2.667    1.143 
#    0.000    3.810    0.000    0.000    0.000    0.000 
#    0.000    0.000    0.000    0.000    0.000    0.000 
#
# Total GULP energy -117057.960485 kJ/mol
# GULP energy per Si atom -5574.188595 kJ/mol
# Density = 2.227563 g / cm^3
# Si number density = 22.326446 Si / 1000 Ang^3
#
#
#
# Elastic Constant Matrix: (Units=GPa)
#
#
# Indices 1 2 3 4 5 6 
#
# 1 15.8349 -2.3723 -3.4024 0.0000 -6.8176 0.0000
# 2 -2.3723 33.5099 5.4036 0.0000 1.8033 0.0000
# 3 -3.4024 5.4036 51.9238 0.0000 -13.7950 0.0000
# 4 0.0000 0.0000 0.0000 0.7768 0.0000 0.3761
# 5 -6.8176 1.8033 -13.7950 0.0000 46.0109 0.0000
# 6 0.0000 0.0000 0.0000 0.3761 0.0000 20.3919
#
#
#
# Elastic Compliance Matrix: (Units=1/GPa)
#
#
# Indices 1 2 3 4 5 6 
#
# 1 0.070713 0.003087 0.007675 0.000000 0.012658 0.000000
# 2 0.003087 0.030716 -0.003469 0.000000 -0.001786 0.000000
# 3 0.007675 -0.003469 0.022232 0.000000 0.007939 0.000000
# 4 0.000000 0.000000 0.000000 1.298944 0.000000 -0.023959
# 5 0.012658 -0.001786 0.007939 0.000000 0.026060 0.000000
# 6 0.000000 0.000000 0.000000 -0.023959 0.000000 0.049481
#
#
# Mechanical properties :
#
#
# Convention : Reuss Voigt Hill
#
# Bulk Modulus (GPa) = 7.23336 11.16960 9.20148
# Shear Modulus (GPa) = 3.26874 20.21190 11.74032
#
# Velocity S-wave (km/s) = 1.21130 3.01207 2.29563
# Velocity P-wave (km/s) = 2.28105 4.13648 3.34018
#
# Compressibility (1/GPa) = 0.13824830
#
# Stress axis : x y z
#
# Youngs Moduli (GPa) = 14.14166 32.55628 44.97998
#
# Poissons Ratio (x) = -0.10051 -0.34523
# Poissons Ratio (y) = -0.04366 0.15603
# Poissons Ratio (z) = -0.10854 0.11293
#
# Static dielectric constant tensor:
#      x y z
#    x 1.857680 0.000000 0.050280 
#    y 0.000000 1.808300 0.000000 
#    z 0.050280 0.000000 1.876900 
# 
# From -- ./inp_files/196081.got.cif
#   From: 2010.05.17/outbox.cif.g08.bks.cpg/sg12_99_cif.got.tgz:196081.got - 2010.06.03 13:09:07.
