data_PCOD9221053
_publ_section_title
;
Structure prediction by ZEFSAII (Michael W. Deem and Ramdas Pophale) SiO2 
 PCOD9221053
Probable space group: C 2/M
;
_chemical_formula_sum "Si O2"
_cell_formula_units_Z 40
_cell_length_a 19.035858
_cell_length_b 11.443838
_cell_length_c 16.693688
_cell_angle_alpha 90.000000
_cell_angle_beta 36.057189
_cell_angle_gamma 90.000000
_cell_volume 2140.479885
_symmetry_space_group_name_H-M "C 2/M"
_symmetry_group_IT_number 12
_symmetry_cell_setting 'monoclinic'
loop_
_space_group_symop_operation_xyz
x,y,z
-x,y,-z
-x,-y,-z
x,-y,z
1/2+x,1/2+y,z
1/2-x,1/2+y,-z
1/2-x,1/2-y,-z
1/2+x,1/2-y,z
loop_
_atom_site_type_symbol
_atom_site_label
_atom_site_fract_x
_atom_site_fract_y
_atom_site_fract_z
Si Si1 0.391345 0.500000 0.706468
Si Si2 0.586831 0.134799 0.143228
Si Si3 0.769601 0.755909 0.857234
Si Si4 0.867591 0.139428 0.158671
Si Si5 0.820576 0.709554 0.356436
Si Si6 0.835604 0.000000 0.568982
O O1 0.335244 0.380443 0.790616
O O2 0.360991 0.500000 0.640074
O O3 0.532958 0.500000 0.591043
O O4 0.643825 0.167670 0.175931
O O5 0.446622 0.156477 0.267832
O O6 0.611709 0.000000 0.100596
O O7 0.653599 0.218891 0.018724
O O8 0.725712 0.703875 0.813993
O O9 0.850279 0.190747 0.263560
O O10 0.849958 0.000000 0.174102
O O11 0.000000 0.162789 0.000000
O O12 0.750000 0.750000 0.500000
O O13 0.740380 0.612159 0.386661
#
# Coordination Sequence:
#
# PCOD9221053 Si02
#       6
#     4   8   8   8   8   4
#     4  11  22  41  65  95 122 166 220 268 322 386
#     4  11  23  40  65  95 130 168 214 267 326 386
#     4  11  22  41  65  96 128 166 217 270 322 379
#     4  11  24  43  66  95 132 175 221 268 324 387
#     4  12  25  43  65  96 134 171 217 270 329 394
#     4  11  24  41  67  89 128 169 213 266 329 397
#
# _framework density 18.687398999999999
#
# number of rings (size 3 to 8) (size 9 to 14) (size 15 to 20)
#    0.000    0.800    6.000    1.800    1.400    0.000 
#    1.800    3.000    0.000    3.600    0.000    0.000 
#    0.000    0.000    0.000    0.000    0.000    0.000 
#
# Total GULP energy -111740.088585 kJ/mol
# GULP energy per Si atom -5587.004429 kJ/mol
# Density = 1.864487 g / cm^3
# Si number density = 18.687399 Si / 1000 Ang^3
#
#
#
# Elastic Constant Matrix: (Units=GPa)
#
#
# Indices 1 2 3 4 5 6 
#
# 1 97.9356 31.4757 41.4906 0.0000 -11.2031 0.0000
# 2 31.4757 78.4361 29.6013 0.0000 -8.6483 0.0000
# 3 41.4906 29.6013 105.0264 0.0000 -11.1651 0.0000
# 4 0.0000 0.0000 0.0000 31.2968 0.0000 -0.9086
# 5 -11.2031 -8.6483 -11.1651 0.0000 41.2419 0.0000
# 6 0.0000 0.0000 0.0000 -0.9086 0.0000 37.1190
#
#
#
# Elastic Compliance Matrix: (Units=1/GPa)
#
#
# Indices 1 2 3 4 5 6 
#
# 1 0.013286 -0.003612 -0.004044 0.000000 0.001757 0.000000
# 2 -0.003612 0.015404 -0.002755 0.000000 0.001503 0.000000
# 3 -0.004044 -0.002755 0.012064 0.000000 0.001590 0.000000
# 4 0.000000 0.000000 0.000000 0.031975 0.000000 0.000783
# 5 0.001757 0.001503 0.001590 0.000000 0.025470 0.000000
# 6 0.000000 0.000000 0.000000 0.000783 0.000000 0.026960
#
#
# Mechanical properties :
#
#
# Convention : Reuss Voigt Hill
#
# Bulk Modulus (GPa) = 50.16733 54.05926 52.11330
# Shear Modulus (GPa) = 32.76028 33.85356 33.30692
#
# Velocity S-wave (km/s) = 4.19151 4.26087 4.22633
# Velocity P-wave (km/s) = 7.09428 7.29368 7.19467
#
# Compressibility (1/GPa) = 0.01993329
#
# Stress axis : x y z
#
# Youngs Moduli (GPa) = 75.26904 64.91822 82.88832
#
# Poissons Ratio (x) = 0.23446 0.33519
# Poissons Ratio (y) = 0.27184 0.22836
# Poissons Ratio (z) = 0.30437 0.17885
#
# Static dielectric constant tensor:
#      x y z
#    x 1.621670 0.000000 0.007780 
#    y 0.000000 1.617840 0.000000 
#    z 0.007780 0.000000 1.643030 
# 
# From -- ./inp_files/283173.got.cif
#   From: 2010.05.17/outbox.cif.g08.bks.cpg/sg12_142_cif.got.tgz:283173.got - 2010.06.03 13:09:07.
