data_PCOD9221597
_publ_section_title
;
Structure prediction by ZEFSAII (Michael W. Deem and Ramdas Pophale) SiO2 
 PCOD9221597
Probable space group: C 2/M
;
_chemical_formula_sum "Si O2"
_cell_formula_units_Z 48
_cell_length_a 29.758500
_cell_length_b 8.766306
_cell_length_c 18.730605
_cell_angle_alpha 90.000000
_cell_angle_beta 149.902780
_cell_angle_gamma 90.000000
_cell_volume 2450.323078
_symmetry_space_group_name_H-M "C 2/M"
_symmetry_group_IT_number 12
_symmetry_cell_setting 'monoclinic'
loop_
_space_group_symop_operation_xyz
x,y,z
-x,y,-z
-x,-y,-z
x,-y,z
1/2+x,1/2+y,z
1/2-x,1/2+y,-z
1/2-x,1/2-y,-z
1/2+x,1/2-y,z
loop_
_atom_site_type_symbol
_atom_site_label
_atom_site_fract_x
_atom_site_fract_y
_atom_site_fract_z
Si Si1 0.796638 0.182526 0.345681
Si Si2 0.141364 0.179709 0.036649
Si Si3 0.488301 0.817416 0.568042
Si Si4 0.153232 0.179497 0.882971
Si Si5 0.284309 0.679260 0.620608
Si Si6 0.027729 0.328544 0.120301
O O1 0.731170 0.252328 0.195339
O O2 0.759478 0.239713 0.370908
O O3 0.897547 0.239900 0.471700
O O4 0.792673 0.000000 0.337528
O O5 0.136583 0.000000 0.048256
O O6 0.139271 0.195266 0.948633
O O7 0.056715 0.267821 0.952338
O O8 0.500000 0.781958 0.500000
O O9 0.574417 0.759934 0.730285
O O10 0.480290 0.000000 0.564255
O O11 0.153159 0.000000 0.865125
O O12 0.250000 0.250000 0.000000
O O13 0.266243 0.500000 0.599776
O O14 0.250000 0.750000 0.500000
O O15 0.389764 0.713978 0.764000
O O16 0.054035 0.500000 0.180390
O O17 0.000000 0.338466 0.000000
#
# Coordination Sequence:
#
# PCOD9221597 Si02
#       6
#     8   8   8   8   8   8
#     4  12  25  43  67  97 132 171 219 268 325 391
#     4  11  24  42  66  96 131 171 218 269 324 386
#     4  11  25  45  69  97 131 171 216 267 327 391
#     4  11  25  44  68  99 132 168 215 267 323 389
#     4  12  26  44  67  94 132 175 219 270 325 385
#     4  11  23  41  66  97 131 170 220 268 320 385
#
# _framework density 19.589252999999999
#
# number of rings (size 3 to 8) (size 9 to 14) (size 15 to 20)
#    0.000    0.667    1.667    6.000    2.333    8.667 
#    0.000    0.000    0.000    0.000    0.000    0.000 
#    0.000    0.000    0.000    0.000    0.000    0.000 
#
# Total GULP energy -134319.179330 kJ/mol
# GULP energy per Si atom -5596.632472 kJ/mol
# Density = 1.954467 g / cm^3
# Si number density = 19.589253 Si / 1000 Ang^3
#
#
#
# Elastic Constant Matrix: (Units=GPa)
#
#
# Indices 1 2 3 4 5 6 
#
# 1 76.8695 49.7418 42.9510 0.0000 14.8149 0.0000
# 2 49.7418 128.0659 37.8464 0.0000 -10.0288 0.0000
# 3 42.9510 37.8464 124.6226 0.0000 -1.5977 0.0000
# 4 0.0000 0.0000 0.0000 44.5683 0.0000 -8.4364
# 5 14.8149 -10.0288 -1.5977 0.0000 36.5360 0.0000
# 6 0.0000 0.0000 0.0000 -8.4364 0.0000 64.2720
#
#
#
# Elastic Compliance Matrix: (Units=1/GPa)
#
#
# Indices 1 2 3 4 5 6 
#
# 1 0.024349 -0.008690 -0.005913 0.000000 -0.012517 0.000000
# 2 -0.008690 0.011867 -0.000522 0.000000 0.006758 0.000000
# 3 -0.005913 -0.000522 0.010255 0.000000 0.002703 0.000000
# 4 0.000000 0.000000 0.000000 0.023009 0.000000 0.003020
# 5 -0.012517 0.006758 0.002703 0.000000 0.034419 0.000000
# 6 0.000000 0.000000 0.000000 0.003020 0.000000 0.015955
#
#
# Mechanical properties :
#
#
# Convention : Reuss Voigt Hill
#
# Bulk Modulus (GPa) = 61.65021 65.62625 63.63823
# Shear Modulus (GPa) = 32.15171 42.34317 37.24744
#
# Velocity S-wave (km/s) = 4.05568 4.65429 4.36526
# Velocity P-wave (km/s) = 7.31240 7.90298 7.61342
#
# Compressibility (1/GPa) = 0.01622055
#
# Stress axis : x y z
#
# Youngs Moduli (GPa) = 41.07006 84.26490 97.50899
#
# Poissons Ratio (x) = 0.73226 0.57659
# Poissons Ratio (y) = 0.35690 0.05093
# Poissons Ratio (z) = 0.24285 0.04402
#
# Static dielectric constant tensor:
#      x y z
#    x 1.646070 0.000000 0.000990 
#    y 0.000000 1.673660 0.000000 
#    z 0.000990 0.000000 1.636340 
# 
# From -- ./inp_files/295898.got.cif
#   From: 2010.05.17/outbox.cif.g08.bks.cpg/sg12_148_cif.got.tgz:295898.got - 2010.06.03 13:09:07.
