data_PCOD9221487
_publ_section_title
;
Structure prediction by ZEFSAII (Michael W. Deem and Ramdas Pophale) SiO2 
 PCOD9221487
Probable space group: C 2/M
;
_chemical_formula_sum "Si O2"
_cell_formula_units_Z 40
_cell_length_a 9.223283
_cell_length_b 9.623660
_cell_length_c 21.039431
_cell_angle_alpha 90.000000
_cell_angle_beta 89.495650
_cell_angle_gamma 90.000000
_cell_volume 1867.424146
_symmetry_space_group_name_H-M "C 2/M"
_symmetry_group_IT_number 12
_symmetry_cell_setting 'monoclinic'
loop_
_space_group_symop_operation_xyz
x,y,z
-x,y,-z
-x,-y,-z
x,-y,z
1/2+x,1/2+y,z
1/2-x,1/2+y,-z
1/2-x,1/2-y,-z
1/2+x,1/2-y,z
loop_
_atom_site_type_symbol
_atom_site_label
_atom_site_fract_x
_atom_site_fract_y
_atom_site_fract_z
Si Si1 0.856303 0.341413 0.542346
Si Si2 0.864347 0.156361 0.250180
Si Si3 0.117197 0.212064 0.047000
Si Si4 0.150967 0.157987 0.332906
Si Si5 0.120270 0.349372 0.867888
O O1 0.804300 0.500000 0.555937
O O2 0.750000 0.250000 0.500000
O O3 0.881391 0.254295 0.606314
O O4 0.000000 0.352145 0.500000
O O5 0.769119 0.262340 0.291071
O O6 0.886113 0.222920 0.181020
O O7 0.013388 0.147787 0.287738
O O8 0.802270 0.000000 0.246046
O O9 0.217645 0.149092 0.102337
O O10 0.010461 0.324647 0.080882
O O11 0.250000 0.250000 0.000000
O O12 0.000000 0.141228 0.000000
O O13 0.193422 0.000000 0.351694
O O14 0.096956 0.500000 0.837142
#
# Coordination Sequence:
#
# PCOD9221487 Si02
#       5
#     8   8   8   8   8
#     4  11  24  41  64  95 130 169 211 257 311 369
#     4  11  25  43  64  92 126 165 208 257 314 373
#     4   9  21  40  61  91 126 161 201 253 311 368
#     4  11  24  42  65  93 125 164 211 260 311 369
#     4  11  23  40  64  93 124 161 207 257 310 371
#
# _framework density 21.419878000000001
#
# number of rings (size 3 to 8) (size 9 to 14) (size 15 to 20)
#    0.000    1.400    0.000    4.200    0.000   16.800 
#    0.000    6.000    0.000    0.000    0.000    0.000 
#    0.000    0.000    0.000    0.000    0.000    0.000 
#
# Total GULP energy -111490.975962 kJ/mol
# GULP energy per Si atom -5574.548798 kJ/mol
# Density = 2.137113 g / cm^3
# Si number density = 21.419878 Si / 1000 Ang^3
#
#
#
# Elastic Constant Matrix: (Units=GPa)
#
#
# Indices 1 2 3 4 5 6 
#
# 1 120.7477 46.3266 26.3955 0.0000 0.1466 0.0000
# 2 46.3266 191.5777 55.5116 0.0000 0.6853 0.0000
# 3 26.3955 55.5116 107.1994 0.0000 4.4420 0.0000
# 4 0.0000 0.0000 0.0000 32.9960 0.0000 -2.7929
# 5 0.1466 0.6853 4.4420 0.0000 41.8585 0.0000
# 6 0.0000 0.0000 0.0000 -2.7929 0.0000 15.2803
#
#
#
# Elastic Compliance Matrix: (Units=1/GPa)
#
#
# Indices 1 2 3 4 5 6 
#
# 1 0.009286 -0.001861 -0.001329 0.000000 0.000139 0.000000
# 2 -0.001861 0.006517 -0.002925 0.000000 0.000210 0.000000
# 3 -0.001329 -0.002925 0.011217 0.000000 -0.001138 0.000000
# 4 0.000000 0.000000 0.000000 0.030783 0.000000 0.005626
# 5 0.000139 0.000210 -0.001138 0.000000 0.024007 0.000000
# 6 0.000000 0.000000 0.000000 0.005626 0.000000 0.066472
#
#
# Mechanical properties :
#
#
# Convention : Reuss Voigt Hill
#
# Bulk Modulus (GPa) = 67.60943 75.11025 71.35984
# Shear Modulus (GPa) = 30.22218 37.44636 33.83427
#
# Velocity S-wave (km/s) = 3.76032 4.18569 3.97870
# Velocity P-wave (km/s) = 7.10533 7.64865 7.38199
#
# Compressibility (1/GPa) = 0.01479084
#
# Stress axis : x y z
#
# Youngs Moduli (GPa) = 107.68906 153.45315 89.14765
#
# Poissons Ratio (x) = 0.28558 0.11843
# Poissons Ratio (y) = 0.20041 0.26076
# Poissons Ratio (z) = 0.14307 0.44885
#
# Static dielectric constant tensor:
#      x y z
#    x 1.746960 0.000000 0.007280 
#    y 0.000000 1.857510 0.000000 
#    z 0.007280 0.000000 1.788570 
# 
# From -- ./inp_files/331788.got.cif
#   From: 2010.05.17/outbox.cif.g08.bks.cpg/sg12_166_cif.got.tgz:331788.got - 2010.06.03 13:09:07.
