data_PCOD9221724
_publ_section_title
;
Structure prediction by ZEFSAII (Michael W. Deem and Ramdas Pophale) SiO2 
 PCOD9221724
Probable space group: C 2/M
;
_chemical_formula_sum "Si O2"
_cell_formula_units_Z 56
_cell_length_a 7.834464
_cell_length_b 33.922167
_cell_length_c 15.430517
_cell_angle_alpha 90.000000
_cell_angle_beta 136.893961
_cell_angle_gamma 90.000000
_cell_volume 2802.315421
_symmetry_space_group_name_H-M "C 2/M"
_symmetry_group_IT_number 12
_symmetry_cell_setting 'monoclinic'
loop_
_space_group_symop_operation_xyz
x,y,z
-x,y,-z
-x,-y,-z
x,-y,z
1/2+x,1/2+y,z
1/2-x,1/2+y,-z
1/2-x,1/2-y,-z
1/2+x,1/2-y,z
loop_
_atom_site_type_symbol
_atom_site_label
_atom_site_fract_x
_atom_site_fract_y
_atom_site_fract_z
Si Si1 0.679042 0.725788 0.651064
Si Si2 0.201297 0.544917 0.370375
Si Si3 0.417269 0.100060 0.151985
Si Si4 0.848107 0.306151 0.262054
Si Si5 0.105133 0.148461 0.712030
Si Si6 0.122825 0.619719 0.452646
Si Si7 0.502420 0.370971 0.874341
O O1 0.500000 0.721600 0.500000
O O2 0.681744 0.770716 0.681747
O O3 0.584482 0.695382 0.689892
O O4 0.960356 0.712160 0.735233
O O5 0.500000 0.544975 0.500000
O O6 0.116931 0.500000 0.351756
O O7 0.103012 0.577863 0.399628
O O8 0.085915 0.561550 0.236570
O O9 0.625574 0.133781 0.219067
O O10 0.217203 0.105360 0.156134
O O11 0.247460 0.108322 0.004631
O O12 0.587362 0.326049 0.135453
O O13 0.993550 0.342945 0.359451
O O14 0.910964 0.129738 0.573147
O O15 0.039009 0.132792 0.783958
O O16 0.000000 0.616712 0.500000
#
# Coordination Sequence:
#
# PCOD9221724 Si02
#       7
#     8   8   8   8   8   8   8
#     4  12  24  36  61  99 141 179 226 297 341 390
#     4  11  23  42  72 105 132 166 217 280 351 413
#     4  11  23  45  69  92 135 179 225 275 340 406
#     4  12  23  39  59  98 137 178 229 283 338 394
#     4  12  22  40  68  97 135 179 231 277 339 399
#     4  12  22  38  66 100 136 175 223 280 345 411
#     4  11  24  41  66  94 130 184 232 275 318 410
#
# _framework density 19.983474999999999
#
# number of rings (size 3 to 8) (size 9 to 14) (size 15 to 20)
#    0.000    0.429    7.143    2.143    0.000    0.286 
#    0.000    2.143    3.143    2.571    0.000    0.000 
#    0.000    0.000    0.000    0.000    0.000    0.000 
#
# Total GULP energy -155899.939345 kJ/mol
# GULP energy per Si atom -5567.854977 kJ/mol
# Density = 1.993799 g / cm^3
# Si number density = 19.983475 Si / 1000 Ang^3
#
#
#
# Elastic Constant Matrix: (Units=GPa)
#
#
# Indices 1 2 3 4 5 6 
#
# 1 71.9850 22.6022 21.8537 0.0000 -8.0918 0.0000
# 2 22.6022 132.4525 49.6984 0.0000 -15.0261 0.0000
# 3 21.8537 49.6984 112.5945 0.0000 -0.0799 0.0000
# 4 0.0000 0.0000 0.0000 5.5442 0.0000 2.1401
# 5 -8.0918 -15.0261 -0.0799 0.0000 30.3620 0.0000
# 6 0.0000 0.0000 0.0000 2.1401 0.0000 22.9071
#
#
#
# Elastic Compliance Matrix: (Units=1/GPa)
#
#
# Indices 1 2 3 4 5 6 
#
# 1 0.015429 -0.001342 -0.002400 0.000000 0.003441 0.000000
# 2 -0.001342 0.009815 -0.004068 0.000000 0.004489 0.000000
# 3 -0.002400 -0.004068 0.011141 0.000000 -0.002624 0.000000
# 4 0.000000 0.000000 0.000000 0.187117 0.000000 -0.017482
# 5 0.003441 0.004489 -0.002624 0.000000 0.036068 0.000000
# 6 0.000000 0.000000 0.000000 -0.017482 0.000000 0.045288
#
#
# Mechanical properties :
#
#
# Convention : Reuss Voigt Hill
#
# Bulk Modulus (GPa) = 48.16041 56.14893 52.15467
# Shear Modulus (GPa) = 15.27188 26.62118 20.94653
#
# Velocity S-wave (km/s) = 2.76746 3.65384 3.24109
# Velocity P-wave (km/s) = 5.86210 6.77933 6.33733
#
# Compressibility (1/GPa) = 0.02076394
#
# Stress axis : x y z
#
# Youngs Moduli (GPa) = 64.81503 101.88819 89.75735
#
# Poissons Ratio (x) = 0.13673 0.21540
# Poissons Ratio (y) = 0.08698 0.36518
# Poissons Ratio (z) = 0.15554 0.41453
#
# Static dielectric constant tensor:
#      x y z
#    x 1.761360 0.000000 0.008760 
#    y 0.000000 1.679970 0.000000 
#    z 0.008760 0.000000 1.834330 
# 
# From -- ./inp_files/260165.got.cif
#   From: 2010.05.17/outbox.cif.g08.bks.cpg/sg12_131_cif.got.tgz:260165.got - 2010.06.03 13:09:07.
