data_PCOD9221364
_publ_section_title
;
Structure prediction by ZEFSAII (Michael W. Deem and Ramdas Pophale) SiO2 
 PCOD9221364
Probable space group: C 2/M
;
_chemical_formula_sum "Si O2"
_cell_formula_units_Z 56
_cell_length_a 14.787220
_cell_length_b 8.283870
_cell_length_c 24.703063
_cell_angle_alpha 90.000000
_cell_angle_beta 79.942867
_cell_angle_gamma 90.000000
_cell_volume 2979.514416
_symmetry_space_group_name_H-M "C 2/M"
_symmetry_group_IT_number 12
_symmetry_cell_setting 'monoclinic'
loop_
_space_group_symop_operation_xyz
x,y,z
-x,y,-z
-x,-y,-z
x,-y,z
1/2+x,1/2+y,z
1/2-x,1/2+y,-z
1/2-x,1/2-y,-z
1/2+x,1/2-y,z
loop_
_atom_site_type_symbol
_atom_site_label
_atom_site_fract_x
_atom_site_fract_y
_atom_site_fract_z
Si Si1 0.181822 0.194763 0.847977
Si Si2 0.060090 0.694996 0.764293
Si Si3 0.490886 0.695159 0.062648
Si Si4 0.074575 0.309866 0.639040
Si Si5 0.612924 0.805046 0.146310
Si Si6 0.555688 0.689376 0.440035
Si Si7 0.251107 0.312987 0.438386
O O1 0.142798 0.246045 0.793750
O O2 0.104326 0.249903 0.899168
O O3 0.284475 0.252927 0.850702
O O4 0.183613 0.000000 0.849461
O O5 0.061441 0.500000 0.764668
O O6 0.067833 0.748283 0.701512
O O7 0.964516 0.748580 0.802291
O O8 0.490415 0.500000 0.062561
O O9 0.573920 0.751058 0.092360
O O10 0.500000 0.751337 0.000000
O O11 0.052113 0.500000 0.640033
O O12 0.175996 0.283481 0.604804
O O13 0.006808 0.219148 0.605411
O O14 0.614499 0.000000 0.147086
O O15 0.500000 0.737718 0.500000
O O16 0.578306 0.500000 0.443257
O O17 0.649043 0.788547 0.426935
O O18 0.278113 0.500000 0.435624
O O19 0.250000 0.250000 0.500000
#
# Coordination Sequence:
#
# PCOD9221364 Si02
#       7
#     8   8   8   8   8   8   8
#     4   9  18  33  54  77 105 144 184 225 272 322
#     4   9  20  37  55  78 107 138 176 225 273 322
#     4   9  18  32  49  75 111 146 182 224 271 322
#     4  11  23  39  59  84 114 146 183 228 281 339
#     4   9  18  34  54  76 105 140 181 225 270 319
#     4  11  23  39  60  85 113 145 182 223 273 333
#     4  12  24  39  60  84 111 144 181 223 273 329
#
# _framework density 18.795007999999999
#
# number of rings (size 3 to 8) (size 9 to 14) (size 15 to 20)
#    0.000    2.000    1.429    2.143    0.000    4.286 
#    0.000    1.429    0.000    0.000    0.000    0.000 
#    0.000    0.000    0.000    0.000    0.000    0.000 
#
# Total GULP energy -156337.780995 kJ/mol
# GULP energy per Si atom -5583.492178 kJ/mol
# Density = 1.875223 g / cm^3
# Si number density = 18.795008 Si / 1000 Ang^3
#
#
#
# Elastic Constant Matrix: (Units=GPa)
#
#
# Indices 1 2 3 4 5 6 
#
# 1 142.1150 1.8091 72.2936 0.0000 21.8808 0.0000
# 2 1.8091 14.6195 4.2792 0.0000 0.3473 0.0000
# 3 72.2936 4.2792 171.5970 0.0000 13.8308 0.0000
# 4 0.0000 0.0000 0.0000 22.3455 0.0000 6.7760
# 5 21.8808 0.3473 13.8308 0.0000 15.9129 0.0000
# 6 0.0000 0.0000 0.0000 6.7760 0.0000 25.4928
#
#
#
# Elastic Compliance Matrix: (Units=1/GPa)
#
#
# Indices 1 2 3 4 5 6 
#
# 1 0.010611 -0.000003 -0.003543 0.000000 -0.011511 0.000000
# 2 -0.000003 0.068905 -0.001717 0.000000 -0.000008 0.000000
# 3 -0.003543 -0.001717 0.007492 0.000000 -0.001603 0.000000
# 4 0.000000 0.000000 0.000000 0.048675 0.000000 -0.012938
# 5 -0.011511 -0.000008 -0.001603 0.000000 0.080064 0.000000
# 6 0.000000 0.000000 0.000000 -0.012938 0.000000 0.042666
#
#
# Mechanical properties :
#
#
# Convention : Reuss Voigt Hill
#
# Bulk Modulus (GPa) = 13.07456 53.89948 33.48702
# Shear Modulus (GPa) = 16.98191 29.41355 23.19773
#
# Velocity S-wave (km/s) = 3.00914 3.96026 3.51700
# Velocity P-wave (km/s) = 4.36403 7.04637 5.86072
#
# Compressibility (1/GPa) = 0.07648438
#
# Stress axis : x y z
#
# Youngs Moduli (GPa) = 94.24153 14.51281 133.47400
#
# Poissons Ratio (x) = 0.00004 0.47283
# Poissons Ratio (y) = 0.00025 0.22911
# Poissons Ratio (z) = 0.33385 0.02491
#
# Static dielectric constant tensor:
#      x y z
#    x 1.638400 0.000000 -0.007990 
#    y 0.000000 1.652410 0.000000 
#    z -0.007990 0.000000 1.627970 
# 
# From -- ./inp_files/309042.got.cif
#   From: 2010.05.17/outbox.cif.g08.bks.cpg/sg12_155_cif.got.tgz:309042.got - 2010.06.03 13:09:07.
