data_PCOD9221785
_publ_section_title
;
Structure prediction by ZEFSAII (Michael W. Deem and Ramdas Pophale) SiO2 
 PCOD9221785
Probable space group: C 2/M
;
_chemical_formula_sum "Si O2"
_cell_formula_units_Z 40
_cell_length_a 28.802240
_cell_length_b 8.671328
_cell_length_c 14.879100
_cell_angle_alpha 90.000000
_cell_angle_beta 150.949112
_cell_angle_gamma 90.000000
_cell_volume 1804.491779
_symmetry_space_group_name_H-M "C 2/M"
_symmetry_group_IT_number 12
_symmetry_cell_setting 'monoclinic'
loop_
_space_group_symop_operation_xyz
x,y,z
-x,y,-z
-x,-y,-z
x,-y,z
1/2+x,1/2+y,z
1/2-x,1/2+y,-z
1/2-x,1/2-y,-z
1/2+x,1/2-y,z
loop_
_atom_site_type_symbol
_atom_site_label
_atom_site_fract_x
_atom_site_fract_y
_atom_site_fract_z
Si Si1 0.645515 0.176826 0.813809
Si Si2 0.345989 0.000000 0.779271
Si Si3 0.697272 0.325534 0.201703
Si Si4 0.023249 0.757440 0.778266
Si Si5 0.051567 0.500000 0.226333
Si Si6 0.139699 0.832084 0.626872
O O1 0.590116 0.183737 0.814259
O O2 0.602567 0.275017 0.659706
O O3 0.651131 0.000000 0.795318
O O4 0.750000 0.250000 0.000000
O O5 0.303137 0.167362 0.737805
O O6 0.364750 0.000000 0.704544
O O7 0.450326 0.000000 0.002347
O O8 0.707377 0.500000 0.258309
O O9 0.783735 0.290721 0.279804
O O10 0.598355 0.326068 0.976840
O O11 0.955818 0.645357 0.721737
O O12 0.946490 0.846011 0.588747
O O13 0.187656 0.000000 0.717575
#
# Coordination Sequence:
#
# PCOD9221785 Si02
#       6
#     8   4   8   8   4   8
#     4  12  25  40  65  98 133 182 233 275 338 408
#     4   9  20  44  72 104 131 178 227 290 347 407
#     4  11  23  43  71 101 139 181 226 285 345 407
#     4  11  24  42  68  97 137 179 230 284 338 406
#     4   9  20  42  73  98 134 175 229 288 348 400
#     4  12  26  42  65  98 142 183 228 282 338 403
#
# _framework density 22.166905
#
# number of rings (size 3 to 8) (size 9 to 14) (size 15 to 20)
#    0.000    1.000    4.000    2.400    2.800    4.000 
#    0.000   10.000    0.000    0.000    0.000    0.000 
#    0.000    0.000    0.000    0.000    0.000    0.000 
#
# Total GULP energy -111552.071763 kJ/mol
# GULP energy per Si atom -5577.603588 kJ/mol
# Density = 2.211645 g / cm^3
# Si number density = 22.166905 Si / 1000 Ang^3
#
#
#
# Elastic Constant Matrix: (Units=GPa)
#
#
# Indices 1 2 3 4 5 6 
#
# 1 141.8947 63.4277 14.7413 0.0000 -14.9068 0.0000
# 2 63.4277 171.0265 23.9842 0.0000 -10.4672 0.0000
# 3 14.7413 23.9842 67.2645 0.0000 -4.3348 0.0000
# 4 0.0000 0.0000 0.0000 12.6561 0.0000 2.6656
# 5 -14.9068 -10.4672 -4.3348 0.0000 24.9826 0.0000
# 6 0.0000 0.0000 0.0000 2.6656 0.0000 11.0362
#
#
#
# Elastic Compliance Matrix: (Units=1/GPa)
#
#
# Indices 1 2 3 4 5 6 
#
# 1 0.008845 -0.002951 -0.000633 0.000000 0.003932 0.000000
# 2 -0.002951 0.007264 -0.001882 0.000000 0.000956 0.000000
# 3 -0.000633 -0.001882 0.015778 0.000000 0.001572 0.000000
# 4 0.000000 0.000000 0.000000 0.083248 0.000000 -0.020107
# 5 0.003932 0.000956 0.001572 0.000000 0.043047 0.000000
# 6 0.000000 0.000000 0.000000 -0.020107 0.000000 0.095468
#
#
# Mechanical properties :
#
#
# Convention : Reuss Voigt Hill
#
# Bulk Modulus (GPa) = 47.71993 64.94357 56.33175
# Shear Modulus (GPa) = 18.41171 28.27049 23.34110
#
# Velocity S-wave (km/s) = 2.88513 3.57507 3.24847
# Velocity P-wave (km/s) = 5.71602 6.81195 6.28791
#
# Compressibility (1/GPa) = 0.02095560
#
# Stress axis : x y z
#
# Youngs Moduli (GPa) = 113.05288 137.66728 63.38097
#
# Poissons Ratio (x) = 0.40627 0.04011
# Poissons Ratio (y) = 0.33363 0.11926
# Poissons Ratio (z) = 0.07155 0.25905
#
# Static dielectric constant tensor:
#      x y z
#    x 1.779810 0.000000 -0.029790 
#    y 0.000000 1.819020 0.000000 
#    z -0.029790 0.000000 1.828230 
# 
# From -- ./inp_files/250242.got.cif
#   From: 2010.05.17/outbox.cif.g08.bks.cpg/sg12_126_cif.got.tgz:250242.got - 2010.06.03 13:09:07.
