data_PCOD9221339
_publ_section_title
;
Structure prediction by ZEFSAII (Michael W. Deem and Ramdas Pophale) SiO2 
 PCOD9221339
Probable space group: C 2/M
;
_chemical_formula_sum "Si O2"
_cell_formula_units_Z 56
_cell_length_a 32.069105
_cell_length_b 8.700811
_cell_length_c 12.119367
_cell_angle_alpha 90.000000
_cell_angle_beta 57.539065
_cell_angle_gamma 90.000000
_cell_volume 2853.278756
_symmetry_space_group_name_H-M "C 2/M"
_symmetry_group_IT_number 12
_symmetry_cell_setting 'monoclinic'
loop_
_space_group_symop_operation_xyz
x,y,z
-x,y,-z
-x,-y,-z
x,-y,z
1/2+x,1/2+y,z
1/2-x,1/2+y,-z
1/2-x,1/2-y,-z
1/2+x,1/2-y,z
loop_
_atom_site_type_symbol
_atom_site_label
_atom_site_fract_x
_atom_site_fract_y
_atom_site_fract_z
Si Si1 0.069793 0.184869 0.131707
Si Si2 0.102856 0.183550 0.621616
Si Si3 0.786595 0.315615 0.539113
Si Si4 0.328669 0.315184 0.901874
Si Si5 0.481700 0.815467 0.402895
Si Si6 0.737427 0.184150 0.181577
Si Si7 0.559376 0.179569 0.909021
O O1 0.117400 0.231994 0.135748
O O2 0.022019 0.258796 0.256533
O O3 0.064923 0.000000 0.139370
O O4 0.077523 0.241094 0.995698
O O5 0.158558 0.246346 0.542737
O O6 0.070266 0.247699 0.565880
O O7 0.078103 0.239977 0.771358
O O8 0.102632 0.000000 0.617831
O O9 0.789926 0.500000 0.525143
O O10 0.750000 0.250000 0.500000
O O11 0.763334 0.274916 0.690351
O O12 0.327951 0.500000 0.899882
O O13 0.310144 0.251591 0.812293
O O14 0.286788 0.262508 0.048593
O O15 0.500000 0.768635 0.500000
O O16 0.478718 0.000000 0.404868
O O17 0.735603 0.000000 0.174704
O O18 0.573659 0.000000 0.886217
O O19 0.500000 0.188150 0.000000
#
# Coordination Sequence:
#
# PCOD9221339 Si02
#       7
#     8   8   8   8   8   8   8
#     4  11  23  38  63  96 128 163 207 259 316 379
#     4  12  26  44  68  94 127 169 213 267 325 382
#     4  11  25  44  66  94 128 169 217 265 318 381
#     4   9  20  38  61  92 124 157 202 256 310 370
#     4  11  25  44  65  92 130 171 215 264 317 383
#     4   9  20  40  63  87 121 163 206 255 310 369
#     4  11  23  41  65  92 125 162 207 258 310 374
#
# _framework density 19.626545
#
# number of rings (size 3 to 8) (size 9 to 14) (size 15 to 20)
#    0.000    1.429    1.429    3.000    4.000    4.000 
#    0.000    0.000    0.000    0.000    0.000    0.000 
#    0.000    0.000    0.000    0.000    0.000    0.000 
#
# Total GULP energy -156521.569783 kJ/mol
# GULP energy per Si atom -5590.056064 kJ/mol
# Density = 1.958187 g / cm^3
# Si number density = 19.626545 Si / 1000 Ang^3
#
#
#
# Elastic Constant Matrix: (Units=GPa)
#
#
# Indices 1 2 3 4 5 6 
#
# 1 161.5190 47.2501 47.2982 0.0000 13.6957 0.0000
# 2 47.2501 72.4137 37.6693 0.0000 9.8749 0.0000
# 3 47.2982 37.6693 66.6084 0.0000 20.9948 0.0000
# 4 0.0000 0.0000 0.0000 22.2906 0.0000 4.8314
# 5 13.6957 9.8749 20.9948 0.0000 33.8449 0.0000
# 6 0.0000 0.0000 0.0000 4.8314 0.0000 36.0046
#
#
#
# Elastic Compliance Matrix: (Units=1/GPa)
#
#
# Indices 1 2 3 4 5 6 
#
# 1 0.008354 -0.003346 -0.004080 0.000000 0.000126 0.000000
# 2 -0.003346 0.020962 -0.009917 0.000000 0.001390 0.000000
# 3 -0.004080 -0.009917 0.027454 0.000000 -0.012486 0.000000
# 4 0.000000 0.000000 0.000000 0.046206 0.000000 -0.006200
# 5 0.000126 0.001390 -0.012486 0.000000 0.036835 0.000000
# 6 0.000000 0.000000 0.000000 -0.006200 0.000000 0.028606
#
#
# Mechanical properties :
#
#
# Convention : Reuss Voigt Hill
#
# Bulk Modulus (GPa) = 45.27955 62.77513 54.02734
# Shear Modulus (GPa) = 23.75710 29.64960 26.70335
#
# Velocity S-wave (km/s) = 3.48294 3.89097 3.69260
# Velocity P-wave (km/s) = 6.26858 7.22776 6.76519
#
# Compressibility (1/GPa) = 0.02208502
#
# Stress axis : x y z
#
# Youngs Moduli (GPa) = 119.70313 47.70555 36.42480
#
# Poissons Ratio (x) = 0.15962 0.14860
# Poissons Ratio (y) = 0.40053 0.36121
# Poissons Ratio (z) = 0.48835 0.47308
#
# Static dielectric constant tensor:
#      x y z
#    x 1.676600 0.000000 0.000600 
#    y 0.000000 1.661230 0.000000 
#    z 0.000600 0.000000 1.675360 
# 
# From -- ./inp_files/187254.got.cif
#   From: 2010.05.17/outbox.cif.g08.bks.cpg/sg12_94_cif.got.tgz:187254.got - 2010.06.03 13:09:07.
