data_PCOD9221425
_publ_section_title
;
Structure prediction by ZEFSAII (Michael W. Deem and Ramdas Pophale) SiO2 
 PCOD9221425
Probable space group: C 2/M
;
_chemical_formula_sum "Si O2"
_cell_formula_units_Z 40
_cell_length_a 8.832672
_cell_length_b 21.691725
_cell_length_c 9.774870
_cell_angle_alpha 90.000000
_cell_angle_beta 84.906693
_cell_angle_gamma 90.000000
_cell_volume 1865.429981
_symmetry_space_group_name_H-M "C 2/M"
_symmetry_group_IT_number 12
_symmetry_cell_setting 'monoclinic'
loop_
_space_group_symop_operation_xyz
x,y,z
-x,y,-z
-x,-y,-z
x,-y,z
1/2+x,1/2+y,z
1/2-x,1/2+y,-z
1/2-x,1/2-y,-z
1/2+x,1/2-y,z
loop_
_atom_site_type_symbol
_atom_site_label
_atom_site_fract_x
_atom_site_fract_y
_atom_site_fract_z
Si Si1 0.334698 0.932308 0.446267
Si Si2 0.808875 0.894925 0.276044
Si Si3 0.844564 0.145895 0.759878
Si Si4 0.141701 0.726513 0.390301
Si Si5 0.317938 0.069671 0.003401
O O1 0.500000 0.921086 0.500000
O O2 0.222444 0.932222 0.583822
O O3 0.267012 0.883363 0.346091
O O4 0.341816 0.000000 0.379836
O O5 0.716787 0.831242 0.309177
O O6 0.738341 0.925265 0.147692
O O7 0.987971 0.883521 0.250904
O O8 0.873626 0.217182 0.716202
O O9 0.763298 0.124360 0.905757
O O10 0.250000 0.750000 0.500000
O O11 0.000000 0.711377 0.500000
O O12 0.278702 0.000000 0.056219
O O13 0.500000 0.076350 0.000000
#
# Coordination Sequence:
#
# PCOD9221425 Si02
#       5
#     8   8   8   8   8
#     4  11  23  39  64  96 130 174 226 278 338 403
#     4  12  25  42  69  99 134 179 224 279 340 398
#     4  12  25  43  68 100 133 177 226 279 340 400
#     4  12  24  44  70 104 141 176 221 283 340 401
#     4  11  27  48  69  97 137 182 228 279 341 409
#
# _framework density 21.442777
#
# number of rings (size 3 to 8) (size 9 to 14) (size 15 to 20)
#    0.000    0.400    4.000    4.200    2.800    8.800 
#    0.000    0.000    0.000    0.000    0.000    0.000 
#    0.000    0.000    0.000    0.000    0.000    0.000 
#
# Total GULP energy -111727.319280 kJ/mol
# GULP energy per Si atom -5586.365964 kJ/mol
# Density = 2.139397 g / cm^3
# Si number density = 21.442777 Si / 1000 Ang^3
#
#
#
# Elastic Constant Matrix: (Units=GPa)
#
#
# Indices 1 2 3 4 5 6 
#
# 1 101.8275 5.1377 -14.0434 0.0000 -4.6785 0.0000
# 2 5.1377 109.9323 -0.4518 0.0000 -7.0775 0.0000
# 3 -14.0434 -0.4518 71.1539 0.0000 2.7586 0.0000
# 4 0.0000 0.0000 0.0000 12.6324 0.0000 16.0982
# 5 -4.6785 -7.0775 2.7586 0.0000 38.9559 0.0000
# 6 0.0000 0.0000 0.0000 16.0982 0.0000 -1.9299
#
#
#
# Elastic Compliance Matrix: (Units=1/GPa)
#
#
# Indices 1 2 3 4 5 6 
#
# 1 0.010158 -0.000402 0.001963 0.000000 0.001008 0.000000
# 2 -0.000402 0.009220 -0.000084 0.000000 0.001633 0.000000
# 3 0.001963 -0.000084 0.014472 0.000000 -0.000804 0.000000
# 4 0.000000 0.000000 0.000000 0.006807 0.000000 0.056777
# 5 0.001008 0.001633 -0.000804 0.000000 0.026145 0.000000
# 6 0.000000 0.000000 0.000000 0.056777 0.000000 -0.044554
#
#
# Mechanical properties :
#
#
# Convention : Reuss Voigt Hill
#
# Bulk Modulus (GPa) = 27.17034 29.35539 28.26286
# Shear Modulus (GPa) = 158.42238 29.41643 93.91940
#
# Velocity S-wave (km/s) = 8.60476 3.70788 6.62534
# Velocity P-wave (km/s) = 10.55562 5.66136 8.46971
#
# Compressibility (1/GPa) = 0.03680484
#
# Stress axis : x y z
#
# Youngs Moduli (GPa) = 98.44591 108.45914 69.09820
#
# Poissons Ratio (x) = 0.04358 -0.13565
# Poissons Ratio (y) = 0.03955 0.00581
# Poissons Ratio (z) = -0.19327 0.00912
#
# Static dielectric constant tensor:
#      x y z
#    x 1.726980 0.000000 -0.001220 
#    y 0.000000 1.814850 0.000000 
#    z -0.001220 0.000000 1.737550 
# 
# From -- ./inp_files/39235.got.cif
#   From: 2010.05.17/outbox.cif.g08.bks.cpg/sg12_20_cif.got.tgz:39235.got - 2010.06.03 13:09:07.
