data_PCOD9221481
_publ_section_title
;
Structure prediction by ZEFSAII (Michael W. Deem and Ramdas Pophale) SiO2 
 PCOD9221481
Probable space group: C 2/M
;
_chemical_formula_sum "Si O2"
_cell_formula_units_Z 50
_cell_length_a 28.024727
_cell_length_b 9.590184
_cell_length_c 12.081513
_cell_angle_alpha 90.000000
_cell_angle_beta 124.708599
_cell_angle_gamma 90.000000
_cell_volume 2669.269535
_symmetry_space_group_name_H-M "C 2/M"
_symmetry_group_IT_number 12
_symmetry_cell_setting 'monoclinic'
loop_
_space_group_symop_operation_xyz
x,y,z
-x,y,-z
-x,-y,-z
x,-y,z
1/2+x,1/2+y,z
1/2-x,1/2+y,-z
1/2-x,1/2-y,-z
1/2+x,1/2-y,z
loop_
_atom_site_type_symbol
_atom_site_label
_atom_site_fract_x
_atom_site_fract_y
_atom_site_fract_z
Si Si1 0.934930 0.839326 0.365818
Si Si2 0.251569 0.338276 0.614331
Si Si3 0.564228 0.154120 0.846762
Si Si4 0.053812 0.260753 0.207260
Si Si5 0.000000 0.000000 0.000000
Si Si6 0.619108 0.164656 0.512190
Si Si7 0.149920 0.655684 0.159420
O O1 0.936856 0.772885 0.246695
O O2 0.897833 0.740853 0.397219
O O3 0.000000 0.837829 0.500000
O O4 0.914760 0.000000 0.337607
O O5 0.264587 0.500000 0.608563
O O6 0.250000 0.250000 0.500000
O O7 0.187931 0.330119 0.583614
O O8 0.301549 0.270354 0.754703
O O9 0.505892 0.160925 0.842804
O O10 0.567502 0.000000 0.799087
O O11 0.617866 0.173051 0.000413
O O12 0.086925 0.255231 0.369000
O O13 0.099905 0.332189 0.186430
O O14 0.032877 0.121160 0.118647
O O15 0.601581 0.000000 0.487213
O O16 0.175370 0.500000 0.200261
#
# Coordination Sequence:
#
# PCOD9221481 Si02
#       7
#     8   8   8   8   2   8   8
#     4  11  25  40  62  94 127 162 207 263 319 375
#     4  11  24  40  64  94 126 167 212 262 314 373
#     4  11  23  40  64  91 125 170 211 257 315 384
#     4  12  23  37  62  91 133 167 205 258 317 379
#     4  12  28  36  54 106 136 172 202 264 330 384
#     4  11  24  43  65  92 126 166 217 260 310 378
#     4  11  23  41  63  94 129 167 213 258 316 382
#
# _framework density 18.731718000000001
#
# number of rings (size 3 to 8) (size 9 to 14) (size 15 to 20)
#    0.000    0.800    4.800    2.400    3.360    3.840 
#    0.000    0.800    0.000    0.000    0.000    0.000 
#    0.000    0.000    0.000    0.000    0.000    0.000 
#
# Total GULP energy -139393.312953 kJ/mol
# GULP energy per Si atom -5575.732518 kJ/mol
# Density = 1.868908 g / cm^3
# Si number density = 18.731718 Si / 1000 Ang^3
#
#
#
# Elastic Constant Matrix: (Units=GPa)
#
#
# Indices 1 2 3 4 5 6 
#
# 1 61.0735 51.0073 21.1954 0.0000 5.4806 0.0000
# 2 51.0073 149.5742 56.7615 0.0000 7.8592 0.0000
# 3 21.1954 56.7615 70.3755 0.0000 14.3444 0.0000
# 4 0.0000 0.0000 0.0000 33.9831 0.0000 5.3930
# 5 5.4806 7.8592 14.3444 0.0000 25.7715 0.0000
# 6 0.0000 0.0000 0.0000 5.3930 0.0000 -3.0420
#
#
#
# Elastic Compliance Matrix: (Units=1/GPa)
#
#
# Indices 1 2 3 4 5 6 
#
# 1 0.023062 -0.007621 -0.000308 0.000000 -0.002409 0.000000
# 2 -0.007621 0.012209 -0.008035 0.000000 0.002370 0.000000
# 3 -0.000308 -0.008035 0.022864 0.000000 -0.010210 0.000000
# 4 0.000000 0.000000 0.000000 0.022965 0.000000 0.040714
# 5 -0.002409 0.002370 -0.010210 0.000000 0.044275 0.000000
# 6 0.000000 0.000000 0.000000 0.040714 0.000000 -0.256550
#
#
# Mechanical properties :
#
#
# Convention : Reuss Voigt Hill
#
# Bulk Modulus (GPa) = 38.15785 59.88351 49.02068
# Shear Modulus (GPa) = -55.24169 21.47979 -16.88095
#
# Velocity S-wave (km/s) = -5.43645 3.38998 -3.00525
# Velocity P-wave (km/s) = 4.35795 6.88194 3.76625
#
# Compressibility (1/GPa) = 0.02620692
#
# Stress axis : x y z
#
# Youngs Moduli (GPa) = 43.36204 81.90506 43.73670
#
# Poissons Ratio (x) = 0.62420 0.01347
# Poissons Ratio (y) = 0.33046 0.35143
# Poissons Ratio (z) = 0.01335 0.65812
#
# Static dielectric constant tensor:
#      x y z
#    x 1.631380 0.000000 0.002550 
#    y 0.000000 1.655680 0.000000 
#    z 0.002550 0.000000 1.638240 
# 
# From -- ./inp_files/181213.got.cif
#   From: 2010.05.17/outbox.cif.g08.bks.cpg/sg12_91_cif.got.tgz:181213.got - 2010.06.03 13:09:07.
