data_PCOD9221445
_publ_section_title
;
Structure prediction by ZEFSAII (Michael W. Deem and Ramdas Pophale) SiO2 
 PCOD9221445
Probable space group: C 2/M
;
_chemical_formula_sum "Si O2"
_cell_formula_units_Z 56
_cell_length_a 17.422248
_cell_length_b 32.201799
_cell_length_c 7.891424
_cell_angle_alpha 90.000000
_cell_angle_beta 34.378670
_cell_angle_gamma 90.000000
_cell_volume 2499.922634
_symmetry_space_group_name_H-M "C 2/M"
_symmetry_group_IT_number 12
_symmetry_cell_setting 'monoclinic'
loop_
_space_group_symop_operation_xyz
x,y,z
-x,y,-z
-x,-y,-z
x,-y,z
1/2+x,1/2+y,z
1/2-x,1/2+y,-z
1/2-x,1/2-y,-z
1/2+x,1/2-y,z
loop_
_atom_site_type_symbol
_atom_site_label
_atom_site_fract_x
_atom_site_fract_y
_atom_site_fract_z
Si Si1 0.929113 0.799329 0.881169
Si Si2 0.099320 0.500000 0.653238
Si Si3 0.191684 0.165542 0.240526
Si Si4 0.271141 0.587667 0.675406
Si Si5 0.022121 0.703920 0.251800
Si Si6 0.280764 0.151639 0.536707
Si Si7 0.969636 0.584895 0.364468
Si Si8 0.127961 0.000000 0.640563
O O1 0.839212 0.812759 0.881447
O O2 0.935035 0.749962 0.882255
O O3 0.080962 0.814016 0.564530
O O4 0.854065 0.824168 0.163716
O O5 0.245172 0.500000 0.467494
O O6 0.085745 0.539330 0.559495
O O7 0.000000 0.500000 0.000000
O O8 0.170832 0.115975 0.277554
O O9 0.345918 0.175083 0.011916
O O10 0.266405 0.621453 0.531622
O O11 0.349065 0.544148 0.501699
O O12 0.111022 0.581790 0.003732
O O13 0.000000 0.704772 0.500000
O O14 0.899161 0.687215 0.356312
O O15 0.356399 0.116833 0.510960
O O16 0.000000 0.596005 0.500000
O O17 0.000000 0.000000 0.000000
#
# Coordination Sequence:
#
# PCOD9221445 Si02
#       8
#     8   4   8   8   8   8   8   4
#     4  11  24  42  65  99 142 191 238 295 357 429
#     4  12  21  44  73 107 143 181 229 300 359 425
#     4  11  23  39  68  99 135 188 240 295 352 425
#     4  12  26  47  72 105 146 183 245 296 364 427
#     4  12  21  42  71 100 137 191 246 292 364 423
#     4  12  24  40  71 101 140 186 239 300 359 423
#     4  12  23  42  74 109 134 182 244 303 357 426
#     4  12  28  48  74 102 150 200 220 280 368 436
#
# _framework density 22.400691999999999
#
# number of rings (size 3 to 8) (size 9 to 14) (size 15 to 20)
#    0.000    0.286    7.143    3.214    2.000    0.000 
#    0.000    4.286    0.000    2.571    0.000    0.000 
#    0.000    0.000    0.000    0.000    0.000    0.000 
#
# Total GULP energy -156211.079336 kJ/mol
# GULP energy per Si atom -5578.967119 kJ/mol
# Density = 2.234971 g / cm^3
# Si number density = 22.400692 Si / 1000 Ang^3
#
#
#
# Elastic Constant Matrix: (Units=GPa)
#
#
# Indices 1 2 3 4 5 6 
#
# 1 25.2176 -0.1722 -8.5853 0.0000 -1.4351 0.0000
# 2 -0.1722 193.9301 30.6316 0.0000 9.5654 0.0000
# 3 -8.5853 30.6316 105.2159 0.0000 -19.4937 0.0000
# 4 0.0000 0.0000 0.0000 73.1482 0.0000 -40.8462
# 5 -1.4351 9.5654 -19.4937 0.0000 19.9179 0.0000
# 6 0.0000 0.0000 0.0000 -40.8462 0.0000 33.6711
#
#
#
# Elastic Compliance Matrix: (Units=1/GPa)
#
#
# Indices 1 2 3 4 5 6 
#
# 1 0.042017 -0.001268 0.005462 0.000000 0.008982 0.000000
# 2 -0.001268 0.005894 -0.002884 0.000000 -0.005744 0.000000
# 3 0.005462 -0.002884 0.013582 0.000000 0.015071 0.000000
# 4 0.000000 0.000000 0.000000 0.042377 0.000000 0.051407
# 5 0.008982 -0.005744 0.015071 0.000000 0.068362 0.000000
# 6 0.000000 0.000000 0.000000 0.051407 0.000000 0.092061
#
#
# Mechanical properties :
#
#
# Convention : Reuss Voigt Hill
#
# Bulk Modulus (GPa) = 15.59769 40.90132 28.24950
# Shear Modulus (GPa) = 17.66512 45.51339 31.58926
#
# Velocity S-wave (km/s) = 2.81124 4.51242 3.75933
# Velocity P-wave (km/s) = 4.18517 6.74150 5.61086
#
# Compressibility (1/GPa) = 0.06411207
#
# Stress axis : x y z
#
# Youngs Moduli (GPa) = 23.79997 169.65815 73.62835
#
# Poissons Ratio (x) = 0.21520 -0.40215
# Poissons Ratio (y) = 0.03019 0.21233
# Poissons Ratio (z) = -0.12999 0.48925
#
# Static dielectric constant tensor:
#      x y z
#    x 1.913000 0.000000 0.072030 
#    y 0.000000 1.818400 0.000000 
#    z 0.072030 0.000000 1.863720 
# 
# From -- ./inp_files/91586.got.cif
#   From: 2010.05.17/outbox.cif.g08.bks.cpg/sg12_46_cif.got.tgz:91586.got - 2010.06.03 13:09:07.
