data_PCOD9221794
_publ_section_title
;
Structure prediction by ZEFSAII (Michael W. Deem and Ramdas Pophale) SiO2 
 PCOD9221794
Probable space group: C 2/M
;
_chemical_formula_sum "Si O2"
_cell_formula_units_Z 44
_cell_length_a 7.952775
_cell_length_b 32.257865
_cell_length_c 11.650127
_cell_angle_alpha 90.000000
_cell_angle_beta 132.693266
_cell_angle_gamma 90.000000
_cell_volume 2196.690861
_symmetry_space_group_name_H-M "C 2/M"
_symmetry_group_IT_number 12
_symmetry_cell_setting 'monoclinic'
loop_
_space_group_symop_operation_xyz
x,y,z
-x,y,-z
-x,-y,-z
x,-y,z
1/2+x,1/2+y,z
1/2-x,1/2+y,-z
1/2-x,1/2-y,-z
1/2+x,1/2-y,z
loop_
_atom_site_type_symbol
_atom_site_label
_atom_site_fract_x
_atom_site_fract_y
_atom_site_fract_z
Si Si1 0.369170 0.730277 0.319099
Si Si2 0.903662 0.840448 0.170451
Si Si3 0.131110 0.383738 0.679124
Si Si4 0.100172 0.691705 0.823456
Si Si5 0.000000 0.400895 0.000000
Si Si6 0.225463 0.548837 0.892434
O O1 0.500000 0.735357 0.500000
O O2 0.490849 0.695672 0.295591
O O3 0.334900 0.773402 0.238566
O O4 0.121384 0.710784 0.220863
O O5 0.109550 0.869220 0.224600
O O6 0.787926 0.818744 0.006154
O O7 0.706415 0.870015 0.132622
O O8 0.041352 0.349960 0.728052
O O9 0.119372 0.428186 0.733518
O O10 0.000000 0.382245 0.500000
O O11 0.115449 0.428403 0.952780
O O12 0.180134 0.500000 0.877868
O O13 0.500000 0.554346 0.000000
#
# Coordination Sequence:
#
# PCOD9221794 Si02
#       6
#     8   8   8   8   4   8
#     4  12  24  39  58  93 134 174 221 278 338 383
#     4  12  23  41  67  94 129 174 231 271 325 394
#     4  12  24  43  68  96 134 175 219 280 341 394
#     4  12  23  41  59  91 127 177 229 270 327 394
#     4  12  21  44  70 102 132 168 228 270 327 384
#     4  11  23  43  72 103 135 173 219 271 332 407
#
# _framework density 20.030128999999999
#
# number of rings (size 3 to 8) (size 9 to 14) (size 15 to 20)
#    0.000    0.182    5.455    4.636    0.000    1.818 
#    0.000    0.000    0.000    1.091    0.000    0.000 
#    0.000    0.000    0.000    0.000    0.000    0.000 
#
# Total GULP energy -123064.849364 kJ/mol
# GULP energy per Si atom -5593.856789 kJ/mol
# Density = 1.998454 g / cm^3
# Si number density = 20.030129 Si / 1000 Ang^3
#
#
#
# Elastic Constant Matrix: (Units=GPa)
#
#
# Indices 1 2 3 4 5 6 
#
# 1 87.6381 46.2123 28.1116 0.0000 -14.3358 0.0000
# 2 46.2123 143.0874 64.6193 0.0000 -15.9001 0.0000
# 3 28.1116 64.6193 121.1011 0.0000 -22.8787 0.0000
# 4 0.0000 0.0000 0.0000 23.9462 0.0000 -18.3982
# 5 -14.3358 -15.9001 -22.8787 0.0000 27.3297 0.0000
# 6 0.0000 0.0000 0.0000 -18.3982 0.0000 41.8809
#
#
#
# Elastic Compliance Matrix: (Units=1/GPa)
#
#
# Indices 1 2 3 4 5 6 
#
# 1 0.014415 -0.003972 -0.000279 0.000000 0.005017 0.000000
# 2 -0.003972 0.010353 -0.004583 0.000000 0.000103 0.000000
# 3 -0.000279 -0.004583 0.012159 0.000000 0.007367 0.000000
# 4 0.000000 0.000000 0.000000 0.063036 0.000000 0.027692
# 5 0.005017 0.000103 0.007367 0.000000 0.045449 0.000000
# 6 0.000000 0.000000 0.000000 0.027692 0.000000 0.036042
#
#
# Mechanical properties :
#
#
# Convention : Reuss Voigt Hill
#
# Bulk Modulus (GPa) = 51.92133 69.96811 60.94472
# Shear Modulus (GPa) = 24.32595 32.82357 28.57476
#
# Velocity S-wave (km/s) = 3.48870 4.05249 3.78112
# Velocity P-wave (km/s) = 6.49661 7.54348 7.03954
#
# Compressibility (1/GPa) = 0.01925991
#
# Stress axis : x y z
#
# Youngs Moduli (GPa) = 69.37084 96.59419 82.24191
#
# Poissons Ratio (x) = 0.38369 0.02293
# Poissons Ratio (y) = 0.27555 0.37688
# Poissons Ratio (z) = 0.01935 0.44265
#
# Static dielectric constant tensor:
#      x y z
#    x 1.749220 0.000000 -0.002900 
#    y 0.000000 1.696460 0.000000 
#    z -0.002900 0.000000 1.666220 
# 
# From -- ./inp_files/125435.got.cif
#   From: 2010.05.17/outbox.cif.g08.bks.cpg/sg12_63_cif.got.tgz:125435.got - 2010.06.03 13:09:07.
