data_PCOD9221565
_publ_section_title
;
Structure prediction by ZEFSAII (Michael W. Deem and Ramdas Pophale) SiO2 
 PCOD9221565
Probable space group: C 2/M
;
_chemical_formula_sum "Si O2"
_cell_formula_units_Z 40
_cell_length_a 9.658962
_cell_length_b 25.413354
_cell_length_c 14.593218
_cell_angle_alpha 90.000000
_cell_angle_beta 29.758236
_cell_angle_gamma 90.000000
_cell_volume 1777.967941
_symmetry_space_group_name_H-M "C 2/M"
_symmetry_group_IT_number 12
_symmetry_cell_setting 'monoclinic'
loop_
_space_group_symop_operation_xyz
x,y,z
-x,y,-z
-x,-y,-z
x,-y,z
1/2+x,1/2+y,z
1/2-x,1/2+y,-z
1/2-x,1/2-y,-z
1/2+x,1/2-y,z
loop_
_atom_site_type_symbol
_atom_site_label
_atom_site_fract_x
_atom_site_fract_y
_atom_site_fract_z
Si Si1 0.815284 0.734620 0.796487
Si Si2 0.767362 0.893597 0.901781
Si Si3 0.632103 0.437304 0.523003
Si Si4 0.286478 0.310308 0.334167
Si Si5 0.685569 0.112779 0.146286
O O1 0.800973 0.727889 0.696746
O O2 0.855933 0.676912 0.820290
O O3 0.059487 0.774749 0.679948
O O4 0.500000 0.752364 0.000000
O O5 0.949272 0.922317 0.718342
O O6 0.968114 0.849814 0.829008
O O7 0.500000 0.873828 0.000000
O O8 0.654504 0.915325 0.063751
O O9 0.500000 0.419969 0.500000
O O10 0.654813 0.500000 0.507739
O O11 0.937224 0.411130 0.350044
O O12 0.000000 0.342861 0.500000
O O13 0.000000 0.102217 0.000000
#
# Coordination Sequence:
#
# PCOD9221565 Si02
#       5
#     8   8   8   8   8
#     4  11  23  41  64  95 138 181 224 276 329 399
#     4  12  25  44  73 102 135 188 227 276 346 410
#     4  11  26  47  72 104 136 173 232 290 344 414
#     4  12  25  41  64 100 138 180 229 278 331 403
#     4  11  24  46  71 102 145 179 223 283 344 406
#
# _framework density 22.497592000000001
#
# number of rings (size 3 to 8) (size 9 to 14) (size 15 to 20)
#    0.000    0.600    6.000    3.000    2.800    2.400 
#    0.000    1.000    0.000    0.000    0.000    0.000 
#    0.000    0.000    0.000    0.000    0.000    0.000 
#
# Total GULP energy -111379.228037 kJ/mol
# GULP energy per Si atom -5568.961402 kJ/mol
# Density = 2.244639 g / cm^3
# Si number density = 22.497592 Si / 1000 Ang^3
#
#
#
# Elastic Constant Matrix: (Units=GPa)
#
#
# Indices 1 2 3 4 5 6 
#
# 1 114.4609 3.8342 18.2351 -0.0003 -4.4541 -0.0004
# 2 3.8342 35.4609 20.4429 0.0001 -5.9374 0.0002
# 3 18.2351 20.4429 120.7404 -0.0013 -19.9751 -0.0021
# 4 -0.0003 0.0001 -0.0013 -20.9875 0.0005 -52.5254
# 5 -4.4541 -5.9374 -19.9751 0.0005 50.5598 0.0009
# 6 -0.0004 0.0002 -0.0021 -52.5254 0.0009 -45.8198
#
#
#
# Elastic Compliance Matrix: (Units=1/GPa)
#
#
# Indices 1 2 3 4 5 6 
#
# 1 0.008957 -0.000188 -0.001277 0.000000 0.000262 0.000000
# 2 -0.000188 0.031390 -0.005006 0.000000 0.001692 0.000000
# 3 -0.001277 -0.005006 0.009851 0.000000 0.003191 0.000000
# 4 0.000000 0.000000 0.000000 0.025494 0.000000 -0.029225
# 5 0.000262 0.001692 0.003191 0.000000 0.021261 0.000000
# 6 0.000000 0.000000 0.000000 -0.029225 0.000000 0.011677
#
#
# Mechanical properties :
#
#
# Convention : Reuss Voigt Hill
#
# Bulk Modulus (GPa) = 26.84328 39.52073 33.18201
# Shear Modulus (GPa) = 37.31580 11.96051 24.63815
#
# Velocity S-wave (km/s) = 4.07708 2.30822 3.31289
# Velocity P-wave (km/s) = 5.84132 4.97078 5.42354
#
# Compressibility (1/GPa) = 0.03725327
#
# Stress axis : x y z
#
# Youngs Moduli (GPa) = 111.64913 31.85751 101.51471
#
# Poissons Ratio (x) = 0.00599 0.12968
# Poissons Ratio (y) = 0.02100 0.50822
# Poissons Ratio (z) = 0.14263 0.15949
#
# Static dielectric constant tensor:
#      x y z
#    x 1.914760 0.000000 0.153920 
#    y 0.000000 1.812770 0.000000 
#    z 0.153920 0.000000 1.468560 
# 
# From -- ./inp_files/201113.got.cif
#   From: 2010.05.17/outbox.cif.g08.bks.cpg/sg12_101_cif.got.tgz:201113.got - 2010.06.03 13:09:07.
