data_PCOD9221284
_publ_section_title
;
Structure prediction by ZEFSAII (Michael W. Deem and Ramdas Pophale) SiO2 
 PCOD9221284
Probable space group: C 2/M
;
_chemical_formula_sum "Si O2"
_cell_formula_units_Z 64
_cell_length_a 20.614475
_cell_length_b 19.939206
_cell_length_c 17.494869
_cell_angle_alpha 90.000000
_cell_angle_beta 150.744722
_cell_angle_gamma 90.000000
_cell_volume 3514.265799
_symmetry_space_group_name_H-M "C 2/M"
_symmetry_group_IT_number 12
_symmetry_cell_setting 'monoclinic'
loop_
_space_group_symop_operation_xyz
x,y,z
-x,y,-z
-x,-y,-z
x,-y,z
1/2+x,1/2+y,z
1/2-x,1/2+y,-z
1/2-x,1/2-y,-z
1/2+x,1/2-y,z
loop_
_atom_site_type_symbol
_atom_site_label
_atom_site_fract_x
_atom_site_fract_y
_atom_site_fract_z
Si Si1 0.390610 0.922936 0.121674
Si Si2 0.941698 0.072799 0.682015
Si Si3 0.147293 0.926242 0.753946
Si Si4 0.030000 0.282147 0.237427
Si Si5 0.815156 0.923829 0.951208
Si Si6 0.115024 0.211025 0.053733
Si Si7 0.170663 0.197774 0.491915
Si Si8 0.857684 0.200062 0.361227
O O1 0.485210 0.858987 0.204577
O O2 0.445343 0.000000 0.178956
O O3 0.282108 0.921113 0.941944
O O4 0.305342 0.913692 0.112229
O O5 0.030204 0.076711 0.696062
O O6 0.048931 0.078708 0.859492
O O7 0.839998 0.132863 0.572876
O O8 0.877444 0.000000 0.620251
O O9 0.138241 0.866460 0.685752
O O10 0.143580 0.000000 0.713306
O O11 0.048219 0.244138 0.337329
O O12 0.180891 0.274712 0.362941
O O13 0.938207 0.244697 0.080571
O O14 0.830529 0.863326 0.908282
O O15 0.803280 0.000000 0.908204
O O16 0.235583 0.255434 0.208656
O O17 0.000000 0.209880 0.000000
O O18 0.156958 0.180783 0.565928
O O19 0.000000 0.235779 0.500000
#
# Coordination Sequence:
#
# PCOD9221284 Si02
#       8
#     8   8   8   8   8   8   8   8
#     4   9  19  37  62  89 115 152 202 244 288 358
#     4   9  17  33  56  84 116 148 194 242 289 347
#     4   9  18  33  55  84 117 153 191 237 288 346
#     4  11  23  39  60  81 122 161 195 241 301 357
#     4   9  20  38  64  91 111 146 204 252 292 353
#     4  12  24  41  63  87 121 162 198 243 304 359
#     4  11  23  37  54  87 121 156 199 243 296 352
#     4  12  24  36  57  90 123 155 203 250 291 352
#
# _framework density 18.211486000000001
#
# number of rings (size 3 to 8) (size 9 to 14) (size 15 to 20)
#    0.000    1.750    5.000    1.500    1.750    2.000 
#    0.000    0.000    0.000    3.375    0.000    0.000 
#    0.000    0.000    0.000    0.000    0.000    0.000 
#
# Total GULP energy -178341.257534 kJ/mol
# GULP energy per Si atom -5573.164298 kJ/mol
# Density = 1.817004 g / cm^3
# Si number density = 18.211486 Si / 1000 Ang^3
#
#
#
# Elastic Constant Matrix: (Units=GPa)
#
#
# Indices 1 2 3 4 5 6 
#
# 1 37.1267 28.1894 12.2968 0.0000 -1.5804 0.0000
# 2 28.1894 131.0503 42.0266 0.0000 -6.0009 0.0000
# 3 12.2968 42.0266 73.5974 0.0000 -1.0140 0.0000
# 4 0.0000 0.0000 0.0000 22.5613 0.0000 4.2611
# 5 -1.5804 -6.0009 -1.0140 0.0000 16.4980 0.0000
# 6 0.0000 0.0000 0.0000 4.2611 0.0000 21.0094
#
#
#
# Elastic Compliance Matrix: (Units=1/GPa)
#
#
# Indices 1 2 3 4 5 6 
#
# 1 0.032384 -0.006369 -0.001764 0.000000 0.000677 0.000000
# 2 -0.006369 0.010752 -0.005034 0.000000 0.002991 0.000000
# 3 -0.001764 -0.005034 0.016744 0.000000 -0.000971 0.000000
# 4 0.000000 0.000000 0.000000 0.046089 0.000000 -0.009348
# 5 0.000677 0.002991 -0.000971 0.000000 0.061707 0.000000
# 6 0.000000 0.000000 0.000000 -0.009348 0.000000 0.049494
#
#
# Mechanical properties :
#
#
# Convention : Reuss Voigt Hill
#
# Bulk Modulus (GPa) = 29.81179 45.19999 37.50589
# Shear Modulus (GPa) = 19.63198 22.63119 21.13158
#
# Velocity S-wave (km/s) = 3.28685 3.52900 3.41008
# Velocity P-wave (km/s) = 5.55066 6.44038 6.01200
#
# Compressibility (1/GPa) = 0.03354377
#
# Stress axis : x y z
#
# Youngs Moduli (GPa) = 30.87958 93.00476 59.72387
#
# Poissons Ratio (x) = 0.59235 0.10538
# Poissons Ratio (y) = 0.19667 0.30068
# Poissons Ratio (z) = 0.05449 0.46823
#
# Static dielectric constant tensor:
#      x y z
#    x 1.643290 0.000000 0.000910 
#    y 0.000000 1.670020 0.000000 
#    z 0.000910 0.000000 1.616180 
# 
# From -- ./inp_files/285213.got.cif
#   From: 2010.05.17/outbox.cif.g08.bks.cpg/sg12_143_cif.got.tgz:285213.got - 2010.06.03 13:09:07.
