data_PCOD9221790
_publ_section_title
;
Structure prediction by ZEFSAII (Michael W. Deem and Ramdas Pophale) SiO2 
 PCOD9221790
Probable space group: C 2/M
;
_chemical_formula_sum "Si O2"
_cell_formula_units_Z 40
_cell_length_a 10.193893
_cell_length_b 17.052214
_cell_length_c 12.514121
_cell_angle_alpha 90.000000
_cell_angle_beta 113.664680
_cell_angle_gamma 90.000000
_cell_volume 1992.388794
_symmetry_space_group_name_H-M "C 2/M"
_symmetry_group_IT_number 12
_symmetry_cell_setting 'monoclinic'
loop_
_space_group_symop_operation_xyz
x,y,z
-x,y,-z
-x,-y,-z
x,-y,z
1/2+x,1/2+y,z
1/2-x,1/2+y,-z
1/2-x,1/2-y,-z
1/2+x,1/2-y,z
loop_
_atom_site_type_symbol
_atom_site_label
_atom_site_fract_x
_atom_site_fract_y
_atom_site_fract_z
Si Si1 0.356373 0.409872 0.150854
Si Si2 0.794507 0.592360 0.124379
Si Si3 0.352870 0.318960 0.727882
Si Si4 0.875418 0.632302 0.749344
Si Si5 0.340403 0.089757 0.493270
O O1 0.407929 0.500000 0.166175
O O2 0.487197 0.352952 0.218709
O O3 0.233699 0.400726 0.199176
O O4 0.289020 0.392338 0.012975
O O5 0.779061 0.500000 0.145346
O O6 0.729319 0.644138 0.197557
O O7 0.962024 0.611105 0.167099
O O8 0.356925 0.225778 0.736534
O O9 0.268829 0.350493 0.596980
O O10 0.844907 0.598349 0.621899
O O11 0.500000 0.104667 0.500000
O O12 0.302067 0.000000 0.451739
#
# Coordination Sequence:
#
# PCOD9221790 Si02
#       5
#     8   8   8   8   8
#     4  11  25  42  65  98 133 169 215 269 318 371
#     4  11  23  44  69  92 129 181 221 249 308 399
#     4  12  25  42  66  99 132 165 214 271 325 376
#     4  12  25  42  66  99 132 165 214 271 325 376
#     4  11  23  43  71  93 122 173 223 259 312 395
#
# _framework density 20.076402999999999
#
# number of rings (size 3 to 8) (size 9 to 14) (size 15 to 20)
#    0.000    0.600    2.000    6.600    0.000    8.800 
#    0.000    2.000    0.000    0.000    0.000    0.000 
#    0.000    0.000    0.000    0.000    0.000    0.000 
#
# Total GULP energy -112017.824680 kJ/mol
# GULP energy per Si atom -5600.891234 kJ/mol
# Density = 2.003071 g / cm^3
# Si number density = 20.076403 Si / 1000 Ang^3
#
#
#
# Elastic Constant Matrix: (Units=GPa)
#
#
# Indices 1 2 3 4 5 6 
#
# 1 77.9588 -3.7001 0.8040 0.0000 -7.0020 0.0000
# 2 -3.7001 82.9260 14.1528 0.0000 21.1553 0.0000
# 3 0.8040 14.1528 51.8517 0.0000 9.5545 0.0000
# 4 0.0000 0.0000 0.0000 252.0637 0.0000 -47.0915
# 5 -7.0020 21.1553 9.5545 0.0000 33.7179 0.0000
# 6 0.0000 0.0000 0.0000 -47.0915 0.0000 52.9761
#
#
#
# Elastic Compliance Matrix: (Units=1/GPa)
#
#
# Indices 1 2 3 4 5 6 
#
# 1 0.013098 -0.000044 -0.000736 0.000000 0.002956 0.000000
# 2 -0.000044 0.014642 -0.002428 0.000000 -0.008508 0.000000
# 3 -0.000736 -0.002428 0.020793 0.000000 -0.004521 0.000000
# 4 0.000000 0.000000 0.000000 0.004757 0.000000 0.004229
# 5 0.002956 -0.008508 -0.004521 0.000000 0.036891 0.000000
# 6 0.000000 0.000000 0.000000 0.004229 0.000000 0.022636
#
#
# Mechanical properties :
#
#
# Convention : Reuss Voigt Hill
#
# Bulk Modulus (GPa) = 23.74332 26.13888 24.94110
# Shear Modulus (GPa) = 37.51728 81.18352 59.35040
#
# Velocity S-wave (km/s) = 4.32757 6.36593 5.44302
# Velocity P-wave (km/s) = 6.06816 8.19032 7.20777
#
# Compressibility (1/GPa) = 0.04211710
#
# Stress axis : x y z
#
# Youngs Moduli (GPa) = 76.34575 68.29775 48.09299
#
# Poissons Ratio (x) = 0.00302 0.03539
# Poissons Ratio (y) = 0.00337 0.11677
# Poissons Ratio (z) = 0.05617 0.16583
#
# Static dielectric constant tensor:
#      x y z
#    x 1.673250 0.000000 0.001280 
#    y 0.000000 1.678840 0.000000 
#    z 0.001280 0.000000 1.673200 
# 
# From -- ./inp_files/119147.got.cif
#   From: 2010.05.17/outbox.cif.g08.bks.cpg/sg12_60_cif.got.tgz:119147.got - 2010.06.03 13:09:07.
