data_PCOD9221704
_publ_section_title
;
Structure prediction by ZEFSAII (Michael W. Deem and Ramdas Pophale) SiO2 
 PCOD9221704
Probable space group: C 2/M
;
_chemical_formula_sum "Si O2"
_cell_formula_units_Z 40
_cell_length_a 19.423823
_cell_length_b 8.645754
_cell_length_c 11.833104
_cell_angle_alpha 90.000000
_cell_angle_beta 75.218062
_cell_angle_gamma 90.000000
_cell_volume 1921.407869
_symmetry_space_group_name_H-M "C 2/M"
_symmetry_group_IT_number 12
_symmetry_cell_setting 'monoclinic'
loop_
_space_group_symop_operation_xyz
x,y,z
-x,y,-z
-x,-y,-z
x,-y,z
1/2+x,1/2+y,z
1/2-x,1/2+y,-z
1/2-x,1/2-y,-z
1/2+x,1/2-y,z
loop_
_atom_site_type_symbol
_atom_site_label
_atom_site_fract_x
_atom_site_fract_y
_atom_site_fract_z
Si Si1 0.171482 0.816539 0.517419
Si Si2 0.039596 0.181637 0.155493
Si Si3 0.565925 0.179619 0.385901
Si Si4 0.678337 0.815124 0.974744
Si Si5 0.611647 0.183464 0.770926
O O1 0.250000 0.750000 0.500000
O O2 0.133943 0.736081 0.426896
O O3 0.128585 0.773342 0.649061
O O4 0.172683 0.000000 0.501026
O O5 0.051786 0.217333 0.282715
O O6 0.966749 0.268875 0.154045
O O7 0.030902 0.000000 0.138788
O O8 0.109091 0.244026 0.063372
O O9 0.500000 0.190975 0.500000
O O10 0.572722 0.000000 0.348250
O O11 0.668629 0.781569 0.845289
O O12 0.677092 0.000000 0.988446
O O13 0.750000 0.750000 0.000000
O O14 0.612724 0.000000 0.746873
#
# Coordination Sequence:
#
# PCOD9221704 Si02
#       5
#     8   8   8   8   8
#     4  12  26  43  67  98 136 176 218 269 328 391
#     4  12  25  42  69 100 133 172 219 270 327 395
#     4  11  23  42  69  98 133 173 218 269 324 387
#     4  11  26  46  69  96 132 172 219 274 330 389
#     4  11  24  45  69  96 131 173 222 272 326 387
#
# _framework density 20.818066999999999
#
# number of rings (size 3 to 8) (size 9 to 14) (size 15 to 20)
#    0.000    0.600    2.000    6.000    2.800    6.400 
#    0.000    0.000    0.000    0.000    0.000    0.000 
#    0.000    0.000    0.000    0.000    0.000    0.000 
#
# Total GULP energy -112013.246310 kJ/mol
# GULP energy per Si atom -5600.662316 kJ/mol
# Density = 2.077068 g / cm^3
# Si number density = 20.818067 Si / 1000 Ang^3
#
#
#
# Elastic Constant Matrix: (Units=GPa)
#
#
# Indices 1 2 3 4 5 6 
#
# 1 117.5145 1.0190 -0.4469 0.0000 16.6700 0.0000
# 2 1.0190 54.4568 -2.0825 0.0000 5.7125 0.0000
# 3 -0.4469 -2.0825 40.9015 0.0000 8.8422 0.0000
# 4 0.0000 0.0000 0.0000 32.2476 0.0000 0.6128
# 5 16.6700 5.7125 8.8422 0.0000 38.7628 0.0000
# 6 0.0000 0.0000 0.0000 0.6128 0.0000 39.0554
#
#
#
# Elastic Compliance Matrix: (Units=1/GPa)
#
#
# Indices 1 2 3 4 5 6 
#
# 1 0.009106 0.000309 0.001022 0.000000 -0.004195 0.000000
# 2 0.000309 0.018765 0.001668 0.000000 -0.003279 0.000000
# 3 0.001022 0.001668 0.025974 0.000000 -0.006610 0.000000
# 4 0.000000 0.000000 0.000000 0.031019 0.000000 -0.000487
# 5 -0.004195 -0.003279 -0.006610 0.000000 0.029593 0.000000
# 6 0.000000 0.000000 0.000000 -0.000487 0.000000 0.025612
#
#
# Mechanical properties :
#
#
# Convention : Reuss Voigt Hill
#
# Bulk Modulus (GPa) = 16.71077 23.31686 20.01381
# Shear Modulus (GPa) = 32.46332 36.30539 34.38436
#
# Velocity S-wave (km/s) = 3.95319 4.18058 4.06847
# Velocity P-wave (km/s) = 5.37414 5.87602 5.63067
#
# Compressibility (1/GPa) = 0.05984165
#
# Stress axis : x y z
#
# Youngs Moduli (GPa) = 109.81984 53.29039 38.49992
#
# Poissons Ratio (x) = -0.01645 -0.03935
# Poissons Ratio (y) = -0.03390 -0.06420
# Poissons Ratio (z) = -0.11224 -0.08887
#
# Static dielectric constant tensor:
#      x y z
#    x 1.671440 0.000000 0.015860 
#    y 0.000000 1.690500 0.000000 
#    z 0.015860 0.000000 1.749670 
# 
# From -- ./inp_files/151688.got.cif
#   From: 2010.05.17/outbox.cif.g08.bks.cpg/sg12_76_cif.got.tgz:151688.got - 2010.06.03 13:09:07.
