data_PCOD9221801
_publ_section_title
;
Structure prediction by ZEFSAII (Michael W. Deem and Ramdas Pophale) SiO2 
 PCOD9221801
Probable space group: C 2/M
;
_chemical_formula_sum "Si O2"
_cell_formula_units_Z 44
_cell_length_a 11.131863
_cell_length_b 23.550914
_cell_length_c 9.051643
_cell_angle_alpha 90.000000
_cell_angle_beta 63.803023
_cell_angle_gamma 90.000000
_cell_volume 2129.275361
_symmetry_space_group_name_H-M "C 2/M"
_symmetry_group_IT_number 12
_symmetry_cell_setting 'monoclinic'
loop_
_space_group_symop_operation_xyz
x,y,z
-x,y,-z
-x,-y,-z
x,-y,z
1/2+x,1/2+y,z
1/2-x,1/2+y,-z
1/2-x,1/2-y,-z
1/2+x,1/2-y,z
loop_
_atom_site_type_symbol
_atom_site_label
_atom_site_fract_x
_atom_site_fract_y
_atom_site_fract_z
Si Si1 0.308558 0.282278 0.323931
Si Si2 0.747605 0.000000 0.419923
Si Si3 0.000000 0.414466 0.500000
Si Si4 0.138449 0.934404 0.015874
Si Si5 0.135533 0.346637 0.192956
Si Si6 0.544055 0.604275 0.641721
Si Si7 0.500000 0.787880 0.000000
O O1 0.250000 0.250000 0.500000
O O2 0.190690 0.298906 0.273885
O O3 0.383179 0.339936 0.334214
O O4 0.413317 0.247842 0.165091
O O5 0.632354 0.951504 0.447636
O O6 0.859085 0.949830 0.392648
O O7 0.015020 0.376392 0.345468
O O8 0.092182 0.912069 0.198512
O O9 0.184565 0.000000 0.987275
O O10 0.248236 0.893218 0.890405
O O11 0.000000 0.932277 0.000000
O O12 0.095225 0.324515 0.054511
O O13 0.500000 0.615034 0.500000
#
# Coordination Sequence:
#
# PCOD9221801 Si02
#       7
#     8   4   4   8   8   8   4
#     4  12  27  48  74 101 144 192 241 294 359 425
#     4  11  23  44  71 110 143 183 234 296 359 430
#     4  11  24  44  76 100 148 192 230 283 368 437
#     4  11  23  43  74 104 139 184 237 293 358 419
#     4  12  26  48  72 104 145 187 242 293 357 428
#     4  12  26  45  75 108 139 182 242 297 353 426
#     4  12  30  48  71 107 144 190 244 302 354 422
#
# _framework density 20.664308999999999
#
# number of rings (size 3 to 8) (size 9 to 14) (size 15 to 20)
#    0.000    0.364    4.545    3.000   10.182    0.000 
#    0.000    0.455    0.000    0.000    0.000    0.000 
#    0.000    0.000    0.000    0.000    0.000    0.000 
#
# Total GULP energy -122516.790713 kJ/mol
# GULP energy per Si atom -5568.945032 kJ/mol
# Density = 2.061728 g / cm^3
# Si number density = 20.664309 Si / 1000 Ang^3
#
#
#
# Elastic Constant Matrix: (Units=GPa)
#
#
# Indices 1 2 3 4 5 6 
#
# 1 86.9034 54.1607 51.3660 0.0000 11.9142 0.0000
# 2 54.1607 141.1090 65.1436 0.0000 3.2613 0.0000
# 3 51.3660 65.1436 134.2375 0.0000 16.2952 0.0000
# 4 0.0000 0.0000 0.0000 -35.0512 0.0000 -22.9911
# 5 11.9142 3.2613 16.2952 0.0000 29.9643 0.0000
# 6 0.0000 0.0000 0.0000 -22.9911 0.0000 3.9079
#
#
#
# Elastic Compliance Matrix: (Units=1/GPa)
#
#
# Indices 1 2 3 4 5 6 
#
# 1 0.017325 -0.004809 -0.003772 0.000000 -0.004314 0.000000
# 2 -0.004809 0.010532 -0.003602 0.000000 0.002724 0.000000
# 3 -0.003772 -0.003602 0.011147 0.000000 -0.004170 0.000000
# 4 0.000000 0.000000 0.000000 -0.005871 0.000000 -0.034544
# 5 -0.004314 0.002724 -0.004170 0.000000 0.037060 0.000000
# 6 0.000000 0.000000 0.000000 -0.034544 0.000000 0.052664
#
#
# Mechanical properties :
#
#
# Convention : Reuss Voigt Hill
#
# Bulk Modulus (GPa) = 68.31079 78.17672 73.24376
# Shear Modulus (GPa) = 32.87296 12.53617 22.70456
#
# Velocity S-wave (km/s) = 3.99282 2.46571 3.31831
# Velocity P-wave (km/s) = 7.37468 6.78382 7.08541
#
# Compressibility (1/GPa) = 0.01463898
#
# Stress axis : x y z
#
# Youngs Moduli (GPa) = 57.72051 94.94718 89.70976
#
# Poissons Ratio (x) = 0.45655 0.33840
# Poissons Ratio (y) = 0.27755 0.32312
# Poissons Ratio (z) = 0.21773 0.34199
#
# Static dielectric constant tensor:
#      x y z
#    x 1.713420 0.000000 0.008820 
#    y 0.000000 1.746400 0.000000 
#    z 0.008820 0.000000 1.825070 
# 
# From -- ./inp_files/51260.got.cif
#   From: 2010.05.17/outbox.cif.g08.bks.cpg/sg12_26_cif.got.tgz:51260.got - 2010.06.03 13:09:07.
