data_PCOD9221480
_publ_section_title
;
Structure prediction by ZEFSAII (Michael W. Deem and Ramdas Pophale) SiO2 
 PCOD9221480
Probable space group: C 2/M
;
_chemical_formula_sum "Si O2"
_cell_formula_units_Z 32
_cell_length_a 27.467260
_cell_length_b 8.962568
_cell_length_c 16.598631
_cell_angle_alpha 90.000000
_cell_angle_beta 22.776490
_cell_angle_gamma 90.000000
_cell_volume 1581.922039
_symmetry_space_group_name_H-M "C 2/M"
_symmetry_group_IT_number 12
_symmetry_cell_setting 'monoclinic'
loop_
_space_group_symop_operation_xyz
x,y,z
-x,y,-z
-x,-y,-z
x,-y,z
1/2+x,1/2+y,z
1/2-x,1/2+y,-z
1/2-x,1/2-y,-z
1/2+x,1/2-y,z
loop_
_atom_site_type_symbol
_atom_site_label
_atom_site_fract_x
_atom_site_fract_y
_atom_site_fract_z
Si Si1 0.291041 0.500000 0.788762
Si Si2 0.629461 0.661927 0.852073
Si Si3 0.086955 0.238023 0.097016
Si Si4 0.681475 0.323099 0.528168
Si Si5 0.955733 0.000000 0.699500
O O1 0.371298 0.500000 0.748688
O O2 0.398275 0.500000 0.554348
O O3 0.195433 0.360537 0.935856
O O4 0.681049 0.500000 0.746980
O O5 0.719480 0.797877 0.693876
O O6 0.500000 0.680986 0.000000
O O7 0.611756 0.657048 0.974227
O O8 0.079024 0.138880 0.189692
O O9 0.940265 0.276167 0.306804
O O10 0.651914 0.500000 0.583022
O O11 0.750000 0.250000 0.500000
#
# Coordination Sequence:
#
# PCOD9221480 Si02
#       5
#     4   8   8   8   4
#     4  11  28  46  79 104 132 186 242 298 363 417
#     4  11  23  40  63  97 140 191 230 275 348 421
#     4  12  24  45  70 103 140 182 230 291 355 413
#     4  12  25  41  65  99 145 191 235 287 341 418
#     4  11  24  54  73 103 140 177 241 305 356 419
#
# _framework density 20.228558
#
# number of rings (size 3 to 8) (size 9 to 14) (size 15 to 20)
#    0.000    0.500    5.000    3.000    5.250    0.500 
#    0.000    0.000    0.000    6.000    0.000    0.000 
#    0.000    0.000    0.000    0.000    0.000    0.000 
#
# Total GULP energy -89199.077599 kJ/mol
# GULP energy per Si atom -5574.942350 kJ/mol
# Density = 2.018252 g / cm^3
# Si number density = 20.228558 Si / 1000 Ang^3
#
#
#
# Elastic Constant Matrix: (Units=GPa)
#
#
# Indices 1 2 3 4 5 6 
#
# 1 138.8009 58.0924 65.9660 0.0000 0.2821 0.0000
# 2 58.0924 101.5765 85.5058 0.0000 -7.5314 0.0000
# 3 65.9660 85.5058 147.7915 0.0000 -2.8276 0.0000
# 4 0.0000 0.0000 0.0000 38.9580 0.0000 2.6628
# 5 0.2821 -7.5314 -2.8276 0.0000 48.4368 0.0000
# 6 0.0000 0.0000 0.0000 2.6628 0.0000 30.8212
#
#
#
# Elastic Compliance Matrix: (Units=1/GPa)
#
#
# Indices 1 2 3 4 5 6 
#
# 1 0.009859 -0.003859 -0.002183 0.000000 -0.000785 0.000000
# 2 -0.003859 0.020970 -0.010359 0.000000 0.002678 0.000000
# 3 -0.002183 -0.010359 0.013718 0.000000 -0.000797 0.000000
# 4 0.000000 0.000000 0.000000 0.025821 0.000000 -0.002231
# 5 -0.000785 0.002678 -0.000797 0.000000 0.021020 0.000000
# 6 0.000000 0.000000 0.000000 -0.002231 0.000000 0.032638
#
#
# Mechanical properties :
#
#
# Convention : Reuss Voigt Hill
#
# Bulk Modulus (GPa) = 85.13335 89.69970 87.41652
# Shear Modulus (GPa) = 31.10554 35.55018 33.32786
#
# Velocity S-wave (km/s) = 3.92561 4.19671 4.06342
# Velocity P-wave (km/s) = 7.91987 8.24152 8.08229
#
# Compressibility (1/GPa) = 0.01174628
#
# Stress axis : x y z
#
# Youngs Moduli (GPa) = 101.43396 47.68634 72.89461
#
# Poissons Ratio (x) = 0.18403 0.15911
# Poissons Ratio (y) = 0.39144 0.75510
# Poissons Ratio (z) = 0.22140 0.49397
#
# Static dielectric constant tensor:
#      x y z
#    x 1.733610 0.000000 0.037630 
#    y 0.000000 1.734280 0.000000 
#    z 0.037630 0.000000 1.810300 
# 
# From -- ./inp_files/266791.got.cif
#   From: 2010.05.17/outbox.cif.g08.bks.cpg/sg12_134_cif.got.tgz:266791.got - 2010.06.03 13:09:07.
