data_PCOD9221604
_publ_section_title
;
Structure prediction by ZEFSAII (Michael W. Deem and Ramdas Pophale) SiO2 
 PCOD9221604
Probable space group: C 2/M
;
_chemical_formula_sum "Si O2"
_cell_formula_units_Z 40
_cell_length_a 23.720332
_cell_length_b 8.663588
_cell_length_c 9.595672
_cell_angle_alpha 90.000000
_cell_angle_beta 74.841304
_cell_angle_gamma 90.000000
_cell_volume 1903.327953
_symmetry_space_group_name_H-M "C 2/M"
_symmetry_group_IT_number 12
_symmetry_cell_setting 'monoclinic'
loop_
_space_group_symop_operation_xyz
x,y,z
-x,y,-z
-x,-y,-z
x,-y,z
1/2+x,1/2+y,z
1/2-x,1/2+y,-z
1/2-x,1/2-y,-z
1/2+x,1/2-y,z
loop_
_atom_site_type_symbol
_atom_site_label
_atom_site_fract_x
_atom_site_fract_y
_atom_site_fract_z
Si Si1 0.825631 0.682463 0.586160
Si Si2 0.640208 0.683982 0.725748
Si Si3 0.768018 0.316145 0.137993
Si Si4 0.011553 0.319259 0.828550
Si Si5 0.442281 0.319338 0.632223
O O1 0.814711 0.500000 0.587528
O O2 0.825703 0.752607 0.431364
O O3 0.779703 0.762141 0.718300
O O4 0.889583 0.718795 0.607338
O O5 0.641498 0.500000 0.724747
O O6 0.671001 0.749419 0.843850
O O7 0.574071 0.743341 0.757263
O O8 0.771047 0.500000 0.129562
O O9 0.750000 0.250000 0.000000
O O10 0.013016 0.500000 0.788260
O O11 0.961953 0.233971 0.772122
O O12 0.000000 0.307498 0.000000
O O13 0.500000 0.300601 0.500000
O O14 0.425509 0.500000 0.639876
#
# Coordination Sequence:
#
# PCOD9221604 Si02
#       5
#     8   8   8   8   8
#     4  12  25  44  71 100 134 176 223 274 331 394
#     4  12  25  45  70  99 134 175 225 275 331 395
#     4  12  27  48  71  99 134 173 221 275 334 394
#     4  11  25  43  66  98 136 177 223 273 332 396
#     4  11  23  41  67 100 135 173 222 272 328 394
#
# _framework density 21.015820000000001
#
# number of rings (size 3 to 8) (size 9 to 14) (size 15 to 20)
#    0.000    0.400    2.000    7.200    2.800    2.400 
#    0.000    0.000    0.000    0.000    0.000    0.000 
#    0.000    0.000    0.000    0.000    0.000    0.000 
#
# Total GULP energy -112076.789774 kJ/mol
# GULP energy per Si atom -5603.839489 kJ/mol
# Density = 2.096799 g / cm^3
# Si number density = 21.015820 Si / 1000 Ang^3
#
#
#
# Elastic Constant Matrix: (Units=GPa)
#
#
# Indices 1 2 3 4 5 6 
#
# 1 60.1142 -8.3230 14.6055 0.0000 14.0849 0.0000
# 2 -8.3230 88.4222 21.2570 0.0000 -6.4416 0.0000
# 3 14.6055 21.2570 84.1448 0.0000 18.1472 0.0000
# 4 0.0000 0.0000 0.0000 36.2780 0.0000 2.6785
# 5 14.0849 -6.4416 18.1472 0.0000 34.6491 0.0000
# 6 0.0000 0.0000 0.0000 2.6785 0.0000 39.4769
#
#
#
# Elastic Compliance Matrix: (Units=1/GPa)
#
#
# Indices 1 2 3 4 5 6 
#
# 1 0.018917 0.001935 -0.002471 0.000000 -0.006036 0.000000
# 2 0.001935 0.012841 -0.004425 0.000000 0.003918 0.000000
# 3 -0.002471 -0.004425 0.015097 0.000000 -0.007725 0.000000
# 4 0.000000 0.000000 0.000000 0.027704 0.000000 -0.001880
# 5 -0.006036 0.003918 -0.007725 0.000000 0.036089 0.000000
# 6 0.000000 0.000000 0.000000 -0.001880 0.000000 0.025459
#
#
# Mechanical properties :
#
#
# Convention : Reuss Voigt Hill
#
# Bulk Modulus (GPa) = 27.07515 31.97334 29.52424
# Shear Modulus (GPa) = 31.57786 35.75693 33.66740
#
# Velocity S-wave (km/s) = 3.88051 4.12931 4.00684
# Velocity P-wave (km/s) = 5.74361 6.16295 5.95697
#
# Compressibility (1/GPa) = 0.03693424
#
# Stress axis : x y z
#
# Youngs Moduli (GPa) = 52.86126 77.87767 66.23844
#
# Poissons Ratio (x) = -0.15068 0.16365
# Poissons Ratio (y) = -0.10228 0.29309
# Poissons Ratio (z) = 0.13060 0.34459
#
# Static dielectric constant tensor:
#      x y z
#    x 1.765170 0.000000 -0.001570 
#    y 0.000000 1.700280 0.000000 
#    z -0.001570 0.000000 1.739780 
# 
# From -- ./inp_files/92791.got.cif
#   From: 2010.05.17/outbox.cif.g08.bks.cpg/sg12_47_cif.got.tgz:92791.got - 2010.06.03 13:09:07.
