data_PCOD9221588
_publ_section_title
;
Structure prediction by ZEFSAII (Michael W. Deem and Ramdas Pophale) SiO2 
 PCOD9221588
Probable space group: C 2/M
;
_chemical_formula_sum "Si O2"
_cell_formula_units_Z 40
_cell_length_a 26.942357
_cell_length_b 13.476061
_cell_length_c 5.131292
_cell_angle_alpha 90.000000
_cell_angle_beta 101.307891
_cell_angle_gamma 90.000000
_cell_volume 1826.887098
_symmetry_space_group_name_H-M "C 2/M"
_symmetry_group_IT_number 12
_symmetry_cell_setting 'monoclinic'
loop_
_space_group_symop_operation_xyz
x,y,z
-x,y,-z
-x,-y,-z
x,-y,z
1/2+x,1/2+y,z
1/2-x,1/2+y,-z
1/2-x,1/2-y,-z
1/2+x,1/2-y,z
loop_
_atom_site_type_symbol
_atom_site_label
_atom_site_fract_x
_atom_site_fract_y
_atom_site_fract_z
Si Si1 0.795767 0.324315 0.076689
Si Si2 0.121409 0.391571 0.193932
Si Si3 0.466738 0.826328 0.224867
Si Si4 0.389168 0.711757 0.424526
Si Si5 0.660457 0.500000 0.626770
Si Si6 0.733952 0.500000 0.215614
O O1 0.841135 0.257979 0.228749
O O2 0.771577 0.407671 0.231136
O O3 0.750000 0.250000 0.000000
O O4 0.821901 0.376525 0.855915
O O5 0.117292 0.500000 0.321921
O O6 0.106974 0.291415 0.335311
O O7 0.081189 0.391551 0.914413
O O8 0.500000 0.866970 0.500000
O O9 0.440000 0.727134 0.309503
O O10 0.500000 0.813618 0.000000
O O11 0.373920 0.598146 0.449256
O O12 0.702583 0.500000 0.446351
O O13 0.692389 0.500000 0.933245
#
# Coordination Sequence:
#
# PCOD9221588 Si02
#       6
#     8   8   8   8   4   4
#     4  11  23  41  66 101 146 190 237 283 343 411
#     4  11  25  43  71 109 145 185 232 294 355 424
#     4  11  24  49  75 102 143 181 233 294 364 435
#     4  11  26  45  73 104 146 186 239 296 351 421
#     4  12  28  46  70 104 143 191 244 290 346 413
#     4  12  26  42  68 101 143 194 236 284 344 415
#
# _framework density 21.89517
#
# number of rings (size 3 to 8) (size 9 to 14) (size 15 to 20)
#    0.000    0.800    5.000    1.200    7.000    3.200 
#    0.000    1.000    0.000    0.000    0.000    0.000 
#    0.000    0.000    0.000    0.000    0.000    0.000 
#
# Total GULP energy -111608.754028 kJ/mol
# GULP energy per Si atom -5580.437701 kJ/mol
# Density = 2.184534 g / cm^3
# Si number density = 21.895170 Si / 1000 Ang^3
#
#
#
# Elastic Constant Matrix: (Units=GPa)
#
#
# Indices 1 2 3 4 5 6 
#
# 1 129.4537 35.8323 40.6912 0.0000 -11.7628 0.0000
# 2 35.8323 174.5389 24.8494 0.0000 -10.3436 0.0000
# 3 40.6912 24.8494 106.1039 0.0000 -2.0506 0.0000
# 4 0.0000 0.0000 0.0000 19.0031 0.0000 -6.8504
# 5 -11.7628 -10.3436 -2.0506 0.0000 40.5034 0.0000
# 6 0.0000 0.0000 0.0000 -6.8504 0.0000 14.5188
#
#
#
# Elastic Compliance Matrix: (Units=1/GPa)
#
#
# Indices 1 2 3 4 5 6 
#
# 1 0.009301 -0.001321 -0.003215 0.000000 0.002201 0.000000
# 2 -0.001321 0.006200 -0.000923 0.000000 0.001153 0.000000
# 3 -0.003215 -0.000923 0.010862 0.000000 -0.000620 0.000000
# 4 0.000000 0.000000 0.000000 0.063408 0.000000 0.029918
# 5 0.002201 0.001153 -0.000620 0.000000 0.025592 0.000000
# 6 0.000000 0.000000 0.000000 0.029918 0.000000 0.082992
#
#
# Mechanical properties :
#
#
# Convention : Reuss Voigt Hill
#
# Bulk Modulus (GPa) = 64.74796 68.09360 66.42078
# Shear Modulus (GPa) = 23.31849 35.38663 29.35256
#
# Velocity S-wave (km/s) = 3.26698 4.02454 3.66539
# Velocity P-wave (km/s) = 6.62321 7.26383 6.95090
#
# Compressibility (1/GPa) = 0.01544450
#
# Stress axis : x y z
#
# Youngs Moduli (GPa) = 107.51453 161.27998 92.06486
#
# Poissons Ratio (x) = 0.21310 0.29599
# Poissons Ratio (y) = 0.14206 0.08499
# Poissons Ratio (z) = 0.34566 0.14888
#
# Static dielectric constant tensor:
#      x y z
#    x 1.794190 0.000000 0.017540 
#    y 0.000000 1.703930 0.000000 
#    z 0.017540 0.000000 1.925310 
# 
# From -- ./inp_files/27529.got.cif
#   From: 2010.05.17/outbox.cif.g08.bks.cpg/sg12_14_cif.got.tgz:27529.got - 2010.06.03 13:09:07.
