data_PCOD9221043
_publ_section_title
;
Structure prediction by ZEFSAII (Michael W. Deem and Ramdas Pophale) SiO2 
 PCOD9221043
Probable space group: C 2/M
;
_chemical_formula_sum "Si O2"
_cell_formula_units_Z 40
_cell_length_a 25.247095
_cell_length_b 15.671039
_cell_length_c 13.262841
_cell_angle_alpha 90.000000
_cell_angle_beta 158.692636
_cell_angle_gamma 90.000000
_cell_volume 1906.759865
_symmetry_space_group_name_H-M "C 2/M"
_symmetry_group_IT_number 12
_symmetry_cell_setting 'monoclinic'
loop_
_space_group_symop_operation_xyz
x,y,z
-x,y,-z
-x,-y,-z
x,-y,z
1/2+x,1/2+y,z
1/2-x,1/2+y,-z
1/2-x,1/2-y,-z
1/2+x,1/2-y,z
loop_
_atom_site_type_symbol
_atom_site_label
_atom_site_fract_x
_atom_site_fract_y
_atom_site_fract_z
Si Si1 0.414672 0.597992 0.942661
Si Si2 0.415726 0.333508 0.570130
Si Si3 0.609940 0.900207 0.987340
Si Si4 0.658387 0.190838 0.416817
Si Si5 0.092290 0.716548 0.754506
O O1 0.455983 0.500000 0.024220
O O2 0.251360 0.609493 0.616297
O O3 0.500000 0.638999 0.000000
O O4 0.465709 0.639470 0.136438
O O5 0.281185 0.396913 0.319785
O O6 0.341240 0.249863 0.484166
O O7 0.500529 0.300718 0.623799
O O8 0.566904 0.000000 0.903894
O O9 0.506655 0.846714 0.883252
O O10 0.600783 0.847501 0.865370
O O11 0.750000 0.250000 0.500000
O O12 0.000000 0.675604 0.500000
O O13 0.250000 0.750000 0.000000
#
# Coordination Sequence:
#
# PCOD9221043 Si02
#       5
#     8   8   8   8   8
#     4  11  23  40  61  92 131 170 214 266 323 385
#     4  11  23  41  69  92 132 176 220 271 327 398
#     4  11  25  43  66 101 136 170 222 286 337 388
#     4  11  22  41  64  91 127 178 226 264 319 396
#     4  11  23  45  72  98 129 176 226 273 335 412
#
# _framework density 20.977995
#
# number of rings (size 3 to 8) (size 9 to 14) (size 15 to 20)
#    0.000    1.000    4.000    3.600    2.800    0.400 
#    0.000    4.000    0.000    0.000    0.000    0.000 
#    0.000    0.000    0.000    0.000    0.000    0.000 
#
# Total GULP energy -111378.361720 kJ/mol
# GULP energy per Si atom -5568.918086 kJ/mol
# Density = 2.093025 g / cm^3
# Si number density = 20.977995 Si / 1000 Ang^3
#
#
#
# Elastic Constant Matrix: (Units=GPa)
#
#
# Indices 1 2 3 4 5 6 
#
# 1 102.5908 26.5209 33.8102 0.0000 19.7276 0.0000
# 2 26.5209 89.1847 20.8367 0.0000 14.0179 0.0000
# 3 33.8102 20.8367 109.0869 0.0000 19.4295 0.0000
# 4 0.0000 0.0000 0.0000 36.6101 0.0000 1.3763
# 5 19.7276 14.0179 19.4295 0.0000 34.0669 0.0000
# 6 0.0000 0.0000 0.0000 1.3763 0.0000 18.5459
#
#
#
# Elastic Compliance Matrix: (Units=1/GPa)
#
#
# Indices 1 2 3 4 5 6 
#
# 1 0.012040 -0.002276 -0.002473 0.000000 -0.004625 0.000000
# 2 -0.002276 0.012665 -0.001136 0.000000 -0.003246 0.000000
# 3 -0.002473 -0.001136 0.010922 0.000000 -0.004329 0.000000
# 4 0.000000 0.000000 0.000000 0.027391 0.000000 -0.002033
# 5 -0.004625 -0.003246 -0.004329 0.000000 0.035837 0.000000
# 6 0.000000 0.000000 0.000000 -0.002033 0.000000 0.054071
#
#
# Mechanical properties :
#
#
# Convention : Reuss Voigt Hill
#
# Bulk Modulus (GPa) = 41.91522 51.46646 46.69084
# Shear Modulus (GPa) = 28.96066 32.49089 30.72578
#
# Velocity S-wave (km/s) = 3.71957 3.93976 3.83125
# Velocity P-wave (km/s) = 6.20249 6.72922 6.47122
#
# Compressibility (1/GPa) = 0.02385768
#
# Stress axis : x y z
#
# Youngs Moduli (GPa) = 83.05470 78.95841 91.56163
#
# Poissons Ratio (x) = 0.17968 0.22646
# Poissons Ratio (y) = 0.18900 0.10399
# Poissons Ratio (z) = 0.20542 0.08967
#
# Static dielectric constant tensor:
#      x y z
#    x 1.763820 0.000000 0.058050 
#    y 0.000000 1.750450 0.000000 
#    z 0.058050 0.000000 1.719640 
# 
# From -- ./inp_files/246462.got.cif
#   From: 2010.05.17/outbox.cif.g08.bks.cpg/sg12_124_cif.got.tgz:246462.got - 2010.06.03 13:09:07.
