data_PCOD9221032
_publ_section_title
;
Structure prediction by ZEFSAII (Michael W. Deem and Ramdas Pophale) SiO2 
 PCOD9221032
Probable space group: C 2/M
;
_chemical_formula_sum "Si O2"
_cell_formula_units_Z 52
_cell_length_a 19.190266
_cell_length_b 29.936051
_cell_length_c 9.159924
_cell_angle_alpha 90.000000
_cell_angle_beta 147.079621
_cell_angle_gamma 90.000000
_cell_volume 2859.864058
_symmetry_space_group_name_H-M "C 2/M"
_symmetry_group_IT_number 12
_symmetry_cell_setting 'monoclinic'
loop_
_space_group_symop_operation_xyz
x,y,z
-x,y,-z
-x,-y,-z
x,-y,z
1/2+x,1/2+y,z
1/2-x,1/2+y,-z
1/2-x,1/2-y,-z
1/2+x,1/2-y,z
loop_
_atom_site_type_symbol
_atom_site_label
_atom_site_fract_x
_atom_site_fract_y
_atom_site_fract_z
Si Si1 0.500000 0.883901 0.500000
Si Si2 0.302413 0.949130 0.589736
Si Si3 0.365044 0.715769 0.678938
Si Si4 0.251178 0.176436 0.107297
Si Si5 0.427745 0.948509 0.106492
Si Si6 0.630158 0.271860 0.643641
Si Si7 0.859911 0.871379 0.821051
O O1 0.618077 0.852039 0.662395
O O2 0.447740 0.915290 0.276758
O O3 0.438647 0.949412 0.746981
O O4 0.216250 0.915958 0.345670
O O5 0.253795 0.000000 0.505318
O O6 0.325756 0.935527 0.800367
O O7 0.250000 0.750000 0.500000
O O8 0.400284 0.713504 0.572120
O O9 0.306581 0.669262 0.630855
O O10 0.500000 0.724925 0.000000
O O11 0.282468 0.227202 0.214941
O O12 0.155310 0.148412 0.042507
O O13 0.196802 0.188243 0.851611
O O14 0.401051 0.000000 0.106314
O O15 0.500000 0.259639 0.500000
O O16 0.000000 0.877570 0.000000
#
# Coordination Sequence:
#
# PCOD9221032 Si02
#       7
#     4   8   8   8   8   8   8
#     4  12  21  36  60  94 120 148 208 246 293 366
#     4   9  19  38  61  89 119 155 198 243 306 366
#     4  11  24  40  62  89 121 158 208 253 303 357
#     4  11  24  38  58  90 116 159 204 240 300 359
#     4   9  19  36  60  88 123 154 185 249 314 356
#     4  11  23  42  60  79 124 162 197 248 305 355
#     4  11  22  41  60  86 121 157 206 250 293 363
#
# _framework density 18.182680999999999
#
# number of rings (size 3 to 8) (size 9 to 14) (size 15 to 20)
#    0.000    1.538    3.846    3.000    4.308    0.308 
#    2.769    0.000    0.000    0.000    0.000    2.154 
#    0.000    0.000    0.000    0.000    0.000    0.000 
#
# Total GULP energy -144869.986448 kJ/mol
# GULP energy per Si atom -5571.922556 kJ/mol
# Density = 1.814130 g / cm^3
# Si number density = 18.182681 Si / 1000 Ang^3
#
#
#
# Elastic Constant Matrix: (Units=GPa)
#
#
# Indices 1 2 3 4 5 6 
#
# 1 76.5936 22.6088 32.6550 0.0000 -15.3841 0.0000
# 2 22.6088 88.5308 42.4964 0.0000 -12.0234 0.0000
# 3 32.6550 42.4964 78.3761 0.0000 -21.7254 0.0000
# 4 0.0000 0.0000 0.0000 32.9172 0.0000 -1.3683
# 5 -15.3841 -12.0234 -21.7254 0.0000 40.4916 0.0000
# 6 0.0000 0.0000 0.0000 -1.3683 0.0000 10.3375
#
#
#
# Elastic Compliance Matrix: (Units=1/GPa)
#
#
# Indices 1 2 3 4 5 6 
#
# 1 0.016270 -0.001207 -0.005298 0.000000 0.002980 0.000000
# 2 -0.001207 0.015360 -0.007857 0.000000 -0.000113 0.000000
# 3 -0.005298 -0.007857 0.021170 0.000000 0.007013 0.000000
# 4 0.000000 0.000000 0.000000 0.030547 0.000000 0.004043
# 5 0.002980 -0.000113 0.007013 0.000000 0.029558 0.000000
# 6 0.000000 0.000000 0.000000 0.004043 0.000000 0.097270
#
#
# Mechanical properties :
#
#
# Convention : Reuss Voigt Hill
#
# Bulk Modulus (GPa) = 41.53486 48.78010 45.15748
# Shear Modulus (GPa) = 20.24914 26.46528 23.35721
#
# Velocity S-wave (km/s) = 3.34076 3.81927 3.58800
# Velocity P-wave (km/s) = 6.14602 6.80699 6.48493
#
# Compressibility (1/GPa) = 0.02407616
#
# Stress axis : x y z
#
# Youngs Moduli (GPa) = 61.46433 65.10528 47.23582
#
# Poissons Ratio (x) = 0.07858 0.25026
# Poissons Ratio (y) = 0.07418 0.37112
# Poissons Ratio (z) = 0.32564 0.51151
#
# Static dielectric constant tensor:
#      x y z
#    x 1.627180 0.000000 -0.016510 
#    y 0.000000 1.627970 0.000000 
#    z -0.016510 0.000000 1.648440 
# 
# From -- ./inp_files/91506.got.cif
#   From: 2010.05.17/outbox.cif.g08.bks.cpg/sg12_46_cif.got.tgz:91506.got - 2010.06.03 13:09:07.
