data_PCOD9221191
_publ_section_title
;
Structure prediction by ZEFSAII (Michael W. Deem and Ramdas Pophale) SiO2 
 PCOD9221191
Probable space group: C 2/M
;
_chemical_formula_sum "Si O2"
_cell_formula_units_Z 40
_cell_length_a 18.107527
_cell_length_b 13.503992
_cell_length_c 11.074403
_cell_angle_alpha 90.000000
_cell_angle_beta 144.436361
_cell_angle_gamma 90.000000
_cell_volume 1574.965863
_symmetry_space_group_name_H-M "C 2/M"
_symmetry_group_IT_number 12
_symmetry_cell_setting 'monoclinic'
loop_
_space_group_symop_operation_xyz
x,y,z
-x,y,-z
-x,-y,-z
x,-y,z
1/2+x,1/2+y,z
1/2-x,1/2+y,-z
1/2-x,1/2-y,-z
1/2+x,1/2-y,z
loop_
_atom_site_type_symbol
_atom_site_label
_atom_site_fract_x
_atom_site_fract_y
_atom_site_fract_z
Si Si1 0.061870 0.391232 0.935638
Si Si2 0.594233 0.189867 0.720702
Si Si3 0.163232 0.181977 0.124066
Si Si4 0.012219 0.893455 0.309891
Si Si5 0.761803 0.633745 0.508220
O O1 0.102935 0.500000 0.033311
O O2 0.908438 0.393085 0.719070
O O3 0.109017 0.371696 0.862080
O O4 0.110422 0.294342 0.072436
O O5 0.500000 0.140352 0.500000
O O6 0.724442 0.198736 0.822703
O O7 0.530526 0.296011 0.673081
O O8 0.213091 0.120968 0.305327
O O9 0.054494 0.123426 0.908511
O O10 0.160880 0.898186 0.475086
O O11 0.972276 0.000000 0.308751
O O12 0.750000 0.750000 0.500000
#
# Coordination Sequence:
#
# PCOD9221191 Si02
#       5
#     8   8   8   8   8
#     4  11  24  42  69 100 131 173 228 274 326 398
#     4  11  22  44  66  94 134 178 218 273 336 389
#     4  11  24  42  68  95 135 176 218 274 334 389
#     4  11  24  40  66  98 130 172 221 271 330 398
#     4  12  22  44  68  92 137 174 213 274 338 392
#
# _framework density 25.397373999999999
#
# number of rings (size 3 to 8) (size 9 to 14) (size 15 to 20)
#    0.000    0.800    6.000    3.600    0.000    6.400 
#    0.000    5.000    0.000    0.000    0.000    0.000 
#    0.000    0.000    0.000    0.000    0.000    0.000 
#
# Total GULP energy -111884.861840 kJ/mol
# GULP energy per Si atom -5594.243092 kJ/mol
# Density = 2.533957 g / cm^3
# Si number density = 25.397374 Si / 1000 Ang^3
#
#
#
# Elastic Constant Matrix: (Units=GPa)
#
#
# Indices 1 2 3 4 5 6 
#
# 1 153.6979 8.3215 27.3967 0.0000 24.4634 0.0000
# 2 8.3215 144.5944 -1.6986 0.0000 10.8192 0.0000
# 3 27.3967 -1.6986 98.8265 0.0000 11.4518 0.0000
# 4 0.0000 0.0000 0.0000 38.4447 0.0000 -3.8904
# 5 24.4634 10.8192 11.4518 0.0000 61.7319 0.0000
# 6 0.0000 0.0000 0.0000 -3.8904 0.0000 -3.9197
#
#
#
# Elastic Compliance Matrix: (Units=1/GPa)
#
#
# Indices 1 2 3 4 5 6 
#
# 1 0.007224 -0.000249 -0.001717 0.000000 -0.002501 0.000000
# 2 -0.000249 0.007023 0.000328 0.000000 -0.001193 0.000000
# 3 -0.001717 0.000328 0.010759 0.000000 -0.001373 0.000000
# 4 0.000000 0.000000 0.000000 0.023637 0.000000 -0.023461
# 5 -0.002501 -0.001193 -0.001373 0.000000 0.017654 0.000000
# 6 0.000000 0.000000 0.000000 -0.023461 0.000000 -0.231836
#
#
# Mechanical properties :
#
#
# Convention : Reuss Voigt Hill
#
# Bulk Modulus (GPa) = 46.01775 51.68419 48.85097
# Shear Modulus (GPa) = -32.25418 43.45800 5.60191
#
# Velocity S-wave (km/s) = -3.56755 4.14106 1.48677
# Velocity P-wave (km/s) = 1.09023 6.57715 4.71421
#
# Compressibility (1/GPa) = 0.02173074
#
# Stress axis : x y z
#
# Youngs Moduli (GPa) = 138.43098 142.38226 92.94117
#
# Poissons Ratio (x) = 0.03543 0.15959
# Poissons Ratio (y) = 0.03444 -0.03048
# Poissons Ratio (z) = 0.23770 -0.04669
#
# Static dielectric constant tensor:
#      x y z
#    x 2.041240 0.000000 -0.040470 
#    y 0.000000 1.941690 0.000000 
#    z -0.040470 0.000000 2.072720 
# 
# From -- ./inp_files/156335.got.cif
#   From: 2010.05.17/outbox.cif.g08.bks.cpg/sg12_79_cif.got.tgz:156335.got - 2010.06.03 13:09:07.
