data_PCOD9221880
_publ_section_title
;
Structure prediction by ZEFSAII (Michael W. Deem and Ramdas Pophale) SiO2 
 PCOD9221880
Probable space group: C 2/M
;
_chemical_formula_sum "Si O2"
_cell_formula_units_Z 48
_cell_length_a 15.611000
_cell_length_b 26.128507
_cell_length_c 9.549618
_cell_angle_alpha 90.000000
_cell_angle_beta 38.899527
_cell_angle_gamma 90.000000
_cell_volume 2446.025441
_symmetry_space_group_name_H-M "C 2/M"
_symmetry_group_IT_number 12
_symmetry_cell_setting 'monoclinic'
loop_
_space_group_symop_operation_xyz
x,y,z
-x,y,-z
-x,-y,-z
x,-y,z
1/2+x,1/2+y,z
1/2-x,1/2+y,-z
1/2-x,1/2-y,-z
1/2+x,1/2-y,z
loop_
_atom_site_type_symbol
_atom_site_label
_atom_site_fract_x
_atom_site_fract_y
_atom_site_fract_z
Si Si1 0.105297 0.793436 0.463880
Si Si2 0.264673 0.443223 0.805880
Si Si3 0.618611 0.840508 0.961556
Si Si4 0.549557 0.333836 0.087890
Si Si5 0.992094 0.942412 0.278722
Si Si6 0.133981 0.313934 0.262382
O O1 0.248132 0.820316 0.287279
O O2 0.131865 0.740663 0.346959
O O3 0.000000 0.824915 0.500000
O O4 0.026188 0.795322 0.709207
O O5 0.204272 0.500000 0.886428
O O6 0.152283 0.399456 0.953737
O O7 0.359520 0.439129 0.547188
O O8 0.373538 0.439108 0.793772
O O9 0.500000 0.834638 0.000000
O O10 0.610805 0.813055 0.123927
O O11 0.496933 0.391811 0.179191
O O12 0.500000 0.316972 0.000000
O O13 0.712782 0.333750 0.904755
O O14 0.992049 0.000000 0.215163
O O15 0.000000 0.341321 0.500000
#
# Coordination Sequence:
#
# PCOD9221880 Si02
#       6
#     8   8   8   8   8   8
#     4  11  23  46  68  87 127 174 221 269 318 383
#     4   9  17  34  65  98 127 167 216 264 319 383
#     4  12  24  40  68  97 133 169 214 273 327 386
#     4  12  25  41  69  97 130 172 217 275 327 385
#     4   9  17  35  66  99 127 165 218 267 315 382
#     4  11  27  44  63  93 132 172 215 271 333 384
#
# _framework density 19.623671000000002
#
# number of rings (size 3 to 8) (size 9 to 14) (size 15 to 20)
#    0.000    1.333    5.000    1.500    4.667    2.000 
#    0.000    0.000    0.000    2.000    0.000    0.000 
#    0.000    0.000    0.000    0.000    0.000    0.000 
#
# Total GULP energy -133806.183826 kJ/mol
# GULP energy per Si atom -5575.257659 kJ/mol
# Density = 1.957901 g / cm^3
# Si number density = 19.623671 Si / 1000 Ang^3
#
#
#
# Elastic Constant Matrix: (Units=GPa)
#
#
# Indices 1 2 3 4 5 6 
#
# 1 122.7466 24.8203 59.6424 0.0000 10.3113 0.0000
# 2 24.8203 115.5191 34.4464 0.0000 5.5479 0.0000
# 3 59.6424 34.4464 112.5486 0.0000 3.4889 0.0000
# 4 0.0000 0.0000 0.0000 7.6006 0.0000 -14.0074
# 5 10.3113 5.5479 3.4889 0.0000 32.5755 0.0000
# 6 0.0000 0.0000 0.0000 -14.0074 0.0000 -9.9838
#
#
#
# Elastic Compliance Matrix: (Units=1/GPa)
#
#
# Indices 1 2 3 4 5 6 
#
# 1 0.011280 -0.000583 -0.005710 0.000000 -0.002859 0.000000
# 2 -0.000583 0.009613 -0.002596 0.000000 -0.001174 0.000000
# 3 -0.005710 -0.002596 0.012678 0.000000 0.000892 0.000000
# 4 0.000000 0.000000 0.000000 0.036693 0.000000 -0.051481
# 5 -0.002859 -0.001174 0.000892 0.000000 0.031708 0.000000
# 6 0.000000 0.000000 0.000000 -0.051481 0.000000 -0.027934
#
#
# Mechanical properties :
#
#
# Convention : Reuss Voigt Hill
#
# Bulk Modulus (GPa) = 63.33071 65.40361 64.36716
# Shear Modulus (GPa) = 51.50397 21.49880 36.50139
#
# Velocity S-wave (km/s) = 5.12863 3.31351 4.31753
# Velocity P-wave (km/s) = 8.21055 6.93112 7.59781
#
# Compressibility (1/GPa) = 0.01579013
#
# Stress axis : x y z
#
# Youngs Moduli (GPa) = 88.65558 104.03054 78.87683
#
# Poissons Ratio (x) = 0.06070 0.45040
# Poissons Ratio (y) = 0.05173 0.20480
# Poissons Ratio (z) = 0.50623 0.27010
#
# Static dielectric constant tensor:
#      x y z
#    x 1.700120 0.000000 0.013580 
#    y 0.000000 1.767160 0.000000 
#    z 0.013580 0.000000 1.741790 
# 
# From -- ./inp_files/67341.got.cif
#   From: 2010.05.17/outbox.cif.g08.bks.cpg/sg12_34_cif.got.tgz:67341.got - 2010.06.03 13:09:07.
