data_PCOD9221644
_publ_section_title
;
Structure prediction by ZEFSAII (Michael W. Deem and Ramdas Pophale) SiO2 
 PCOD9221644
Probable space group: C 2/M
;
_chemical_formula_sum "Si O2"
_cell_formula_units_Z 52
_cell_length_a 7.807322
_cell_length_b 18.829836
_cell_length_c 20.513731
_cell_angle_alpha 90.000000
_cell_angle_beta 130.036789
_cell_angle_gamma 90.000000
_cell_volume 2308.942466
_symmetry_space_group_name_H-M "C 2/M"
_symmetry_group_IT_number 12
_symmetry_cell_setting 'monoclinic'
loop_
_space_group_symop_operation_xyz
x,y,z
-x,y,-z
-x,-y,-z
x,-y,z
1/2+x,1/2+y,z
1/2-x,1/2+y,-z
1/2-x,1/2-y,-z
1/2+x,1/2-y,z
loop_
_atom_site_type_symbol
_atom_site_label
_atom_site_fract_x
_atom_site_fract_y
_atom_site_fract_z
Si Si1 0.385585 0.842477 0.221355
Si Si2 0.400874 0.584987 0.546843
Si Si3 0.924428 0.197898 0.173712
Si Si4 0.000000 0.328965 0.000000
Si Si5 0.980090 0.418253 0.376208
Si Si6 0.956703 0.918572 0.284575
Si Si7 0.732665 0.084441 0.939696
O O1 0.494586 0.767494 0.230015
O O2 0.490675 0.877113 0.311093
O O3 0.379591 0.891413 0.155956
O O4 0.127414 0.827214 0.178574
O O5 0.500000 0.597551 0.500000
O O6 0.396869 0.500000 0.558878
O O7 0.545826 0.612040 0.642818
O O8 0.145829 0.608858 0.472974
O O9 0.701767 0.216260 0.079353
O O10 0.862110 0.134141 0.207485
O O11 0.117881 0.375943 0.972559
O O12 0.046854 0.500000 0.379362
O O13 0.723876 0.419371 0.335731
O O14 0.873315 0.000000 0.258680
O O15 0.708569 0.000000 0.942318
O O16 0.000000 0.099672 0.000000
#
# Coordination Sequence:
#
# PCOD9221644 Si02
#       7
#     8   8   8   4   8   8   8
#     4  11  23  42  61  89 125 162 207 255 307 373
#     4   9  17  30  54  87 120 150 190 244 302 363
#     4  11  25  40  63  88 121 165 211 254 314 369
#     4  12  25  44  66  92 123 166 210 260 311 376
#     4   9  18  35  61  87 116 158 198 243 305 366
#     4   9  19  37  59  85 118 154 199 251 302 367
#     4  11  24  42  66  94 125 158 203 258 310 366
#
# _framework density 22.521132999999999
#
# number of rings (size 3 to 8) (size 9 to 14) (size 15 to 20)
#    0.000    1.846    1.538    2.077    1.077    7.385 
#    0.000    2.308    0.000    0.000    0.000    0.000 
#    0.000    0.000    0.000    0.000    0.000    0.000 
#
# Total GULP energy -145353.748739 kJ/mol
# GULP energy per Si atom -5590.528798 kJ/mol
# Density = 2.246987 g / cm^3
# Si number density = 22.521133 Si / 1000 Ang^3
#
#
#
# Elastic Constant Matrix: (Units=GPa)
#
#
# Indices 1 2 3 4 5 6 
#
# 1 104.8120 10.1085 19.1298 0.0000 -16.1958 0.0000
# 2 10.1085 46.8725 1.2024 0.0000 -15.9146 0.0000
# 3 19.1298 1.2024 47.5508 0.0000 -18.1450 0.0000
# 4 0.0000 0.0000 0.0000 21.3335 0.0000 -8.5287
# 5 -16.1958 -15.9146 -18.1450 0.0000 44.3867 0.0000
# 6 0.0000 0.0000 0.0000 -8.5287 0.0000 22.4450
#
#
#
# Elastic Compliance Matrix: (Units=1/GPa)
#
#
# Indices 1 2 3 4 5 6 
#
# 1 0.010624 -0.001563 -0.003518 0.000000 0.001878 0.000000
# 2 -0.001563 0.024942 0.003783 0.000000 0.009919 0.000000
# 3 -0.003518 0.003783 0.026513 0.000000 0.010911 0.000000
# 4 0.000000 0.000000 0.000000 0.055271 0.000000 0.021002
# 5 0.001878 0.009919 0.010911 0.000000 0.031231 0.000000
# 6 0.000000 0.000000 0.000000 0.021002 0.000000 0.052534
#
#
# Mechanical properties :
#
#
# Convention : Reuss Voigt Hill
#
# Bulk Modulus (GPa) = 16.81130 28.90185 22.85658
# Shear Modulus (GPa) = 22.36741 28.88602 25.62672
#
# Velocity S-wave (km/s) = 3.15489 3.58525 3.37693
# Velocity P-wave (km/s) = 4.55543 5.47721 5.03745
#
# Compressibility (1/GPa) = 0.05948380
#
# Stress axis : x y z
#
# Youngs Moduli (GPa) = 94.12740 40.09233 37.71676
#
# Poissons Ratio (x) = 0.06268 0.13268
# Poissons Ratio (y) = 0.14715 -0.14269
# Poissons Ratio (z) = 0.33113 -0.15168
#
# Static dielectric constant tensor:
#      x y z
#    x 1.905650 0.000000 0.027180 
#    y 0.000000 1.770330 0.000000 
#    z 0.027180 0.000000 1.837920 
# 
# From -- ./inp_files/301182.got.cif
#   From: 2010.05.17/outbox.cif.g08.bks.cpg/sg12_151_cif.got.tgz:301182.got - 2010.06.03 13:09:07.
