data_PCOD9221695
_publ_section_title
;
Structure prediction by ZEFSAII (Michael W. Deem and Ramdas Pophale) SiO2 
 PCOD9221695
Probable space group: C 2/M
;
_chemical_formula_sum "Si O2"
_cell_formula_units_Z 56
_cell_length_a 18.410581
_cell_length_b 17.891012
_cell_length_c 9.004720
_cell_angle_alpha 90.000000
_cell_angle_beta 111.699530
_cell_angle_gamma 90.000000
_cell_volume 2755.825515
_symmetry_space_group_name_H-M "C 2/M"
_symmetry_group_IT_number 12
_symmetry_cell_setting 'monoclinic'
loop_
_space_group_symop_operation_xyz
x,y,z
-x,y,-z
-x,-y,-z
x,-y,z
1/2+x,1/2+y,z
1/2-x,1/2+y,-z
1/2-x,1/2-y,-z
1/2+x,1/2-y,z
loop_
_atom_site_type_symbol
_atom_site_label
_atom_site_fract_x
_atom_site_fract_y
_atom_site_fract_z
Si Si1 0.152404 0.088468 0.812013
Si Si2 0.966458 0.336816 0.138341
Si Si3 0.002444 0.828463 0.821834
Si Si4 0.278788 0.825575 0.433334
Si Si5 0.362229 0.411534 0.546532
Si Si6 0.435921 0.085278 0.576251
Si Si7 0.784915 0.671829 0.080350
O O1 0.148904 0.110148 0.635041
O O2 0.081517 0.130622 0.835896
O O3 0.141014 0.000000 0.810802
O O4 0.230675 0.110748 0.958716
O O5 0.873776 0.339986 0.093615
O O6 0.992577 0.257277 0.227536
O O7 0.010953 0.406950 0.239455
O O8 0.000000 0.331151 0.000000
O O9 0.930922 0.868348 0.684408
O O10 0.000000 0.831519 0.000000
O O11 0.250000 0.750000 0.500000
O O12 0.217569 0.888918 0.434358
O O13 0.364930 0.856635 0.536321
O O14 0.278794 0.822539 0.254191
O O15 0.377596 0.500000 0.564409
O O16 0.500000 0.105507 0.500000
O O17 0.408562 0.000000 0.529756
O O18 0.750000 0.750000 0.000000
#
# Coordination Sequence:
#
# PCOD9221695 Si02
#       7
#     8   8   8   8   8   8   8
#     4  11  25  43  67  98 138 180 222 278 338 405
#     4  11  26  44  71  99 133 176 228 279 337 403
#     4  11  23  42  69 100 136 177 226 278 340 405
#     4  12  26  44  72 102 135 179 228 284 348 404
#     4  11  25  43  66 100 138 178 222 275 338 409
#     4  11  25  47  70 100 138 181 230 285 344 408
#     4  12  25  45  67 101 135 176 227 281 339 409
#
# _framework density 20.320589999999999
#
# number of rings (size 3 to 8) (size 9 to 14) (size 15 to 20)
#    0.000    0.714    2.857    3.857    6.000    6.571 
#    0.000    0.000    0.000    0.000    0.000    0.000 
#    0.000    0.000    0.000    0.000    0.000    0.000 
#
# Total GULP energy -156362.185380 kJ/mol
# GULP energy per Si atom -5584.363764 kJ/mol
# Density = 2.027434 g / cm^3
# Si number density = 20.320590 Si / 1000 Ang^3
#
#
#
# Elastic Constant Matrix: (Units=GPa)
#
#
# Indices 1 2 3 4 5 6 
#
# 1 162.5370 43.1221 65.7927 0.0000 1.7614 0.0000
# 2 43.1221 64.0782 30.3262 0.0000 2.1874 0.0000
# 3 65.7927 30.3262 104.7474 0.0000 -1.7224 0.0000
# 4 0.0000 0.0000 0.0000 23.4638 0.0000 12.7055
# 5 1.7614 2.1874 -1.7224 0.0000 38.9009 0.0000
# 6 0.0000 0.0000 0.0000 12.7055 0.0000 102.4545
#
#
#
# Elastic Compliance Matrix: (Units=1/GPa)
#
#
# Indices 1 2 3 4 5 6 
#
# 1 0.009037 -0.003915 -0.004549 0.000000 -0.000390 0.000000
# 2 -0.003915 0.019841 -0.003303 0.000000 -0.001085 0.000000
# 3 -0.004549 -0.003303 0.013376 0.000000 0.000984 0.000000
# 4 0.000000 0.000000 0.000000 0.045687 0.000000 -0.005666
# 5 -0.000390 -0.001085 0.000984 0.000000 0.025829 0.000000
# 6 0.000000 0.000000 0.000000 -0.005666 0.000000 0.010463
#
#
# Mechanical properties :
#
#
# Convention : Reuss Voigt Hill
#
# Bulk Modulus (GPa) = 53.41904 67.76049 60.58977
# Shear Modulus (GPa) = 32.46613 45.77196 39.11905
#
# Velocity S-wave (km/s) = 4.00146 4.75119 4.39235
# Velocity P-wave (km/s) = 6.90609 7.96973 7.45690
#
# Compressibility (1/GPa) = 0.01871992
#
# Stress axis : x y z
#
# Youngs Moduli (GPa) = 110.65923 50.40090 74.75821
#
# Poissons Ratio (x) = 0.19733 0.34007
# Poissons Ratio (y) = 0.43325 0.24692
# Poissons Ratio (z) = 0.50338 0.16647
#
# Static dielectric constant tensor:
#      x y z
#    x 1.738330 0.000000 0.122600 
#    y 0.000000 1.762410 0.000000 
#    z 0.122600 0.000000 1.988810 
# 
# From -- ./inp_files/75959.got.cif
#   From: 2010.05.17/outbox.cif.g08.bks.cpg/sg12_38_cif.got.tgz:75959.got - 2010.06.03 13:09:07.
