data_PCOD9221451
_publ_section_title
;
Structure prediction by ZEFSAII (Michael W. Deem and Ramdas Pophale) SiO2 
 PCOD9221451
Probable space group: C 2/M
;
_chemical_formula_sum "Si O2"
_cell_formula_units_Z 64
_cell_length_a 14.534590
_cell_length_b 9.189019
_cell_length_c 29.761242
_cell_angle_alpha 90.000000
_cell_angle_beta 52.673557
_cell_angle_gamma 90.000000
_cell_volume 3160.792083
_symmetry_space_group_name_H-M "C 2/M"
_symmetry_group_IT_number 12
_symmetry_cell_setting 'monoclinic'
loop_
_space_group_symop_operation_xyz
x,y,z
-x,y,-z
-x,-y,-z
x,-y,z
1/2+x,1/2+y,z
1/2-x,1/2+y,-z
1/2-x,1/2-y,-z
1/2+x,1/2-y,z
loop_
_atom_site_type_symbol
_atom_site_label
_atom_site_fract_x
_atom_site_fract_y
_atom_site_fract_z
Si Si1 0.647302 0.672772 0.585092
Si Si2 0.092744 0.825555 0.294342
Si Si3 0.580227 0.331769 0.877103
Si Si4 0.906146 0.333145 0.986693
Si Si5 0.381183 0.674708 0.511588
Si Si6 0.683380 0.674280 0.747935
Si Si7 0.233550 0.669488 0.096964
Si Si8 0.962965 0.324139 0.780021
O O1 0.669493 0.500000 0.580365
O O2 0.533579 0.703133 0.647711
O O3 0.618697 0.710382 0.541612
O O4 0.763415 0.755372 0.565131
O O5 0.193400 0.751410 0.293586
O O6 0.097809 0.746591 0.244887
O O7 0.109348 0.000000 0.285996
O O8 0.543437 0.500000 0.887081
O O9 0.637422 0.297625 0.812426
O O10 0.678203 0.318099 0.886702
O O11 0.471948 0.237062 0.925212
O O12 0.880880 0.500000 0.985303
O O13 0.792574 0.254429 0.038982
O O14 0.000000 0.324827 0.000000
O O15 0.500000 0.723287 0.500000
O O16 0.374465 0.500000 0.518066
O O17 0.688668 0.500000 0.739482
O O18 0.588467 0.752343 0.745505
O O19 0.226456 0.500000 0.087303
O O20 0.111161 0.717026 0.153756
O O21 0.965061 0.500000 0.776314
#
# Coordination Sequence:
#
# PCOD9221451 Si02
#       8
#     8   8   8   8   8   8   8   8
#     4   9  20  37  57  87 122 155 198 240 284 339
#     4  11  23  40  61  86 121 162 200 247 294 342
#     4   9  17  33  54  75 105 144 184 230 287 353
#     4   9  17  27  46  79 108 134 177 231 286 349
#     4   9  18  35  60  89 122 160 197 236 283 334
#     4  11  23  40  60  86 116 152 198 245 298 358
#     4   9  17  33  54  75 104 143 184 231 290 353
#     4  11  23  40  60  85 114 151 199 248 299 356
#
# _framework density 20.248087999999999
#
# number of rings (size 3 to 8) (size 9 to 14) (size 15 to 20)
#    0.000    2.250    1.250    1.500    0.000    5.750 
#    0.000    1.875    0.000    0.000    0.000    0.000 
#    0.000    0.000    0.000    0.000    0.000    0.000 
#
# Total GULP energy -178753.555343 kJ/mol
# GULP energy per Si atom -5586.048604 kJ/mol
# Density = 2.020200 g / cm^3
# Si number density = 20.248088 Si / 1000 Ang^3
#
#
#
# Elastic Constant Matrix: (Units=GPa)
#
#
# Indices 1 2 3 4 5 6 
#
# 1 100.1863 34.8258 23.1051 0.0000 -32.0638 0.0000
# 2 34.8258 56.6378 46.6323 0.0000 -23.0171 0.0000
# 3 23.1051 46.6323 76.9649 0.0000 -29.7206 0.0000
# 4 0.0000 0.0000 0.0000 30.8294 0.0000 -7.6305
# 5 -32.0638 -23.0171 -29.7206 0.0000 31.5244 0.0000
# 6 0.0000 0.0000 0.0000 -7.6305 0.0000 22.9816
#
#
#
# Elastic Compliance Matrix: (Units=1/GPa)
#
#
# Indices 1 2 3 4 5 6 
#
# 1 0.017183 -0.009528 0.007354 0.000000 0.017455 0.000000
# 2 -0.009528 0.042140 -0.022853 0.000000 -0.000468 0.000000
# 3 0.007354 -0.022853 0.033142 0.000000 0.022041 0.000000
# 4 0.000000 0.000000 0.000000 0.035341 0.000000 0.011734
# 5 0.017455 -0.000468 0.022041 0.000000 0.069913 0.000000
# 6 0.000000 0.000000 0.000000 0.011734 0.000000 0.047409
#
#
# Mechanical properties :
#
#
# Convention : Reuss Voigt Hill
#
# Bulk Modulus (GPa) = 23.57705 49.21281 36.39493
# Shear Modulus (GPa) = 16.16459 25.68214 20.92337
#
# Velocity S-wave (km/s) = 2.82853 3.56529 3.21806
# Velocity P-wave (km/s) = 4.72619 6.42698 5.64105
#
# Compressibility (1/GPa) = 0.04241413
#
# Stress axis : x y z
#
# Youngs Moduli (GPa) = 58.19563 23.73053 30.17277
#
# Poissons Ratio (x) = 0.22610 -0.22190
# Poissons Ratio (y) = 0.55447 0.68952
# Poissons Ratio (z) = -0.42799 0.54230
#
# Static dielectric constant tensor:
#      x y z
#    x 1.803380 0.000000 0.030120 
#    y 0.000000 1.668280 0.000000 
#    z 0.030120 0.000000 1.723840 
# 
# From -- ./inp_files/375468.got.cif
#   From: 2010.05.17/outbox.cif.g08.bks.cpg/sg12_188_cif.got.tgz:375468.got - 2010.06.03 13:09:07.
