data_PCOD9221694
_publ_section_title
;
Structure prediction by ZEFSAII (Michael W. Deem and Ramdas Pophale) SiO2 
 PCOD9221694
Probable space group: C 2/M
;
_chemical_formula_sum "Si O2"
_cell_formula_units_Z 40
_cell_length_a 16.557211
_cell_length_b 15.473405
_cell_length_c 20.524155
_cell_angle_alpha 90.000000
_cell_angle_beta 160.408473
_cell_angle_gamma 90.000000
_cell_volume 1763.144009
_symmetry_space_group_name_H-M "C 2/M"
_symmetry_group_IT_number 12
_symmetry_cell_setting 'monoclinic'
loop_
_space_group_symop_operation_xyz
x,y,z
-x,y,-z
-x,-y,-z
x,-y,z
1/2+x,1/2+y,z
1/2-x,1/2+y,-z
1/2-x,1/2-y,-z
1/2+x,1/2-y,z
loop_
_atom_site_type_symbol
_atom_site_label
_atom_site_fract_x
_atom_site_fract_y
_atom_site_fract_z
Si Si1 0.989692 0.346361 0.243326
Si Si2 0.821971 0.234199 0.308337
Si Si3 0.020734 0.168333 0.323274
Si Si4 0.532592 0.596018 0.102094
Si Si5 0.467582 0.905864 0.079805
O O1 0.016506 0.387529 0.192923
O O2 0.010372 0.241667 0.259303
O O3 0.216230 0.370093 0.461972
O O4 0.726062 0.373600 0.067262
O O5 0.731310 0.329271 0.259429
O O6 0.594813 0.171148 0.138740
O O7 0.000000 0.203278 0.500000
O O8 0.943005 0.220734 0.329999
O O9 0.815624 0.100865 0.149986
O O10 0.593115 0.500000 0.173949
O O11 0.500000 0.589636 0.000000
O O12 0.561478 0.000000 0.132546
#
# Coordination Sequence:
#
# PCOD9221694 Si02
#       5
#     8   8   8   8   8
#     4  11  23  45  70 100 134 178 232 283 342 406
#     4  12  24  46  70  99 138 182 233 284 342 413
#     4  11  24  44  73  99 134 189 225 283 346 412
#     4  11  23  42  68  97 136 180 225 283 345 407
#     4  12  26  43  70 104 141 180 227 286 342 412
#
# _framework density 22.686745999999999
#
# number of rings (size 3 to 8) (size 9 to 14) (size 15 to 20)
#    0.000    0.600    6.000    1.800    0.000    4.000 
#    0.000    0.000    0.000    0.000    0.000    0.000 
#    0.000    0.000    0.000    0.000    0.000    0.000 
#
# Total GULP energy -111828.572834 kJ/mol
# GULP energy per Si atom -5591.428642 kJ/mol
# Density = 2.263511 g / cm^3
# Si number density = 22.686746 Si / 1000 Ang^3
#
#
#
# Elastic Constant Matrix: (Units=GPa)
#
#
# Indices 1 2 3 4 5 6 
#
# 1 46.3296 11.9626 7.3712 -0.0045 3.8483 -0.0067
# 2 11.9626 99.8902 18.8544 -0.0399 -0.7616 0.0092
# 3 7.3712 18.8544 81.8636 0.0220 -7.1250 0.0246
# 4 -0.0045 -0.0399 0.0220 -5.3177 0.0021 -30.3547
# 5 3.8483 -0.7616 -7.1250 0.0021 29.0684 0.0014
# 6 -0.0067 0.0092 0.0246 -30.3547 0.0014 30.4371
#
#
#
# Elastic Compliance Matrix: (Units=1/GPa)
#
#
# Indices 1 2 3 4 5 6 
#
# 1 0.022787 -0.002416 -0.001802 -0.000008 -0.003522 0.000000
# 2 -0.002416 0.010725 -0.002248 -0.000011 0.000050 -0.000013
# 3 -0.001802 -0.002248 0.013193 0.000020 0.003413 0.000009
# 4 -0.000008 -0.000011 0.000020 -0.028097 0.000009 -0.028021
# 5 -0.003522 0.000050 0.003413 0.000009 0.035706 0.000004
# 6 0.000000 -0.000013 0.000009 -0.028021 0.000004 0.004909
#
#
# Mechanical properties :
#
#
# Convention : Reuss Voigt Hill
#
# Bulk Modulus (GPa) = 29.60931 33.82885 31.71908
# Shear Modulus (GPa) = 59.94343 23.49724 41.72034
#
# Velocity S-wave (km/s) = 5.14583 3.22176 4.29298
# Velocity P-wave (km/s) = 6.95599 5.36501 6.21165
#
# Compressibility (1/GPa) = 0.03377316
#
# Stress axis : x y z
#
# Youngs Moduli (GPa) = 43.88380 93.23985 75.80024
#
# Poissons Ratio (x) = 0.22524 0.13659
# Poissons Ratio (y) = 0.10601 0.17042
# Poissons Ratio (z) = 0.07908 0.20963
#
# Static dielectric constant tensor:
#      x y z
#    x 1.880250 -0.000010 0.030140 
#    y -0.000010 1.876980 -0.000040 
#    z 0.030140 -0.000040 1.824790 
# 
# From -- ./inp_files/284410.got.cif
#   From: 2010.05.17/outbox.cif.g08.bks.cpg/sg12_143_cif.got.tgz:284410.got - 2010.06.03 13:09:07.
