data_PCOD9221715
_publ_section_title
;
Structure prediction by ZEFSAII (Michael W. Deem and Ramdas Pophale) SiO2 
 PCOD9221715
Probable space group: C 2/M
;
_chemical_formula_sum "Si O2"
_cell_formula_units_Z 52
_cell_length_a 19.037094
_cell_length_b 21.292128
_cell_length_c 9.182915
_cell_angle_alpha 90.000000
_cell_angle_beta 143.616125
_cell_angle_gamma 90.000000
_cell_volume 2207.983482
_symmetry_space_group_name_H-M "C 2/M"
_symmetry_group_IT_number 12
_symmetry_cell_setting 'monoclinic'
loop_
_space_group_symop_operation_xyz
x,y,z
-x,y,-z
-x,-y,-z
x,-y,z
1/2+x,1/2+y,z
1/2-x,1/2+y,-z
1/2-x,1/2-y,-z
1/2+x,1/2-y,z
loop_
_atom_site_type_symbol
_atom_site_label
_atom_site_fract_x
_atom_site_fract_y
_atom_site_fract_z
Si Si1 0.500000 0.365848 0.500000
Si Si2 0.135187 0.816760 0.312558
Si Si3 0.671738 0.572443 0.565817
Si Si4 0.088564 0.316424 0.282203
Si Si5 0.570793 0.073008 0.874919
Si Si6 0.127367 0.327728 0.771952
Si Si7 0.137808 0.210447 0.979411
O O1 0.396647 0.406536 0.402180
O O2 0.436164 0.324447 0.269630
O O3 0.111392 0.883671 0.343731
O O4 0.092973 0.757220 0.341180
O O5 0.277906 0.819839 0.548876
O O6 0.893855 0.806402 0.906790
O O7 0.650882 0.500000 0.500306
O O8 0.814670 0.579621 0.827025
O O9 0.038187 0.378389 0.278708
O O10 0.000000 0.314385 0.000000
O O11 0.622550 0.099908 0.810269
O O12 0.536157 0.000000 0.817018
O O13 0.145527 0.284130 0.946423
O O14 0.000000 0.309535 0.500000
O O15 0.227844 0.313331 0.823827
#
# Coordination Sequence:
#
# PCOD9221715 Si02
#       7
#     4   8   8   8   8   8   8
#     4  12  25  48  74 104 141 196 252 306 369 456
#     4  11  26  43  73 110 148 187 245 314 364 447
#     4  11  26  49  74 105 145 197 249 305 375 447
#     4  11  23  42  70 107 147 188 240 296 379 437
#     4  11  24  44  72 108 150 197 246 301 374 456
#     4  11  23  43  71 107 150 190 247 307 370 445
#     4  11  25  43  71 111 144 193 248 308 377 428
#
# _framework density 23.550901
#
# number of rings (size 3 to 8) (size 9 to 14) (size 15 to 20)
#    0.000    0.923    3.846    2.077    6.462    1.231 
#    0.000    3.077    0.000    0.000    0.000    0.000 
#    0.000    0.000    0.000    0.000    0.000    0.000 
#
# Total GULP energy -145210.662916 kJ/mol
# GULP energy per Si atom -5585.025497 kJ/mol
# Density = 2.349730 g / cm^3
# Si number density = 23.550901 Si / 1000 Ang^3
#
#
#
# Elastic Constant Matrix: (Units=GPa)
#
#
# Indices 1 2 3 4 5 6 
#
# 1 121.5706 72.1776 19.1476 0.0000 -5.6165 0.0000
# 2 72.1776 215.5172 42.8664 0.0000 3.0316 0.0000
# 3 19.1476 42.8664 95.9678 0.0000 7.1301 0.0000
# 4 0.0000 0.0000 0.0000 41.0600 0.0000 4.6215
# 5 -5.6165 3.0316 7.1301 0.0000 33.5863 0.0000
# 6 0.0000 0.0000 0.0000 4.6215 0.0000 28.5479
#
#
#
# Elastic Compliance Matrix: (Units=1/GPa)
#
#
# Indices 1 2 3 4 5 6 
#
# 1 0.010454 -0.003385 -0.000738 0.000000 0.002210 0.000000
# 2 -0.003385 0.006189 -0.002037 0.000000 -0.000692 0.000000
# 3 -0.000738 -0.002037 0.011657 0.000000 -0.002414 0.000000
# 4 0.000000 0.000000 0.000000 0.024807 0.000000 -0.004016
# 5 0.002210 -0.000692 -0.002414 0.000000 0.030719 0.000000
# 6 0.000000 0.000000 0.000000 -0.004016 0.000000 0.035679
#
#
# Mechanical properties :
#
#
# Convention : Reuss Voigt Hill
#
# Bulk Modulus (GPa) = 62.58562 77.93763 70.26163
# Shear Modulus (GPa) = 36.45611 40.56311 38.50961
#
# Velocity S-wave (km/s) = 3.93869 4.15463 4.04810
# Velocity P-wave (km/s) = 6.87872 7.49532 7.19363
#
# Compressibility (1/GPa) = 0.01597811
#
# Stress axis : x y z
#
# Youngs Moduli (GPa) = 95.65759 161.58271 85.78666
#
# Poissons Ratio (x) = 0.54702 0.06330
# Poissons Ratio (y) = 0.32384 0.17479
# Poissons Ratio (z) = 0.07058 0.32922
#
# Static dielectric constant tensor:
#      x y z
#    x 2.012180 0.000000 0.055290 
#    y 0.000000 1.869670 0.000000 
#    z 0.055290 0.000000 2.000640 
# 
# From -- ./inp_files/133811.got.cif
#   From: 2010.05.17/outbox.cif.g08.bks.cpg/sg12_67_cif.got.tgz:133811.got - 2010.06.03 13:09:07.
