data_PCOD9221940
_publ_section_title
;
Structure prediction by ZEFSAII (Michael W. Deem and Ramdas Pophale) SiO2 
 PCOD9221940
Probable space group: C 2/M
;
_chemical_formula_sum "Si O2"
_cell_formula_units_Z 40
_cell_length_a 24.283502
_cell_length_b 9.079509
_cell_length_c 13.988375
_cell_angle_alpha 90.000000
_cell_angle_beta 143.921064
_cell_angle_gamma 90.000000
_cell_volume 1816.276503
_symmetry_space_group_name_H-M "C 2/M"
_symmetry_group_IT_number 12
_symmetry_cell_setting 'monoclinic'
loop_
_space_group_symop_operation_xyz
x,y,z
-x,y,-z
-x,-y,-z
x,-y,z
1/2+x,1/2+y,z
1/2-x,1/2+y,-z
1/2-x,1/2-y,-z
1/2+x,1/2-y,z
loop_
_atom_site_type_symbol
_atom_site_label
_atom_site_fract_x
_atom_site_fract_y
_atom_site_fract_z
Si Si1 0.346260 0.171316 0.748186
Si Si2 0.473769 0.827979 0.116674
Si Si3 0.699350 0.326369 0.840097
Si Si4 0.188375 0.325757 0.626671
Si Si5 0.008330 0.829111 0.671869
O O1 0.420502 0.207017 0.769565
O O2 0.255658 0.269999 0.636310
O O3 0.319208 0.000000 0.700346
O O4 0.407890 0.184719 0.931894
O O5 0.447225 0.720897 0.164983
O O6 0.471056 0.000000 0.143112
O O7 0.722050 0.500000 0.868158
O O8 0.722313 0.249799 0.772632
O O9 0.588217 0.311592 0.704479
O O10 0.750000 0.250000 0.000000
O O11 0.192237 0.500000 0.639252
O O12 0.082492 0.270844 0.466468
O O13 0.980152 0.000000 0.633995
#
# Coordination Sequence:
#
# PCOD9221940 Si02
#       5
#     8   8   8   8   8
#     4   9  19  38  62  87 118 154 193 239 289 343
#     4   9  19  37  62  89 116 152 195 238 288 344
#     4  11  24  42  64  89 117 151 192 237 288 346
#     4  12  25  39  59  87 118 155 196 239 290 343
#     4  11  24  40  59  85 118 155 193 238 291 344
#
# _framework density 22.023078999999999
#
# number of rings (size 3 to 8) (size 9 to 14) (size 15 to 20)
#    0.000    1.600    0.000    6.000    0.000   11.200 
#    0.000    2.000    0.000    0.000    0.000    0.000 
#    0.000    0.000    0.000    0.000    0.000    0.000 
#
# Total GULP energy -111948.620165 kJ/mol
# GULP energy per Si atom -5597.431008 kJ/mol
# Density = 2.197295 g / cm^3
# Si number density = 22.023079 Si / 1000 Ang^3
#
#
#
# Elastic Constant Matrix: (Units=GPa)
#
#
# Indices 1 2 3 4 5 6 
#
# 1 92.7507 49.4870 -3.1180 0.0000 15.8787 0.0000
# 2 49.4870 108.4339 16.1116 0.0000 22.4357 0.0000
# 3 -3.1180 16.1116 55.3592 0.0000 13.0599 0.0000
# 4 0.0000 0.0000 0.0000 28.4995 0.0000 -2.7908
# 5 15.8787 22.4357 13.0599 0.0000 33.5998 0.0000
# 6 0.0000 0.0000 0.0000 -2.7908 0.0000 28.2626
#
#
#
# Elastic Compliance Matrix: (Units=1/GPa)
#
#
# Indices 1 2 3 4 5 6 
#
# 1 0.015154 -0.006603 0.003770 0.000000 -0.004217 0.000000
# 2 -0.006603 0.013704 -0.003234 0.000000 -0.004773 0.000000
# 3 0.003770 -0.003234 0.021059 0.000000 -0.007808 0.000000
# 4 0.000000 0.000000 0.000000 0.035431 0.000000 0.003499
# 5 -0.004217 -0.004773 -0.007808 0.000000 0.037977 0.000000
# 6 0.000000 0.000000 0.000000 0.003499 0.000000 0.035728
#
#
# Mechanical properties :
#
#
# Convention : Reuss Voigt Hill
#
# Bulk Modulus (GPa) = 26.46756 42.38945 34.42851
# Shear Modulus (GPa) = 27.20622 31.00993 29.10808
#
# Velocity S-wave (km/s) = 3.51857 3.75649 3.63947
# Velocity P-wave (km/s) = 5.34334 6.17288 5.77303
#
# Compressibility (1/GPa) = 0.03778210
#
# Stress axis : x y z
#
# Youngs Moduli (GPa) = 65.99111 72.97172 47.48468
#
# Poissons Ratio (x) = 0.48186 -0.17903
# Poissons Ratio (y) = 0.43576 0.15358
# Poissons Ratio (z) = -0.24880 0.23601
#
# Static dielectric constant tensor:
#      x y z
#    x 1.808370 0.000000 0.010160 
#    y 0.000000 1.727950 0.000000 
#    z 0.010160 0.000000 1.867950 
# 
# From -- ./inp_files/220579.got.cif
#   From: 2010.05.17/outbox.cif.g08.bks.cpg/sg12_111_cif.got.tgz:220579.got - 2010.06.03 13:09:07.
