data_PCOD9221737
_publ_section_title
;
Structure prediction by ZEFSAII (Michael W. Deem and Ramdas Pophale) SiO2 
 PCOD9221737
Probable space group: C 2/M
;
_chemical_formula_sum "Si O2"
_cell_formula_units_Z 24
_cell_length_a 12.187397
_cell_length_b 14.557646
_cell_length_c 9.179939
_cell_angle_alpha 90.000000
_cell_angle_beta 145.394490
_cell_angle_gamma 90.000000
_cell_volume 924.977759
_symmetry_space_group_name_H-M "C 2/M"
_symmetry_group_IT_number 12
_symmetry_cell_setting 'monoclinic'
loop_
_space_group_symop_operation_xyz
x,y,z
-x,y,-z
-x,-y,-z
x,-y,z
1/2+x,1/2+y,z
1/2-x,1/2+y,-z
1/2-x,1/2-y,-z
1/2+x,1/2-y,z
loop_
_atom_site_type_symbol
_atom_site_label
_atom_site_fract_x
_atom_site_fract_y
_atom_site_fract_z
Si Si1 0.196867 0.500000 0.588683
Si Si2 0.397360 0.169634 0.695197
Si Si3 0.701019 0.335128 0.771229
Si Si4 0.381933 0.500000 0.099895
O O1 0.096623 0.592000 0.419902
O O2 0.407422 0.500000 0.741765
O O3 0.237525 0.500000 0.804537
O O4 0.250000 0.250000 0.500000
O O5 0.301788 0.124585 0.735240
O O6 0.608216 0.213907 0.955512
O O7 0.500000 0.288751 0.500000
O O8 0.353951 0.413076 0.174346
#
# Coordination Sequence:
#
# PCOD9221737 Si02
#       4
#     4   8   8   4
#     4  11  24  47  70 110 153 184 254 308 352 435
#     4  11  26  47  75 107 147 191 247 310 362 436
#     4  11  23  46  72 103 141 195 246 293 375 436
#     4  11  23  42  77 108 146 200 240 304 372 431
#
# _framework density 25.946570000000001
#
# number of rings (size 3 to 8) (size 9 to 14) (size 15 to 20)
#    0.000    1.000    3.333    2.500    0.000   12.000 
#    6.000    0.000    0.000    0.000    0.000    0.000 
#    0.000    0.000    0.000    0.000    0.000    0.000 
#
# Total GULP energy -67172.087971 kJ/mol
# GULP energy per Si atom -5597.673998 kJ/mol
# Density = 2.588751 g / cm^3
# Si number density = 25.946570 Si / 1000 Ang^3
#
#
#
# Elastic Constant Matrix: (Units=GPa)
#
#
# Indices 1 2 3 4 5 6 
#
# 1 183.6992 38.1432 50.2765 0.0000 5.7654 0.0000
# 2 38.1432 101.7424 62.8425 0.0000 -5.1454 0.0000
# 3 50.2765 62.8425 260.2109 0.0000 31.8512 0.0000
# 4 0.0000 0.0000 0.0000 20.2462 0.0000 10.1539
# 5 5.7654 -5.1454 31.8512 0.0000 60.8127 0.0000
# 6 0.0000 0.0000 0.0000 10.1539 0.0000 30.2658
#
#
#
# Elastic Compliance Matrix: (Units=1/GPa)
#
#
# Indices 1 2 3 4 5 6 
#
# 1 0.006026 -0.001866 -0.000667 0.000000 -0.000380 0.000000
# 2 -0.001866 0.012530 -0.003010 0.000000 0.002813 0.000000
# 3 -0.000667 -0.003010 0.005046 0.000000 -0.002834 0.000000
# 4 0.000000 0.000000 0.000000 0.059384 0.000000 -0.019923
# 5 -0.000380 0.002813 -0.002834 0.000000 0.018202 0.000000
# 6 0.000000 0.000000 0.000000 -0.019923 0.000000 0.039724
#
#
# Mechanical properties :
#
#
# Convention : Reuss Voigt Hill
#
# Bulk Modulus (GPa) = 79.90439 94.24187 87.07313
# Shear Modulus (GPa) = 32.01651 48.55763 40.28707
#
# Velocity S-wave (km/s) = 3.51656 4.33072 3.94470
# Velocity P-wave (km/s) = 6.88120 7.83627 7.37421
#
# Compressibility (1/GPa) = 0.01251496
#
# Stress axis : x y z
#
# Youngs Moduli (GPa) = 165.95673 79.81031 198.18769
#
# Poissons Ratio (x) = 0.14894 0.13220
# Poissons Ratio (y) = 0.30971 0.59651
# Poissons Ratio (z) = 0.11070 0.24021
#
# Static dielectric constant tensor:
#      x y z
#    x 2.065150 0.000000 -0.026960 
#    y 0.000000 1.939760 0.000000 
#    z -0.026960 0.000000 2.147790 
# 
# From -- ./inp_files/158423.got.cif
#   From: 2010.05.17/outbox.cif.g08.bks.cpg/sg12_80_cif.got.tgz:158423.got - 2010.06.03 13:09:07.
