data_PCOD9221666
_publ_section_title
;
Structure prediction by ZEFSAII (Michael W. Deem and Ramdas Pophale) SiO2 
 PCOD9221666
Probable space group: C 2/M
;
_chemical_formula_sum "Si O2"
_cell_formula_units_Z 48
_cell_length_a 23.248360
_cell_length_b 11.092770
_cell_length_c 14.084479
_cell_angle_alpha 90.000000
_cell_angle_beta 147.880189
_cell_angle_gamma 90.000000
_cell_volume 1931.224656
_symmetry_space_group_name_H-M "C 2/M"
_symmetry_group_IT_number 12
_symmetry_cell_setting 'monoclinic'
loop_
_space_group_symop_operation_xyz
x,y,z
-x,y,-z
-x,-y,-z
x,-y,z
1/2+x,1/2+y,z
1/2-x,1/2+y,-z
1/2-x,1/2-y,-z
1/2+x,1/2-y,z
loop_
_atom_site_type_symbol
_atom_site_label
_atom_site_fract_x
_atom_site_fract_y
_atom_site_fract_z
Si Si1 0.983058 0.237849 0.216353
Si Si2 0.327763 0.500000 0.754050
Si Si3 0.637178 0.000000 0.641634
Si Si4 0.250052 0.786819 0.109723
Si Si5 0.895964 0.736183 0.806010
Si Si6 0.002764 0.500000 0.734951
Si Si7 0.903287 0.862855 0.442396
Si Si8 0.803850 0.500000 0.612191
O O1 0.065062 0.229731 0.244579
O O2 0.939624 0.374951 0.164019
O O3 0.051449 0.211629 0.405783
O O4 0.872323 0.165045 0.046352
O O5 0.231111 0.500000 0.693376
O O6 0.374962 0.363546 0.829161
O O7 0.295255 0.500000 0.597930
O O8 0.659979 0.113865 0.739160
O O9 0.535670 0.000000 0.429004
O O10 0.292818 0.683004 0.240105
O O11 0.250000 0.750000 0.000000
O O12 0.810575 0.626894 0.677705
O O13 0.000000 0.676897 0.000000
O O14 0.903925 0.500000 0.674697
O O15 0.000000 0.858572 0.500000
O O16 0.890752 0.000000 0.456726
#
# Coordination Sequence:
#
# PCOD9221666 Si02
#       8
#     8   4   4   8   8   4   8   4
#     4  11  24  43  67  96 138 177 229 282 339 408
#     4  11  23  43  70  99 133 185 236 278 337 412
#     4  11  24  44  69  98 139 176 235 287 331 404
#     4  12  26  42  69 101 130 179 226 281 348 410
#     4  11  23  42  65  99 136 179 228 285 344 402
#     4   9  20  42  65  92 129 177 221 282 331 396
#     4  11  25  46  66  96 138 177 223 283 348 412
#     4   9  21  41  66  92 135 174 221 282 341 397
#
# _framework density 24.854695
#
# number of rings (size 3 to 8) (size 9 to 14) (size 15 to 20)
#    0.000    1.167    3.333    2.000    4.667    0.000 
#    3.000    1.667    0.000    0.000    0.000    0.000 
#    0.000    0.000    0.000    0.000    0.000    0.000 
#
# Total GULP energy -134123.260097 kJ/mol
# GULP energy per Si atom -5588.469171 kJ/mol
# Density = 2.479812 g / cm^3
# Si number density = 24.854695 Si / 1000 Ang^3
#
#
#
# Elastic Constant Matrix: (Units=GPa)
#
#
# Indices 1 2 3 4 5 6 
#
# 1 82.7495 22.4374 18.3680 0.0000 -16.7100 0.0000
# 2 22.4374 101.5729 13.9904 0.0000 -1.1579 0.0000
# 3 18.3680 13.9904 114.9576 0.0000 -12.8843 0.0000
# 4 0.0000 0.0000 0.0000 48.0682 0.0000 -13.6171
# 5 -16.7100 -1.1579 -12.8843 0.0000 38.6636 0.0000
# 6 0.0000 0.0000 0.0000 -13.6171 0.0000 29.4810
#
#
#
# Elastic Compliance Matrix: (Units=1/GPa)
#
#
# Indices 1 2 3 4 5 6 
#
# 1 0.014307 -0.002917 -0.001296 0.000000 0.005664 0.000000
# 2 -0.002917 0.010608 -0.000967 0.000000 -0.001265 0.000000
# 3 -0.001296 -0.000967 0.009305 0.000000 0.002512 0.000000
# 4 0.000000 0.000000 0.000000 0.023936 0.000000 0.011056
# 5 0.005664 -0.001265 0.002512 0.000000 0.029111 0.000000
# 6 0.000000 0.000000 0.000000 0.011056 0.000000 0.039027
#
#
# Mechanical properties :
#
#
# Convention : Reuss Voigt Hill
#
# Bulk Modulus (GPa) = 41.91080 45.43019 43.67049
# Shear Modulus (GPa) = 34.57623 39.54152 37.05888
#
# Velocity S-wave (km/s) = 3.73384 3.99295 3.86556
# Velocity P-wave (km/s) = 5.95715 6.29096 6.12633
#
# Compressibility (1/GPa) = 0.02386020
#
# Stress axis : x y z
#
# Youngs Moduli (GPa) = 69.89495 94.26565 107.46776
#
# Poissons Ratio (x) = 0.27501 0.13929
# Poissons Ratio (y) = 0.20391 0.10389
# Poissons Ratio (z) = 0.09059 0.09113
#
# Static dielectric constant tensor:
#      x y z
#    x 1.970940 0.000000 0.022790 
#    y 0.000000 2.031320 0.000000 
#    z 0.022790 0.000000 1.951170 
# 
# From -- ./inp_files/246043.got.cif
#   From: 2010.05.17/outbox.cif.g08.bks.cpg/sg12_124_cif.got.tgz:246043.got - 2010.06.03 13:09:07.
