data_PCOD9221302
_publ_section_title
;
Structure prediction by ZEFSAII (Michael W. Deem and Ramdas Pophale) SiO2 
 PCOD9221302
Probable space group: C 2/M
;
_chemical_formula_sum "Si O2"
_cell_formula_units_Z 50
_cell_length_a 14.882155
_cell_length_b 20.682642
_cell_length_c 12.951889
_cell_angle_alpha 90.000000
_cell_angle_beta 141.859522
_cell_angle_gamma 90.000000
_cell_volume 2462.103934
_symmetry_space_group_name_H-M "C 2/M"
_symmetry_group_IT_number 12
_symmetry_cell_setting 'monoclinic'
loop_
_space_group_symop_operation_xyz
x,y,z
-x,y,-z
-x,-y,-z
x,-y,z
1/2+x,1/2+y,z
1/2-x,1/2+y,-z
1/2-x,1/2-y,-z
1/2+x,1/2-y,z
loop_
_atom_site_type_symbol
_atom_site_label
_atom_site_fract_x
_atom_site_fract_y
_atom_site_fract_z
Si Si1 0.214710 0.200810 0.824703
Si Si2 0.617960 0.151746 0.519062
Si Si3 0.409090 0.422329 0.814929
Si Si4 0.061360 0.117031 0.394837
Si Si5 0.080829 0.682617 0.823281
Si Si6 0.000000 0.000000 0.500000
Si Si7 0.704121 0.782707 0.331124
O O1 0.177024 0.271125 0.837313
O O2 0.296769 0.207307 0.792025
O O3 0.061543 0.166095 0.676927
O O4 0.310694 0.159275 0.991128
O O5 0.500000 0.165501 0.500000
O O6 0.742809 0.103298 0.668534
O O7 0.513944 0.133011 0.329014
O O8 0.700006 0.218635 0.565523
O O9 0.412425 0.500000 0.817390
O O10 0.461050 0.398711 0.747567
O O11 0.500000 0.400651 0.000000
O O12 0.212737 0.155195 0.547094
O O13 0.047987 0.056040 0.457815
O O14 0.957770 0.724469 0.771544
#
# Coordination Sequence:
#
# PCOD9221302 Si02
#       7
#     8   8   8   8   8   2   8
#     4  11  23  38  61  98 134 165 215 269 327 400
#     4  12  23  41  65  94 132 171 215 268 333 385
#     4  11  27  46  68  96 129 176 229 271 316 393
#     4  12  22  42  70  95 130 167 224 272 325 388
#     4  11  23  37  60  96 133 171 205 264 336 385
#     4  12  24  40  74  98 118 182 218 264 332 388
#     4  12  21  41  65  97 131 169 214 275 330 391
#
# _framework density 20.307835000000001
#
# number of rings (size 3 to 8) (size 9 to 14) (size 15 to 20)
#    0.000    0.480    7.200    1.920    2.240    1.600 
#    0.000    0.000    1.760    0.960    0.000    0.000 
#    0.000    0.000    0.000    0.000    0.000    0.000 
#
# Total GULP energy -139288.955502 kJ/mol
# GULP energy per Si atom -5571.558220 kJ/mol
# Density = 2.026161 g / cm^3
# Si number density = 20.307835 Si / 1000 Ang^3
#
#
#
# Elastic Constant Matrix: (Units=GPa)
#
#
# Indices 1 2 3 4 5 6 
#
# 1 99.7136 -5.2887 21.4743 0.0000 -19.0644 0.0000
# 2 -5.2887 35.8787 6.7242 0.0000 -19.4861 0.0000
# 3 21.4743 6.7242 122.9121 0.0000 -19.2108 0.0000
# 4 0.0000 0.0000 0.0000 22.3187 0.0000 -2.9542
# 5 -19.0644 -19.4861 -19.2108 0.0000 34.4805 0.0000
# 6 0.0000 0.0000 0.0000 -2.9542 0.0000 16.5958
#
#
#
# Elastic Compliance Matrix: (Units=1/GPa)
#
#
# Indices 1 2 3 4 5 6 
#
# 1 0.012788 0.008105 -0.000938 0.000000 0.011128 0.000000
# 2 0.008105 0.045599 0.000895 0.000000 0.030749 0.000000
# 3 -0.000938 0.000895 0.009036 0.000000 0.005021 0.000000
# 4 0.000000 0.000000 0.000000 0.045887 0.000000 0.008168
# 5 0.011128 0.030749 0.005021 0.000000 0.055330 0.000000
# 6 0.000000 0.000000 0.000000 0.008168 0.000000 0.061710
#
#
# Mechanical properties :
#
#
# Convention : Reuss Voigt Hill
#
# Bulk Modulus (GPa) = 11.96940 33.81379 22.89159
# Shear Modulus (GPa) = 20.65478 30.38532 25.52005
#
# Velocity S-wave (km/s) = 3.19264 3.87232 3.54879
# Velocity P-wave (km/s) = 4.41558 6.05639 5.29987
#
# Compressibility (1/GPa) = 0.08354639
#
# Stress axis : x y z
#
# Youngs Moduli (GPa) = 78.19663 21.93039 110.67223
#
# Poissons Ratio (x) = -0.17774 0.10385
# Poissons Ratio (y) = -0.63376 -0.09910
# Poissons Ratio (z) = 0.07338 -0.01964
#
# Static dielectric constant tensor:
#      x y z
#    x 1.754190 0.000000 -0.064640 
#    y 0.000000 1.690040 0.000000 
#    z -0.064640 0.000000 1.790190 
# 
# From -- ./inp_files/148950.got.cif
#   From: 2010.05.17/outbox.cif.g08.bks.cpg/sg12_75_cif.got.tgz:148950.got - 2010.06.03 13:09:07.
