data_PCOD9221999
_publ_section_title
;
Structure prediction by ZEFSAII (Michael W. Deem and Ramdas Pophale) SiO2 
 PCOD9221999
Probable space group: C 2/M
;
_chemical_formula_sum "Si O2"
_cell_formula_units_Z 36
_cell_length_a 11.717849
_cell_length_b 27.984883
_cell_length_c 8.069633
_cell_angle_alpha 90.000000
_cell_angle_beta 138.125641
_cell_angle_gamma 90.000000
_cell_volume 1766.347112
_symmetry_space_group_name_H-M "C 2/M"
_symmetry_group_IT_number 12
_symmetry_cell_setting 'monoclinic'
loop_
_space_group_symop_operation_xyz
x,y,z
-x,y,-z
-x,-y,-z
x,-y,z
1/2+x,1/2+y,z
1/2-x,1/2+y,-z
1/2-x,1/2-y,-z
1/2+x,1/2-y,z
loop_
_atom_site_type_symbol
_atom_site_label
_atom_site_fract_x
_atom_site_fract_y
_atom_site_fract_z
Si Si1 0.000000 0.912619 0.500000
Si Si2 0.555754 0.754496 0.865218
Si Si3 0.532066 0.139293 0.342624
Si Si4 0.354496 0.051052 0.979040
Si Si5 0.928014 0.849311 0.732248
O O1 0.827217 0.942685 0.305907
O O2 0.011582 0.880921 0.679180
O O3 0.504047 0.806179 0.744804
O O4 0.456373 0.705934 0.707076
O O5 0.500000 0.756500 0.000000
O O6 0.750000 0.750000 0.000000
O O7 0.500000 0.135002 0.500000
O O8 0.732134 0.133879 0.521274
O O9 0.410318 0.099536 0.131115
O O10 0.352684 0.000000 0.072815
O O11 0.500000 0.047354 0.000000
O O12 0.000000 0.853698 0.000000
#
# Coordination Sequence:
#
# PCOD9221999 Si02
#       5
#     4   8   8   8   8
#     4  12  23  44  76  98 142 180 223 288 352 406
#     4  11  24  41  65  98 139 182 231 280 343 418
#     4  12  24  43  69  96 138 179 228 290 343 410
#     4  11  24  45  70 100 132 178 234 284 348 414
#     4  11  25  42  64 104 139 182 230 276 343 418
#
# _framework density 20.381043999999999
#
# number of rings (size 3 to 8) (size 9 to 14) (size 15 to 20)
#    0.000    0.667    2.222    7.000    4.667    0.444 
#    0.000    0.000    0.000    3.333    0.000    0.000 
#    0.000    0.000    0.000    0.000    0.000    0.000 
#
# Total GULP energy -100308.813397 kJ/mol
# GULP energy per Si atom -5572.711855 kJ/mol
# Density = 2.033466 g / cm^3
# Si number density = 20.381044 Si / 1000 Ang^3
#
#
#
# Elastic Constant Matrix: (Units=GPa)
#
#
# Indices 1 2 3 4 5 6 
#
# 1 113.9623 29.9003 41.6503 0.0000 15.0368 0.0000
# 2 29.9003 114.8635 60.3034 0.0000 6.5909 0.0000
# 3 41.6503 60.3034 103.9296 0.0000 25.2352 0.0000
# 4 0.0000 0.0000 0.0000 27.0041 0.0000 18.3885
# 5 15.0368 6.5909 25.2352 0.0000 36.4607 0.0000
# 6 0.0000 0.0000 0.0000 18.3885 0.0000 52.2397
#
#
#
# Elastic Compliance Matrix: (Units=1/GPa)
#
#
# Indices 1 2 3 4 5 6 
#
# 1 0.010435 -0.000945 -0.003161 0.000000 -0.001945 0.000000
# 2 -0.000945 0.012950 -0.008007 0.000000 0.003591 0.000000
# 3 -0.003161 -0.008007 0.017870 0.000000 -0.009617 0.000000
# 4 0.000000 0.000000 0.000000 0.048706 0.000000 -0.017145
# 5 -0.001945 0.003591 -0.009617 0.000000 0.034236 0.000000
# 6 0.000000 0.000000 0.000000 -0.017145 0.000000 0.025178
#
#
# Mechanical properties :
#
#
# Convention : Reuss Voigt Hill
#
# Bulk Modulus (GPa) = 58.72790 66.27371 62.50081
# Shear Modulus (GPa) = 27.88999 36.53432 32.21216
#
# Velocity S-wave (km/s) = 3.70324 4.23846 3.97986
# Velocity P-wave (km/s) = 6.86752 7.51935 7.20082
#
# Compressibility (1/GPa) = 0.01702768
#
# Stress axis : x y z
#
# Youngs Moduli (GPa) = 95.83393 77.22247 55.96042
#
# Poissons Ratio (x) = 0.07298 0.17691
# Poissons Ratio (y) = 0.09057 0.44807
# Poissons Ratio (z) = 0.30296 0.61831
#
# Static dielectric constant tensor:
#      x y z
#    x 1.761790 0.000000 0.021950 
#    y 0.000000 2.087490 0.000000 
#    z 0.021950 0.000000 1.745810 
# 
# From -- ./inp_files/52922.got.cif
#   From: 2010.05.17/outbox.cif.g08.bks.cpg/sg12_27_cif.got.tgz:52922.got - 2010.06.03 13:09:07.
