data_PCOD9221189
_publ_section_title
;
Structure prediction by ZEFSAII (Michael W. Deem and Ramdas Pophale) SiO2 
 PCOD9221189
Probable space group: C 2/M
;
_chemical_formula_sum "Si O2"
_cell_formula_units_Z 40
_cell_length_a 18.771434
_cell_length_b 14.352566
_cell_length_c 20.830521
_cell_angle_alpha 90.000000
_cell_angle_beta 20.329459
_cell_angle_gamma 90.000000
_cell_volume 1949.751378
_symmetry_space_group_name_H-M "C 2/M"
_symmetry_group_IT_number 12
_symmetry_cell_setting 'monoclinic'
loop_
_space_group_symop_operation_xyz
x,y,z
-x,y,-z
-x,-y,-z
x,-y,z
1/2+x,1/2+y,z
1/2-x,1/2+y,-z
1/2-x,1/2-y,-z
1/2+x,1/2-y,z
loop_
_atom_site_type_symbol
_atom_site_label
_atom_site_fract_x
_atom_site_fract_y
_atom_site_fract_z
Si Si1 0.213766 0.894645 0.643457
Si Si2 0.126563 0.395608 0.759182
Si Si3 0.039062 0.774787 0.595572
Si Si4 0.189537 0.845391 0.085399
Si Si5 0.319629 0.277787 0.198482
O O1 0.338505 0.821138 0.493894
O O2 0.215830 0.848630 0.712663
O O3 0.982052 0.893867 0.812916
O O4 0.294070 0.000000 0.575291
O O5 0.185217 0.500000 0.729204
O O6 0.297053 0.349715 0.568906
O O7 0.111893 0.320778 0.828779
O O8 0.902843 0.397259 0.916254
O O9 0.914759 0.817941 0.759112
O O10 0.880825 0.744849 0.673521
O O11 0.250000 0.750000 0.000000
O O12 0.500000 0.313008 0.000000
#
# Coordination Sequence:
#
# PCOD9221189 Si02
#       5
#     8   8   8   8   8
#     4  11  24  41  67  99 131 171 218 267 323 387
#     4  11  24  40  66  97 128 169 217 266 324 390
#     4  11  24  43  68  92 133 174 213 269 326 384
#     4  12  22  45  67  92 133 174 213 268 328 383
#     4  11  22  44  66  93 132 175 215 269 324 381
#
# _framework density 20.515436999999999
#
# number of rings (size 3 to 8) (size 9 to 14) (size 15 to 20)
#    0.000    0.800    6.000    3.600    0.000    5.600 
#    0.000    3.000    0.000    0.000    0.000    0.000 
#    0.000    0.000    0.000    0.000    0.000    0.000 
#
# Total GULP energy -111777.621409 kJ/mol
# GULP energy per Si atom -5588.881070 kJ/mol
# Density = 2.046874 g / cm^3
# Si number density = 20.515437 Si / 1000 Ang^3
#
#
#
# Elastic Constant Matrix: (Units=GPa)
#
#
# Indices 1 2 3 4 5 6 
#
# 1 81.2994 -2.3458 35.8701 -0.0042 -11.4448 -0.0015
# 2 -2.3458 104.6715 1.8439 -0.0194 -6.2523 0.0055
# 3 35.8701 1.8439 116.5274 -0.0304 -4.4163 0.0075
# 4 -0.0042 -0.0194 -0.0304 -4.4498 0.0147 -9.3455
# 5 -11.4448 -6.2523 -4.4163 0.0147 49.6128 0.0015
# 6 -0.0015 0.0055 0.0075 -9.3455 0.0015 5.8041
#
#
#
# Elastic Compliance Matrix: (Units=1/GPa)
#
#
# Indices 1 2 3 4 5 6 
#
# 1 0.014699 0.000591 -0.004418 0.000002 0.003072 0.000011
# 2 0.000591 0.009651 -0.000284 -0.000004 0.001327 -0.000015
# 3 -0.004418 -0.000284 0.009940 -0.000008 -0.000170 -0.000026
# 4 0.000002 -0.000004 -0.000008 -0.051288 0.000017 -0.082582
# 5 0.003072 0.001327 -0.000170 0.000017 0.021017 0.000021
# 6 0.000011 -0.000015 -0.000026 -0.082582 0.000021 0.039321
#
#
# Mechanical properties :
#
#
# Convention : Reuss Voigt Hill
#
# Bulk Modulus (GPa) = 38.36215 41.47052 39.91634
# Shear Modulus (GPa) = 82.98656 28.00210 55.49433
#
# Velocity S-wave (km/s) = 6.36699 3.69850 5.20661
# Velocity P-wave (km/s) = 8.53178 6.20457 7.45949
#
# Compressibility (1/GPa) = 0.02606736
#
# Stress axis : x y z
#
# Youngs Moduli (GPa) = 68.03281 103.61381 100.60802
#
# Poissons Ratio (x) = -0.06121 0.44444
# Poissons Ratio (y) = -0.04019 0.02860
# Poissons Ratio (z) = 0.30054 0.02945
#
# Static dielectric constant tensor:
#      x y z
#    x 1.754060 0.000010 -0.017010 
#    y 0.000010 1.721380 0.000010 
#    z -0.017010 0.000010 1.766570 
# 
# From -- ./inp_files/284411.got.cif
#   From: 2010.05.17/outbox.cif.g08.bks.cpg/sg12_143_cif.got.tgz:284411.got - 2010.06.03 13:09:07.
