data_PCOD9221731
_publ_section_title
;
Structure prediction by ZEFSAII (Michael W. Deem and Ramdas Pophale) SiO2 
 PCOD9221731
Probable space group: C 2/M
;
_chemical_formula_sum "Si O2"
_cell_formula_units_Z 56
_cell_length_a 13.690609
_cell_length_b 20.821762
_cell_length_c 16.740369
_cell_angle_alpha 90.000000
_cell_angle_beta 32.254305
_cell_angle_gamma 90.000000
_cell_volume 2546.740064
_symmetry_space_group_name_H-M "C 2/M"
_symmetry_group_IT_number 12
_symmetry_cell_setting 'monoclinic'
loop_
_space_group_symop_operation_xyz
x,y,z
-x,y,-z
-x,-y,-z
x,-y,z
1/2+x,1/2+y,z
1/2-x,1/2+y,-z
1/2-x,1/2-y,-z
1/2+x,1/2-y,z
loop_
_atom_site_type_symbol
_atom_site_label
_atom_site_fract_x
_atom_site_fract_y
_atom_site_fract_z
Si Si1 0.795811 0.147932 0.351280
Si Si2 0.024373 0.597587 0.230443
Si Si3 0.593645 0.000000 0.054471
Si Si4 0.307216 0.575655 0.177199
Si Si5 0.310210 0.500000 0.741973
Si Si6 0.122021 0.098592 0.547342
Si Si7 0.479551 0.256113 0.419564
Si Si8 0.407478 0.756164 0.827223
O O1 0.769693 0.118163 0.282016
O O2 0.861824 0.094086 0.367790
O O3 0.628653 0.188081 0.506809
O O4 0.948031 0.203112 0.245475
O O5 0.143797 0.584396 0.226638
O O6 0.017490 0.672470 0.217276
O O7 0.121574 0.561408 0.090784
O O8 0.815645 0.574257 0.381351
O O9 0.380372 0.000000 0.174170
O O10 0.732189 0.000000 0.885785
O O11 0.318679 0.500000 0.190664
O O12 0.500000 0.593164 0.000000
O O13 0.445150 0.561015 0.637684
O O14 0.109447 0.174967 0.539736
O O15 0.500000 0.262407 0.500000
O O16 0.627341 0.251889 0.244782
O O17 0.250000 0.750000 0.000000
#
# Coordination Sequence:
#
# PCOD9221731 Si02
#       8
#     8   8   4   8   4   8   8   8
#     4  11  23  44  67 104 146 192 241 303 367 441
#     4  12  23  47  72 106 145 190 250 304 371 448
#     4  11  29  49  73 104 145 189 240 318 374 463
#     4  11  26  43  70 110 152 201 249 302 374 453
#     4  11  29  49  72 107 138 189 250 307 385 445
#     4  11  25  43  73 102 137 191 242 307 366 438
#     4  11  23  44  69 104 146 189 241 307 371 446
#     4  11  23  42  73 105 142 195 244 306 375 438
#
# _framework density 21.988894999999999
#
# number of rings (size 3 to 8) (size 9 to 14) (size 15 to 20)
#    0.000    0.857    3.571    3.000    9.000    0.571 
#    0.000    0.714    3.143    0.000    0.000    0.000 
#    0.000    0.000    0.000    0.000    0.000    0.000 
#
# Total GULP energy -156263.465389 kJ/mol
# GULP energy per Si atom -5580.838050 kJ/mol
# Density = 2.193885 g / cm^3
# Si number density = 21.988895 Si / 1000 Ang^3
#
#
#
# Elastic Constant Matrix: (Units=GPa)
#
#
# Indices 1 2 3 4 5 6 
#
# 1 100.0839 20.1327 41.9540 -0.0109 27.3594 0.0189
# 2 20.1327 86.2450 40.5660 0.0141 15.8248 0.0154
# 3 41.9540 40.5660 142.6930 -0.0366 22.0449 0.0164
# 4 -0.0109 0.0141 -0.0366 33.8181 0.0053 9.5840
# 5 27.3594 15.8248 22.0449 0.0053 38.4261 -0.0060
# 6 0.0189 0.0154 0.0164 9.5840 -0.0060 36.5438
#
#
#
# Elastic Compliance Matrix: (Units=1/GPa)
#
#
# Indices 1 2 3 4 5 6 
#
# 1 0.013295 -0.000462 -0.002573 0.000005 -0.007800 -0.000008
# 2 -0.000462 0.013885 -0.003269 -0.000008 -0.003514 -0.000003
# 3 -0.002573 -0.003269 0.009000 0.000012 -0.001986 -0.000005
# 4 0.000005 -0.000008 0.000012 0.031944 -0.000013 -0.008378
# 5 -0.007800 -0.003514 -0.001986 -0.000013 0.034164 0.000015
# 6 -0.000008 -0.000003 -0.000005 -0.008378 0.000015 0.029562
#
#
# Mechanical properties :
#
#
# Convention : Reuss Voigt Hill
#
# Bulk Modulus (GPa) = 42.42019 59.36971 50.89495
# Shear Modulus (GPa) = 32.82670 36.84888 34.83779
#
# Velocity S-wave (km/s) = 3.86797 4.09809 3.98469
# Velocity P-wave (km/s) = 6.26752 7.03213 6.66081
#
# Compressibility (1/GPa) = 0.02357368
#
# Stress axis : x y z
#
# Youngs Moduli (GPa) = 75.21489 72.02053 111.10600
#
# Poissons Ratio (x) = 0.03330 0.28582
# Poissons Ratio (y) = 0.03478 0.36315
# Poissons Ratio (z) = 0.19349 0.23540
#
# Static dielectric constant tensor:
#      x y z
#    x 1.912380 0.000010 0.032850 
#    y 0.000010 1.787020 0.000000 
#    z 0.032850 0.000000 1.897710 
# 
# From -- ./inp_files/272375.got.cif
#   From: 2010.05.17/outbox.cif.g08.bks.cpg/sg12_137_cif.got.tgz:272375.got - 2010.06.03 13:09:07.
