data_PCOD9221230
_publ_section_title
;
Structure prediction by ZEFSAII (Michael W. Deem and Ramdas Pophale) SiO2 
 PCOD9221230
Probable space group: C 2/M
;
_chemical_formula_sum "Si O2"
_cell_formula_units_Z 42
_cell_length_a 19.680378
_cell_length_b 17.407511
_cell_length_c 5.246890
_cell_angle_alpha 90.000000
_cell_angle_beta 87.723546
_cell_angle_gamma 90.000000
_cell_volume 1796.094546
_symmetry_space_group_name_H-M "C 2/M"
_symmetry_group_IT_number 12
_symmetry_cell_setting 'monoclinic'
loop_
_space_group_symop_operation_xyz
x,y,z
-x,y,-z
-x,-y,-z
x,-y,z
1/2+x,1/2+y,z
1/2-x,1/2+y,-z
1/2-x,1/2-y,-z
1/2+x,1/2-y,z
loop_
_atom_site_type_symbol
_atom_site_label
_atom_site_fract_x
_atom_site_fract_y
_atom_site_fract_z
Si Si1 0.815244 0.376258 0.719641
Si Si2 0.196081 0.215152 0.205992
Si Si3 0.071501 0.796311 0.858717
Si Si4 0.672918 0.411979 0.577792
Si Si5 0.598301 0.122681 0.764098
Si Si6 0.000000 0.500000 0.000000
O O1 0.808396 0.288514 0.611175
O O2 0.738721 0.408303 0.754567
O O3 0.860712 0.409074 0.486217
O O4 0.854452 0.380040 0.984100
O O5 0.204248 0.133531 0.333258
O O6 0.250000 0.250000 0.000000
O O7 0.124525 0.210536 0.079355
O O8 0.108402 0.860993 0.678250
O O9 0.071201 0.710765 0.737636
O O10 0.000000 0.816576 0.000000
O O11 0.654686 0.500000 0.534345
O O12 0.536401 0.067102 0.824059
#
# Coordination Sequence:
#
# PCOD9221230 Si02
#       6
#     8   8   8   8   8   2
#     4  11  24  46  74 106 144 200 241 309 367 452
#     4  11  22  46  76 100 144 193 254 303 376 450
#     4  11  24  47  69 103 143 203 237 304 378 463
#     4  12  26  43  72 109 144 184 257 316 372 434
#     4  11  26  45  76 106 152 196 248 294 380 449
#     4  12  28  50  72 122 158 194 242 316 360 478
#
# _framework density 23.384070000000001
#
# number of rings (size 3 to 8) (size 9 to 14) (size 15 to 20)
#    0.000    0.762    4.762    2.857    2.667    3.429 
#    0.000    0.952    0.000    0.000    0.000    0.000 
#    0.000    0.000    0.000    0.000    0.000    0.000 
#
# Total GULP energy -116972.033006 kJ/mol
# GULP energy per Si atom -5570.096810 kJ/mol
# Density = 2.333085 g / cm^3
# Si number density = 23.384070 Si / 1000 Ang^3
#
#
#
# Elastic Constant Matrix: (Units=GPa)
#
#
# Indices 1 2 3 4 5 6 
#
# 1 85.3270 25.6320 48.1846 0.0000 -41.7206 0.0000
# 2 25.6320 209.6305 48.5678 0.0000 -27.0514 0.0000
# 3 48.1846 48.5678 119.1247 0.0000 -46.4108 0.0000
# 4 0.0000 0.0000 0.0000 18.8876 0.0000 -16.8550
# 5 -41.7206 -27.0514 -46.4108 0.0000 50.1928 0.0000
# 6 0.0000 0.0000 0.0000 -16.8550 0.0000 -0.2801
#
#
#
# Elastic Compliance Matrix: (Units=1/GPa)
#
#
# Indices 1 2 3 4 5 6 
#
# 1 0.020228 -0.000019 -0.002544 0.000000 0.014451 0.000000
# 2 -0.000019 0.005326 -0.001644 0.000000 0.001335 0.000000
# 3 -0.002544 -0.001644 0.013950 0.000000 0.009899 0.000000
# 4 0.000000 0.000000 0.000000 0.000968 0.000000 -0.058245
# 5 0.014451 0.001335 0.009899 0.000000 0.041807 0.000000
# 6 0.000000 0.000000 0.000000 -0.058245 0.000000 -0.065269
#
#
# Mechanical properties :
#
#
# Convention : Reuss Voigt Hill
#
# Bulk Modulus (GPa) = 32.16474 73.20566 52.68520
# Shear Modulus (GPa) = 139.71901 33.20660 86.46280
#
# Velocity S-wave (km/s) = 7.73818 3.77245 6.08731
# Velocity P-wave (km/s) = 9.67595 7.09569 8.48448
#
# Compressibility (1/GPa) = 0.03108994
#
# Stress axis : x y z
#
# Youngs Moduli (GPa) = 49.43710 187.77038 71.68361
#
# Poissons Ratio (x) = 0.00358 0.18237
# Poissons Ratio (y) = 0.00094 0.11782
# Poissons Ratio (z) = 0.12577 0.30862
#
# Static dielectric constant tensor:
#      x y z
#    x 1.917720 0.000000 0.002810 
#    y 0.000000 1.969870 0.000000 
#    z 0.002810 0.000000 1.961070 
# 
# From -- ./inp_files/20356.got.cif
#   From: 2010.05.17/outbox.cif.g08.bks.cpg/sg12_11_cif.got.tgz:20356.got - 2010.06.03 13:09:07.
