data_PCOD9221612
_publ_section_title
;
Structure prediction by ZEFSAII (Michael W. Deem and Ramdas Pophale) SiO2 
 PCOD9221612
Probable space group: C 2/M
;
_chemical_formula_sum "Si O2"
_cell_formula_units_Z 56
_cell_length_a 11.916061
_cell_length_b 26.396404
_cell_length_c 9.005802
_cell_angle_alpha 90.000000
_cell_angle_beta 108.998417
_cell_angle_gamma 90.000000
_cell_volume 2678.391608
_symmetry_space_group_name_H-M "C 2/M"
_symmetry_group_IT_number 12
_symmetry_cell_setting 'monoclinic'
loop_
_space_group_symop_operation_xyz
x,y,z
-x,y,-z
-x,-y,-z
x,-y,z
1/2+x,1/2+y,z
1/2-x,1/2+y,-z
1/2-x,1/2-y,-z
1/2+x,1/2-y,z
loop_
_atom_site_type_symbol
_atom_site_label
_atom_site_fract_x
_atom_site_fract_y
_atom_site_fract_z
Si Si1 0.748595 0.442112 0.727268
Si Si2 0.100491 0.881672 0.460006
Si Si3 0.699761 0.801524 0.404903
Si Si4 0.954297 0.603916 0.641380
Si Si5 0.173439 0.391987 0.933040
Si Si6 0.856071 0.280938 0.960849
Si Si7 0.887742 0.060101 0.840981
O O1 0.738696 0.500000 0.761313
O O2 0.628829 0.421511 0.603895
O O3 0.842212 0.429681 0.638814
O O4 0.792189 0.413232 0.891327
O O5 0.208053 0.843029 0.495688
O O6 0.084006 0.910614 0.299253
O O7 0.000000 0.849350 0.500000
O O8 0.750000 0.750000 0.500000
O O9 0.579567 0.835694 0.376284
O O10 0.692967 0.790746 0.226291
O O11 0.000000 0.590410 0.500000
O O12 0.052057 0.590222 0.806280
O O13 0.279120 0.409940 0.870942
O O14 0.148371 0.333067 0.949848
O O15 0.750000 0.250000 0.000000
O O16 0.000000 0.265485 0.000000
O O17 0.860791 0.000000 0.805693
O O18 0.000000 0.062591 0.000000
#
# Coordination Sequence:
#
# PCOD9221612 Si02
#       7
#     8   8   8   8   8   8   8
#     4  11  23  41  67  98 134 178 228 285 351 424
#     4  11  24  44  68  98 140 182 234 301 358 429
#     4  11  26  47  68 101 136 181 234 291 363 431
#     4  11  24  42  68  96 138 179 225 290 349 422
#     4  12  22  46  70  98 140 181 233 290 361 426
#     4  12  27  48  75 108 141 187 241 302 371 438
#     4  11  26  44  68 104 142 191 246 295 358 430
#
# _framework density 20.908071
#
# number of rings (size 3 to 8) (size 9 to 14) (size 15 to 20)
#    0.000    0.714    4.286    3.857    4.000    6.571 
#    0.000    0.000    0.000    0.000    0.000    0.000 
#    0.000    0.000    0.000    0.000    0.000    0.000 
#
# Total GULP energy -155930.947597 kJ/mol
# GULP energy per Si atom -5568.962414 kJ/mol
# Density = 2.086048 g / cm^3
# Si number density = 20.908071 Si / 1000 Ang^3
#
#
#
# Elastic Constant Matrix: (Units=GPa)
#
#
# Indices 1 2 3 4 5 6 
#
# 1 73.9607 18.9778 15.6626 0.0000 -15.6435 0.0000
# 2 18.9778 49.8637 17.4662 0.0000 9.4071 0.0000
# 3 15.6626 17.4662 110.2823 0.0000 -6.6658 0.0000
# 4 0.0000 0.0000 0.0000 -10.1867 0.0000 1.0941
# 5 -15.6435 9.4071 -6.6658 0.0000 36.9743 0.0000
# 6 0.0000 0.0000 0.0000 1.0941 0.0000 19.3437
#
#
#
# Elastic Compliance Matrix: (Units=1/GPa)
#
#
# Indices 1 2 3 4 5 6 
#
# 1 0.017821 -0.008365 -0.000629 0.000000 0.009555 0.000000
# 2 -0.008365 0.026600 -0.003688 0.000000 -0.010972 0.000000
# 3 -0.000629 -0.003688 0.009889 0.000000 0.002455 0.000000
# 4 0.000000 0.000000 0.000000 -0.097575 0.000000 0.005519
# 5 0.009555 -0.010972 0.002455 0.000000 0.034322 0.000000
# 6 0.000000 0.000000 0.000000 0.005519 0.000000 0.051384
#
#
# Mechanical properties :
#
#
# Convention : Reuss Voigt Hill
#
# Bulk Modulus (GPa) = 34.54548 37.59110 36.06829
# Shear Modulus (GPa) = 64.55370 21.35962 42.95666
#
# Velocity S-wave (km/s) = 5.56256 3.19971 4.53763
# Velocity P-wave (km/s) = 7.60358 5.62753 6.68893
#
# Compressibility (1/GPa) = 0.02894734
#
# Stress axis : x y z
#
# Youngs Moduli (GPa) = 56.11305 37.59399 101.11827
#
# Poissons Ratio (x) = 0.31447 0.06357
# Poissons Ratio (y) = 0.46938 0.37292
# Poissons Ratio (z) = 0.03528 0.13865
#
# Static dielectric constant tensor:
#      x y z
#    x 1.201820 0.000000 -0.186380 
#    y 0.000000 1.766880 0.000000 
#    z -0.186380 0.000000 1.658300 
# 
# From -- ./inp_files/53312.got.cif
#   From: 2010.05.17/outbox.cif.g08.bks.cpg/sg12_27_cif.got.tgz:53312.got - 2010.06.03 13:09:07.
