data_PCOD9221438
_publ_section_title
;
Structure prediction by ZEFSAII (Michael W. Deem and Ramdas Pophale) SiO2 
 PCOD9221438
Probable space group: C 2/M
;
_chemical_formula_sum "Si O2"
_cell_formula_units_Z 26
_cell_length_a 6.959713
_cell_length_b 16.878997
_cell_length_c 13.117591
_cell_angle_alpha 90.000000
_cell_angle_beta 137.672657
_cell_angle_gamma 90.000000
_cell_volume 1037.630800
_symmetry_space_group_name_H-M "C 2/M"
_symmetry_group_IT_number 12
_symmetry_cell_setting 'monoclinic'
loop_
_space_group_symop_operation_xyz
x,y,z
-x,y,-z
-x,-y,-z
x,-y,z
1/2+x,1/2+y,z
1/2-x,1/2+y,-z
1/2-x,1/2-y,-z
1/2+x,1/2-y,z
loop_
_atom_site_type_symbol
_atom_site_label
_atom_site_fract_x
_atom_site_fract_y
_atom_site_fract_z
Si Si1 0.213884 0.859876 0.280537
Si Si2 0.500000 0.000000 0.500000
Si Si3 0.149487 0.178439 0.664393
Si Si4 0.337474 0.091570 0.046440
O O1 0.426533 0.930907 0.385640
O O2 0.347994 0.773295 0.322712
O O3 0.030269 0.856831 0.313454
O O4 0.979086 0.877847 0.102248
O O5 0.468789 0.144654 0.803495
O O6 0.000000 0.157882 0.500000
O O7 0.333618 0.000000 0.077245
O O8 0.500000 0.094024 0.000000
#
# Coordination Sequence:
#
# PCOD9221438 Si02
#       4
#     8   2   8   8
#     4  11  23  43  66  91 125 168 208 253 312 370
#     4  12  24  40  72  86 124 168 210 252 314 374
#     4  11  23  39  66  94 127 161 209 258 309 366
#     4   9  19  38  62  91 124 164 206 252 309 367
#
# _framework density 25.057082000000001
#
# number of rings (size 3 to 8) (size 9 to 14) (size 15 to 20)
#    0.000    1.538    3.077    1.846    2.154    0.615 
#    0.000    0.000    0.000    3.692    0.000    0.000 
#    0.000    0.000    0.000    0.000    0.000    0.000 
#
# Total GULP energy -72654.712953 kJ/mol
# GULP energy per Si atom -5588.824073 kJ/mol
# Density = 2.500005 g / cm^3
# Si number density = 25.057082 Si / 1000 Ang^3
#
#
#
# Elastic Constant Matrix: (Units=GPa)
#
#
# Indices 1 2 3 4 5 6 
#
# 1 63.5682 11.5345 31.3677 0.0000 -5.7064 0.0001
# 2 11.5345 142.7635 100.4241 0.0000 5.0043 0.0000
# 3 31.3677 100.4241 241.6256 0.0000 -15.5988 0.0003
# 4 0.0000 0.0000 0.0000 60.8433 0.0000 -22.0066
# 5 -5.7064 5.0043 -15.5988 0.0000 42.7144 0.0001
# 6 0.0001 0.0000 0.0003 -22.0066 0.0001 46.1766
#
#
#
# Elastic Compliance Matrix: (Units=1/GPa)
#
#
# Indices 1 2 3 4 5 6 
#
# 1 0.016901 0.000084 -0.002134 0.000000 0.001469 0.000000
# 2 0.000084 0.010219 -0.004439 0.000000 -0.002807 0.000000
# 3 -0.002134 -0.004439 0.006427 0.000000 0.002582 0.000000
# 4 0.000000 0.000000 0.000000 0.019859 0.000000 0.009464
# 5 0.001469 -0.002807 0.002582 0.000000 0.024879 0.000000
# 6 0.000000 0.000000 0.000000 0.009464 0.000000 0.026166
#
#
# Mechanical properties :
#
#
# Convention : Reuss Voigt Hill
#
# Bulk Modulus (GPa) = 48.61763 81.62332 65.12048
# Shear Modulus (GPa) = 40.22958 50.25561 45.24259
#
# Velocity S-wave (km/s) = 4.01124 4.48330 4.25382
# Velocity P-wave (km/s) = 6.39517 7.71010 7.08322
#
# Compressibility (1/GPa) = 0.02056867
#
# Stress axis : x y z
#
# Youngs Moduli (GPa) = 59.16865 97.85731 155.58157
#
# Poissons Ratio (x) = -0.00826 0.33206
# Poissons Ratio (y) = -0.00499 0.69068
# Poissons Ratio (z) = 0.12628 0.43442
#
# Static dielectric constant tensor:
#      x y z
#    x 2.114110 0.000000 0.005500 
#    y 0.000000 1.876320 0.000000 
#    z 0.005500 0.000000 1.946010 
# 
# From -- ./inp_files/36591.got.cif
#   From: 2010.05.17/outbox.cif.g08.bks.cpg/sg12_19_cif.got.tgz:36591.got - 2010.06.03 13:09:07.
