data_PCOD9221635
_publ_section_title
;
Structure prediction by ZEFSAII (Michael W. Deem and Ramdas Pophale) SiO2 
 PCOD9221635
Probable space group: C 2/M
;
_chemical_formula_sum "Si O2"
_cell_formula_units_Z 48
_cell_length_a 21.413710
_cell_length_b 16.761313
_cell_length_c 17.838874
_cell_angle_alpha 90.000000
_cell_angle_beta 159.465426
_cell_angle_gamma 90.000000
_cell_volume 2245.913216
_symmetry_space_group_name_H-M "C 2/M"
_symmetry_group_IT_number 12
_symmetry_cell_setting 'monoclinic'
loop_
_space_group_symop_operation_xyz
x,y,z
-x,y,-z
-x,-y,-z
x,-y,z
1/2+x,1/2+y,z
1/2-x,1/2+y,-z
1/2-x,1/2-y,-z
1/2+x,1/2-y,z
loop_
_atom_site_type_symbol
_atom_site_label
_atom_site_fract_x
_atom_site_fract_y
_atom_site_fract_z
Si Si1 0.833384 0.847760 0.143799
Si Si2 0.104645 0.500000 0.196388
Si Si3 0.430213 0.845723 0.739244
Si Si4 0.504280 0.204703 0.422446
Si Si5 0.670720 0.405003 0.029645
Si Si6 0.326658 0.675074 0.687723
Si Si7 0.010506 0.000000 0.600600
O O1 0.941266 0.770842 0.292108
O O2 0.870276 0.871652 0.099933
O O3 0.889828 0.922100 0.257926
O O4 0.624703 0.833415 0.922402
O O5 0.064135 0.421695 0.200004
O O6 0.313307 0.500000 0.412708
O O7 0.000000 0.500000 0.000000
O O8 0.376783 0.766459 0.724532
O O9 0.289394 0.856722 0.513509
O O10 0.500000 0.242717 0.500000
O O11 0.696295 0.174462 0.612167
O O12 0.358978 0.134468 0.261801
O O13 0.680552 0.500000 0.039157
O O14 0.508127 0.374165 0.897452
O O15 0.000000 0.000000 0.500000
#
# Coordination Sequence:
#
# PCOD9221635 Si02
#       7
#     8   4   8   8   8   8   4
#     4  12  22  45  71 105 141 183 234 284 355 432
#     4  12  26  42  64 110 152 185 230 286 361 440
#     4  11  23  41  71 102 142 190 232 286 347 425
#     4  12  27  47  73 105 143 186 235 299 360 420
#     4  12  26  47  75 105 138 184 242 298 350 423
#     4  11  24  45  71 102 139 188 243 291 345 418
#     4  12  24  40  62 104 152 189 222 280 353 426
#
# _framework density 21.372152
#
# number of rings (size 3 to 8) (size 9 to 14) (size 15 to 20)
#    0.000    0.333    4.167    6.500    1.167    3.000 
#    0.000    0.833    0.000    0.000    0.000    0.000 
#    0.000    0.000    0.000    0.000    0.000    0.000 
#
# Total GULP energy -134477.727337 kJ/mol
# GULP energy per Si atom -5603.238639 kJ/mol
# Density = 2.132351 g / cm^3
# Si number density = 21.372152 Si / 1000 Ang^3
#
#
#
# Elastic Constant Matrix: (Units=GPa)
#
#
# Indices 1 2 3 4 5 6 
#
# 1 84.9854 29.0445 34.7031 0.0026 22.5637 -0.0049
# 2 29.0445 120.1547 35.4263 0.0010 3.2503 -0.0066
# 3 34.7031 35.4263 93.2356 -0.0006 35.2779 -0.0043
# 4 0.0026 0.0010 -0.0006 14.7819 -0.0001 16.5924
# 5 22.5637 3.2503 35.2779 -0.0001 48.3997 -0.0038
# 6 -0.0049 -0.0066 -0.0043 16.5924 -0.0038 5.5114
#
#
#
# Elastic Compliance Matrix: (Units=1/GPa)
#
#
# Indices 1 2 3 4 5 6 
#
# 1 0.015106 -0.002707 -0.002759 0.000003 -0.004849 -0.000005
# 2 -0.002707 0.010123 -0.004224 0.000004 0.003661 -0.000004
# 3 -0.002759 -0.004224 0.017624 -0.000001 -0.011276 0.000002
# 4 0.000003 0.000004 -0.000001 -0.028433 0.000006 0.085599
# 5 -0.004849 0.003661 -0.011276 0.000006 0.030895 -0.000005
# 6 -0.000005 -0.000004 0.000002 0.085599 -0.000005 -0.076259
#
#
# Mechanical properties :
#
#
# Convention : Reuss Voigt Hill
#
# Bulk Modulus (GPa) = 42.60227 55.19151 48.89689
# Shear Modulus (GPa) = -1337.23311 27.01873 -655.10719
#
# Velocity S-wave (km/s) = -25.04092 3.55942 -17.52681
# Velocity P-wave (km/s) = 28.56724 6.54009 19.66360
#
# Compressibility (1/GPa) = 0.02347293
#
# Stress axis : x y z
#
# Youngs Moduli (GPa) = 66.19875 98.78141 56.74032
#
# Poissons Ratio (x) = 0.26738 0.15656
# Poissons Ratio (y) = 0.17919 0.23969
# Poissons Ratio (z) = 0.18265 0.41728
#
# Static dielectric constant tensor:
#      x y z
#    x 1.762610 0.000000 0.000950 
#    y 0.000000 1.730160 0.000000 
#    z 0.000950 0.000000 1.775040 
# 
# From -- ./inp_files/285475.got.cif
#   From: 2010.05.17/outbox.cif.g08.bks.cpg/sg12_143_cif.got.tgz:285475.got - 2010.06.03 13:09:07.
