data_PCOD9221437
_publ_section_title
;
Structure prediction by ZEFSAII (Michael W. Deem and Ramdas Pophale) SiO2 
 PCOD9221437
Probable space group: C 2/M
;
_chemical_formula_sum "Si O2"
_cell_formula_units_Z 58
_cell_length_a 11.022974
_cell_length_b 17.628532
_cell_length_c 19.820695
_cell_angle_alpha 90.000000
_cell_angle_beta 137.292381
_cell_angle_gamma 90.000000
_cell_volume 2612.331845
_symmetry_space_group_name_H-M "C 2/M"
_symmetry_group_IT_number 12
_symmetry_cell_setting 'monoclinic'
loop_
_space_group_symop_operation_xyz
x,y,z
-x,y,-z
-x,-y,-z
x,-y,z
1/2+x,1/2+y,z
1/2-x,1/2+y,-z
1/2-x,1/2-y,-z
1/2+x,1/2-y,z
loop_
_atom_site_type_symbol
_atom_site_label
_atom_site_fract_x
_atom_site_fract_y
_atom_site_fract_z
Si Si1 0.799684 0.377168 0.643881
Si Si2 0.773575 0.350102 0.786008
Si Si3 0.062266 0.914874 0.288081
Si Si4 0.159208 0.675217 0.936543
Si Si5 0.197056 0.283021 0.553491
Si Si6 0.160987 0.685322 0.783322
Si Si7 0.500000 0.500000 0.500000
Si Si8 0.009045 0.086713 0.106900
O O1 0.793200 0.391183 0.721496
O O2 0.736320 0.290990 0.613264
O O3 0.656563 0.433733 0.553491
O O4 0.000477 0.371210 0.694195
O O5 0.641441 0.401628 0.774021
O O6 0.689411 0.264030 0.754841
O O7 0.972867 0.343073 0.895931
O O8 0.176150 0.852526 0.374480
O O9 0.059049 0.905279 0.206379
O O10 0.121267 0.000000 0.329138
O O11 0.106785 0.698454 0.838681
O O12 0.250000 0.750000 0.000000
O O13 0.307156 0.610447 0.006880
O O14 0.250000 0.250000 0.500000
O O15 0.000000 0.305719 0.500000
O O16 0.349574 0.643553 0.867711
O O17 0.040087 0.000000 0.099612
#
# Coordination Sequence:
#
# PCOD9221437 Si02
#       8
#     8   8   8   8   8   8   2   8
#     4  11  26  43  69 101 134 182 223 298 351 430
#     4  11  23  43  71  96 139 181 235 284 349 417
#     4  11  26  45  70  98 138 186 230 292 354 422
#     4  11  23  39  66 105 135 184 238 282 335 416
#     4  12  26  46  73 104 136 182 237 293 368 435
#     4  11  23  41  69  99 135 184 231 287 348 416
#     4  12  28  48  68 104 142 170 248 286 372 432
#     4  11  25  43  64  98 145 184 231 285 348 418
#
# _framework density 22.202385
#
# number of rings (size 3 to 8) (size 9 to 14) (size 15 to 20)
#    0.000    0.828    3.448    2.897    3.862    3.586 
#    2.483    1.379    0.000    0.000    0.000    0.000 
#    0.000    0.000    0.000    0.000    0.000    0.000 
#
# Total GULP energy -161580.248193 kJ/mol
# GULP energy per Si atom -5571.732696 kJ/mol
# Density = 2.215185 g / cm^3
# Si number density = 22.202385 Si / 1000 Ang^3
#
#
#
# Elastic Constant Matrix: (Units=GPa)
#
#
# Indices 1 2 3 4 5 6 
#
# 1 80.1201 10.3486 33.7800 0.0000 18.9530 0.0000
# 2 10.3486 101.0289 24.4537 0.0000 7.5194 0.0000
# 3 33.7800 24.4537 66.9874 0.0000 26.1088 0.0000
# 4 0.0000 0.0000 0.0000 32.2475 0.0000 10.8497
# 5 18.9530 7.5194 26.1088 0.0000 47.0587 0.0000
# 6 0.0000 0.0000 0.0000 10.8497 0.0000 24.2178
#
#
#
# Elastic Compliance Matrix: (Units=1/GPa)
#
#
# Indices 1 2 3 4 5 6 
#
# 1 0.016091 0.000292 -0.007243 0.000000 -0.002509 0.000000
# 2 0.000292 0.010876 -0.004331 0.000000 0.000547 0.000000
# 3 -0.007243 -0.004331 0.023929 0.000000 -0.009667 0.000000
# 4 0.000000 0.000000 0.000000 0.036514 0.000000 -0.016358
# 5 -0.002509 0.000547 -0.009667 0.000000 0.027536 0.000000
# 6 0.000000 0.000000 0.000000 -0.016358 0.000000 0.048621
#
#
# Mechanical properties :
#
#
# Convention : Reuss Voigt Hill
#
# Bulk Modulus (GPa) = 35.29549 42.81123 39.05336
# Shear Modulus (GPa) = 25.56572 32.67509 29.12040
#
# Velocity S-wave (km/s) = 3.39704 3.84043 3.62552
# Velocity P-wave (km/s) = 5.59626 6.24414 5.92906
#
# Compressibility (1/GPa) = 0.02833223
#
# Stress axis : x y z
#
# Youngs Moduli (GPa) = 62.14756 91.94763 41.78984
#
# Poissons Ratio (x) = -0.02681 0.30267
# Poissons Ratio (y) = -0.01812 0.18098
# Poissons Ratio (z) = 0.45012 0.39819
#
# Static dielectric constant tensor:
#      x y z
#    x 2.075870 0.000000 0.097380 
#    y 0.000000 1.851840 0.000000 
#    z 0.097380 0.000000 2.016830 
# 
# From -- ./inp_files/306377.got.cif
#   From: 2010.05.17/outbox.cif.g08.bks.cpg/sg12_154_cif.got.tgz:306377.got - 2010.06.03 13:09:07.
