data_PCOD9221508
_publ_section_title
;
Structure prediction by ZEFSAII (Michael W. Deem and Ramdas Pophale) SiO2 
 PCOD9221508
Probable space group: C 2/M
;
_chemical_formula_sum "Si O2"
_cell_formula_units_Z 52
_cell_length_a 17.688323
_cell_length_b 12.894340
_cell_length_c 14.244367
_cell_angle_alpha 90.000000
_cell_angle_beta 139.789469
_cell_angle_gamma 90.000000
_cell_volume 2097.447751
_symmetry_space_group_name_H-M "C 2/M"
_symmetry_group_IT_number 12
_symmetry_cell_setting 'monoclinic'
loop_
_space_group_symop_operation_xyz
x,y,z
-x,y,-z
-x,-y,-z
x,-y,z
1/2+x,1/2+y,z
1/2-x,1/2+y,-z
1/2-x,1/2-y,-z
1/2+x,1/2-y,z
loop_
_atom_site_type_symbol
_atom_site_label
_atom_site_fract_x
_atom_site_fract_y
_atom_site_fract_z
Si Si1 0.499799 0.114412 0.131612
Si Si2 0.842018 0.880599 0.601833
Si Si3 0.235029 0.000000 0.110410
Si Si4 0.631448 0.209749 0.720779
Si Si5 0.600028 0.303558 0.891418
Si Si6 0.403694 0.117987 0.562251
Si Si7 0.740271 0.617472 0.691824
O O1 0.410502 0.209353 0.043893
O O2 0.541712 0.109850 0.280667
O O3 0.449882 0.000000 0.064213
O O4 0.380986 0.129537 0.813180
O O5 0.727777 0.841003 0.549114
O O6 0.963004 0.827793 0.740772
O O7 0.812013 0.881043 0.463364
O O8 0.853270 0.000000 0.641617
O O9 0.158818 0.092408 0.984362
O O10 0.312494 0.094921 0.232309
O O11 0.492215 0.188589 0.589832
O O12 0.682325 0.293523 0.698182
O O13 0.847521 0.241130 0.155263
O O14 0.399940 0.000000 0.523389
O O15 0.717459 0.500000 0.706772
#
# Coordination Sequence:
#
# PCOD9221508 Si02
#       7
#     8   8   4   8   8   8   8
#     4   8  17  37  64  95 127 169 224 274 325 394
#     4   9  18  38  69 104 133 160 222 289 343 394
#     4  12  26  46  61  98 133 187 232 267 322 397
#     4  11  23  40  66  94 142 176 219 271 335 412
#     4  11  23  40  70  97 133 177 228 280 330 390
#     4   8  15  33  64  94 125 166 212 279 333 386
#     4   9  20  39  67 103 138 171 210 278 354 404
#
# _framework density 24.792037000000001
#
# number of rings (size 3 to 8) (size 9 to 14) (size 15 to 20)
#    0.000    2.462    1.538    2.308    2.154    6.154 
#    0.000    3.846    1.692    3.692    0.000    0.000 
#    0.000    0.000    0.000    0.000    0.000    0.000 
#
# Total GULP energy -145050.021717 kJ/mol
# GULP energy per Si atom -5578.846989 kJ/mol
# Density = 2.473561 g / cm^3
# Si number density = 24.792037 Si / 1000 Ang^3
#
#
#
# Elastic Constant Matrix: (Units=GPa)
#
#
# Indices 1 2 3 4 5 6 
#
# 1 147.8242 108.7360 45.7970 0.0000 0.5218 0.0000
# 2 108.7360 284.6599 41.9217 0.0000 16.0121 0.0000
# 3 45.7970 41.9217 70.8661 0.0000 4.7595 0.0000
# 4 0.0000 0.0000 0.0000 31.1878 0.0000 2.2872
# 5 0.5218 16.0121 4.7595 0.0000 25.1700 0.0000
# 6 0.0000 0.0000 0.0000 2.2872 0.0000 34.9416
#
#
#
# Elastic Compliance Matrix: (Units=1/GPa)
#
#
# Indices 1 2 3 4 5 6 
#
# 1 0.011023 -0.003618 -0.005188 0.000000 0.003054 0.000000
# 2 -0.003618 0.005143 -0.000495 0.000000 -0.003103 0.000000
# 3 -0.005188 -0.000495 0.017957 0.000000 -0.002973 0.000000
# 4 0.000000 0.000000 0.000000 0.032219 0.000000 -0.002109
# 5 0.003054 -0.003103 -0.002973 0.000000 0.042202 0.000000
# 6 0.000000 0.000000 0.000000 -0.002109 0.000000 0.028757
#
#
# Mechanical properties :
#
#
# Convention : Reuss Voigt Hill
#
# Bulk Modulus (GPa) = 64.44007 99.58440 82.01223
# Shear Modulus (GPa) = 31.04102 38.71958 34.88030
#
# Velocity S-wave (km/s) = 3.54228 3.95622 3.75496
# Velocity P-wave (km/s) = 6.54057 7.81818 7.20774
#
# Compressibility (1/GPa) = 0.01551830
#
# Stress axis : x y z
#
# Youngs Moduli (GPa) = 90.72014 194.45357 55.68947
#
# Poissons Ratio (x) = 0.70360 0.28893
# Poissons Ratio (y) = 0.32826 0.02759
# Poissons Ratio (z) = 0.47067 0.09634
#
# Static dielectric constant tensor:
#      x y z
#    x 1.962380 0.000000 -0.020110 
#    y 0.000000 1.935910 0.000000 
#    z -0.020110 0.000000 2.018650 
# 
# From -- ./inp_files/289169.got.cif
#   From: 2010.05.17/outbox.cif.g08.bks.cpg/sg12_145_cif.got.tgz:289169.got - 2010.06.03 13:09:07.
