data_PCOD9221962
_publ_section_title
;
Structure prediction by ZEFSAII (Michael W. Deem and Ramdas Pophale) SiO2 
 PCOD9221962
Probable space group: C 2/M
;
_chemical_formula_sum "Si O2"
_cell_formula_units_Z 34
_cell_length_a 17.114552
_cell_length_b 21.904158
_cell_length_c 8.474293
_cell_angle_alpha 90.000000
_cell_angle_beta 31.278006
_cell_angle_gamma 90.000000
_cell_volume 1649.387855
_symmetry_space_group_name_H-M "C 2/M"
_symmetry_group_IT_number 12
_symmetry_cell_setting 'monoclinic'
loop_
_space_group_symop_operation_xyz
x,y,z
-x,y,-z
-x,-y,-z
x,-y,z
1/2+x,1/2+y,z
1/2-x,1/2+y,-z
1/2-x,1/2-y,-z
1/2+x,1/2-y,z
loop_
_atom_site_type_symbol
_atom_site_label
_atom_site_fract_x
_atom_site_fract_y
_atom_site_fract_z
Si Si1 0.675064 0.109441 0.880339
Si Si2 0.851864 0.931430 0.869199
Si Si3 0.482449 0.657163 0.212715
Si Si4 0.000000 0.500000 0.000000
Si Si5 0.907352 0.274668 0.804189
O O1 0.722921 0.089390 0.974176
O O2 0.826197 0.122808 0.518506
O O3 0.583011 0.054843 0.961663
O O4 0.605904 0.176217 0.032995
O O5 0.000000 0.929674 0.500000
O O6 0.884749 0.887316 0.956994
O O7 0.829198 0.000000 0.964197
O O8 0.500550 0.716664 0.289634
O O9 0.500000 0.671983 0.000000
O O10 0.000000 0.302541 0.500000
O O11 0.750000 0.250000 0.000000
#
# Coordination Sequence:
#
# PCOD9221962 Si02
#       5
#     8   8   8   2   8
#     4  11  24  46  68 100 146 186 237 293 355 432
#     4   9  17  37  66  91 127 186 233 279 345 418
#     4  11  24  40  69 108 143 182 237 298 357 423
#     4  12  28  48  70 100 146 198 234 300 370 410
#     4  12  23  45  74 105 139 186 240 290 361 429
#
# _framework density 20.613707999999999
#
# number of rings (size 3 to 8) (size 9 to 14) (size 15 to 20)
#    0.000    1.176    5.882    0.706    3.294    3.294 
#    0.000    0.588    0.000    0.000    0.000    0.000 
#    0.000    0.000    0.000    0.000    0.000    0.000 
#
# Total GULP energy -94636.945729 kJ/mol
# GULP energy per Si atom -5566.879161 kJ/mol
# Density = 2.056679 g / cm^3
# Si number density = 20.613708 Si / 1000 Ang^3
#
#
#
# Elastic Constant Matrix: (Units=GPa)
#
#
# Indices 1 2 3 4 5 6 
#
# 1 87.0909 29.0576 30.3624 -0.0003 3.0857 -0.0007
# 2 29.0576 118.5649 7.8441 0.0002 -10.1057 -0.0004
# 3 30.3624 7.8441 43.2040 0.0035 4.4571 0.0024
# 4 -0.0003 0.0002 0.0035 17.6449 -0.0013 -5.5354
# 5 3.0857 -10.1057 4.4571 -0.0013 20.2921 -0.0008
# 6 -0.0007 -0.0004 0.0024 -5.5354 -0.0008 22.1133
#
#
#
# Elastic Compliance Matrix: (Units=1/GPa)
#
#
# Indices 1 2 3 4 5 6 
#
# 1 0.016454 -0.003482 -0.010737 0.000003 -0.001878 0.000002
# 2 -0.003482 0.009735 0.000128 0.000000 0.005350 0.000000
# 3 -0.010737 0.000128 0.031201 -0.000009 -0.005157 -0.000006
# 4 0.000003 0.000000 -0.000009 0.061503 0.000006 0.015396
# 5 -0.001878 0.005350 -0.005157 0.000006 0.053363 0.000004
# 6 0.000002 0.000000 -0.000006 0.015396 0.000004 0.049075
#
#
# Mechanical properties :
#
#
# Convention : Reuss Voigt Hill
#
# Bulk Modulus (GPa) = 34.23930 42.59866 38.41898
# Shear Modulus (GPa) = 19.28639 24.11645 21.70142
#
# Velocity S-wave (km/s) = 3.06209 3.42412 3.24816
# Velocity P-wave (km/s) = 5.39888 6.02851 5.72236
#
# Compressibility (1/GPa) = 0.02920620
#
# Stress axis : x y z
#
# Youngs Moduli (GPa) = 60.77557 102.72093 32.05053
#
# Poissons Ratio (x) = 0.35769 0.34414
# Poissons Ratio (y) = 0.21163 -0.00410
# Poissons Ratio (z) = 0.65257 -0.01313
#
# Static dielectric constant tensor:
#      x y z
#    x 1.704660 0.000000 -0.052480 
#    y 0.000000 1.739680 0.000000 
#    z -0.052480 0.000000 1.783260 
# 
# From -- ./inp_files/77897.got.cif
#   From: 2010.05.17/outbox.cif.g08.bks.cpg/sg12_39_cif.got.tgz:77897.got - 2010.06.03 13:09:07.
