data_PCOD9221137
_publ_section_title
;
Structure prediction by ZEFSAII (Michael W. Deem and Ramdas Pophale) SiO2 
 PCOD9221137
Probable space group: C 2/M
;
_chemical_formula_sum "Si O2"
_cell_formula_units_Z 32
_cell_length_a 14.479314
_cell_length_b 13.939184
_cell_length_c 10.998624
_cell_angle_alpha 90.000000
_cell_angle_beta 140.058958
_cell_angle_gamma 90.000000
_cell_volume 1425.141691
_symmetry_space_group_name_H-M "C 2/M"
_symmetry_group_IT_number 12
_symmetry_cell_setting 'monoclinic'
loop_
_space_group_symop_operation_xyz
x,y,z
-x,y,-z
-x,-y,-z
x,-y,z
1/2+x,1/2+y,z
1/2-x,1/2+y,-z
1/2-x,1/2-y,-z
1/2+x,1/2-y,z
loop_
_atom_site_type_symbol
_atom_site_label
_atom_site_fract_x
_atom_site_fract_y
_atom_site_fract_z
Si Si1 0.862804 0.685293 0.785595
Si Si2 0.163297 0.500000 0.702840
Si Si3 0.572151 0.322742 0.372594
Si Si4 0.307405 0.788566 0.184359
Si Si5 0.575873 0.500000 0.206443
O O1 0.711432 0.638025 0.588634
O O2 0.903646 0.736171 0.700372
O O3 0.802668 0.763154 0.819619
O O4 0.000000 0.641322 0.000000
O O5 0.181242 0.402782 0.797555
O O6 0.258994 0.500000 0.675338
O O7 0.000000 0.500000 0.500000
O O8 0.453174 0.273898 0.337268
O O9 0.532228 0.409470 0.243392
O O10 0.250000 0.750000 0.000000
O O11 0.500000 0.500000 0.000000
#
# Coordination Sequence:
#
# PCOD9221137 Si02
#       5
#     8   4   8   8   4
#     4  11  22  42  68  99 136 190 230 286 362 417
#     4  12  26  42  71 109 135 177 252 295 329 426
#     4  11  24  42  71 101 143 183 233 297 358 410
#     4  12  24  44  70 104 146 187 232 295 362 421
#     4  12  24  46  71 108 135 185 248 292 339 435
#
# _framework density 22.453907999999998
#
# number of rings (size 3 to 8) (size 9 to 14) (size 15 to 20)
#    0.000    0.500    5.000    4.500    3.500    0.000 
#    0.000    4.375    0.000    0.000    0.000    0.000 
#    0.000    0.000    0.000    0.000    0.000    0.000 
#
# Total GULP energy -89113.703560 kJ/mol
# GULP energy per Si atom -5569.606473 kJ/mol
# Density = 2.240280 g / cm^3
# Si number density = 22.453908 Si / 1000 Ang^3
#
#
#
# Elastic Constant Matrix: (Units=GPa)
#
#
# Indices 1 2 3 4 5 6 
#
# 1 93.3908 16.2954 34.0018 0.0000 8.5684 0.0000
# 2 16.2954 108.7769 24.0648 0.0000 -4.5952 0.0000
# 3 34.0018 24.0648 173.4788 0.0000 -14.7045 0.0000
# 4 0.0000 0.0000 0.0000 -33.0808 0.0000 32.1717
# 5 8.5684 -4.5952 -14.7045 0.0000 43.1716 0.0000
# 6 0.0000 0.0000 0.0000 32.1717 0.0000 -3.9295
#
#
#
# Elastic Compliance Matrix: (Units=1/GPa)
#
#
# Indices 1 2 3 4 5 6 
#
# 1 0.012170 -0.001419 -0.002478 0.000000 -0.003410 0.000000
# 2 -0.001419 0.009664 -0.000980 0.000000 0.000977 0.000000
# 3 -0.002478 -0.000980 0.006610 0.000000 0.002639 0.000000
# 4 0.000000 0.000000 0.000000 0.004342 0.000000 0.035548
# 5 -0.003410 0.000977 0.002639 0.000000 0.024843 0.000000
# 6 0.000000 0.000000 0.000000 0.035548 0.000000 0.036552
#
#
# Mechanical properties :
#
#
# Convention : Reuss Voigt Hill
#
# Bulk Modulus (GPa) = 53.50205 58.26338 55.88271
# Shear Modulus (GPa) = 45.38702 21.31789 33.35245
#
# Velocity S-wave (km/s) = 4.50081 3.08459 3.85824
# Velocity P-wave (km/s) = 7.13365 6.22017 6.69251
#
# Compressibility (1/GPa) = 0.01869087
#
# Stress axis : x y z
#
# Youngs Moduli (GPa) = 82.16757 103.48004 151.29616
#
# Poissons Ratio (x) = 0.14685 0.37485
# Poissons Ratio (y) = 0.11661 0.14821
# Poissons Ratio (z) = 0.20358 0.10137
#
# Static dielectric constant tensor:
#      x y z
#    x 1.884600 0.000000 0.125410 
#    y 0.000000 1.776160 0.000000 
#    z 0.125410 0.000000 2.002880 
# 
# From -- ./inp_files/143423.got.cif
#   From: 2010.05.17/outbox.cif.g08.bks.cpg/sg12_72_cif.got.tgz:143423.got - 2010.06.03 13:09:07.
