data_PCOD9221682
_publ_section_title
;
Structure prediction by ZEFSAII (Michael W. Deem and Ramdas Pophale) SiO2 
 PCOD9221682
Probable space group: C 2/M
;
_chemical_formula_sum "Si O2"
_cell_formula_units_Z 42
_cell_length_a 11.399472
_cell_length_b 22.043202
_cell_length_c 11.308600
_cell_angle_alpha 90.000000
_cell_angle_beta 128.243941
_cell_angle_gamma 90.000000
_cell_volume 2231.769929
_symmetry_space_group_name_H-M "C 2/M"
_symmetry_group_IT_number 12
_symmetry_cell_setting 'monoclinic'
loop_
_space_group_symop_operation_xyz
x,y,z
-x,y,-z
-x,-y,-z
x,-y,z
1/2+x,1/2+y,z
1/2-x,1/2+y,-z
1/2-x,1/2-y,-z
1/2+x,1/2-y,z
loop_
_atom_site_type_symbol
_atom_site_label
_atom_site_fract_x
_atom_site_fract_y
_atom_site_fract_z
Si Si1 0.045437 0.889713 0.351319
Si Si2 0.302429 0.808422 0.608835
Si Si3 0.638719 0.168098 0.837603
Si Si4 0.757679 0.803295 0.155394
Si Si5 0.658007 0.569553 0.165680
Si Si6 0.500000 0.500000 0.500000
O O1 0.178796 0.858599 0.506403
O O2 0.118222 0.908988 0.272554
O O3 0.989475 0.946944 0.390266
O O4 0.912407 0.841265 0.250325
O O5 0.250000 0.750000 0.500000
O O6 0.470121 0.828932 0.684561
O O7 0.303703 0.799746 0.750447
O O8 0.711393 0.233242 0.855168
O O9 0.729706 0.114804 0.830737
O O10 0.654652 0.165752 0.990533
O O11 0.713358 0.500000 0.200601
O O12 0.500000 0.570993 0.000000
#
# Coordination Sequence:
#
# PCOD9221682 Si02
#       6
#     8   8   8   8   8   2
#     4  12  23  43  71  95 130 179 226 271 333 399
#     4  12  24  41  65  98 136 170 216 281 340 396
#     4  11  25  41  67  99 133 175 219 280 339 391
#     4  11  23  42  67  95 132 175 226 276 330 403
#     4  11  24  44  69  98 133 179 228 273 332 409
#     4  12  24  44  70 100 132 184 224 276 334 408
#
# _framework density 18.819144999999999
#
# number of rings (size 3 to 8) (size 9 to 14) (size 15 to 20)
#    0.000    0.571    6.667    1.714    0.000    2.286 
#    1.714    0.952    0.000    2.286    0.000    0.000 
#    0.000    0.000    0.000    0.000    0.000    0.000 
#
# Total GULP energy -117007.298270 kJ/mol
# GULP energy per Si atom -5571.776108 kJ/mol
# Density = 1.877631 g / cm^3
# Si number density = 18.819145 Si / 1000 Ang^3
#
#
#
# Elastic Constant Matrix: (Units=GPa)
#
#
# Indices 1 2 3 4 5 6 
#
# 1 87.6477 58.8703 40.3944 0.0000 -9.7632 0.0000
# 2 58.8703 130.2144 19.2762 0.0000 -5.2951 0.0000
# 3 40.3944 19.2762 74.6418 0.0000 -5.8378 0.0000
# 4 0.0000 0.0000 0.0000 -12.5197 0.0000 -6.9352
# 5 -9.7632 -5.2951 -5.8378 0.0000 47.2417 0.0000
# 6 0.0000 0.0000 0.0000 -6.9352 0.0000 13.2786
#
#
#
# Elastic Compliance Matrix: (Units=1/GPa)
#
#
# Indices 1 2 3 4 5 6 
#
# 1 0.021512 -0.008249 -0.009326 0.000000 0.002369 0.000000
# 2 -0.008249 0.011167 0.001560 0.000000 -0.000260 0.000000
# 3 -0.009326 0.001560 0.018079 0.000000 0.000482 0.000000
# 4 0.000000 0.000000 0.000000 -0.061951 0.000000 -0.032356
# 5 0.002369 -0.000260 0.000482 0.000000 0.021688 0.000000
# 6 0.000000 0.000000 0.000000 -0.032356 0.000000 0.058410
#
#
# Mechanical properties :
#
#
# Convention : Reuss Voigt Hill
#
# Bulk Modulus (GPa) = 53.39567 58.84286 56.11927
# Shear Modulus (GPa) = 46.65128 21.19765 33.92446
#
# Velocity S-wave (km/s) = 4.98428 3.35981 4.25038
# Velocity P-wave (km/s) = 7.84594 6.81077 7.34661
#
# Compressibility (1/GPa) = 0.01872811
#
# Stress axis : x y z
#
# Youngs Moduli (GPa) = 46.48644 89.54646 55.31184
#
# Poissons Ratio (x) = 0.73863 0.51585
# Poissons Ratio (y) = 0.38345 -0.08626
# Poissons Ratio (z) = 0.43354 -0.13966
#
# Static dielectric constant tensor:
#      x y z
#    x 1.594820 0.000000 0.063290 
#    y 0.000000 1.624750 0.000000 
#    z 0.063290 0.000000 1.574350 
# 
# From -- ./inp_files/49195.got.cif
#   From: 2010.05.17/outbox.cif.g08.bks.cpg/sg12_25_cif.got.tgz:49195.got - 2010.06.03 13:09:07.
