data_PCOD9221654
_publ_section_title
;
Structure prediction by ZEFSAII (Michael W. Deem and Ramdas Pophale) SiO2 
 PCOD9221654
Probable space group: C 2/M
;
_chemical_formula_sum "Si O2"
_cell_formula_units_Z 48
_cell_length_a 7.809805
_cell_length_b 29.789595
_cell_length_c 14.738679
_cell_angle_alpha 90.000000
_cell_angle_beta 36.621021
_cell_angle_gamma 90.000000
_cell_volume 2045.445465
_symmetry_space_group_name_H-M "C 2/M"
_symmetry_group_IT_number 12
_symmetry_cell_setting 'monoclinic'
loop_
_space_group_symop_operation_xyz
x,y,z
-x,y,-z
-x,-y,-z
x,-y,z
1/2+x,1/2+y,z
1/2-x,1/2+y,-z
1/2-x,1/2-y,-z
1/2+x,1/2-y,z
loop_
_atom_site_type_symbol
_atom_site_label
_atom_site_fract_x
_atom_site_fract_y
_atom_site_fract_z
Si Si1 0.767021 0.085577 0.235104
Si Si2 0.792672 0.183446 0.269989
Si Si3 0.412412 0.912907 0.899702
Si Si4 0.406902 0.000000 0.412725
Si Si5 0.737832 0.500000 0.269679
Si Si6 0.415804 0.187071 0.938163
Si Si7 0.668169 0.767605 0.654116
O O1 0.730941 0.131182 0.306766
O O2 0.644568 0.092750 0.184412
O O3 0.596742 0.043921 0.347773
O O4 0.104928 0.076732 0.076145
O O5 0.528873 0.208800 0.335829
O O6 0.860588 0.213502 0.328800
O O7 0.070235 0.185045 0.085845
O O8 0.623091 0.954358 0.826983
O O9 0.520465 0.864547 0.887224
O O10 0.326671 0.000000 0.338985
O O11 0.103663 0.000000 0.591832
O O12 0.545143 0.214930 0.801848
O O13 0.500000 0.206191 0.000000
O O14 0.000000 0.779555 0.500000
#
# Coordination Sequence:
#
# PCOD9221654 Si02
#       7
#     8   8   8   4   4   8   8
#     4   9  17  33  57  85 122 161 209 260 310 369
#     4  11  23  42  64  92 129 172 219 267 316 385
#     4   9  17  33  56  85 122 159 212 260 311 369
#     4   9  17  29  53  90 123 160 199 254 319 377
#     4   9  17  29  52  88 126 156 201 255 319 379
#     4  11  23  42  66  94 126 176 222 264 319 384
#     4  12  25  42  65  94 129 167 216 274 327 376
#
# _framework density 23.466771000000001
#
# number of rings (size 3 to 8) (size 9 to 14) (size 15 to 20)
#    0.000    1.833    1.667    3.000    0.000    3.333 
#    0.000    0.417    0.000    0.000    0.000    5.250 
#    0.000    0.000    0.000    0.000    0.000    0.000 
#
# Total GULP energy -134417.907630 kJ/mol
# GULP energy per Si atom -5600.746151 kJ/mol
# Density = 2.341336 g / cm^3
# Si number density = 23.466771 Si / 1000 Ang^3
#
#
#
# Elastic Constant Matrix: (Units=GPa)
#
#
# Indices 1 2 3 4 5 6 
#
# 1 52.5140 21.9066 28.2419 0.0000 8.5975 0.0000
# 2 21.9066 198.0441 80.5582 0.0000 -16.3464 0.0000
# 3 28.2419 80.5582 122.2886 0.0000 -9.5700 0.0000
# 4 0.0000 0.0000 0.0000 -7.8765 0.0000 -6.8801
# 5 8.5975 -16.3464 -9.5700 0.0000 29.5170 0.0000
# 6 0.0000 0.0000 0.0000 -6.8801 0.0000 27.1821
#
#
#
# Elastic Compliance Matrix: (Units=1/GPa)
#
#
# Indices 1 2 3 4 5 6 
#
# 1 0.024051 -0.001203 -0.005502 0.000000 -0.009456 0.000000
# 2 -0.001203 0.007129 -0.004188 0.000000 0.002940 0.000000
# 3 -0.005502 -0.004188 0.012467 0.000000 0.003325 0.000000
# 4 0.000000 0.000000 0.000000 -0.103972 0.000000 -0.026317
# 5 -0.009456 0.002940 0.003325 0.000000 0.039339 0.000000
# 6 0.000000 0.000000 0.000000 -0.026317 0.000000 0.030128
#
#
# Mechanical properties :
#
#
# Convention : Reuss Voigt Hill
#
# Bulk Modulus (GPa) = 45.74332 70.47337 58.10834
# Shear Modulus (GPa) = 130.83606 25.90718 78.37162
#
# Velocity S-wave (km/s) = 7.47494 3.32625 5.78527
# Velocity P-wave (km/s) = 9.69716 6.69688 8.33316
#
# Compressibility (1/GPa) = 0.02186112
#
# Stress axis : x y z
#
# Youngs Moduli (GPa) = 41.57761 140.27692 80.20973
#
# Poissons Ratio (x) = 0.16872 0.44133
# Poissons Ratio (y) = 0.05001 0.33594
# Poissons Ratio (z) = 0.22877 0.58751
#
# Static dielectric constant tensor:
#      x y z
#    x 1.914010 0.000000 0.006190 
#    y 0.000000 1.854140 0.000000 
#    z 0.006190 0.000000 1.859740 
# 
# From -- ./inp_files/260275.got.cif
#   From: 2010.05.17/outbox.cif.g08.bks.cpg/sg12_131_cif.got.tgz:260275.got - 2010.06.03 13:09:07.
