data_PCOD9221905
_publ_section_title
;
Structure prediction by ZEFSAII (Michael W. Deem and Ramdas Pophale) SiO2 
 PCOD9221905
Probable space group: C 2/M
;
_chemical_formula_sum "Si O2"
_cell_formula_units_Z 56
_cell_length_a 28.943202
_cell_length_b 7.868108
_cell_length_c 19.688279
_cell_angle_alpha 90.000000
_cell_angle_beta 145.076029
_cell_angle_gamma 90.000000
_cell_volume 2566.798364
_symmetry_space_group_name_H-M "C 2/M"
_symmetry_group_IT_number 12
_symmetry_cell_setting 'monoclinic'
loop_
_space_group_symop_operation_xyz
x,y,z
-x,y,-z
-x,-y,-z
x,-y,z
1/2+x,1/2+y,z
1/2-x,1/2+y,-z
1/2-x,1/2-y,-z
1/2+x,1/2-y,z
loop_
_atom_site_type_symbol
_atom_site_label
_atom_site_fract_x
_atom_site_fract_y
_atom_site_fract_z
Si Si1 0.316734 0.798057 0.026087
Si Si2 0.195063 0.790686 0.279282
Si Si3 0.455129 0.202008 0.283196
Si Si4 0.131771 0.701122 0.529312
Si Si5 0.525087 0.698458 0.110466
Si Si6 0.904420 0.193436 0.366572
Si Si7 0.354815 0.297090 0.930487
O O1 0.401437 0.727119 0.157509
O O2 0.321718 0.000000 0.029795
O O3 0.250000 0.750000 0.000000
O O4 0.301666 0.737898 0.931834
O O5 0.285730 0.732632 0.404751
O O6 0.115852 0.731086 0.224917
O O7 0.178877 0.736068 0.181852
O O8 0.194401 0.000000 0.280256
O O9 0.545562 0.274312 0.401325
O O10 0.404903 0.226177 0.292620
O O11 0.463529 0.000000 0.283889
O O12 0.129619 0.500000 0.513785
O O13 0.135798 0.722170 0.616184
O O14 0.531044 0.500000 0.137189
O O15 0.500000 0.702533 0.000000
O O16 0.446034 0.773829 0.050997
O O17 0.000000 0.193782 0.500000
O O18 0.875828 0.000000 0.327104
O O19 0.362259 0.500000 0.932274
#
# Coordination Sequence:
#
# PCOD9221905 Si02
#       7
#     8   8   8   8   8   8   8
#     4  11  24  38  50  66  91 127 168 203 235 278
#     4   8  14  25  48  79 101 118 149 192 235 282
#     4   9  19  34  48  62  87 124 163 197 232 277
#     4   9  16  28  48  71  93 120 154 195 237 276
#     4   7  11  23  45  73 100 122 147 185 232 279
#     4   9  17  28  43  65  92 121 152 189 235 281
#     4   9  17  31  51  74  99 125 154 192 237 280
#
# _framework density 21.817063000000001
#
# number of rings (size 3 to 8) (size 9 to 14) (size 15 to 20)
#    0.000    3.143    0.000    2.571    2.000    2.857 
#    0.000    0.000    0.000    5.571    0.000    0.000 
#    0.000    0.000    0.000    0.000    0.000    0.143 
#
# Total GULP energy -155998.218064 kJ/mol
# GULP energy per Si atom -5571.364931 kJ/mol
# Density = 2.176741 g / cm^3
# Si number density = 21.817063 Si / 1000 Ang^3
#
#
#
# Elastic Constant Matrix: (Units=GPa)
#
#
# Indices 1 2 3 4 5 6 
#
# 1 56.9322 -5.7840 8.9160 0.0000 23.1396 0.0000
# 2 -5.7840 21.9224 4.7545 0.0000 2.2784 0.0000
# 3 8.9160 4.7545 58.9286 0.0000 23.2886 0.0000
# 4 0.0000 0.0000 0.0000 7.2160 0.0000 -0.8899
# 5 23.1396 2.2784 23.2886 0.0000 34.5672 0.0000
# 6 0.0000 0.0000 0.0000 -0.8899 0.0000 2.3544
#
#
#
# Elastic Compliance Matrix: (Units=1/GPa)
#
#
# Indices 1 2 3 4 5 6 
#
# 1 0.026139 0.008270 0.003419 0.000000 -0.020346 0.000000
# 2 0.008270 0.049058 -0.002376 0.000000 -0.007168 0.000000
# 3 0.003419 -0.002376 0.023832 0.000000 -0.018188 0.000000
# 4 0.000000 0.000000 0.000000 0.145358 0.000000 0.054943
# 5 -0.020346 -0.007168 -0.018188 0.000000 0.055275 0.000000
# 6 0.000000 0.000000 0.000000 0.054943 0.000000 0.445512
#
#
# Mechanical properties :
#
#
# Convention : Reuss Voigt Hill
#
# Bulk Modulus (GPa) = 8.49959 17.06182 12.78070
# Shear Modulus (GPa) = 6.52940 17.48727 12.00833
#
# Velocity S-wave (km/s) = 1.73185 2.83422 2.34863
# Velocity P-wave (km/s) = 2.81129 4.30672 3.63670
#
# Compressibility (1/GPa) = 0.11765280
#
# Stress axis : x y z
#
# Youngs Moduli (GPa) = 38.25706 20.38411 41.96022
#
# Poissons Ratio (x) = -0.16857 -0.14345
# Poissons Ratio (y) = -0.31637 0.09971
# Poissons Ratio (z) = -0.13079 0.04844
#
# Static dielectric constant tensor:
#      x y z
#    x 1.817770 0.000000 0.059760 
#    y 0.000000 1.788520 0.000000 
#    z 0.059760 0.000000 1.869720 
# 
# From -- ./inp_files/291976.got.cif
#   From: 2010.05.17/outbox.cif.g08.bks.cpg/sg12_146_cif.got.tgz:291976.got - 2010.06.03 13:09:07.
