data_PCOD9221017
_publ_section_title
;
Structure prediction by ZEFSAII (Michael W. Deem and Ramdas Pophale) SiO2 
 PCOD9221017
Probable space group: C 2/M
;
_chemical_formula_sum "Si O2"
_cell_formula_units_Z 40
_cell_length_a 22.028063
_cell_length_b 15.098769
_cell_length_c 9.497419
_cell_angle_alpha 90.000000
_cell_angle_beta 32.135093
_cell_angle_gamma 90.000000
_cell_volume 1680.225574
_symmetry_space_group_name_H-M "C 2/M"
_symmetry_group_IT_number 12
_symmetry_cell_setting 'monoclinic'
loop_
_space_group_symop_operation_xyz
x,y,z
-x,y,-z
-x,-y,-z
x,-y,z
1/2+x,1/2+y,z
1/2-x,1/2+y,-z
1/2-x,1/2-y,-z
1/2+x,1/2-y,z
loop_
_atom_site_type_symbol
_atom_site_label
_atom_site_fract_x
_atom_site_fract_y
_atom_site_fract_z
Si Si1 0.456412 0.598815 0.425904
Si Si2 0.588595 0.283689 0.949065
Si Si3 0.213066 0.598163 0.357132
Si Si4 0.730025 0.853298 0.006939
Si Si5 0.057718 0.398031 0.120873
O O1 0.500000 0.598999 0.500000
O O2 0.476229 0.500000 0.326399
O O3 0.522067 0.675202 0.214495
O O4 0.322503 0.616989 0.709345
O O5 0.607511 0.179059 0.925829
O O6 0.500000 0.303067 0.000000
O O7 0.709542 0.332468 0.712585
O O8 0.235174 0.500000 0.369214
O O9 0.078233 0.614916 0.621848
O O10 0.245400 0.600992 0.127559
O O11 0.750000 0.750000 0.000000
O O12 0.609419 0.877157 0.173489
O O13 0.082806 0.500000 0.034980
#
# Coordination Sequence:
#
# PCOD9221017 Si02
#       5
#     8   8   8   8   8
#     4  11  22  40  69 104 140 177 228 292 347 405
#     4  12  27  46  72 100 143 189 238 286 354 419
#     4  11  23  43  71 105 141 180 230 289 349 419
#     4  12  21  40  72 105 142 179 227 291 353 416
#     4  11  25  45  69 101 140 185 235 290 354 418
#
# _framework density 23.806325999999999
#
# number of rings (size 3 to 8) (size 9 to 14) (size 15 to 20)
#    0.000    0.600    4.000    4.200    0.000    4.400 
#    0.000    0.000    0.000    0.000    0.000    0.000 
#    0.000    0.000    0.000    0.000    0.000    0.000 
#
# Total GULP energy -112003.312268 kJ/mol
# GULP energy per Si atom -5600.165613 kJ/mol
# Density = 2.375214 g / cm^3
# Si number density = 23.806326 Si / 1000 Ang^3
#
#
#
# Elastic Constant Matrix: (Units=GPa)
#
#
# Indices 1 2 3 4 5 6 
#
# 1 115.7601 50.2384 30.8797 0.0000 -40.5667 0.0000
# 2 50.2384 197.5666 62.5638 0.0000 -31.3727 0.0000
# 3 30.8797 62.5638 81.7117 0.0000 -27.7572 0.0000
# 4 0.0000 0.0000 0.0000 19.7060 0.0000 -26.6415
# 5 -40.5667 -31.3727 -27.7572 0.0000 41.0924 0.0000
# 6 0.0000 0.0000 0.0000 -26.6415 0.0000 4.6120
#
#
#
# Elastic Compliance Matrix: (Units=1/GPa)
#
#
# Indices 1 2 3 4 5 6 
#
# 1 0.013596 -0.001577 0.000285 0.000000 0.012411 0.000000
# 2 -0.001577 0.007012 -0.004521 0.000000 0.000743 0.000000
# 3 0.000285 -0.004521 0.018837 0.000000 0.009554 0.000000
# 4 0.000000 0.000000 0.000000 -0.007452 0.000000 -0.043048
# 5 0.012411 0.000743 0.009554 0.000000 0.043609 0.000000
# 6 0.000000 0.000000 0.000000 -0.043048 0.000000 -0.031841
#
#
# Mechanical properties :
#
#
# Convention : Reuss Voigt Hill
#
# Bulk Modulus (GPa) = 35.94402 75.82247 55.88325
# Shear Modulus (GPa) = 77.32862 29.83917 53.58390
#
# Velocity S-wave (km/s) = 5.70551 3.54420 4.74943
# Velocity P-wave (km/s) = 7.65083 6.97620 7.32129
#
# Compressibility (1/GPa) = 0.02782104
#
# Stress axis : x y z
#
# Youngs Moduli (GPa) = 73.55088 142.61057 53.08638
#
# Poissons Ratio (x) = 0.22487 -0.01514
# Poissons Ratio (y) = 0.11597 0.23998
# Poissons Ratio (z) = -0.02097 0.64467
#
# Static dielectric constant tensor:
#      x y z
#    x 1.887260 0.000000 -0.021680 
#    y 0.000000 1.901910 0.000000 
#    z -0.021680 0.000000 1.967700 
# 
# From -- ./inp_files/176342.got.cif
#   From: 2010.05.17/outbox.cif.g08.bks.cpg/sg12_89_cif.got.tgz:176342.got - 2010.06.03 13:09:07.
