data_PCOD9221987
_publ_section_title
;
Structure prediction by ZEFSAII (Michael W. Deem and Ramdas Pophale) SiO2 
 PCOD9221987
Probable space group: C 2/M
;
_chemical_formula_sum "Si O2"
_cell_formula_units_Z 40
_cell_length_a 13.535626
_cell_length_b 8.793093
_cell_length_c 17.144032
_cell_angle_alpha 90.000000
_cell_angle_beta 114.162459
_cell_angle_gamma 90.000000
_cell_volume 1861.713240
_symmetry_space_group_name_H-M "C 2/M"
_symmetry_group_IT_number 12
_symmetry_cell_setting 'monoclinic'
loop_
_space_group_symop_operation_xyz
x,y,z
-x,y,-z
-x,-y,-z
x,-y,z
1/2+x,1/2+y,z
1/2-x,1/2+y,-z
1/2-x,1/2-y,-z
1/2+x,1/2-y,z
loop_
_atom_site_type_symbol
_atom_site_label
_atom_site_fract_x
_atom_site_fract_y
_atom_site_fract_z
Si Si1 0.657581 0.261409 0.304144
Si Si2 0.673983 0.500000 0.599741
Si Si3 0.272129 0.167006 0.187765
Si Si4 0.446550 0.320942 0.165227
Si Si5 0.439415 0.500000 0.605051
Si Si6 0.375994 0.827115 0.984979
O O1 0.742592 0.139406 0.362467
O O2 0.727289 0.343305 0.259962
O O3 0.551474 0.218769 0.218215
O O4 0.603310 0.358977 0.355893
O O5 0.567343 0.500000 0.622245
O O6 0.623997 0.500000 0.497150
O O7 0.365376 0.291759 0.210105
O O8 0.311813 0.000000 0.176299
O O9 0.181145 0.224911 0.098611
O O10 0.474770 0.500000 0.166205
O O11 0.382106 0.259607 0.069310
O O12 0.330519 0.000000 0.975010
O O13 0.500000 0.840376 0.000000
#
# Coordination Sequence:
#
# PCOD9221987 Si02
#       6
#     8   4   8   8   4   8
#     4  12  25  45  73 107 140 183 231 291 352 423
#     4  11  28  46  85 104 147 183 231 293 361 443
#     4  12  25  42  67  99 140 189 240 293 354 421
#     4  12  25  43  68  98 143 189 241 296 353 420
#     4  11  24  56  73 114 141 185 231 289 367 435
#     4  11  24  41  64  95 136 189 246 300 356 414
#
# _framework density 21.485586000000001
#
# number of rings (size 3 to 8) (size 9 to 14) (size 15 to 20)
#    0.000    0.400    4.000    4.200    5.600    0.800 
#    0.000    0.000    0.000    4.800    0.000    0.000 
#    0.000    0.000    0.000    0.000    0.000    0.000 
#
# Total GULP energy -111599.199260 kJ/mol
# GULP energy per Si atom -5579.959963 kJ/mol
# Density = 2.143668 g / cm^3
# Si number density = 21.485586 Si / 1000 Ang^3
#
#
#
# Elastic Constant Matrix: (Units=GPa)
#
#
# Indices 1 2 3 4 5 6 
#
# 1 116.4854 34.2222 38.4187 0.0000 -15.0708 0.0000
# 2 34.2222 106.9185 62.0401 0.0000 -0.4320 0.0000
# 3 38.4187 62.0401 135.6561 0.0000 -5.6121 0.0000
# 4 0.0000 0.0000 0.0000 22.1726 0.0000 -0.1381
# 5 -15.0708 -0.4320 -5.6121 0.0000 42.2736 0.0000
# 6 0.0000 0.0000 0.0000 -0.1381 0.0000 30.6867
#
#
#
# Elastic Compliance Matrix: (Units=1/GPa)
#
#
# Indices 1 2 3 4 5 6 
#
# 1 0.010262 -0.002268 -0.001728 0.000000 0.003406 0.000000
# 2 -0.002268 0.013250 -0.005475 0.000000 -0.001400 0.000000
# 3 -0.001728 -0.005475 0.010394 0.000000 0.000708 0.000000
# 4 0.000000 0.000000 0.000000 0.045102 0.000000 0.000203
# 5 0.003406 -0.001400 0.000708 0.000000 0.024949 0.000000
# 6 0.000000 0.000000 0.000000 0.000203 0.000000 0.032588
#
#
# Mechanical properties :
#
#
# Convention : Reuss Voigt Hill
#
# Bulk Modulus (GPa) = 66.82990 69.82465 68.32728
# Shear Modulus (GPa) = 31.15719 33.98520 32.57119
#
# Velocity S-wave (km/s) = 3.81221 3.98146 3.89775
# Velocity P-wave (km/s) = 7.10980 7.32837 7.21991
#
# Compressibility (1/GPa) = 0.01496336
#
# Stress axis : x y z
#
# Youngs Moduli (GPa) = 97.45016 75.46962 96.20621
#
# Poissons Ratio (x) = 0.17117 0.16624
# Poissons Ratio (y) = 0.22102 0.52677
# Poissons Ratio (z) = 0.16839 0.41323
#
# Static dielectric constant tensor:
#      x y z
#    x 1.833420 0.000000 -0.016010 
#    y 0.000000 1.849530 0.000000 
#    z -0.016010 0.000000 1.771120 
# 
# From -- ./inp_files/267397.got.cif
#   From: 2010.05.17/outbox.cif.g08.bks.cpg/sg12_134_cif.got.tgz:267397.got - 2010.06.03 13:09:07.
