data_PCOD9221479
_publ_section_title
;
Structure prediction by ZEFSAII (Michael W. Deem and Ramdas Pophale) SiO2 
 PCOD9221479
Probable space group: C 2/M
;
_chemical_formula_sum "Si O2"
_cell_formula_units_Z 44
_cell_length_a 8.580982
_cell_length_b 28.620015
_cell_length_c 11.909988
_cell_angle_alpha 90.000000
_cell_angle_beta 132.522627
_cell_angle_gamma 90.000000
_cell_volume 2155.717435
_symmetry_space_group_name_H-M "C 2/M"
_symmetry_group_IT_number 12
_symmetry_cell_setting 'monoclinic'
loop_
_space_group_symop_operation_xyz
x,y,z
-x,y,-z
-x,-y,-z
x,-y,z
1/2+x,1/2+y,z
1/2-x,1/2+y,-z
1/2-x,1/2-y,-z
1/2+x,1/2-y,z
loop_
_atom_site_type_symbol
_atom_site_label
_atom_site_fract_x
_atom_site_fract_y
_atom_site_fract_z
Si Si1 0.000000 0.636134 0.500000
Si Si2 0.418273 0.695520 0.762586
Si Si3 0.605884 0.115855 0.306067
Si Si4 0.141694 0.112021 0.974716
Si Si5 0.685506 0.711981 0.670598
Si Si6 0.235636 0.553509 0.171625
O O1 0.799848 0.668052 0.368544
O O2 0.927798 0.608619 0.577344
O O3 0.547763 0.663064 0.908698
O O4 0.566683 0.699111 0.726244
O O5 0.356401 0.747449 0.770292
O O6 0.714921 0.166089 0.338117
O O7 0.728070 0.077645 0.290100
O O8 0.376071 0.116762 0.136453
O O9 0.135085 0.084654 0.853897
O O10 0.000000 0.087373 0.000000
O O11 0.500000 0.730775 0.500000
O O12 0.306403 0.500000 0.212454
O O13 0.000000 0.553250 0.000000
#
# Coordination Sequence:
#
# PCOD9221479 Si02
#       6
#     4   8   8   8   8   8
#     4  12  22  40  63  88 130 172 215 256 306 372
#     4  12  24  39  60  90 126 175 218 254 305 373
#     4  11  23  40  64  94 125 167 211 266 313 369
#     4  11  23  40  63  97 129 156 212 266 318 369
#     4  12  23  39  61  88 130 173 221 251 306 379
#     4   9  20  42  68  93 124 163 205 258 324 385
#
# _framework density 20.410838999999999
#
# number of rings (size 3 to 8) (size 9 to 14) (size 15 to 20)
#    0.000    0.909    6.364    1.636    0.000    1.091 
#    0.000    0.455    0.000    4.909    0.000    0.000 
#    0.000    0.000    0.000    0.000    0.000    0.000 
#
# Total GULP energy -122895.664333 kJ/mol
# GULP energy per Si atom -5586.166561 kJ/mol
# Density = 2.036438 g / cm^3
# Si number density = 20.410839 Si / 1000 Ang^3
#
#
#
# Elastic Constant Matrix: (Units=GPa)
#
#
# Indices 1 2 3 4 5 6 
#
# 1 143.8800 38.9542 25.5517 0.0000 -45.3891 0.0000
# 2 38.9542 101.3028 13.3647 0.0000 -25.3626 0.0000
# 3 25.5517 13.3647 24.2659 0.0000 -25.0777 0.0000
# 4 0.0000 0.0000 0.0000 -66.7555 0.0000 -139.9860
# 5 -45.3891 -25.3626 -25.0777 0.0000 48.3508 0.0000
# 6 0.0000 0.0000 0.0000 -139.9860 0.0000 -216.1453
#
#
#
# Elastic Compliance Matrix: (Units=1/GPa)
#
#
# Indices 1 2 3 4 5 6 
#
# 1 0.010171 -0.001746 -0.001783 0.000000 0.007707 0.000000
# 2 -0.001746 0.011664 0.000094 0.000000 0.004528 0.000000
# 3 -0.001783 0.000094 0.089134 0.000000 0.044606 0.000000
# 4 0.000000 0.000000 0.000000 0.041830 0.000000 -0.027091
# 5 0.007707 0.004528 0.044606 0.000000 0.053428 0.000000
# 6 0.000000 0.000000 0.000000 -0.027091 0.000000 0.012919
#
#
# Mechanical properties :
#
#
# Convention : Reuss Voigt Hill
#
# Bulk Modulus (GPa) = 9.60629 47.24330 28.42479
# Shear Modulus (GPa) = 19.17789 -34.13813 -7.48012
#
# Velocity S-wave (km/s) = 3.06860 -4.09412 -1.91644
# Velocity P-wave (km/s) = 4.15593 0.92052 3.00991
#
# Compressibility (1/GPa) = 0.10409851
#
# Stress axis : x y z
#
# Youngs Moduli (GPa) = 98.31857 85.73302 11.21904
#
# Poissons Ratio (x) = 0.14971 0.02001
# Poissons Ratio (y) = 0.17169 -0.00106
# Poissons Ratio (z) = 0.17533 -0.00807
#
# Static dielectric constant tensor:
#      x y z
#    x 2.394120 0.000000 -0.613870 
#    y 0.000000 1.698730 0.000000 
#    z -0.613870 0.000000 2.314130 
# 
# From -- ./inp_files/41731.got.cif
#   From: 2010.05.17/outbox.cif.g08.bks.cpg/sg12_21_cif.got.tgz:41731.got - 2010.06.03 13:09:07.
