data_PCOD9221820
_publ_section_title
;
Structure prediction by ZEFSAII (Michael W. Deem and Ramdas Pophale) SiO2 
 PCOD9221820
Probable space group: C 2/M
;
_chemical_formula_sum "Si O2"
_cell_formula_units_Z 44
_cell_length_a 23.825587
_cell_length_b 18.107769
_cell_length_c 5.165625
_cell_angle_alpha 90.000000
_cell_angle_beta 125.563492
_cell_angle_gamma 90.000000
_cell_volume 1812.899715
_symmetry_space_group_name_H-M "C 2/M"
_symmetry_group_IT_number 12
_symmetry_cell_setting 'monoclinic'
loop_
_space_group_symop_operation_xyz
x,y,z
-x,y,-z
-x,-y,-z
x,-y,z
1/2+x,1/2+y,z
1/2-x,1/2+y,-z
1/2-x,1/2-y,-z
1/2+x,1/2-y,z
loop_
_atom_site_type_symbol
_atom_site_label
_atom_site_fract_x
_atom_site_fract_y
_atom_site_fract_z
Si Si1 0.334299 0.000000 0.120904
Si Si2 0.299554 0.338358 0.740944
Si Si3 0.793700 0.000000 0.605789
Si Si4 0.349140 0.867309 0.536153
Si Si5 0.382178 0.287206 0.455469
Si Si6 0.433659 0.000000 0.003182
Si Si7 0.935539 0.000000 0.009109
Si Si8 0.500000 0.626414 0.500000
O O1 0.323842 0.924047 0.247096
O O2 0.416125 0.000000 0.261789
O O3 0.275971 0.000000 0.742647
O O4 0.299756 0.426491 0.786514
O O5 0.216557 0.328299 0.500543
O O6 0.342991 0.322201 0.598036
O O7 0.332453 0.297276 0.073091
O O8 0.866556 0.000000 0.652806
O O9 0.391872 0.799326 0.538028
O O10 0.393663 0.923622 0.825842
O O11 0.454386 0.325496 0.574813
O O12 0.500000 0.000000 0.000000
O O13 0.946552 0.927511 0.212409
O O14 0.000000 0.000000 0.000000
#
# Coordination Sequence:
#
# PCOD9221820 Si02
#       8
#     4   8   4   8   8   4   4   4
#     4  11  24  47  77 106 143 193 256 305 385 437
#     4  12  25  45  74 115 143 199 247 311 376 440
#     4  12  21  44  75 102 146 187 252 304 357 433
#     4  11  26  48  74 108 147 192 245 319 371 454
#     4  12  28  45  76 109 157 194 251 304 385 440
#     4  11  26  48  76 109 142 197 254 305 380 455
#     4  11  23  44  70 101 150 191 252 299 355 439
#     4  11  26  46  68 109 146 206 246 293 370 450
#
# _framework density 24.270508
#
# number of rings (size 3 to 8) (size 9 to 14) (size 15 to 20)
#    0.000    0.545    3.636    3.818    2.545    4.364 
#    0.000    0.000    0.000    0.000    0.000    0.000 
#    0.000    0.000    0.000    0.000    0.000    0.000 
#
# Total GULP energy -122939.428012 kJ/mol
# GULP energy per Si atom -5588.155819 kJ/mol
# Density = 2.421527 g / cm^3
# Si number density = 24.270508 Si / 1000 Ang^3
#
#
#
# Elastic Constant Matrix: (Units=GPa)
#
#
# Indices 1 2 3 4 5 6 
#
# 1 207.8818 44.7426 24.8568 0.0000 -3.3104 0.0000
# 2 44.7426 168.9512 9.0348 0.0000 -13.0302 0.0000
# 3 24.8568 9.0348 46.6785 0.0000 -17.8832 0.0000
# 4 0.0000 0.0000 0.0000 265.7012 0.0000 -37.0602
# 5 -3.3104 -13.0302 -17.8832 0.0000 32.7087 0.0000
# 6 0.0000 0.0000 0.0000 -37.0602 0.0000 33.4674
#
#
#
# Elastic Compliance Matrix: (Units=1/GPa)
#
#
# Indices 1 2 3 4 5 6 
#
# 1 0.005487 -0.001416 -0.003354 0.000000 -0.001842 0.000000
# 2 -0.001416 0.006476 0.000549 0.000000 0.002737 0.000000
# 3 -0.003354 0.000549 0.029166 0.000000 0.015825 0.000000
# 4 0.000000 0.000000 0.000000 0.004451 0.000000 0.004929
# 5 -0.001842 0.002737 0.015825 0.000000 0.040129 0.000000
# 6 0.000000 0.000000 0.000000 0.004929 0.000000 0.035338
#
#
# Mechanical properties :
#
#
# Convention : Reuss Voigt Hill
#
# Bulk Modulus (GPa) = 30.59303 64.53109 47.56206
# Shear Modulus (GPa) = 35.61700 89.36728 62.49214
#
# Velocity S-wave (km/s) = 3.83495 6.07464 5.07977
# Velocity P-wave (km/s) = 5.67816 8.70906 7.35151
#
# Compressibility (1/GPa) = 0.03268718
#
# Stress axis : x y z
#
# Youngs Moduli (GPa) = 182.25564 154.42818 34.28699
#
# Poissons Ratio (x) = 0.21864 0.11498
# Poissons Ratio (y) = 0.25804 -0.01882
# Poissons Ratio (z) = 0.61120 -0.08477
#
# Static dielectric constant tensor:
#      x y z
#    x 2.021620 0.000000 -0.002880 
#    y 0.000000 1.907150 0.000000 
#    z -0.002880 0.000000 2.010880 
# 
# From -- ./inp_files/25086.got.cif
#   From: 2010.05.17/outbox.cif.g08.bks.cpg/sg12_13_cif.got.tgz:25086.got - 2010.06.03 13:09:07.
