data_PCOD9221431
_publ_section_title
;
Structure prediction by ZEFSAII (Michael W. Deem and Ramdas Pophale) SiO2 
 PCOD9221431
Probable space group: C 2/M
;
_chemical_formula_sum "Si O2"
_cell_formula_units_Z 48
_cell_length_a 20.738402
_cell_length_b 8.809797
_cell_length_c 15.001670
_cell_angle_alpha 90.000000
_cell_angle_beta 108.328962
_cell_angle_gamma 90.000000
_cell_volume 2601.770685
_symmetry_space_group_name_H-M "C 2/M"
_symmetry_group_IT_number 12
_symmetry_cell_setting 'monoclinic'
loop_
_space_group_symop_operation_xyz
x,y,z
-x,y,-z
-x,-y,-z
x,-y,z
1/2+x,1/2+y,z
1/2-x,1/2+y,-z
1/2-x,1/2-y,-z
1/2+x,1/2-y,z
loop_
_atom_site_type_symbol
_atom_site_label
_atom_site_fract_x
_atom_site_fract_y
_atom_site_fract_z
Si Si1 0.925276 0.818706 0.008471
Si Si2 0.564783 0.818583 0.791157
Si Si3 0.811800 0.318654 0.289098
Si Si4 0.920050 0.181143 0.689512
Si Si5 0.165769 0.681385 0.184100
Si Si6 0.682167 0.681100 0.514318
O O1 0.922721 0.753426 0.106624
O O2 0.915757 0.000000 0.005208
O O3 0.870055 0.742218 0.920575
O O4 0.000000 0.787567 0.000000
O O5 0.627161 0.786089 0.752321
O O6 0.494943 0.750220 0.723166
O O7 0.557966 0.000000 0.797098
O O8 0.802017 0.500000 0.289899
O O9 0.742020 0.242728 0.226573
O O10 0.828247 0.255321 0.394165
O O11 0.877280 0.254079 0.751425
O O12 0.879665 0.209559 0.580464
O O13 0.923558 0.000000 0.705616
O O14 0.164963 0.500000 0.185804
O O15 0.690579 0.500000 0.527400
O O16 0.750000 0.750000 0.500000
#
# Coordination Sequence:
#
# PCOD9221431 Si02
#       6
#     8   8   8   8   8   8
#     4  11  23  40  66  95 126 166 209 259 315 375
#     4  11  25  43  65  94 128 168 211 262 316 373
#     4  11  25  44  64  92 132 168 209 263 318 373
#     4  11  23  40  64  94 128 165 209 262 315 373
#     4  12  24  39  66  96 125 165 213 260 311 376
#     4  11  23  39  65  95 126 167 213 262 314 373
#
# _framework density 18.448974
#
# number of rings (size 3 to 8) (size 9 to 14) (size 15 to 20)
#    0.000    0.833    3.333    4.000    0.000    6.667 
#    0.000    3.333    0.000    0.000    0.000    0.000 
#    0.000    0.000    0.000    0.000    0.000    0.000 
#
# Total GULP energy -134297.996035 kJ/mol
# GULP energy per Si atom -5595.749835 kJ/mol
# Density = 1.840698 g / cm^3
# Si number density = 18.448974 Si / 1000 Ang^3
#
#
#
# Elastic Constant Matrix: (Units=GPa)
#
#
# Indices 1 2 3 4 5 6 
#
# 1 144.2444 88.2456 93.0617 0.0000 6.9841 0.0000
# 2 88.2456 107.5969 91.2239 0.0000 1.5354 0.0000
# 3 93.0617 91.2239 168.0592 0.0000 2.0487 0.0000
# 4 0.0000 0.0000 0.0000 38.3766 0.0000 2.1230
# 5 6.9841 1.5354 2.0487 0.0000 34.6064 0.0000
# 6 0.0000 0.0000 0.0000 2.1230 0.0000 31.9307
#
#
#
# Elastic Compliance Matrix: (Units=1/GPa)
#
#
# Indices 1 2 3 4 5 6 
#
# 1 0.014858 -0.009635 -0.002969 0.000000 -0.002395 0.000000
# 2 -0.009635 0.023467 -0.007419 0.000000 0.001343 0.000000
# 3 -0.002969 -0.007419 0.011618 0.000000 0.000240 0.000000
# 4 0.000000 0.000000 0.000000 0.026154 0.000000 -0.001739
# 5 -0.002395 0.001343 0.000240 0.000000 0.029306 0.000000
# 6 0.000000 0.000000 0.000000 -0.001739 0.000000 0.031433
#
#
# Mechanical properties :
#
#
# Convention : Reuss Voigt Hill
#
# Bulk Modulus (GPa) = 101.02722 107.21812 104.12267
# Shear Modulus (GPa) = 27.74965 30.80736 29.27851
#
# Velocity S-wave (km/s) = 3.88252 4.09084 3.98804
# Velocity P-wave (km/s) = 8.65897 8.97527 8.81854
#
# Compressibility (1/GPa) = 0.00989832
#
# Stress axis : x y z
#
# Youngs Moduli (GPa) = 67.30178 42.61255 86.07089
#
# Poissons Ratio (x) = 0.41058 0.25550
# Poissons Ratio (y) = 0.64846 0.63857
# Poissons Ratio (z) = 0.19979 0.31615
#
# Static dielectric constant tensor:
#      x y z
#    x 1.600200 0.000000 0.006210 
#    y 0.000000 1.616480 0.000000 
#    z 0.006210 0.000000 1.609360 
# 
# From -- ./inp_files/230412.got.cif
#   From: 2010.05.17/outbox.cif.g08.bks.cpg/sg12_116_cif.got.tgz:230412.got - 2010.06.03 13:09:07.
