data_PCOD9221350
_publ_section_title
;
Structure prediction by ZEFSAII (Michael W. Deem and Ramdas Pophale) SiO2 
 PCOD9221350
Probable space group: C 2/M
;
_chemical_formula_sum "Si O2"
_cell_formula_units_Z 44
_cell_length_a 24.963910
_cell_length_b 14.411089
_cell_length_c 19.945773
_cell_angle_alpha 90.000000
_cell_angle_beta 160.973540
_cell_angle_gamma 90.000000
_cell_volume 2339.290946
_symmetry_space_group_name_H-M "C 2/M"
_symmetry_group_IT_number 12
_symmetry_cell_setting 'monoclinic'
loop_
_space_group_symop_operation_xyz
x,y,z
-x,y,-z
-x,-y,-z
x,-y,z
1/2+x,1/2+y,z
1/2-x,1/2+y,-z
1/2-x,1/2-y,-z
1/2+x,1/2-y,z
loop_
_atom_site_type_symbol
_atom_site_label
_atom_site_fract_x
_atom_site_fract_y
_atom_site_fract_z
Si Si1 0.727517 0.500000 0.394045
Si Si2 0.188017 0.150205 0.900497
Si Si3 0.190662 0.848256 0.234719
Si Si4 0.841375 0.500000 0.861931
Si Si5 0.193102 0.500000 0.730328
Si Si6 0.906889 0.000000 0.106776
Si Si7 0.571143 0.000000 0.876420
Si Si8 0.595124 0.327241 0.543849
O O1 0.721296 0.411161 0.336802
O O2 0.566476 0.500000 0.249371
O O3 0.886251 0.500000 0.629542
O O4 0.108182 0.090934 0.865874
O O5 0.048411 0.152659 0.678754
O O6 0.250000 0.250000 0.000000
O O7 0.336868 0.089607 0.045945
O O8 0.237216 0.912036 0.226579
O O9 0.301649 0.758131 0.362810
O O10 0.000000 0.824276 0.000000
O O11 0.721934 0.411634 0.707436
O O12 0.904413 0.500000 0.014005
O O13 0.000000 0.500000 0.000000
O O14 0.000000 0.500000 0.500000
O O15 0.250489 0.500000 0.873730
O O16 0.500000 0.303870 0.500000
#
# Coordination Sequence:
#
# PCOD9221350 Si02
#       8
#     4   8   8   4   4   4   4   8
#     4  11  23  45  67  98 141 171 210 276 346 400
#     4  11  26  44  66 101 132 173 227 273 326 393
#     4  11  23  43  66 101 135 171 216 274 338 409
#     4  12  26  46  69  96 130 178 231 278 329 391
#     4  11  23  38  70  97 132 175 220 269 336 399
#     4  11  25  44  68  95 138 176 218 273 334 396
#     4  11  24  45  69  95 136 176 221 278 331 391
#     4  12  25  45  71  94 131 178 227 275 327 392
#
# _framework density 18.809118999999999
#
# number of rings (size 3 to 8) (size 9 to 14) (size 15 to 20)
#    0.000    0.727    3.636    4.091   12.727    0.000 
#    3.273    1.818    0.000    0.000    0.000    0.000 
#    0.000    0.000    0.000    0.000    0.000    0.000 
#
# Total GULP energy -122985.223372 kJ/mol
# GULP energy per Si atom -5590.237426 kJ/mol
# Density = 1.876631 g / cm^3
# Si number density = 18.809119 Si / 1000 Ang^3
#
#
#
# Elastic Constant Matrix: (Units=GPa)
#
#
# Indices 1 2 3 4 5 6 
#
# 1 137.1602 60.3982 62.7454 -0.0006 -6.6977 -0.0002
# 2 60.3982 124.5246 47.3348 0.0004 -0.2307 -0.0002
# 3 62.7454 47.3348 169.9535 -0.0013 -11.5517 0.0000
# 4 -0.0006 0.0004 -0.0013 34.0143 -0.0007 11.2389
# 5 -6.6977 -0.2307 -11.5517 -0.0007 46.6800 -0.0001
# 6 -0.0002 -0.0002 0.0000 11.2389 -0.0001 9.2967
#
#
#
# Elastic Compliance Matrix: (Units=1/GPa)
#
#
# Indices 1 2 3 4 5 6 
#
# 1 0.010291 -0.003989 -0.002634 0.000000 0.000805 0.000000
# 2 -0.003989 0.010543 -0.001525 -0.000001 -0.000898 0.000001
# 3 -0.002634 -0.001525 0.007379 0.000000 0.001441 -0.000001
# 4 0.000000 -0.000001 0.000000 0.048954 0.000001 -0.059180
# 5 0.000805 -0.000898 0.001441 0.000001 0.021890 0.000000
# 6 0.000000 0.000001 -0.000001 -0.059180 0.000000 0.179108
#
#
# Mechanical properties :
#
#
# Convention : Reuss Voigt Hill
#
# Bulk Modulus (GPa) = 83.90306 85.84389 84.87347
# Shear Modulus (GPa) = 16.75414 35.40888 26.08151
#
# Velocity S-wave (km/s) = 2.98777 4.34353 3.72780
# Velocity P-wave (km/s) = 7.52375 8.41983 7.98437
#
# Compressibility (1/GPa) = 0.01191852
#
# Stress axis : x y z
#
# Youngs Moduli (GPa) = 97.16787 94.84723 135.52102
#
# Poissons Ratio (x) = 0.37835 0.35693
# Poissons Ratio (y) = 0.38760 0.20664
# Poissons Ratio (z) = 0.25592 0.14462
#
# Static dielectric constant tensor:
#      x y z
#    x 1.622350 0.000000 -0.022850 
#    y 0.000000 1.659850 0.000000 
#    z -0.022850 0.000000 1.576230 
# 
# From -- ./inp_files/73174.got.cif
#   From: 2010.05.17/outbox.cif.g08.bks.cpg/sg12_37_cif.got.tgz:73174.got - 2010.06.03 13:09:07.
