data_PCOD9221804
_publ_section_title
;
Structure prediction by ZEFSAII (Michael W. Deem and Ramdas Pophale) SiO2 
 PCOD9221804
Probable space group: C 2/M
;
_chemical_formula_sum "Si O2"
_cell_formula_units_Z 32
_cell_length_a 29.206467
_cell_length_b 10.157264
_cell_length_c 17.185477
_cell_angle_alpha 90.000000
_cell_angle_beta 165.761019
_cell_angle_gamma 90.000000
_cell_volume 1253.989798
_symmetry_space_group_name_H-M "C 2/M"
_symmetry_group_IT_number 12
_symmetry_cell_setting 'monoclinic'
loop_
_space_group_symop_operation_xyz
x,y,z
-x,y,-z
-x,-y,-z
x,-y,z
1/2+x,1/2+y,z
1/2-x,1/2+y,-z
1/2-x,1/2-y,-z
1/2+x,1/2-y,z
loop_
_atom_site_type_symbol
_atom_site_label
_atom_site_fract_x
_atom_site_fract_y
_atom_site_fract_z
Si Si1 0.765923 0.000000 0.382686
Si Si2 0.185616 0.772792 0.257771
Si Si3 0.641770 0.847218 0.879961
Si Si4 0.642254 0.000000 0.356300
Si Si5 0.297051 0.351496 0.882752
O O1 0.820372 0.849421 0.459259
O O2 0.733598 0.000000 0.422208
O O3 0.575983 0.000000 0.018395
O O4 0.127694 0.836509 0.081100
O O5 0.290794 0.875680 0.484576
O O6 0.000000 0.732095 0.000000
O O7 0.427242 0.853078 0.499685
O O8 0.708478 0.000000 0.991485
O O9 0.750000 0.750000 0.000000
O O10 0.664051 0.773861 0.999115
O O11 0.349150 0.500000 0.998455
#
# Coordination Sequence:
#
# PCOD9221804 Si02
#       5
#     4   8   8   4   8
#     4  11  26  40  66  92 133 191 241 295 348 386
#     4  12  25  45  67  99 146 192 236 288 341 411
#     4  11  26  50  79 107 144 180 233 304 366 432
#     4  11  23  44  62  92 134 186 243 289 336 399
#     4  11  27  46  71 109 147 188 237 294 357 426
#
# _framework density 25.518547000000002
#
# number of rings (size 3 to 8) (size 9 to 14) (size 15 to 20)
#    0.000    0.750    3.750    2.625    5.250    5.000 
#    0.000    0.000    0.000    0.000    0.000    0.000 
#    0.000    0.000    0.000    0.000    0.000    0.000 
#
# Total GULP energy -89613.658093 kJ/mol
# GULP energy per Si atom -5600.853631 kJ/mol
# Density = 2.546047 g / cm^3
# Si number density = 25.518547 Si / 1000 Ang^3
#
#
#
# Elastic Constant Matrix: (Units=GPa)
#
#
# Indices 1 2 3 4 5 6 
#
# 1 109.1862 50.0982 28.9774 0.0000 -5.2309 0.0000
# 2 50.0982 261.9264 70.4407 0.0000 -14.7349 0.0000
# 3 28.9774 70.4407 63.2266 0.0000 -15.9294 0.0000
# 4 0.0000 0.0000 0.0000 66.7106 0.0000 -10.8644
# 5 -5.2309 -14.7349 -15.9294 0.0000 42.1731 0.0000
# 6 0.0000 0.0000 0.0000 -10.8644 0.0000 42.8891
#
#
#
# Elastic Compliance Matrix: (Units=1/GPa)
#
#
# Indices 1 2 3 4 5 6 
#
# 1 0.010628 -0.001024 -0.003855 0.000000 -0.000496 0.000000
# 2 -0.001024 0.005557 -0.005818 0.000000 -0.000383 0.000000
# 3 -0.003855 -0.005818 0.025897 0.000000 0.007271 0.000000
# 4 0.000000 0.000000 0.000000 0.015635 0.000000 0.003961
# 5 -0.000496 -0.000383 0.007271 0.000000 0.026263 0.000000
# 6 0.000000 0.000000 0.000000 0.003961 0.000000 0.024319
#
#
# Mechanical properties :
#
#
# Convention : Reuss Voigt Hill
#
# Bulk Modulus (GPa) = 48.33883 81.48575 64.91229
# Shear Modulus (GPa) = 36.60639 49.34274 42.97457
#
# Velocity S-wave (km/s) = 3.79159 4.40205 4.10817
# Velocity P-wave (km/s) = 6.17673 7.60517 6.92786
#
# Compressibility (1/GPa) = 0.02068730
#
# Stress axis : x y z
#
# Youngs Moduli (GPa) = 94.09271 179.95815 38.61503
#
# Poissons Ratio (x) = 0.18426 0.14886
# Poissons Ratio (y) = 0.09634 0.22467
# Poissons Ratio (z) = 0.36272 1.04702
#
# Static dielectric constant tensor:
#      x y z
#    x 2.006950 0.000000 0.092600 
#    y 0.000000 2.034320 0.000000 
#    z 0.092600 0.000000 2.141130 
# 
# From -- ./inp_files/245818.got.cif
#   From: 2010.05.17/outbox.cif.g08.bks.cpg/sg12_123_cif.got.tgz:245818.got - 2010.06.03 13:09:07.
