data_PCOD9221427
_publ_section_title
;
Structure prediction by ZEFSAII (Michael W. Deem and Ramdas Pophale) SiO2 
 PCOD9221427
Probable space group: C 2/M
;
_chemical_formula_sum "Si O2"
_cell_formula_units_Z 56
_cell_length_a 16.887374
_cell_length_b 15.636620
_cell_length_c 10.822907
_cell_angle_alpha 90.000000
_cell_angle_beta 68.157062
_cell_angle_gamma 90.000000
_cell_volume 2652.735145
_symmetry_space_group_name_H-M "C 2/M"
_symmetry_group_IT_number 12
_symmetry_cell_setting 'monoclinic'
loop_
_space_group_symop_operation_xyz
x,y,z
-x,y,-z
-x,-y,-z
x,-y,z
1/2+x,1/2+y,z
1/2-x,1/2+y,-z
1/2-x,1/2-y,-z
1/2+x,1/2-y,z
loop_
_atom_site_type_symbol
_atom_site_label
_atom_site_fract_x
_atom_site_fract_y
_atom_site_fract_z
Si Si1 0.377569 0.192677 0.742280
Si Si2 0.582714 0.898764 0.037595
Si Si3 0.841987 0.749718 0.382232
Si Si4 0.594874 0.097095 0.503762
Si Si5 0.189696 0.753403 0.888649
Si Si6 0.001290 0.146645 0.364025
Si Si7 0.924835 0.905548 0.941532
O O1 0.425747 0.138043 0.818936
O O2 0.351717 0.132054 0.643579
O O3 0.289904 0.231114 0.844657
O O4 0.438130 0.268927 0.660225
O O5 0.598099 0.000000 0.030946
O O6 0.500000 0.882132 0.000000
O O7 0.659444 0.841664 0.940936
O O8 0.750000 0.750000 0.500000
O O9 0.886709 0.660704 0.395330
O O10 0.832508 0.760946 0.242753
O O11 0.905256 0.822708 0.393852
O O12 0.500000 0.101167 0.500000
O O13 0.613383 0.000000 0.526431
O O14 0.136403 0.826291 0.991531
O O15 0.000000 0.103815 0.500000
O O16 0.036879 0.102545 0.219228
O O17 0.884127 0.000000 0.977129
O O18 0.000000 0.900728 0.000000
#
# Coordination Sequence:
#
# PCOD9221427 Si02
#       7
#     8   8   8   8   8   8   8
#     4  12  22  43  66  98 136 183 227 281 349 412
#     4  11  25  42  66 100 137 178 226 281 349 422
#     4  12  22  42  67  97 133 181 225 284 352 419
#     4  11  23  39  65 101 137 178 231 284 342 418
#     4  12  24  42  71  98 137 183 234 289 349 417
#     4  12  22  42  70  96 133 179 229 284 354 423
#     4  11  25  44  69  99 132 181 239 290 346 416
#
# _framework density 21.110287
#
# number of rings (size 3 to 8) (size 9 to 14) (size 15 to 20)
#    0.000    0.429    7.143    2.143    0.000    2.000 
#    0.000    0.714    0.000    3.429    0.000    0.000 
#    0.000    0.000    0.000    0.000    0.000    0.000 
#
# Total GULP energy -156521.245427 kJ/mol
# GULP energy per Si atom -5590.044480 kJ/mol
# Density = 2.106224 g / cm^3
# Si number density = 21.110287 Si / 1000 Ang^3
#
#
#
# Elastic Constant Matrix: (Units=GPa)
#
#
# Indices 1 2 3 4 5 6 
#
# 1 103.0492 46.5730 48.7292 0.0000 8.0670 0.0000
# 2 46.5730 115.3849 39.8120 0.0000 0.8746 0.0000
# 3 48.7292 39.8120 135.7665 0.0000 14.1271 0.0000
# 4 0.0000 0.0000 0.0000 12.1897 0.0000 9.8365
# 5 8.0670 0.8746 14.1271 0.0000 54.6096 0.0000
# 6 0.0000 0.0000 0.0000 9.8365 0.0000 12.7056
#
#
#
# Elastic Compliance Matrix: (Units=1/GPa)
#
#
# Indices 1 2 3 4 5 6 
#
# 1 0.013297 -0.004171 -0.003445 0.000000 -0.001006 0.000000
# 2 -0.004171 0.010969 -0.001814 0.000000 0.000910 0.000000
# 3 -0.003445 -0.001814 0.009329 0.000000 -0.001875 0.000000
# 4 0.000000 0.000000 0.000000 0.218613 0.000000 -0.169248
# 5 -0.001006 0.000910 -0.001875 0.000000 0.018931 0.000000
# 6 0.000000 0.000000 0.000000 -0.169248 0.000000 0.209735
#
#
# Mechanical properties :
#
#
# Convention : Reuss Voigt Hill
#
# Bulk Modulus (GPa) = 67.86331 69.38099 68.62215
# Shear Modulus (GPa) = 9.90795 30.50673 20.20734
#
# Velocity S-wave (km/s) = 2.16878 3.80559 3.09727
# Velocity P-wave (km/s) = 6.20389 7.22823 6.73556
#
# Compressibility (1/GPa) = 0.01473550
#
# Stress axis : x y z
#
# Youngs Moduli (GPa) = 75.20614 91.16419 107.19109
#
# Poissons Ratio (x) = 0.38023 0.36924
# Poissons Ratio (y) = 0.31367 0.19447
# Poissons Ratio (z) = 0.25906 0.16540
#
# Static dielectric constant tensor:
#      x y z
#    x 1.759740 0.000000 0.011050 
#    y 0.000000 1.735950 0.000000 
#    z 0.011050 0.000000 1.833060 
# 
# From -- ./inp_files/156514.got.cif
#   From: 2010.05.17/outbox.cif.g08.bks.cpg/sg12_79_cif.got.tgz:156514.got - 2010.06.03 13:09:07.
