data_PCOD9221154
_publ_section_title
;
Structure prediction by ZEFSAII (Michael W. Deem and Ramdas Pophale) SiO2 
 PCOD9221154
Probable space group: C 2/M
;
_chemical_formula_sum "Si O2"
_cell_formula_units_Z 28
_cell_length_a 13.974782
_cell_length_b 15.334751
_cell_length_c 5.612435
_cell_angle_alpha 90.000000
_cell_angle_beta 62.220302
_cell_angle_gamma 90.000000
_cell_volume 1064.122901
_symmetry_space_group_name_H-M "C 2/M"
_symmetry_group_IT_number 12
_symmetry_cell_setting 'monoclinic'
loop_
_space_group_symop_operation_xyz
x,y,z
-x,y,-z
-x,-y,-z
x,-y,z
1/2+x,1/2+y,z
1/2-x,1/2+y,-z
1/2-x,1/2-y,-z
1/2+x,1/2-y,z
loop_
_atom_site_type_symbol
_atom_site_label
_atom_site_fract_x
_atom_site_fract_y
_atom_site_fract_z
Si Si1 0.000000 0.829167 0.500000
Si Si2 0.169841 0.316176 0.402329
Si Si3 0.377162 0.097423 0.051639
Si Si4 0.619732 0.598127 0.965901
O O1 0.084962 0.762691 0.526601
O O2 0.087353 0.892218 0.276944
O O3 0.177098 0.358109 0.656818
O O4 0.125429 0.363264 0.211305
O O5 0.296760 0.323998 0.181731
O O6 0.333299 0.000000 0.079006
O O7 0.500000 0.094095 0.000000
O O8 0.657486 0.500000 0.858916
O O9 0.500000 0.612009 0.000000
#
# Coordination Sequence:
#
# PCOD9221154 Si02
#       4
#     4   8   8   8
#     4  12  27  48  77 112 152 192 250 322 379 438
#     4  12  26  47  78 112 150 196 252 315 376 439
#     4  11  22  42  72 112 155 195 245 309 380 448
#     4  11  28  51  76 107 152 207 253 302 373 459
#
# _framework density 26.312752
#
# number of rings (size 3 to 8) (size 9 to 14) (size 15 to 20)
#    0.000    0.571    2.857    3.857    8.000    3.429 
#    0.000    0.000    0.000    0.000    0.000    0.000 
#    0.000    0.000    0.000    0.000    0.000    0.000 
#
# Total GULP energy -78001.059642 kJ/mol
# GULP energy per Si atom -5571.504260 kJ/mol
# Density = 2.625286 g / cm^3
# Si number density = 26.312752 Si / 1000 Ang^3
#
#
#
# Elastic Constant Matrix: (Units=GPa)
#
#
# Indices 1 2 3 4 5 6 
#
# 1 168.3272 43.7579 -1.5537 0.0000 8.9656 0.0000
# 2 43.7579 97.0178 39.9201 0.0000 17.6850 0.0000
# 3 -1.5537 39.9201 112.9119 0.0000 -1.2985 0.0000
# 4 0.0000 0.0000 0.0000 -1.6605 0.0000 22.6205
# 5 8.9656 17.6850 -1.2985 0.0000 65.1811 0.0000
# 6 0.0000 0.0000 0.0000 22.6205 0.0000 8.0172
#
#
#
# Elastic Compliance Matrix: (Units=1/GPa)
#
#
# Indices 1 2 3 4 5 6 
#
# 1 0.006915 -0.003714 0.001409 0.000000 0.000085 0.000000
# 2 -0.003714 0.014840 -0.005339 0.000000 -0.003622 0.000000
# 3 0.001409 -0.005339 0.010780 0.000000 0.001470 0.000000
# 4 0.000000 0.000000 0.000000 -0.015271 0.000000 0.043087
# 5 0.000085 -0.003622 0.001470 0.000000 0.016342 0.000000
# 6 0.000000 0.000000 0.000000 0.043087 0.000000 0.003163
#
#
# Mechanical properties :
#
#
# Convention : Reuss Voigt Hill
#
# Bulk Modulus (GPa) = 57.98228 60.27839 59.13034
# Shear Modulus (GPa) = 86.49534 34.04973 60.27254
#
# Velocity S-wave (km/s) = 5.73963 3.60118 4.79124
# Velocity P-wave (km/s) = 8.12454 6.34425 7.28895
#
# Compressibility (1/GPa) = 0.01724665
#
# Stress axis : x y z
#
# Youngs Moduli (GPa) = 144.61708 67.38650 92.76016
#
# Poissons Ratio (x) = 0.25028 -0.13072
# Poissons Ratio (y) = 0.53712 0.49528
# Poissons Ratio (z) = -0.20380 0.35980
#
# Static dielectric constant tensor:
#      x y z
#    x 2.216890 0.000000 0.172470 
#    y 0.000000 2.073750 0.000000 
#    z 0.172470 0.000000 2.304920 
# 
# From -- ./inp_files/9860.got.cif
#   From: 2010.05.17/outbox.cif.g08.bks.cpg/sg12_5_cif.got.tgz:9860.got - 2010.06.03 13:09:07.
