data_PCOD9221377
_publ_section_title
;
Structure prediction by ZEFSAII (Michael W. Deem and Ramdas Pophale) SiO2 
 PCOD9221377
Probable space group: C 2/M
;
_chemical_formula_sum "Si O2"
_cell_formula_units_Z 48
_cell_length_a 15.214618
_cell_length_b 9.249834
_cell_length_c 15.793689
_cell_angle_alpha 90.000000
_cell_angle_beta 88.053405
_cell_angle_gamma 90.000000
_cell_volume 2221.405688
_symmetry_space_group_name_H-M "C 2/M"
_symmetry_group_IT_number 12
_symmetry_cell_setting 'monoclinic'
loop_
_space_group_symop_operation_xyz
x,y,z
-x,y,-z
-x,-y,-z
x,-y,z
1/2+x,1/2+y,z
1/2-x,1/2+y,-z
1/2-x,1/2-y,-z
1/2+x,1/2-y,z
loop_
_atom_site_type_symbol
_atom_site_label
_atom_site_fract_x
_atom_site_fract_y
_atom_site_fract_z
Si Si1 0.029909 0.668723 0.371146
Si Si2 0.806375 0.173554 0.571174
Si Si3 0.407388 0.164087 0.113646
Si Si4 0.602860 0.156514 0.181020
Si Si5 0.653340 0.825575 0.703721
Si Si6 0.163729 0.169266 0.033198
O O1 0.025421 0.500000 0.398692
O O2 0.095185 0.760993 0.427629
O O3 0.081165 0.672338 0.279741
O O4 0.930926 0.721357 0.351175
O O5 0.750000 0.250000 0.500000
O O6 0.745994 0.204994 0.656483
O O7 0.809442 0.000000 0.560574
O O8 0.506910 0.151389 0.141465
O O9 0.356566 0.223905 0.198634
O O10 0.375916 0.000000 0.094429
O O11 0.403605 0.263888 0.032244
O O12 0.649310 0.284687 0.130548
O O13 0.646784 0.000000 0.164619
O O14 0.643157 0.000000 0.708815
O O15 0.167401 0.000000 0.024988
O O16 0.250000 0.250000 0.000000
#
# Coordination Sequence:
#
# PCOD9221377 Si02
#       6
#     8   8   8   8   8   8
#     4   9  19  39  64  88 115 151 194 239 288 346
#     4  11  23  39  60  89 120 153 193 237 291 348
#     4   9  18  37  61  82 108 147 190 235 286 344
#     4   9  19  37  60  83 111 147 187 232 290 347
#     4   8  18  38  63  86 114 155 195 231 287 358
#     4  12  25  36  50  78 115 153 194 238 284 333
#
# _framework density 21.607939999999999
#
# number of rings (size 3 to 8) (size 9 to 14) (size 15 to 20)
#    0.000    2.333    0.000    4.500    2.333    4.000 
#    0.000    8.333    0.000    0.000    0.000    0.000 
#    0.000    0.000    0.000    0.000    0.000    0.000 
#
# Total GULP energy -133931.742524 kJ/mol
# GULP energy per Si atom -5580.489272 kJ/mol
# Density = 2.155876 g / cm^3
# Si number density = 21.607940 Si / 1000 Ang^3
#
#
#
# Elastic Constant Matrix: (Units=GPa)
#
#
# Indices 1 2 3 4 5 6 
#
# 1 78.2854 15.6411 -1.3396 0.0000 16.0972 0.0000
# 2 15.6411 86.6586 14.3295 0.0000 8.9772 0.0000
# 3 -1.3396 14.3295 49.4874 0.0000 -0.0020 0.0000
# 4 0.0000 0.0000 0.0000 22.0573 0.0000 0.2333
# 5 16.0972 8.9772 -0.0020 0.0000 36.1000 0.0000
# 6 0.0000 0.0000 0.0000 0.2333 0.0000 19.4073
#
#
#
# Elastic Compliance Matrix: (Units=1/GPa)
#
#
# Indices 1 2 3 4 5 6 
#
# 1 0.014436 -0.002163 0.001017 0.000000 -0.005899 0.000000
# 2 -0.002163 0.012781 -0.003759 0.000000 -0.002214 0.000000
# 3 0.001017 -0.003759 0.021323 0.000000 0.000483 0.000000
# 4 0.000000 0.000000 0.000000 0.045342 0.000000 -0.000545
# 5 -0.005899 -0.002214 0.000483 0.000000 0.030882 0.000000
# 6 0.000000 0.000000 0.000000 -0.000545 0.000000 0.051533
#
#
# Mechanical properties :
#
#
# Convention : Reuss Voigt Hill
#
# Bulk Modulus (GPa) = 25.81990 30.18815 28.00402
# Shear Modulus (GPa) = 25.12325 27.89961 26.51143
#
# Velocity S-wave (km/s) = 3.41352 3.59719 3.50656
# Velocity P-wave (km/s) = 5.24513 5.59055 5.42059
#
# Compressibility (1/GPa) = 0.03872982
#
# Stress axis : x y z
#
# Youngs Moduli (GPa) = 69.26984 78.24181 46.89710
#
# Poissons Ratio (x) = 0.16921 -0.04768
# Poissons Ratio (y) = 0.14980 0.17631
# Poissons Ratio (z) = -0.07043 0.29415
#
# Static dielectric constant tensor:
#      x y z
#    x 2.223200 0.000000 0.135380 
#    y 0.000000 1.749710 0.000000 
#    z 0.135380 0.000000 1.909950 
# 
# From -- ./inp_files/267703.got.cif
#   From: 2010.05.17/outbox.cif.g08.bks.cpg/sg12_134_cif.got.tgz:267703.got - 2010.06.03 13:09:07.
