data_PCOD9221564
_publ_section_title
;
Structure prediction by ZEFSAII (Michael W. Deem and Ramdas Pophale) SiO2 
 PCOD9221564
Probable space group: C 2/M
;
_chemical_formula_sum "Si O2"
_cell_formula_units_Z 48
_cell_length_a 7.244069
_cell_length_b 30.274685
_cell_length_c 13.072837
_cell_angle_alpha 90.000000
_cell_angle_beta 46.505565
_cell_angle_gamma 90.000000
_cell_volume 2079.860897
_symmetry_space_group_name_H-M "C 2/M"
_symmetry_group_IT_number 12
_symmetry_cell_setting 'monoclinic'
loop_
_space_group_symop_operation_xyz
x,y,z
-x,y,-z
-x,-y,-z
x,-y,z
1/2+x,1/2+y,z
1/2-x,1/2+y,-z
1/2-x,1/2-y,-z
1/2+x,1/2-y,z
loop_
_atom_site_type_symbol
_atom_site_label
_atom_site_fract_x
_atom_site_fract_y
_atom_site_fract_z
Si Si1 0.732830 0.310636 0.856988
Si Si2 0.237614 0.952565 0.663910
Si Si3 0.188823 0.950701 0.344779
Si Si4 0.461728 0.120098 0.132970
Si Si5 0.112358 0.145331 0.694202
Si Si6 0.235411 0.701227 0.549679
O O1 0.627290 0.322803 0.785161
O O2 0.815095 0.349595 0.905741
O O3 0.011806 0.294882 0.717944
O O4 0.500000 0.285017 0.000000
O O5 0.500000 0.953526 0.500000
O O6 0.209330 0.901378 0.705849
O O7 0.992446 0.954983 0.683648
O O8 0.231392 0.000000 0.725348
O O9 0.425005 0.921252 0.223241
O O10 0.000000 0.929551 0.500000
O O11 0.256481 0.000000 0.355407
O O12 0.178297 0.141370 0.235309
O O13 0.500000 0.106689 0.000000
O O14 0.273676 0.164511 0.536973
O O15 0.500000 0.690904 0.500000
O O16 0.250000 0.750000 0.500000
#
# Coordination Sequence:
#
# PCOD9221564 Si02
#       6
#     8   8   8   8   8   8
#     4  12  25  44  71 103 138 185 226 286 351 416
#     4   9  18  32  55  89 129 169 220 284 343 391
#     4   9  20  35  57  90 127 175 238 298 350 407
#     4  11  23  41  64  95 136 183 235 283 355 422
#     4  11  23  42  69  98 137 182 233 290 339 413
#     4  12  26  48  75 108 141 179 233 285 346 420
#
# _framework density 23.078465000000001
#
# number of rings (size 3 to 8) (size 9 to 14) (size 15 to 20)
#    0.000    1.333    3.333    2.500    7.000    0.333 
#    0.000    4.167    0.000    1.000    0.000    0.000 
#    0.000    0.000    0.000    0.000    0.000    0.000 
#
# Total GULP energy -133652.203972 kJ/mol
# GULP energy per Si atom -5568.841832 kJ/mol
# Density = 2.302594 g / cm^3
# Si number density = 23.078465 Si / 1000 Ang^3
#
#
#
# Elastic Constant Matrix: (Units=GPa)
#
#
# Indices 1 2 3 4 5 6 
#
# 1 94.2211 9.6876 8.5044 0.0000 -13.4516 0.0000
# 2 9.6876 38.4458 25.1032 0.0000 7.1447 0.0000
# 3 8.5044 25.1032 143.2890 0.0000 -6.7148 0.0000
# 4 0.0000 0.0000 0.0000 10.9285 0.0000 3.4729
# 5 -13.4516 7.1447 -6.7148 0.0000 39.9746 0.0000
# 6 0.0000 0.0000 0.0000 3.4729 0.0000 8.8399
#
#
#
# Elastic Compliance Matrix: (Units=1/GPa)
#
#
# Indices 1 2 3 4 5 6 
#
# 1 0.011666 -0.003950 0.000218 0.000000 0.004668 0.000000
# 2 -0.003950 0.032295 -0.005802 0.000000 -0.008076 0.000000
# 3 0.000218 -0.005802 0.008098 0.000000 0.002471 0.000000
# 4 0.000000 0.000000 0.000000 0.104558 0.000000 -0.041077
# 5 0.004668 -0.008076 0.002471 0.000000 0.028445 0.000000
# 6 0.000000 0.000000 0.000000 -0.041077 0.000000 0.129261
#
#
# Mechanical properties :
#
#
# Convention : Reuss Voigt Hill
#
# Bulk Modulus (GPa) = 30.30967 40.28292 35.29629
# Shear Modulus (GPa) = 14.51851 27.45932 20.98891
#
# Velocity S-wave (km/s) = 2.51089 3.45313 3.01899
# Velocity P-wave (km/s) = 4.64413 5.77853 5.24211
#
# Compressibility (1/GPa) = 0.03299277
#
# Stress axis : x y z
#
# Youngs Moduli (GPa) = 85.71754 30.96451 123.48459
#
# Poissons Ratio (x) = 0.12230 -0.02696
# Poissons Ratio (y) = 0.33857 0.71644
# Poissons Ratio (z) = -0.01872 0.17965
#
# Static dielectric constant tensor:
#      x y z
#    x 1.862010 0.000000 0.004360 
#    y 0.000000 1.842740 0.000000 
#    z 0.004360 0.000000 1.903390 
# 
# From -- ./inp_files/200786.got.cif
#   From: 2010.05.17/outbox.cif.g08.bks.cpg/sg12_101_cif.got.tgz:200786.got - 2010.06.03 13:09:07.
