data_PCOD9221412
_publ_section_title
;
Structure prediction by ZEFSAII (Michael W. Deem and Ramdas Pophale) SiO2 
 PCOD9221412
Probable space group: C 2/M
;
_chemical_formula_sum "Si O2"
_cell_formula_units_Z 40
_cell_length_a 19.797679
_cell_length_b 8.628818
_cell_length_c 11.400594
_cell_angle_alpha 90.000000
_cell_angle_beta 89.702224
_cell_angle_gamma 90.000000
_cell_volume 1947.543657
_symmetry_space_group_name_H-M "C 2/M"
_symmetry_group_IT_number 12
_symmetry_cell_setting 'monoclinic'
loop_
_space_group_symop_operation_xyz
x,y,z
-x,y,-z
-x,-y,-z
x,-y,z
1/2+x,1/2+y,z
1/2-x,1/2+y,-z
1/2-x,1/2-y,-z
1/2+x,1/2-y,z
loop_
_atom_site_type_symbol
_atom_site_label
_atom_site_fract_x
_atom_site_fract_y
_atom_site_fract_z
Si Si1 0.353333 0.318011 0.230285
Si Si2 0.098855 0.182459 0.239121
Si Si3 0.173791 0.316277 0.011850
Si Si4 0.525592 0.816254 0.628876
Si Si5 0.733580 0.683101 0.373430
O O1 0.357067 0.500000 0.206828
O O2 0.363033 0.225187 0.109748
O O3 0.407599 0.269514 0.327475
O O4 0.280176 0.272123 0.280514
O O5 0.155905 0.203029 0.338578
O O6 0.033309 0.276406 0.278337
O O7 0.082605 0.000000 0.230608
O O8 0.133584 0.239191 0.119232
O O9 0.177598 0.500000 0.028572
O O10 0.250000 0.250000 0.000000
O O11 0.500000 0.766877 0.500000
O O12 0.538532 0.000000 0.624972
O O13 0.749284 0.500000 0.367825
O O14 0.750000 0.750000 0.500000
#
# Coordination Sequence:
#
# PCOD9221412 Si02
#       5
#     8   8   8   8   8
#     4  12  25  42  67  96 131 173 219 270 329 391
#     4  11  24  42  66  96 131 173 219 269 328 389
#     4  12  24  42  68  98 133 171 218 272 330 389
#     4  11  25  45  68  96 134 175 220 272 329 391
#     4  11  23  39  63  94 130 169 218 272 325 388
#
# _framework density 20.538691
#
# number of rings (size 3 to 8) (size 9 to 14) (size 15 to 20)
#    0.000    0.600    2.000    6.600    0.000    8.000 
#    0.000    4.000    0.000    0.000    0.000    0.000 
#    0.000    0.000    0.000    0.000    0.000    0.000 
#
# Total GULP energy -111979.380710 kJ/mol
# GULP energy per Si atom -5598.969035 kJ/mol
# Density = 2.049194 g / cm^3
# Si number density = 20.538691 Si / 1000 Ang^3
#
#
#
# Elastic Constant Matrix: (Units=GPa)
#
#
# Indices 1 2 3 4 5 6 
#
# 1 45.2508 0.1470 -17.4282 0.0000 -0.8571 0.0000
# 2 0.1470 55.6224 -15.1553 0.0000 10.6656 0.0000
# 3 -17.4282 -15.1553 63.7981 0.0000 5.3791 0.0000
# 4 0.0000 0.0000 0.0000 34.4253 0.0000 1.9905
# 5 -0.8571 10.6656 5.3791 0.0000 35.5358 0.0000
# 6 0.0000 0.0000 0.0000 1.9905 0.0000 33.5087
#
#
#
# Elastic Compliance Matrix: (Units=1/GPa)
#
#
# Indices 1 2 3 4 5 6 
#
# 1 0.024931 0.002184 0.007429 0.000000 -0.001179 0.000000
# 2 0.002184 0.021044 0.006203 0.000000 -0.007202 0.000000
# 3 0.007429 0.006203 0.019569 0.000000 -0.004645 0.000000
# 4 0.000000 0.000000 0.000000 0.029149 0.000000 -0.001732
# 5 -0.001179 -0.007202 -0.004645 0.000000 0.030977 0.000000
# 6 0.000000 0.000000 0.000000 -0.001732 0.000000 0.029946
#
#
# Mechanical properties :
#
#
# Convention : Reuss Voigt Hill
#
# Bulk Modulus (GPa) = 10.29067 11.08870 10.68969
# Shear Modulus (GPa) = 31.97449 33.83448 32.90448
#
# Velocity S-wave (km/s) = 3.94990 4.06316 4.00693
# Velocity P-wave (km/s) = 5.08169 5.23670 5.15978
#
# Compressibility (1/GPa) = 0.09717536
#
# Stress axis : x y z
#
# Youngs Moduli (GPa) = 40.11106 47.52010 51.10137
#
# Poissons Ratio (x) = -0.10380 -0.37962
# Poissons Ratio (y) = -0.08761 -0.31698
# Poissons Ratio (z) = -0.29798 -0.29476
#
# Static dielectric constant tensor:
#      x y z
#    x 1.710930 0.000000 0.018800 
#    y 0.000000 1.683730 0.000000 
#    z 0.018800 0.000000 1.722080 
# 
# From -- ./inp_files/151720.got.cif
#   From: 2010.05.17/outbox.cif.g08.bks.cpg/sg12_76_cif.got.tgz:151720.got - 2010.06.03 13:09:07.
