data_PCOD9221622
_publ_section_title
;
Structure prediction by ZEFSAII (Michael W. Deem and Ramdas Pophale) SiO2 
 PCOD9221622
Probable space group: C 2/M
;
_chemical_formula_sum "Si O2"
_cell_formula_units_Z 48
_cell_length_a 16.759435
_cell_length_b 28.147975
_cell_length_c 10.447401
_cell_angle_alpha 90.000000
_cell_angle_beta 25.033905
_cell_angle_gamma 90.000000
_cell_volume 2085.517109
_symmetry_space_group_name_H-M "C 2/M"
_symmetry_group_IT_number 12
_symmetry_cell_setting 'monoclinic'
loop_
_space_group_symop_operation_xyz
x,y,z
-x,y,-z
-x,-y,-z
x,-y,z
1/2+x,1/2+y,z
1/2-x,1/2+y,-z
1/2-x,1/2-y,-z
1/2+x,1/2-y,z
loop_
_atom_site_type_symbol
_atom_site_label
_atom_site_fract_x
_atom_site_fract_y
_atom_site_fract_z
Si Si1 0.034240 0.210700 0.602701
Si Si2 0.276331 0.053584 0.824489
Si Si3 0.074193 0.894698 0.600457
Si Si4 0.769184 0.397485 0.590592
Si Si5 0.806687 0.303799 0.702892
Si Si6 0.602045 0.053067 0.989880
O O1 0.122965 0.159219 0.495084
O O2 0.154090 0.258599 0.446216
O O3 0.000000 0.212604 0.500000
O O4 0.852327 0.209628 0.960680
O O5 0.500000 0.062581 0.500000
O O6 0.219985 0.060252 0.758570
O O7 0.237749 0.000000 0.922463
O O8 0.145600 0.091413 0.087332
O O9 0.147884 0.899415 0.638803
O O10 0.188791 0.930203 0.344045
O O11 0.751573 0.348733 0.695679
O O12 0.985215 0.408104 0.237686
O O13 0.000000 0.314760 0.500000
O O14 0.590406 0.000000 0.062479
O O15 0.500000 0.051207 0.000000
#
# Coordination Sequence:
#
# PCOD9221622 Si02
#       6
#     8   8   8   8   8   8
#     4  11  25  42  67  96 130 178 226 273 340 405
#     4  11  24  42  66  98 136 180 225 273 332 399
#     4  11  24  41  67 103 134 176 224 279 337 398
#     4  11  23  41  68  99 137 175 222 279 339 396
#     4  11  24  43  68  96 132 179 223 277 336 411
#     4   9  20  38  61  93 133 176 216 263 328 393
#
# _framework density 23.015875000000001
#
# number of rings (size 3 to 8) (size 9 to 14) (size 15 to 20)
#    0.000    1.333    1.667    4.000    4.667    3.333 
#    0.000    0.000    0.000    4.000    0.000    0.000 
#    0.000    0.000    0.000    0.000    0.000    0.000 
#
# Total GULP energy -134123.522642 kJ/mol
# GULP energy per Si atom -5588.480110 kJ/mol
# Density = 2.296349 g / cm^3
# Si number density = 23.015875 Si / 1000 Ang^3
#
#
#
# Elastic Constant Matrix: (Units=GPa)
#
#
# Indices 1 2 3 4 5 6 
#
# 1 73.0126 27.2281 17.3029 -0.0094 14.2432 -0.0063
# 2 27.2281 134.2162 55.1581 -0.0025 3.7530 -0.0010
# 3 17.3029 55.1581 143.1412 -0.0230 4.7324 -0.0157
# 4 -0.0094 -0.0025 -0.0230 -1.4293 0.0110 -27.8867
# 5 14.2432 3.7530 4.7324 0.0110 32.5235 0.0081
# 6 -0.0063 -0.0010 -0.0157 -27.8867 0.0081 -5.3735
#
#
#
# Elastic Compliance Matrix: (Units=1/GPa)
#
#
# Indices 1 2 3 4 5 6 
#
# 1 0.016210 -0.002836 -0.000646 -0.000004 -0.006678 -0.000007
# 2 -0.002836 0.009358 -0.003284 0.000002 0.000640 0.000003
# 3 -0.000646 -0.003284 0.008348 -0.000003 -0.000553 -0.000006
# 4 -0.000004 0.000002 -0.000003 0.006979 0.000009 -0.036217
# 5 -0.006678 0.000640 -0.000553 0.000009 0.033678 0.000016
# 6 -0.000007 0.000003 -0.000006 -0.036217 0.000016 0.001856
#
#
# Mechanical properties :
#
#
# Convention : Reuss Voigt Hill
#
# Bulk Modulus (GPa) = 49.06069 61.08313 55.07191
# Shear Modulus (GPa) = 51.67676 21.85621 36.76648
#
# Velocity S-wave (km/s) = 4.74356 3.08492 4.00113
# Velocity P-wave (km/s) = 7.16688 6.26787 6.73240
#
# Compressibility (1/GPa) = 0.02038292
#
# Stress axis : x y z
#
# Youngs Moduli (GPa) = 61.69162 106.86175 119.78912
#
# Poissons Ratio (x) = 0.30310 0.07735
# Poissons Ratio (y) = 0.17498 0.39342
# Poissons Ratio (z) = 0.03983 0.35096
#
# Static dielectric constant tensor:
#      x y z
#    x 1.881790 0.000000 0.000440 
#    y 0.000000 1.853370 0.000000 
#    z 0.000440 0.000000 1.881040 
# 
# From -- ./inp_files/170796.got.cif
#   From: 2010.05.17/outbox.cif.g08.bks.cpg/sg12_86_cif.got.tgz:170796.got - 2010.06.03 13:09:07.
