data_PCOD9221504
_publ_section_title
;
Structure prediction by ZEFSAII (Michael W. Deem and Ramdas Pophale) SiO2 
 PCOD9221504
Probable space group: C 2/M
;
_chemical_formula_sum "Si O2"
_cell_formula_units_Z 58
_cell_length_a 26.555632
_cell_length_b 14.408380
_cell_length_c 21.162465
_cell_angle_alpha 90.000000
_cell_angle_beta 18.371503
_cell_angle_gamma 90.000000
_cell_volume 2552.070379
_symmetry_space_group_name_H-M "C 2/M"
_symmetry_group_IT_number 12
_symmetry_cell_setting 'monoclinic'
loop_
_space_group_symop_operation_xyz
x,y,z
-x,y,-z
-x,-y,-z
x,-y,z
1/2+x,1/2+y,z
1/2-x,1/2+y,-z
1/2-x,1/2-y,-z
1/2+x,1/2-y,z
loop_
_atom_site_type_symbol
_atom_site_label
_atom_site_fract_x
_atom_site_fract_y
_atom_site_fract_z
Si Si1 0.580877 0.108030 0.256960
Si Si2 0.160647 0.643587 0.771982
Si Si3 0.251852 0.665981 0.282571
Si Si4 0.279414 0.395005 0.497924
Si Si5 0.478994 0.782549 0.260711
Si Si6 0.005824 0.900552 0.417597
Si Si7 0.243291 0.263236 0.151164
Si Si8 0.000000 0.000000 0.000000
O O1 0.413172 0.129006 0.491910
O O2 0.580746 0.171191 0.194760
O O3 0.714759 0.143102 0.145867
O O4 0.593491 0.000000 0.226718
O O5 0.175993 0.755383 0.757071
O O6 0.169389 0.605582 0.691127
O O7 0.325958 0.610359 0.607062
O O8 0.000000 0.616682 0.000000
O O9 0.223886 0.715691 0.248119
O O10 0.371368 0.581364 0.133339
O O11 0.329610 0.500000 0.423442
O O12 0.418282 0.321158 0.347770
O O13 0.174497 0.348312 0.567658
O O14 0.583760 0.775287 0.072713
O O15 0.000000 0.905752 0.500000
O O16 0.116052 0.811315 0.275544
O O17 0.069951 0.000000 0.316759
#
# Coordination Sequence:
#
# PCOD9221504 Si02
#       8
#     8   8   8   8   8   8   8   2
#     4  12  25  44  72 101 143 188 235 295 362 431
#     4  12  23  43  70 103 143 188 233 300 364 424
#     4  12  24  44  69 107 141 185 239 303 360 428
#     4  11  25  45  70 100 141 188 244 295 355 435
#     4  11  26  48  69 102 144 194 236 299 363 427
#     4  11  23  40  66 103 144 188 236 298 365 430
#     4  12  25  46  73 104 146 185 244 297 361 432
#     4  12  28  40  74 108 146 192 242 298 376 440
#
# _framework density 22.726645999999999
#
# number of rings (size 3 to 8) (size 9 to 14) (size 15 to 20)
#    0.000    0.414    5.517    2.483    0.966    3.310 
#    2.483    0.000    0.000    0.000    0.000    0.000 
#    0.000    0.000    0.000    0.000    0.000    0.000 
#
# Total GULP energy -162000.093592 kJ/mol
# GULP energy per Si atom -5586.210124 kJ/mol
# Density = 2.267492 g / cm^3
# Si number density = 22.726646 Si / 1000 Ang^3
#
#
#
# Elastic Constant Matrix: (Units=GPa)
#
#
# Indices 1 2 3 4 5 6 
#
# 1 56.5255 19.3707 4.0767 -0.0003 1.0088 0.0007
# 2 19.3707 186.9244 21.2077 -0.0003 -12.0434 0.0002
# 3 4.0767 21.2077 67.6281 0.0007 -7.2750 -0.0007
# 4 -0.0003 -0.0003 0.0007 16.5035 -0.0001 -8.0493
# 5 1.0088 -12.0434 -7.2750 -0.0001 22.5628 -0.0003
# 6 0.0007 0.0002 -0.0007 -8.0493 -0.0003 3.6664
#
#
#
# Elastic Compliance Matrix: (Units=1/GPa)
#
#
# Indices 1 2 3 4 5 6 
#
# 1 0.018455 -0.001966 -0.000723 0.000019 -0.002108 0.000039
# 2 -0.001966 0.005895 -0.001432 -0.000002 0.002773 -0.000003
# 3 -0.000723 -0.001432 0.015747 -0.000016 0.004345 -0.000031
# 4 0.000019 -0.000002 -0.000016 -0.855938 -0.000035 -1.879159
# 5 -0.002108 0.002773 0.004345 -0.000035 0.047296 -0.000073
# 6 0.000039 -0.000003 -0.000031 -1.879159 -0.000073 -3.852828
#
#
# Mechanical properties :
#
#
# Convention : Reuss Voigt Hill
#
# Bulk Modulus (GPa) = 31.39232 44.48757 37.93995
# Shear Modulus (GPa) = -1.08636 26.30806 12.61085
#
# Velocity S-wave (km/s) = -0.69213 3.40602 2.35817
# Velocity P-wave (km/s) = 3.63377 5.92331 4.91375
#
# Compressibility (1/GPa) = 0.03185492
#
# Stress axis : x y z
#
# Youngs Moduli (GPa) = 54.18682 169.64707 63.50523
#
# Poissons Ratio (x) = 0.33357 0.04589
# Poissons Ratio (y) = 0.10654 0.09092
# Poissons Ratio (z) = 0.03915 0.24289
#
# Static dielectric constant tensor:
#      x y z
#    x 1.816360 0.000000 -0.001400 
#    y 0.000000 1.867240 0.000000 
#    z -0.001400 0.000000 1.847320 
# 
# From -- ./inp_files/328388.got.cif
#   From: 2010.05.17/outbox.cif.g08.bks.cpg/sg12_165_cif.got.tgz:328388.got - 2010.06.03 13:09:07.
