data_PCOD9221287
_publ_section_title
;
Structure prediction by ZEFSAII (Michael W. Deem and Ramdas Pophale) SiO2 
 PCOD9221287
Probable space group: C 2/M
;
_chemical_formula_sum "Si O2"
_cell_formula_units_Z 44
_cell_length_a 7.438637
_cell_length_b 28.434680
_cell_length_c 11.244862
_cell_angle_alpha 90.000000
_cell_angle_beta 71.527594
_cell_angle_gamma 90.000000
_cell_volume 2255.913029
_symmetry_space_group_name_H-M "C 2/M"
_symmetry_group_IT_number 12
_symmetry_cell_setting 'monoclinic'
loop_
_space_group_symop_operation_xyz
x,y,z
-x,y,-z
-x,-y,-z
x,-y,z
1/2+x,1/2+y,z
1/2-x,1/2+y,-z
1/2-x,1/2-y,-z
1/2+x,1/2-y,z
loop_
_atom_site_type_symbol
_atom_site_label
_atom_site_fract_x
_atom_site_fract_y
_atom_site_fract_z
Si Si1 0.599107 0.053639 0.107929
Si Si2 0.638104 0.880575 0.676132
Si Si3 0.792661 0.195156 0.485414
Si Si4 0.188625 0.947808 0.544083
Si Si5 0.500000 0.597864 0.000000
Si Si6 0.464813 0.630116 0.265269
O O1 0.517069 0.096071 0.206235
O O2 0.568633 0.000000 0.161260
O O3 0.500000 0.055635 0.000000
O O4 0.817358 0.064779 0.039735
O O5 0.637382 0.832976 0.596855
O O6 0.668626 0.919737 0.568450
O O7 0.827646 0.873093 0.716674
O O8 0.750000 0.250000 0.500000
O O9 0.833745 0.171306 0.348634
O O10 0.000000 0.187288 0.500000
O O11 0.137351 0.917675 0.669830
O O12 0.000000 0.949401 0.500000
O O13 0.247826 0.000000 0.561033
O O14 0.508556 0.629535 0.880220
#
# Coordination Sequence:
#
# PCOD9221287 Si02
#       6
#     8   8   8   8   4   8
#     4  11  23  37  56  82 119 165 202 235 282 344
#     4   9  17  36  57  81 110 149 196 241 294 341
#     4   9  19  36  64  89 114 145 191 246 303 354
#     4   8  14  26  50  78 104 139 185 235 282 331
#     4  12  23  38  56  82 124 156 200 236 283 346
#     4   9  19  34  55  83 114 152 190 238 288 347
#
# _framework density 19.504297999999999
#
# number of rings (size 3 to 8) (size 9 to 14) (size 15 to 20)
#    0.000    2.545    1.818    3.000    0.000    3.636 
#    0.000    2.727    2.000    8.727    0.000    0.000 
#    0.000    0.000    0.000    0.000    0.000    0.000 
#
# Total GULP energy -122659.786205 kJ/mol
# GULP energy per Si atom -5575.444827 kJ/mol
# Density = 1.945991 g / cm^3
# Si number density = 19.504298 Si / 1000 Ang^3
#
#
#
# Elastic Constant Matrix: (Units=GPa)
#
#
# Indices 1 2 3 4 5 6 
#
# 1 81.1602 17.7651 31.6924 0.0000 -14.4901 0.0000
# 2 17.7651 155.0523 71.0727 0.0000 -12.7735 0.0000
# 3 31.6924 71.0727 150.5848 0.0000 1.2688 0.0000
# 4 0.0000 0.0000 0.0000 12.5022 0.0000 -6.2104
# 5 -14.4901 -12.7735 1.2688 0.0000 30.3681 0.0000
# 6 0.0000 0.0000 0.0000 -6.2104 0.0000 16.5931
#
#
#
# Elastic Compliance Matrix: (Units=1/GPa)
#
#
# Indices 1 2 3 4 5 6 
#
# 1 0.014881 0.000475 -0.003419 0.000000 0.007443 0.000000
# 2 0.000475 0.008664 -0.004224 0.000000 0.004048 0.000000
# 3 -0.003419 -0.004224 0.009386 0.000000 -0.003800 0.000000
# 4 0.000000 0.000000 0.000000 0.098253 0.000000 0.036774
# 5 0.007443 0.004048 -0.003800 0.000000 0.038342 0.000000
# 6 0.000000 0.000000 0.000000 0.036774 0.000000 0.074030
#
#
# Mechanical properties :
#
#
# Convention : Reuss Voigt Hill
#
# Bulk Modulus (GPa) = 53.77194 69.76196 61.76695
# Shear Modulus (GPa) = 18.93294 29.64381 24.28838
#
# Velocity S-wave (km/s) = 3.11900 3.90277 3.53269
# Velocity P-wave (km/s) = 6.37181 7.49359 6.95535
#
# Compressibility (1/GPa) = 0.01859706
#
# Stress axis : x y z
#
# Youngs Moduli (GPa) = 67.19861 115.41444 106.54383
#
# Poissons Ratio (x) = -0.05487 0.36428
# Poissons Ratio (y) = -0.03195 0.45000
# Poissons Ratio (z) = 0.22975 0.48746
#
# Static dielectric constant tensor:
#      x y z
#    x 1.761370 0.000000 0.015930 
#    y 0.000000 1.694330 0.000000 
#    z 0.015930 0.000000 1.686200 
# 
# From -- ./inp_files/122991.got.cif
#   From: 2010.05.17/outbox.cif.g08.bks.cpg/sg12_62_cif.got.tgz:122991.got - 2010.06.03 13:09:07.
