data_PCOD9221844
_publ_section_title
;
Structure prediction by ZEFSAII (Michael W. Deem and Ramdas Pophale) SiO2 
 PCOD9221844
Probable space group: C 2/M
;
_chemical_formula_sum "Si O2"
_cell_formula_units_Z 40
_cell_length_a 5.447856
_cell_length_b 29.716605
_cell_length_c 10.985769
_cell_angle_alpha 90.000000
_cell_angle_beta 74.679941
_cell_angle_gamma 90.000000
_cell_volume 1715.306511
_symmetry_space_group_name_H-M "C 2/M"
_symmetry_group_IT_number 12
_symmetry_cell_setting 'monoclinic'
loop_
_space_group_symop_operation_xyz
x,y,z
-x,y,-z
-x,-y,-z
x,-y,z
1/2+x,1/2+y,z
1/2-x,1/2+y,-z
1/2-x,1/2-y,-z
1/2+x,1/2-y,z
loop_
_atom_site_type_symbol
_atom_site_label
_atom_site_fract_x
_atom_site_fract_y
_atom_site_fract_z
Si Si1 0.070279 0.951406 0.218481
Si Si2 0.351569 0.152563 0.401676
Si Si3 0.500000 0.084112 0.000000
Si Si4 0.292784 0.637046 0.156807
Si Si5 0.500000 0.427872 0.500000
Si Si6 0.000000 0.221869 0.500000
Si Si7 0.000000 0.220110 0.000000
O O1 0.350165 0.944435 0.122133
O O2 0.037617 0.953087 0.368289
O O3 0.932613 0.904842 0.201981
O O4 0.972783 0.000000 0.182970
O O5 0.500000 0.170935 0.500000
O O6 0.542217 0.146441 0.267652
O O7 0.121622 0.185442 0.390624
O O8 0.238112 0.105992 0.464835
O O9 0.299157 0.116298 0.959369
O O10 0.429562 0.684696 0.116804
O O11 0.250000 0.250000 0.500000
O O12 0.750000 0.250000 0.000000
#
# Coordination Sequence:
#
# PCOD9221844 Si02
#       7
#     8   8   4   8   4   4   4
#     4  12  26  45  76 115 157 208 265 326 395 474
#     4  11  23  44  75 102 147 210 254 320 405 463
#     4  12  24  48  73 104 154 205 264 317 399 456
#     4  12  26  48  78 108 157 201 264 329 394 475
#     4  11  23  44  73 110 152 208 260 310 385 475
#     4  11  24  44  67 110 151 190 259 332 399 481
#     4  12  29  52  80 114 151 209 270 331 404 478
#
# _framework density 23.319445999999999
#
# number of rings (size 3 to 8) (size 9 to 14) (size 15 to 20)
#    0.000    0.400    7.000    1.200    0.000    4.000 
#    0.000    1.000    0.000    0.000    0.000    0.000 
#    0.000    0.000    0.000    0.000    0.000    0.000 
#
# Total GULP energy -111561.551313 kJ/mol
# GULP energy per Si atom -5578.077566 kJ/mol
# Density = 2.326637 g / cm^3
# Si number density = 23.319446 Si / 1000 Ang^3
#
#
#
# Elastic Constant Matrix: (Units=GPa)
#
#
# Indices 1 2 3 4 5 6 
#
# 1 111.4325 85.8577 43.8112 0.0000 -21.4236 0.0000
# 2 85.8577 196.9405 56.1365 0.0000 -18.8534 0.0000
# 3 43.8112 56.1365 162.2921 0.0000 -32.3077 0.0000
# 4 0.0000 0.0000 0.0000 0.9470 0.0000 4.3005
# 5 -21.4236 -18.8534 -32.3077 0.0000 51.9628 0.0000
# 6 0.0000 0.0000 0.0000 4.3005 0.0000 -187.7925
#
#
#
# Elastic Compliance Matrix: (Units=1/GPa)
#
#
# Indices 1 2 3 4 5 6 
#
# 1 0.014412 -0.005607 -0.001339 0.000000 0.003075 0.000000
# 2 -0.005607 0.007856 -0.001251 0.000000 -0.000239 0.000000
# 3 -0.001339 -0.001251 0.007710 0.000000 0.003788 0.000000
# 4 0.000000 0.000000 0.000000 0.956515 0.000000 0.021905
# 5 0.003075 -0.000239 0.003788 0.000000 0.022780 0.000000
# 6 0.000000 0.000000 0.000000 0.021905 0.000000 -0.004823
#
#
# Mechanical properties :
#
#
# Convention : Reuss Voigt Hill
#
# Bulk Modulus (GPa) = 73.62045 93.58623 83.60334
# Shear Modulus (GPa) = 4.87628 -7.98591 -1.55481
#
# Velocity S-wave (km/s) = 1.44763 -1.85257 -0.81743
# Velocity P-wave (km/s) = 5.86797 5.97021 5.91931
#
# Compressibility (1/GPa) = 0.01358318
#
# Stress axis : x y z
#
# Youngs Moduli (GPa) = 69.38816 127.29441 129.70100
#
# Poissons Ratio (x) = 0.71372 0.17366
# Poissons Ratio (y) = 0.38905 0.16230
# Poissons Ratio (z) = 0.09291 0.15929
#
# Static dielectric constant tensor:
#      x y z
#    x 1.960830 0.000000 0.003990 
#    y 0.000000 1.964860 0.000000 
#    z 0.003990 0.000000 1.896220 
# 
# From -- ./inp_files/116060.got.cif
#   From: 2010.05.17/outbox.cif.g08.bks.cpg/sg12_59_cif.got.tgz:116060.got - 2010.06.03 13:09:07.
