data_PCOD9221831
_publ_section_title
;
Structure prediction by ZEFSAII (Michael W. Deem and Ramdas Pophale) SiO2 
 PCOD9221831
Probable space group: C 2/M
;
_chemical_formula_sum "Si O2"
_cell_formula_units_Z 56
_cell_length_a 13.476471
_cell_length_b 21.798864
_cell_length_c 13.492750
_cell_angle_alpha 90.000000
_cell_angle_beta 146.723459
_cell_angle_gamma 90.000000
_cell_volume 2174.853917
_symmetry_space_group_name_H-M "C 2/M"
_symmetry_group_IT_number 12
_symmetry_cell_setting 'monoclinic'
loop_
_space_group_symop_operation_xyz
x,y,z
-x,y,-z
-x,-y,-z
x,-y,z
1/2+x,1/2+y,z
1/2-x,1/2+y,-z
1/2-x,1/2-y,-z
1/2+x,1/2-y,z
loop_
_atom_site_type_symbol
_atom_site_label
_atom_site_fract_x
_atom_site_fract_y
_atom_site_fract_z
Si Si1 0.364623 0.112207 0.255660
Si Si2 0.949002 0.768724 0.762840
Si Si3 0.722936 0.397474 0.339368
Si Si4 0.283246 0.255965 0.182650
Si Si5 0.117663 0.428080 0.952807
Si Si6 0.491352 0.568622 0.649504
Si Si7 0.722641 0.842400 0.317790
O O1 0.572333 0.094769 0.450774
O O2 0.236012 0.085067 0.234408
O O3 0.346060 0.185837 0.250166
O O4 0.326459 0.091543 0.112300
O O5 0.835693 0.826297 0.703842
O O6 0.835508 0.707521 0.647463
O O7 0.076543 0.784857 0.777817
O O8 0.090073 0.749290 0.967124
O O9 0.589170 0.428825 0.305617
O O10 0.068403 0.500000 0.912472
O O11 0.950412 0.385791 0.843455
O O12 0.294924 0.419684 0.167576
O O13 0.461204 0.500000 0.586865
O O14 0.726133 0.702249 0.729098
O O15 0.379162 0.615424 0.490350
#
# Coordination Sequence:
#
# PCOD9221831 Si02
#       7
#     8   8   8   8   8   8   8
#     4  11  23  44  71 117 158 205 257 325 410 480
#     4  11  24  45  73 112 157 201 255 318 398 481
#     4  11  24  43  73 112 161 201 257 330 405 480
#     4  11  24  44  72 114 158 204 255 314 404 479
#     4  11  25  49  81 114 158 213 273 331 393 469
#     4  11  26  48  78 111 152 213 274 331 388 463
#     4  12  24  47  78 115 161 204 257 328 401 470
#
# _framework density 25.748856
#
# number of rings (size 3 to 8) (size 9 to 14) (size 15 to 20)
#    0.000    0.857    4.286    1.714    2.000    4.571 
#    2.571    2.857    0.000    9.429    0.000    0.000 
#    0.000    0.000    0.000    0.000    0.000    0.000 
#
# Total GULP energy -157248.506007 kJ/mol
# GULP energy per Si atom -5616.018072 kJ/mol
# Density = 2.569025 g / cm^3
# Si number density = 25.748856 Si / 1000 Ang^3
#
#
#
# Elastic Constant Matrix: (Units=GPa)
#
#
# Indices 1 2 3 4 5 6 
#
# 1 136.5832 27.3154 34.7032 0.0000 -7.7960 0.0000
# 2 27.3154 151.7406 43.4509 0.0000 7.3676 0.0000
# 3 34.7032 43.4509 115.1797 0.0000 8.7725 0.0000
# 4 0.0000 0.0000 0.0000 19.1647 0.0000 19.8712
# 5 -7.7960 7.3676 8.7725 0.0000 37.3480 0.0000
# 6 0.0000 0.0000 0.0000 19.8712 0.0000 5.9980
#
#
#
# Elastic Compliance Matrix: (Units=1/GPa)
#
#
# Indices 1 2 3 4 5 6 
#
# 1 0.008237 -0.000939 -0.002314 0.000000 0.002448 0.000000
# 2 -0.000939 0.007520 -0.002470 0.000000 -0.001099 0.000000
# 3 -0.002314 -0.002470 0.010499 0.000000 -0.002462 0.000000
# 4 0.000000 0.000000 0.000000 -0.021428 0.000000 0.070990
# 5 0.002448 -0.001099 -0.002462 0.000000 0.028081 0.000000
# 6 0.000000 0.000000 0.000000 0.070990 0.000000 -0.068466
#
#
# Mechanical properties :
#
#
# Convention : Reuss Voigt Hill
#
# Bulk Modulus (GPa) = 67.52586 68.27138 67.89862
# Shear Modulus (GPa) = -260.76848 32.37107 -114.19871
#
# Velocity S-wave (km/s) = -10.07441 3.54953 -6.66688
# Velocity P-wave (km/s) = 10.44237 6.58565 5.73029
#
# Compressibility (1/GPa) = 0.01480914
#
# Stress axis : x y z
#
# Youngs Moduli (GPa) = 121.40311 132.97960 95.25033
#
# Poissons Ratio (x) = 0.12487 0.22041
# Poissons Ratio (y) = 0.11400 0.23529
# Poissons Ratio (z) = 0.28093 0.32849
#
# Static dielectric constant tensor:
#      x y z
#    x 2.068660 0.000000 -0.050310 
#    y 0.000000 1.986380 0.000000 
#    z -0.050310 0.000000 2.017780 
# 
# From -- ./inp_files/137029.got.cif
#   From: 2010.05.17/outbox.cif.g08.bks.cpg/sg12_69_cif.got.tgz:137029.got - 2010.06.03 13:09:07.
