data_PCOD9221608
_publ_section_title
;
Structure prediction by ZEFSAII (Michael W. Deem and Ramdas Pophale) SiO2 
 PCOD9221608
Probable space group: C 2/M
;
_chemical_formula_sum "Si O2"
_cell_formula_units_Z 32
_cell_length_a 24.057351
_cell_length_b 9.041618
_cell_length_c 9.697799
_cell_angle_alpha 90.000000
_cell_angle_beta 53.529480
_cell_angle_gamma 90.000000
_cell_volume 1696.333032
_symmetry_space_group_name_H-M "C 2/M"
_symmetry_group_IT_number 12
_symmetry_cell_setting 'monoclinic'
loop_
_space_group_symop_operation_xyz
x,y,z
-x,y,-z
-x,-y,-z
x,-y,z
1/2+x,1/2+y,z
1/2-x,1/2+y,-z
1/2-x,1/2-y,-z
1/2+x,1/2-y,z
loop_
_atom_site_type_symbol
_atom_site_label
_atom_site_fract_x
_atom_site_fract_y
_atom_site_fract_z
Si Si1 0.706502 0.170885 0.182873
Si Si2 0.064281 0.325297 0.802777
Si Si3 0.933401 0.177442 0.501777
Si Si4 0.298750 0.669792 0.319818
O O1 0.635699 0.253411 0.328648
O O2 0.757390 0.171212 0.238799
O O3 0.690982 0.000000 0.169806
O O4 0.750000 0.250000 0.000000
O O5 0.074740 0.500000 0.762206
O O6 0.056973 0.245916 0.665218
O O7 0.129909 0.256858 0.783630
O O8 0.000000 0.305808 0.000000
O O9 0.000000 0.208719 0.500000
O O10 0.925849 0.000000 0.502410
O O11 0.311393 0.500000 0.341907
O O12 0.250000 0.750000 0.500000
#
# Coordination Sequence:
#
# PCOD9221608 Si02
#       4
#     8   8   8   8
#     4  11  25  43  66  96 129 168 214 261 317 379
#     4  11  25  43  65  96 129 168 214 261 318 379
#     4  11  25  44  66  94 129 169 213 262 318 379
#     4  11  23  41  67  95 126 166 213 264 317 376
#
# _framework density 18.86422
#
# number of rings (size 3 to 8) (size 9 to 14) (size 15 to 20)
#    0.000    1.000    2.500    3.000    3.500    7.000 
#    0.000    0.000    0.000    0.000    0.000    0.000 
#    0.000    0.000    0.000    0.000    0.000    0.000 
#
# Total GULP energy -89452.208270 kJ/mol
# GULP energy per Si atom -5590.763017 kJ/mol
# Density = 1.882128 g / cm^3
# Si number density = 18.864220 Si / 1000 Ang^3
#
#
#
# Elastic Constant Matrix: (Units=GPa)
#
#
# Indices 1 2 3 4 5 6 
#
# 1 126.6239 82.5594 52.7853 0.0000 -25.5001 0.0000
# 2 82.5594 164.3386 100.4576 0.0000 -21.5098 0.0000
# 3 52.7853 100.4576 124.8703 0.0000 -9.6558 0.0000
# 4 0.0000 0.0000 0.0000 32.0074 0.0000 -0.7163
# 5 -25.5001 -21.5098 -9.6558 0.0000 30.1332 0.0000
# 6 0.0000 0.0000 0.0000 -0.7163 0.0000 33.7291
#
#
#
# Elastic Compliance Matrix: (Units=1/GPa)
#
#
# Indices 1 2 3 4 5 6 
#
# 1 0.012993 -0.005069 -0.000865 0.000000 0.007099 0.000000
# 2 -0.005069 0.014949 -0.009629 0.000000 0.003296 0.000000
# 3 -0.000865 -0.009629 0.015927 0.000000 -0.002502 0.000000
# 4 0.000000 0.000000 0.000000 0.031258 0.000000 0.000664
# 5 0.007099 0.003296 -0.002502 0.000000 0.040745 0.000000
# 6 0.000000 0.000000 0.000000 0.000664 0.000000 0.029662
#
#
# Mechanical properties :
#
#
# Convention : Reuss Voigt Hill
#
# Bulk Modulus (GPa) = 78.47760 98.60415 88.54088
# Shear Modulus (GPa) = 27.63862 31.17596 29.40729
#
# Velocity S-wave (km/s) = 3.83186 4.06969 3.95256
# Velocity P-wave (km/s) = 7.82746 8.62943 8.23821
#
# Compressibility (1/GPa) = 0.01274249
#
# Stress axis : x y z
#
# Youngs Moduli (GPa) = 76.96481 66.89543 62.78749
#
# Poissons Ratio (x) = 0.33910 0.05433
# Poissons Ratio (y) = 0.39014 0.60455
# Poissons Ratio (z) = 0.06660 0.64410
#
# Static dielectric constant tensor:
#      x y z
#    x 1.623810 0.000000 -0.014820 
#    y 0.000000 1.646970 0.000000 
#    z -0.014820 0.000000 1.686390 
# 
# From -- ./inp_files/81674.got.cif
#   From: 2010.05.17/outbox.cif.g08.bks.cpg/sg12_41_cif.got.tgz:81674.got - 2010.06.03 13:09:07.
