data_PCOD9221041
_publ_section_title
;
Structure prediction by ZEFSAII (Michael W. Deem and Ramdas Pophale) SiO2 
 PCOD9221041
Probable space group: C 2/M
;
_chemical_formula_sum "Si O2"
_cell_formula_units_Z 64
_cell_length_a 22.871922
_cell_length_b 15.824981
_cell_length_c 25.730009
_cell_angle_alpha 90.000000
_cell_angle_beta 18.356676
_cell_angle_gamma 90.000000
_cell_volume 2932.930959
_symmetry_space_group_name_H-M "C 2/M"
_symmetry_group_IT_number 12
_symmetry_cell_setting 'monoclinic'
loop_
_space_group_symop_operation_xyz
x,y,z
-x,y,-z
-x,-y,-z
x,-y,z
1/2+x,1/2+y,z
1/2-x,1/2+y,-z
1/2-x,1/2-y,-z
1/2+x,1/2-y,z
loop_
_atom_site_type_symbol
_atom_site_label
_atom_site_fract_x
_atom_site_fract_y
_atom_site_fract_z
Si Si1 0.553167 0.398541 0.248763
Si Si2 0.218181 0.354439 0.460785
Si Si3 0.991631 0.801503 0.402651
Si Si4 0.027794 0.844458 0.843366
Si Si5 0.825002 0.750630 0.184760
Si Si6 0.727585 0.903919 0.697097
Si Si7 0.581940 0.835523 0.113725
Si Si8 0.878669 0.594624 0.811028
O O1 0.552727 0.500000 0.253170
O O2 0.356496 0.367246 0.392259
O O3 0.583497 0.354150 0.278682
O O4 0.714416 0.367430 0.074292
O O5 0.165997 0.258905 0.488443
O O6 0.337966 0.389631 0.311288
O O7 0.021717 0.393679 0.643283
O O8 0.903044 0.864553 0.519180
O O9 0.139427 0.743610 0.307716
O O10 0.956495 0.757681 0.875923
O O11 0.148579 0.816192 0.790773
O O12 0.837501 0.890553 0.019377
O O13 0.821716 0.658189 0.214236
O O14 0.000000 0.758178 0.000000
O O15 0.562843 0.895388 0.793935
O O16 0.754861 0.000000 0.689772
O O17 0.565176 0.842473 0.189727
O O18 0.899156 0.500000 0.814775
#
# Coordination Sequence:
#
# PCOD9221041 Si02
#       8
#     8   8   8   8   8   8   8   8
#     4  12  25  40  65 101 142 182 221 279 348 413
#     4  12  25  42  68  99 136 181 233 279 337 411
#     4  12  24  42  67  94 134 178 235 278 336 405
#     4  11  25  45  69 100 139 180 233 287 336 406
#     4  11  24  44  67  96 127 178 234 281 334 404
#     4  11  23  39  61  95 137 177 224 281 338 400
#     4  11  22  41  63  96 138 183 225 274 333 411
#     4  12  25  41  68 103 140 178 222 285 353 411
#
# _framework density 21.821175
#
# number of rings (size 3 to 8) (size 9 to 14) (size 15 to 20)
#    0.000    0.500    3.750    6.750    1.750    2.250 
#    0.000    0.000    0.000    4.125    0.000    8.750 
#    0.000    0.000    0.000    0.000    0.000    0.000 
#
# Total GULP energy -179099.079942 kJ/mol
# GULP energy per Si atom -5596.846248 kJ/mol
# Density = 2.177151 g / cm^3
# Si number density = 21.821175 Si / 1000 Ang^3
#
#
#
# Elastic Constant Matrix: (Units=GPa)
#
#
# Indices 1 2 3 4 5 6 
#
# 1 96.7754 18.4127 34.1319 0.0016 -4.1801 0.0025
# 2 18.4127 40.0164 10.8928 0.0349 -2.6042 0.0025
# 3 34.1319 10.8928 144.3579 -0.0050 5.1093 0.0106
# 4 0.0016 0.0349 -0.0050 14.7820 0.0104 2.7109
# 5 -4.1801 -2.6042 5.1093 0.0104 35.8259 -0.0030
# 6 0.0025 0.0025 0.0106 2.7109 -0.0030 13.2476
#
#
#
# Elastic Compliance Matrix: (Units=1/GPa)
#
#
# Indices 1 2 3 4 5 6 
#
# 1 0.012223 -0.004829 -0.002577 0.000008 0.001443 -0.000001
# 2 -0.004829 0.027586 -0.000996 -0.000068 0.001584 0.000011
# 3 -0.002577 -0.000996 0.007663 0.000008 -0.001466 -0.000007
# 4 0.000008 -0.000068 0.000008 0.070288 -0.000027 -0.014383
# 5 0.001443 0.001584 -0.001466 -0.000027 0.028405 0.000012
# 6 -0.000001 0.000011 -0.000007 -0.014383 0.000012 0.078429
#
#
# Mechanical properties :
#
#
# Convention : Reuss Voigt Hill
#
# Bulk Modulus (GPa) = 32.60568 45.33605 38.97087
# Shear Modulus (GPa) = 19.87123 27.28526 23.57824
#
# Velocity S-wave (km/s) = 3.02095 3.53994 3.29069
# Velocity P-wave (km/s) = 5.20988 6.12613 5.68649
#
# Compressibility (1/GPa) = 0.03066950
#
# Stress axis : x y z
#
# Youngs Moduli (GPa) = 81.81267 36.25047 130.48884
#
# Poissons Ratio (x) = 0.17505 0.33623
# Poissons Ratio (y) = 0.39506 0.12995
# Poissons Ratio (z) = 0.21081 0.03610
#
# Static dielectric constant tensor:
#      x y z
#    x 1.798660 0.000000 -0.009720 
#    y 0.000000 1.777120 0.000010 
#    z -0.009720 0.000010 1.825030 
# 
# From -- ./inp_files/347858.got.cif
#   From: 2010.05.17/outbox.cif.g08.bks.cpg/sg12_174_cif.got.tgz:347858.got - 2010.06.03 13:09:07.
