data_PCOD9221184
_publ_section_title
;
Structure prediction by ZEFSAII (Michael W. Deem and Ramdas Pophale) SiO2 
 PCOD9221184
Probable space group: C 2/M
;
_chemical_formula_sum "Si O2"
_cell_formula_units_Z 40
_cell_length_a 9.840248
_cell_length_b 22.322668
_cell_length_c 8.891364
_cell_angle_alpha 90.000000
_cell_angle_beta 102.630637
_cell_angle_gamma 90.000000
_cell_volume 1905.817620
_symmetry_space_group_name_H-M "C 2/M"
_symmetry_group_IT_number 12
_symmetry_cell_setting 'monoclinic'
loop_
_space_group_symop_operation_xyz
x,y,z
-x,y,-z
-x,-y,-z
x,-y,z
1/2+x,1/2+y,z
1/2-x,1/2+y,-z
1/2-x,1/2-y,-z
1/2+x,1/2-y,z
loop_
_atom_site_type_symbol
_atom_site_label
_atom_site_fract_x
_atom_site_fract_y
_atom_site_fract_z
Si Si1 0.351437 0.567829 0.039960
Si Si2 0.875131 0.129200 0.350371
Si Si3 0.603427 0.737921 0.882722
Si Si4 0.106929 0.569026 0.391222
Si Si5 0.081447 0.633362 0.868392
O O1 0.305969 0.500000 0.999036
O O2 0.371775 0.577383 0.222627
O O3 0.500000 0.577742 0.000000
O O4 0.236216 0.611802 0.943281
O O5 0.885073 0.187114 0.242638
O O6 0.732722 0.116103 0.407002
O O7 0.000000 0.127924 0.500000
O O8 0.572829 0.801286 0.790823
O O9 0.500000 0.723899 0.000000
O O10 0.750000 0.750000 0.000000
O O11 0.155948 0.500000 0.412611
O O12 0.000000 0.580523 0.500000
O O13 0.006923 0.580676 0.226291
O O14 0.000000 0.646629 0.000000
#
# Coordination Sequence:
#
# PCOD9221184 Si02
#       5
#     8   8   8   8   8
#     4  11  24  41  68 102 135 179 229 282 344 410
#     4  12  26  44  67 102 141 182 222 282 345 417
#     4  11  23  44  72  99 136 180 229 284 340 401
#     4  11  26  46  68  98 138 183 228 285 346 403
#     4  11  22  43  73  98 128 176 238 288 332 400
#
# _framework density 20.988367
#
# number of rings (size 3 to 8) (size 9 to 14) (size 15 to 20)
#    0.000    0.800    4.000    3.000    2.800    3.200 
#    0.000    3.000    0.000    0.000    0.000    0.000 
#    0.000    0.000    0.000    0.000    0.000    0.000 
#
# Total GULP energy -111558.233892 kJ/mol
# GULP energy per Si atom -5577.911695 kJ/mol
# Density = 2.094060 g / cm^3
# Si number density = 20.988367 Si / 1000 Ang^3
#
#
#
# Elastic Constant Matrix: (Units=GPa)
#
#
# Indices 1 2 3 4 5 6 
#
# 1 144.0360 68.0779 53.8535 0.0000 0.8950 0.0000
# 2 68.0779 129.6579 22.9431 0.0000 -12.9095 0.0000
# 3 53.8535 22.9431 54.0729 0.0000 10.9636 0.0000
# 4 0.0000 0.0000 0.0000 -17.4473 0.0000 -24.6724
# 5 0.8950 -12.9095 10.9636 0.0000 36.2127 0.0000
# 6 0.0000 0.0000 0.0000 -24.6724 0.0000 26.5926
#
#
#
# Elastic Compliance Matrix: (Units=1/GPa)
#
#
# Indices 1 2 3 4 5 6 
#
# 1 0.013703 -0.004951 -0.011848 0.000000 0.001483 0.000000
# 2 -0.004951 0.010810 -0.000492 0.000000 0.004125 0.000000
# 3 -0.011848 -0.000492 0.032472 0.000000 -0.009714 0.000000
# 4 0.000000 0.000000 0.000000 -0.024790 0.000000 -0.023000
# 5 0.001483 0.004125 -0.009714 0.000000 0.031989 0.000000
# 6 0.000000 0.000000 0.000000 -0.023000 0.000000 0.016265
#
#
# Mechanical properties :
#
#
# Convention : Reuss Voigt Hill
#
# Bulk Modulus (GPa) = 44.63683 68.61287 56.62485
# Shear Modulus (GPa) = 40.81704 21.26442 31.04073
#
# Velocity S-wave (km/s) = 4.41471 3.18646 3.84988
# Velocity P-wave (km/s) = 6.87749 6.80440 6.84104
#
# Compressibility (1/GPa) = 0.02240302
#
# Stress axis : x y z
#
# Youngs Moduli (GPa) = 72.97554 92.50788 30.79613
#
# Poissons Ratio (x) = 0.45799 0.36487
# Poissons Ratio (y) = 0.36129 0.01516
# Poissons Ratio (z) = 0.86460 0.04554
#
# Static dielectric constant tensor:
#      x y z
#    x 1.799760 0.000000 -0.050280 
#    y 0.000000 1.825450 0.000000 
#    z -0.050280 0.000000 1.772770 
# 
# From -- ./inp_files/39413.got.cif
#   From: 2010.05.17/outbox.cif.g08.bks.cpg/sg12_20_cif.got.tgz:39413.got - 2010.06.03 13:09:07.
