data_PCOD9221321
_publ_section_title
;
Structure prediction by ZEFSAII (Michael W. Deem and Ramdas Pophale) SiO2 
 PCOD9221321
Probable space group: C 2/M
;
_chemical_formula_sum "Si O2"
_cell_formula_units_Z 56
_cell_length_a 15.358800
_cell_length_b 8.714246
_cell_length_c 29.066314
_cell_angle_alpha 90.000000
_cell_angle_beta 47.983728
_cell_angle_gamma 90.000000
_cell_volume 2890.276772
_symmetry_space_group_name_H-M "C 2/M"
_symmetry_group_IT_number 12
_symmetry_cell_setting 'monoclinic'
loop_
_space_group_symop_operation_xyz
x,y,z
-x,y,-z
-x,-y,-z
x,-y,z
1/2+x,1/2+y,z
1/2-x,1/2+y,-z
1/2-x,1/2-y,-z
1/2+x,1/2-y,z
loop_
_atom_site_type_symbol
_atom_site_label
_atom_site_fract_x
_atom_site_fract_y
_atom_site_fract_z
Si Si1 0.886057 0.680789 0.071132
Si Si2 0.548788 0.318933 0.263651
Si Si3 0.291516 0.181855 0.936950
Si Si4 0.469973 0.822266 0.197762
Si Si5 0.401115 0.814629 0.497528
Si Si6 0.200067 0.178651 0.807550
Si Si7 0.869782 0.184495 0.408303
O O1 0.884280 0.500000 0.083291
O O2 0.776906 0.727506 0.078333
O O3 0.876037 0.778218 0.120704
O O4 0.000000 0.711608 0.000000
O O5 0.575050 0.500000 0.257566
O O6 0.497586 0.280342 0.231895
O O7 0.667575 0.224645 0.228107
O O8 0.455500 0.277770 0.336042
O O9 0.428146 0.199008 0.876556
O O10 0.264182 0.000000 0.944818
O O11 0.250000 0.250000 0.000000
O O12 0.348924 0.776622 0.217253
O O13 0.472865 0.000000 0.210599
O O14 0.500000 0.763251 0.500000
O O15 0.264984 0.768506 0.555449
O O16 0.415874 0.755836 0.439890
O O17 0.405666 0.000000 0.495707
O O18 0.189398 0.000000 0.801221
O O19 0.868441 0.000000 0.414382
#
# Coordination Sequence:
#
# PCOD9221321 Si02
#       7
#     8   8   8   8   8   8   8
#     4  11  23  39  60  86 117 152 195 250 312 373
#     4  11  23  41  63  88 125 167 209 258 307 365
#     4  11  23  38  59  86 117 152 196 249 307 374
#     4  11  24  42  62  88 120 157 203 253 309 374
#     4   9  18  35  60  90 126 163 202 248 295 351
#     4  12  25  41  62  88 118 158 205 254 311 372
#     4   9  20  37  58  89 124 161 204 248 300 356
#
# _framework density 19.375306999999999
#
# number of rings (size 3 to 8) (size 9 to 14) (size 15 to 20)
#    0.000    1.429    1.429    3.857    0.000    8.857 
#    0.000    1.429    0.000    0.000    0.000    0.000 
#    0.000    0.000    0.000    0.000    0.000    0.000 
#
# Total GULP energy -156432.034469 kJ/mol
# GULP energy per Si atom -5586.858374 kJ/mol
# Density = 1.933121 g / cm^3
# Si number density = 19.375307 Si / 1000 Ang^3
#
#
#
# Elastic Constant Matrix: (Units=GPa)
#
#
# Indices 1 2 3 4 5 6 
#
# 1 98.8416 -5.4248 12.4112 0.0000 3.1929 -0.0001
# 2 -5.4248 28.7817 27.7324 0.0000 -3.1098 0.0000
# 3 12.4112 27.7324 83.3941 0.0000 8.5802 0.0000
# 4 0.0000 0.0000 0.0000 23.6230 0.0000 8.5451
# 5 3.1929 -3.1098 8.5802 0.0000 14.7544 0.0000
# 6 -0.0001 0.0000 0.0000 8.5451 0.0000 28.4364
#
#
#
# Elastic Compliance Matrix: (Units=1/GPa)
#
#
# Indices 1 2 3 4 5 6 
#
# 1 0.010840 0.005567 -0.003557 0.000000 0.000896 0.000000
# 2 0.005567 0.061696 -0.023995 0.000000 0.025753 0.000000
# 3 -0.003557 -0.023995 0.022274 0.000000 -0.017241 0.000000
# 4 0.000000 0.000000 0.000000 0.047494 0.000000 -0.014272
# 5 0.000896 0.025753 -0.017241 0.000000 0.083037 0.000000
# 6 0.000000 0.000000 0.000000 -0.014272 0.000000 0.039455
#
#
# Mechanical properties :
#
#
# Convention : Reuss Voigt Hill
#
# Bulk Modulus (GPa) = 19.66908 31.16168 25.41538
# Shear Modulus (GPa) = 15.35095 25.11600 20.23347
#
# Velocity S-wave (km/s) = 2.81783 3.60431 3.23506
# Velocity P-wave (km/s) = 4.55637 5.78269 5.20577
#
# Compressibility (1/GPa) = 0.05084121
#
# Stress axis : x y z
#
# Youngs Moduli (GPa) = 92.24731 16.20843 44.89560
#
# Poissons Ratio (x) = -0.09024 0.15969
# Poissons Ratio (y) = -0.51356 1.07727
# Poissons Ratio (z) = 0.32811 0.38892
#
# Static dielectric constant tensor:
#      x y z
#    x 1.662290 0.000000 -0.018960 
#    y 0.000000 1.646840 0.000000 
#    z -0.018960 0.000000 1.681860 
# 
# From -- ./inp_files/337880.got.cif
#   From: 2010.05.17/outbox.cif.g08.bks.cpg/sg12_169_cif.got.tgz:337880.got - 2010.06.03 13:09:07.
