data_PCOD9221155
_publ_section_title
;
Structure prediction by ZEFSAII (Michael W. Deem and Ramdas Pophale) SiO2 
 PCOD9221155
Probable space group: C 2/M
;
_chemical_formula_sum "Si O2"
_cell_formula_units_Z 32
_cell_length_a 11.016600
_cell_length_b 15.681732
_cell_length_c 14.555694
_cell_angle_alpha 90.000000
_cell_angle_beta 29.767020
_cell_angle_gamma 90.000000
_cell_volume 1248.450627
_symmetry_space_group_name_H-M "C 2/M"
_symmetry_group_IT_number 12
_symmetry_cell_setting 'monoclinic'
loop_
_space_group_symop_operation_xyz
x,y,z
-x,y,-z
-x,-y,-z
x,-y,z
1/2+x,1/2+y,z
1/2-x,1/2+y,-z
1/2-x,1/2-y,-z
1/2+x,1/2-y,z
loop_
_atom_site_type_symbol
_atom_site_label
_atom_site_fract_x
_atom_site_fract_y
_atom_site_fract_z
Si Si1 0.566925 0.406894 0.186554
Si Si2 0.781907 0.862928 0.207026
Si Si3 0.775636 0.652143 0.446268
Si Si4 0.045643 0.671051 0.870740
O O1 0.676441 0.500000 0.101149
O O2 0.331881 0.398185 0.274993
O O3 0.461608 0.393550 0.357190
O O4 0.759715 0.335516 0.028710
O O5 0.524992 0.880368 0.329256
O O6 0.830187 0.760997 0.184964
O O7 0.000000 0.896469 0.000000
O O8 0.750000 0.750000 0.500000
O O9 0.808887 0.643324 0.315429
O O10 0.000000 0.625243 0.000000
#
# Coordination Sequence:
#
# PCOD9221155 Si02
#       4
#     8   8   8   8
#     4  12  27  45  68 104 143 181 228 285 352 413
#     4  11  22  42  73 102 133 176 232 282 342 412
#     4  12  24  43  72 106 135 179 232 287 340 407
#     4  11  25  45  72  99 138 184 233 283 338 409
#
# _framework density 25.631771000000001
#
# number of rings (size 3 to 8) (size 9 to 14) (size 15 to 20)
#    0.000    0.500    5.000    4.500    0.000    7.000 
#    0.000    1.250    0.000    0.000    0.000    0.000 
#    0.000    0.000    0.000    0.000    0.000    0.000 
#
# Total GULP energy -89436.282824 kJ/mol
# GULP energy per Si atom -5589.767676 kJ/mol
# Density = 2.557343 g / cm^3
# Si number density = 25.631771 Si / 1000 Ang^3
#
#
#
# Elastic Constant Matrix: (Units=GPa)
#
#
# Indices 1 2 3 4 5 6 
#
# 1 92.1558 11.7629 37.6605 -0.0128 32.5731 -0.0008
# 2 11.7629 80.5433 13.0379 -0.0132 -3.0002 0.0254
# 3 37.6605 13.0379 182.6375 -0.0303 34.2011 0.0170
# 4 -0.0128 -0.0132 -0.0303 15.8371 0.0083 -0.0019
# 5 32.5731 -3.0002 34.2011 0.0083 66.9111 -0.0043
# 6 -0.0008 0.0254 0.0170 -0.0019 -0.0043 3.1410
#
#
#
# Elastic Compliance Matrix: (Units=1/GPa)
#
#
# Indices 1 2 3 4 5 6 
#
# 1 0.013890 -0.001996 -0.001591 0.000010 -0.006038 0.000020
# 2 -0.001996 0.012925 -0.000886 0.000006 0.002004 -0.000098
# 3 -0.001591 -0.000886 0.006336 0.000011 -0.002504 -0.000031
# 4 0.000010 0.000006 0.000011 0.063143 -0.000018 0.000038
# 5 -0.006038 0.002004 -0.002504 -0.000018 0.019254 0.000022
# 6 0.000020 -0.000098 -0.000031 0.000038 0.000022 0.318375
#
#
# Mechanical properties :
#
#
# Convention : Reuss Voigt Hill
#
# Bulk Modulus (GPa) = 41.31486 53.36213 47.33850
# Shear Modulus (GPa) = 11.08799 36.70286 23.89542
#
# Velocity S-wave (km/s) = 2.08213 3.78819 3.05660
# Velocity P-wave (km/s) = 4.68337 6.32438 5.56470
#
# Compressibility (1/GPa) = 0.02420436
#
# Stress axis : x y z
#
# Youngs Moduli (GPa) = 71.99206 77.36726 157.84050
#
# Poissons Ratio (x) = 0.15442 0.25113
# Poissons Ratio (y) = 0.14370 0.13992
# Poissons Ratio (z) = 0.11454 0.06858
#
# Static dielectric constant tensor:
#      x y z
#    x 2.201570 -0.000040 -0.008910 
#    y -0.000040 2.053200 -0.000020 
#    z -0.008910 -0.000020 2.004400 
# 
# From -- ./inp_files/130743.got.cif
#   From: 2010.05.17/outbox.cif.g08.bks.cpg/sg12_66_cif.got.tgz:130743.got - 2010.06.03 13:09:07.
