data_PCOD9221467
_publ_section_title
;
Structure prediction by ZEFSAII (Michael W. Deem and Ramdas Pophale) SiO2 
 PCOD9221467
Probable space group: C 2/M
;
_chemical_formula_sum "Si O2"
_cell_formula_units_Z 42
_cell_length_a 13.908954
_cell_length_b 7.356425
_cell_length_c 19.727416
_cell_angle_alpha 90.000000
_cell_angle_beta 127.887635
_cell_angle_gamma 90.000000
_cell_volume 1593.043798
_symmetry_space_group_name_H-M "C 2/M"
_symmetry_group_IT_number 12
_symmetry_cell_setting 'monoclinic'
loop_
_space_group_symop_operation_xyz
x,y,z
-x,y,-z
-x,-y,-z
x,-y,z
1/2+x,1/2+y,z
1/2-x,1/2+y,-z
1/2-x,1/2-y,-z
1/2+x,1/2-y,z
loop_
_atom_site_type_symbol
_atom_site_label
_atom_site_fract_x
_atom_site_fract_y
_atom_site_fract_z
Si Si1 0.880121 0.218453 0.366864
Si Si2 0.483257 0.779401 0.220858
Si Si3 0.808400 0.285140 0.597418
Si Si4 0.333071 0.778921 0.821154
Si Si5 0.219086 0.695797 0.062893
Si Si6 0.500000 0.000000 0.500000
O O1 0.787801 0.278175 0.387760
O O2 0.799085 0.271171 0.267020
O O3 0.993008 0.340871 0.436627
O O4 0.900817 0.000000 0.377904
O O5 0.559569 0.717733 0.320207
O O6 0.565805 0.731258 0.190734
O O7 0.353403 0.691805 0.153887
O O8 0.468445 0.000000 0.214868
O O9 0.814667 0.500000 0.609608
O O10 0.750000 0.250000 0.500000
O O11 0.352071 0.709648 0.905872
O O12 0.332754 0.000000 0.823036
O O13 0.158705 0.500000 0.028726
O O14 0.250000 0.750000 0.000000
#
# Coordination Sequence:
#
# PCOD9221467 Si02
#       6
#     8   8   8   8   8   2
#     4   9  20  39  55  81 121 166 210 254 304 375
#     4   9  19  40  63  85 115 164 205 246 305 367
#     4   9  19  35  58  83 120 161 204 254 305 364
#     4   8  18  41  65  79 117 168 204 239 306 379
#     4  11  23  40  62  93 121 154 201 257 313 379
#     4  12  22  32  56  90 116 158 210 256 312 356
#
# _framework density 26.364625
#
# number of rings (size 3 to 8) (size 9 to 14) (size 15 to 20)
#    0.000    2.667    0.000    3.143    1.333    3.048 
#   12.000    7.619    0.000    0.000    0.000    0.000 
#    0.000    0.000    0.000    0.000    0.000    0.000 
#
# Total GULP energy -117069.526665 kJ/mol
# GULP energy per Si atom -5574.739365 kJ/mol
# Density = 2.630462 g / cm^3
# Si number density = 26.364625 Si / 1000 Ang^3
#
#
#
# Elastic Constant Matrix: (Units=GPa)
#
#
# Indices 1 2 3 4 5 6 
#
# 1 55.2945 -7.8795 30.3671 0.0000 -8.1321 0.0000
# 2 -7.8795 116.5092 -0.0270 0.0000 -5.4478 0.0000
# 3 30.3671 -0.0270 153.0300 0.0000 -46.4120 0.0000
# 4 0.0000 0.0000 0.0000 22.1814 0.0000 -2.5256
# 5 -8.1321 -5.4478 -46.4120 0.0000 62.1600 0.0000
# 6 0.0000 0.0000 0.0000 -2.5256 0.0000 -7.1614
#
#
#
# Elastic Compliance Matrix: (Units=1/GPa)
#
#
# Indices 1 2 3 4 5 6 
#
# 1 0.020523 0.001373 -0.004165 0.000000 -0.000304 0.000000
# 2 0.001373 0.008721 0.000020 0.000000 0.000959 0.000000
# 3 -0.004165 0.000020 0.009303 0.000000 0.006403 0.000000
# 4 0.000000 0.000000 0.000000 0.043342 0.000000 -0.015285
# 5 -0.000304 0.000959 0.006403 0.000000 0.020913 0.000000
# 6 0.000000 0.000000 0.000000 -0.015285 0.000000 -0.134247
#
#
# Mechanical properties :
#
#
# Convention : Reuss Voigt Hill
#
# Bulk Modulus (GPa) = 30.30037 41.08388 35.69212
# Shear Modulus (GPa) = -335.57116 35.59421 -149.98847
#
# Velocity S-wave (km/s) = -11.29412 3.67832 -7.55073
# Velocity P-wave (km/s) = 12.59200 5.80145 7.90258
#
# Compressibility (1/GPa) = 0.03300290
#
# Stress axis : x y z
#
# Youngs Moduli (GPa) = 48.72578 114.66987 107.49155
#
# Poissons Ratio (x) = -0.15742 0.44766
# Poissons Ratio (y) = -0.06689 -0.00214
# Poissons Ratio (z) = 0.20292 -0.00228
#
# Static dielectric constant tensor:
#      x y z
#    x 1.972700 0.000000 0.075220 
#    y 0.000000 2.065980 0.000000 
#    z 0.075220 0.000000 2.116010 
# 
# From -- ./inp_files/267774.got.cif
#   From: 2010.05.17/outbox.cif.g08.bks.cpg/sg12_134_cif.got.tgz:267774.got - 2010.06.03 13:09:07.
