data_PCOD9221865
_publ_section_title
;
Structure prediction by ZEFSAII (Michael W. Deem and Ramdas Pophale) SiO2 
 PCOD9221865
Probable space group: C 2/M
;
_chemical_formula_sum "Si O2"
_cell_formula_units_Z 36
_cell_length_a 10.588689
_cell_length_b 27.721571
_cell_length_c 5.121831
_cell_angle_alpha 90.000000
_cell_angle_beta 103.805854
_cell_angle_gamma 90.000000
_cell_volume 1460.002699
_symmetry_space_group_name_H-M "C 2/M"
_symmetry_group_IT_number 12
_symmetry_cell_setting 'monoclinic'
loop_
_space_group_symop_operation_xyz
x,y,z
-x,y,-z
-x,-y,-z
x,-y,z
1/2+x,1/2+y,z
1/2-x,1/2+y,-z
1/2-x,1/2-y,-z
1/2+x,1/2-y,z
loop_
_atom_site_type_symbol
_atom_site_label
_atom_site_fract_x
_atom_site_fract_y
_atom_site_fract_z
Si Si1 0.414540 0.500000 0.707135
Si Si2 0.245762 0.908898 0.219707
Si Si3 0.635126 0.677606 0.436647
Si Si4 0.129307 0.441671 0.233831
Si Si5 0.646393 0.775909 0.147423
O O1 0.500000 0.500000 0.500000
O O2 0.336611 0.450997 0.687515
O O3 0.500000 0.500000 0.000000
O O4 0.175634 0.858145 0.224967
O O5 0.363766 0.913821 0.487469
O O6 0.266449 0.923523 0.930545
O O7 0.500000 0.661300 0.500000
O O8 0.612914 0.731962 0.325873
O O9 0.763471 0.683212 0.679736
O O10 0.137882 0.500000 0.278866
O O11 0.000000 0.433514 0.000000
O O12 0.500000 0.793554 0.000000
O O13 0.750000 0.750000 0.000000
#
# Coordination Sequence:
#
# PCOD9221865 Si02
#       5
#     4   8   8   8   8
#     4  12  24  42  65  98 139 186 234 292 350 424
#     4  12  25  44  69 105 143 186 248 293 363 434
#     4  11  26  45  71 108 142 189 244 305 371 441
#     4  11  23  45  70  99 144 194 244 301 360 430
#     4  11  24  48  76 102 143 188 240 304 376 445
#
# _framework density 24.657489999999999
#
# number of rings (size 3 to 8) (size 9 to 14) (size 15 to 20)
#    0.000    0.667    4.444    2.667    3.111    3.556 
#    4.000    0.000    0.000    0.000    0.000    0.000 
#    0.000    0.000    0.000    0.000    0.000    0.000 
#
# Total GULP energy -100559.029558 kJ/mol
# GULP energy per Si atom -5586.612753 kJ/mol
# Density = 2.460137 g / cm^3
# Si number density = 24.657490 Si / 1000 Ang^3
#
#
#
# Elastic Constant Matrix: (Units=GPa)
#
#
# Indices 1 2 3 4 5 6 
#
# 1 133.4743 11.7252 25.9891 0.0000 10.6924 0.0000
# 2 11.7252 68.0706 -8.1905 0.0000 9.2397 0.0000
# 3 25.9891 -8.1905 87.9916 0.0000 7.7290 0.0000
# 4 0.0000 0.0000 0.0000 32.1697 0.0000 -16.5405
# 5 10.6924 9.2397 7.7290 0.0000 47.9924 0.0000
# 6 0.0000 0.0000 0.0000 -16.5405 0.0000 -2.4035
#
#
#
# Elastic Compliance Matrix: (Units=1/GPa)
#
#
# Indices 1 2 3 4 5 6 
#
# 1 0.008200 -0.001556 -0.002467 0.000000 -0.001130 0.000000
# 2 -0.001556 0.015630 0.002179 0.000000 -0.003013 0.000000
# 3 -0.002467 0.002179 0.012461 0.000000 -0.001877 0.000000
# 4 0.000000 0.000000 0.000000 0.006849 0.000000 -0.047136
# 5 -0.001130 -0.003013 -0.001877 0.000000 0.021971 0.000000
# 6 0.000000 0.000000 0.000000 -0.047136 0.000000 -0.091676
#
#
# Mechanical properties :
#
#
# Convention : Reuss Voigt Hill
#
# Bulk Modulus (GPa) = 30.67273 38.73159 34.70216
# Shear Modulus (GPa) = -416.35867 32.88591 -191.73638
#
# Velocity S-wave (km/s) = -13.00859 3.65596 -8.82772
# Velocity P-wave (km/s) = 14.60016 5.79339 9.47632
#
# Compressibility (1/GPa) = 0.03260225
#
# Stress axis : x y z
#
# Youngs Moduli (GPa) = 121.95546 63.98007 80.24927
#
# Poissons Ratio (x) = 0.09955 0.19801
# Poissons Ratio (y) = 0.18975 -0.17487
# Poissons Ratio (z) = 0.30092 -0.13942
#
# Static dielectric constant tensor:
#      x y z
#    x 2.102070 0.000000 0.170470 
#    y 0.000000 1.942820 0.000000 
#    z 0.170470 0.000000 2.227150 
# 
# From -- ./inp_files/7779.got.cif
#   From: 2010.05.17/outbox.cif.g08.bks.cpg/sg12_4_cif.got.tgz:7779.got - 2010.06.03 13:09:07.
