data_PCOD9221244
_publ_section_title
;
Structure prediction by ZEFSAII (Michael W. Deem and Ramdas Pophale) SiO2 
 PCOD9221244
Probable space group: C 2/M
;
_chemical_formula_sum "Si O2"
_cell_formula_units_Z 48
_cell_length_a 28.846430
_cell_length_b 8.959813
_cell_length_c 12.568391
_cell_angle_alpha 90.000000
_cell_angle_beta 108.793002
_cell_angle_gamma 90.000000
_cell_volume 3075.231790
_symmetry_space_group_name_H-M "C 2/M"
_symmetry_group_IT_number 12
_symmetry_cell_setting 'monoclinic'
loop_
_space_group_symop_operation_xyz
x,y,z
-x,y,-z
-x,-y,-z
x,-y,z
1/2+x,1/2+y,z
1/2-x,1/2+y,-z
1/2-x,1/2-y,-z
1/2+x,1/2-y,z
loop_
_atom_site_type_symbol
_atom_site_label
_atom_site_fract_x
_atom_site_fract_y
_atom_site_fract_z
Si Si1 0.525679 0.678390 0.408899
Si Si2 0.826895 0.321163 0.748521
Si Si3 0.630554 0.822367 0.457327
Si Si4 0.734554 0.821576 0.601185
Si Si5 0.506803 0.819637 0.831460
Si Si6 0.578520 0.818898 0.065440
O O1 0.500000 0.723651 0.500000
O O2 0.524721 0.500000 0.400423
O O3 0.581490 0.735200 0.446584
O O4 0.498375 0.747916 0.287058
O O5 0.820219 0.500000 0.750839
O O6 0.851529 0.292371 0.650682
O O7 0.774184 0.242973 0.712138
O O8 0.866975 0.269746 0.864228
O O9 0.676860 0.786506 0.567537
O O10 0.620951 0.000000 0.456068
O O11 0.750000 0.750000 0.500000
O O12 0.738950 0.000000 0.597795
O O13 0.459510 0.778066 0.868684
O O14 0.506720 0.000000 0.822152
O O15 0.553985 0.773358 0.936135
O O16 0.579304 0.000000 0.065861
#
# Coordination Sequence:
#
# PCOD9221244 Si02
#       6
#     8   8   8   8   8   8
#     4  11  23  34  44  63  92 122 153 192 233 266
#     4   9  15  26  44  68  94 118 144 175 219 271
#     4   9  17  30  46  62  85 119 156 187 216 262
#     4   9  17  27  40  62  90 118 148 180 219 266
#     4   9  16  30  49  66  87 119 154 185 219 264
#     4   8  14  26  47  70  92 117 146 182 222 265
#
# _framework density 15.60858
#
# number of rings (size 3 to 8) (size 9 to 14) (size 15 to 20)
#    0.000    2.833    1.667    3.000    0.000    4.667 
#    0.000    2.500    0.000    0.000    0.000    1.167 
#    0.000    0.000    0.000    0.000    0.000    0.000 
#
# Total GULP energy -133617.517164 kJ/mol
# GULP energy per Si atom -5567.396548 kJ/mol
# Density = 1.557305 g / cm^3
# Si number density = 15.608580 Si / 1000 Ang^3
#
#
#
# Elastic Constant Matrix: (Units=GPa)
#
#
# Indices 1 2 3 4 5 6 
#
# 1 71.5121 33.2702 66.9502 0.0000 29.6189 0.0000
# 2 33.2702 28.2373 36.5650 0.0000 8.0355 0.0000
# 3 66.9502 36.5650 119.0944 0.0000 28.6893 0.0000
# 4 0.0000 0.0000 0.0000 18.3151 0.0000 3.0833
# 5 29.6189 8.0355 28.6893 0.0000 34.9986 0.0000
# 6 0.0000 0.0000 0.0000 3.0833 0.0000 22.6839
#
#
#
# Elastic Compliance Matrix: (Units=1/GPa)
#
#
# Indices 1 2 3 4 5 6 
#
# 1 0.057750 -0.044481 -0.011831 0.000000 -0.028962 0.000000
# 2 -0.044481 0.093120 -0.009349 0.000000 0.023927 0.000000
# 3 -0.011831 -0.009349 0.018677 0.000000 -0.003151 0.000000
# 4 0.000000 0.000000 0.000000 0.055878 0.000000 -0.007595
# 5 -0.028962 0.023927 -0.003151 0.000000 0.050172 0.000000
# 6 0.000000 0.000000 0.000000 -0.007595 0.000000 0.045117
#
#
# Mechanical properties :
#
#
# Convention : Reuss Voigt Hill
#
# Bulk Modulus (GPa) = 26.16055 54.71274 40.43664
# Shear Modulus (GPa) = 10.75782 20.67009 15.71395
#
# Velocity S-wave (km/s) = 2.62816 3.64301 3.17638
# Velocity P-wave (km/s) = 5.09964 7.26804 6.27817
#
# Compressibility (1/GPa) = 0.03822550
#
# Stress axis : x y z
#
# Youngs Moduli (GPa) = 17.31607 10.73879 53.54164
#
# Poissons Ratio (x) = 0.47767 0.63345
# Poissons Ratio (y) = 0.77024 0.50055
# Poissons Ratio (z) = 0.20487 0.10039
#
# Static dielectric constant tensor:
#      x y z
#    x 1.525000 0.000000 0.048200 
#    y 0.000000 1.519980 0.000000 
#    z 0.048200 0.000000 1.532970 
# 
# From -- ./inp_files/179306.got.cif
#   From: 2010.05.17/outbox.cif.g08.bks.cpg/sg12_90_cif.got.tgz:179306.got - 2010.06.03 13:09:07.
