data_PCOD9221458
_publ_section_title
;
Structure prediction by ZEFSAII (Michael W. Deem and Ramdas Pophale) SiO2 
 PCOD9221458
Probable space group: C 2/M
;
_chemical_formula_sum "Si O2"
_cell_formula_units_Z 56
_cell_length_a 20.943173
_cell_length_b 21.672430
_cell_length_c 18.064929
_cell_angle_alpha 90.000000
_cell_angle_beta 159.652575
_cell_angle_gamma 90.000000
_cell_volume 2851.056558
_symmetry_space_group_name_H-M "C 2/M"
_symmetry_group_IT_number 12
_symmetry_cell_setting 'monoclinic'
loop_
_space_group_symop_operation_xyz
x,y,z
-x,y,-z
-x,-y,-z
x,-y,z
1/2+x,1/2+y,z
1/2-x,1/2+y,-z
1/2-x,1/2-y,-z
1/2+x,1/2-y,z
loop_
_atom_site_type_symbol
_atom_site_label
_atom_site_fract_x
_atom_site_fract_y
_atom_site_fract_z
Si Si1 0.223623 0.808546 0.523263
Si Si2 0.693152 0.309982 0.886892
Si Si3 0.201119 0.685335 0.683660
Si Si4 0.265415 0.884539 0.424226
Si Si5 0.127353 0.067932 0.049782
Si Si6 0.423748 0.199174 0.989507
Si Si7 0.339528 0.067420 0.125979
O O1 0.250000 0.750000 0.500000
O O2 0.233878 0.863772 0.474539
O O3 0.027188 0.810865 0.349292
O O4 0.393020 0.802835 0.762351
O O5 0.770550 0.311525 0.887304
O O6 0.750000 0.250000 0.000000
O O7 0.776226 0.372001 0.013288
O O8 0.196783 0.673067 0.590776
O O9 0.283188 0.622203 0.805975
O O10 0.334764 0.739758 0.855091
O O11 0.000000 0.695027 0.500000
O O12 0.447443 0.925063 0.622031
O O13 0.084223 0.917556 0.197162
O O14 0.227616 0.068620 0.080166
O O15 0.153402 0.000000 0.111042
O O16 0.500000 0.161902 0.000000
O O17 0.309196 0.000000 0.056919
#
# Coordination Sequence:
#
# PCOD9221458 Si02
#       7
#     8   8   8   8   8   8   8
#     4  12  23  39  65  92 128 172 222 270 331 392
#     4  12  24  42  70  97 134 175 222 275 340 395
#     4  12  26  40  60  90 138 178 218 268 330 385
#     4  12  23  42  63  91 130 178 221 266 325 399
#     4  11  23  40  61  90 130 176 225 266 317 389
#     4  12  27  42  64  98 130 166 217 279 334 394
#     4  11  23  42  67 101 134 172 228 279 323 397
#
# _framework density 19.641840999999999
#
# number of rings (size 3 to 8) (size 9 to 14) (size 15 to 20)
#    0.000    0.286    5.714    4.286    4.000    2.000 
#    0.000    0.000    0.000    0.429    0.000    1.000 
#    0.000    0.000    0.000    0.000    0.000    0.000 
#
# Total GULP energy -156280.035872 kJ/mol
# GULP energy per Si atom -5581.429853 kJ/mol
# Density = 1.959714 g / cm^3
# Si number density = 19.641841 Si / 1000 Ang^3
#
#
#
# Elastic Constant Matrix: (Units=GPa)
#
#
# Indices 1 2 3 4 5 6 
#
# 1 160.3716 23.4553 45.6218 0.0000 24.3054 0.0000
# 2 23.4553 88.5970 22.9549 0.0000 0.9084 0.0000
# 3 45.6218 22.9549 136.1807 -0.0001 30.3115 0.0002
# 4 0.0000 0.0000 -0.0001 17.5386 0.0000 -9.0004
# 5 24.3054 0.9084 30.3115 0.0000 49.3328 0.0001
# 6 0.0000 0.0000 0.0002 -9.0004 0.0001 -2.8165
#
#
#
# Elastic Compliance Matrix: (Units=1/GPa)
#
#
# Indices 1 2 3 4 5 6 
#
# 1 0.007305 -0.001487 -0.001624 0.000000 -0.002574 0.000000
# 2 -0.001487 0.012163 -0.001929 0.000000 0.001694 0.000000
# 3 -0.001624 -0.001929 0.009298 0.000000 -0.004877 0.000000
# 4 0.000000 0.000000 0.000000 0.021598 0.000000 -0.069019
# 5 -0.002574 0.001694 -0.004877 0.000000 0.024504 0.000000
# 6 0.000000 0.000000 0.000000 -0.069019 0.000000 -0.134494
#
#
# Mechanical properties :
#
#
# Convention : Reuss Voigt Hill
#
# Bulk Modulus (GPa) = 53.51401 63.24592 58.37996
# Shear Modulus (GPa) = -115.42920 32.35212 -41.53854
#
# Velocity S-wave (km/s) = -7.67428 4.06285 -4.60368
# Velocity P-wave (km/s) = 7.15696 7.36740 1.23622
#
# Compressibility (1/GPa) = 0.01868670
#
# Stress axis : x y z
#
# Youngs Moduli (GPa) = 136.89276 82.21543 107.55045
#
# Poissons Ratio (x) = 0.12224 0.17463
# Poissons Ratio (y) = 0.20354 0.20748
# Poissons Ratio (z) = 0.22227 0.15861
#
# Static dielectric constant tensor:
#      x y z
#    x 1.725250 0.000000 0.034130 
#    y 0.000000 1.700800 0.000000 
#    z 0.034130 0.000000 1.662230 
# 
# From -- ./inp_files/286094.got.cif
#   From: 2010.05.17/outbox.cif.g08.bks.cpg/sg12_144_cif.got.tgz:286094.got - 2010.06.03 13:09:07.
