data_PCOD9221383
_publ_section_title
;
Structure prediction by ZEFSAII (Michael W. Deem and Ramdas Pophale) SiO2 
 PCOD9221383
Probable space group: C 2/M
;
_chemical_formula_sum "Si O2"
_cell_formula_units_Z 64
_cell_length_a 20.190317
_cell_length_b 8.504810
_cell_length_c 21.979962
_cell_angle_alpha 90.000000
_cell_angle_beta 62.357984
_cell_angle_gamma 90.000000
_cell_volume 3343.501687
_symmetry_space_group_name_H-M "C 2/M"
_symmetry_group_IT_number 12
_symmetry_cell_setting 'monoclinic'
loop_
_space_group_symop_operation_xyz
x,y,z
-x,y,-z
-x,-y,-z
x,-y,z
1/2+x,1/2+y,z
1/2-x,1/2+y,-z
1/2-x,1/2-y,-z
1/2+x,1/2-y,z
loop_
_atom_site_type_symbol
_atom_site_label
_atom_site_fract_x
_atom_site_fract_y
_atom_site_fract_z
Si Si1 0.645774 0.815842 0.928997
Si Si2 0.019910 0.808180 0.558939
Si Si3 0.118180 0.817780 0.072519
Si Si4 0.827681 0.189946 0.440806
Si Si5 0.596105 0.312226 0.713821
Si Si6 0.061845 0.187917 0.286453
Si Si7 0.301949 0.181808 0.847011
Si Si8 0.953421 0.313599 0.143229
O O1 0.728579 0.785740 0.868578
O O2 0.586060 0.769357 0.903147
O O3 0.634683 0.000000 0.947326
O O4 0.637571 0.721210 0.994845
O O5 0.101616 0.758717 0.548081
O O6 0.000000 0.753440 0.500000
O O7 0.959533 0.763162 0.635948
O O8 0.020616 0.000000 0.558206
O O9 0.166509 0.716682 0.098945
O O10 0.031079 0.777094 0.118168
O O11 0.131726 0.000000 0.080606
O O12 0.750000 0.250000 0.500000
O O13 0.846187 0.238512 0.363397
O O14 0.827553 0.000000 0.441031
O O15 0.603654 0.500000 0.719652
O O16 0.513534 0.284311 0.720535
O O17 0.598689 0.226774 0.777109
O O18 0.131556 0.274003 0.227110
O O19 0.075407 0.000000 0.279448
O O20 0.281721 0.000000 0.849871
O O21 0.968607 0.500000 0.135523
#
# Coordination Sequence:
#
# PCOD9221383 Si02
#       8
#     8   8   8   8   8   8   8   8
#     4  11  25  43  59  83 119 151 187 238 290 337
#     4   8  15  31  56  83 110 144 189 232 273 329
#     4  12  24  40  64  88 114 150 190 232 285 344
#     4   9  18  33  54  82 113 148 188 229 279 332
#     4   9  18  34  57  81 111 153 194 232 277 337
#     4   9  17  33  58  84 110 148 193 235 280 332
#     4  12  24  39  60  86 116 151 194 237 284 339
#     4  11  23  39  61  88 115 148 193 239 282 337
#
# _framework density 19.141608000000002
#
# number of rings (size 3 to 8) (size 9 to 14) (size 15 to 20)
#    0.000    1.875    1.250    5.250    0.000    4.000 
#    2.250    1.875    0.000    0.750    0.000    0.000 
#    0.000    0.000    0.000    0.000    0.000    0.000 
#
# Total GULP energy -178757.609174 kJ/mol
# GULP energy per Si atom -5586.175287 kJ/mol
# Density = 1.909804 g / cm^3
# Si number density = 19.141608 Si / 1000 Ang^3
#
#
#
# Elastic Constant Matrix: (Units=GPa)
#
#
# Indices 1 2 3 4 5 6 
#
# 1 20.8614 -0.5681 1.7737 0.0000 2.5238 0.0003
# 2 -0.5681 15.1764 8.6595 0.0000 1.3305 0.0003
# 3 1.7737 8.6595 98.4831 -0.0001 0.9957 0.0002
# 4 0.0000 0.0000 -0.0001 27.4509 0.0001 -6.6719
# 5 2.5238 1.3305 0.9957 0.0001 30.4619 0.0000
# 6 0.0003 0.0003 0.0002 -6.6719 0.0000 22.4133
#
#
#
# Elastic Compliance Matrix: (Units=1/GPa)
#
#
# Indices 1 2 3 4 5 6 
#
# 1 0.048601 0.002796 -0.001080 0.000000 -0.004113 -0.000001
# 2 0.002796 0.069778 -0.006155 0.000000 -0.003078 -0.000001
# 3 -0.001080 -0.006155 0.010715 0.000000 0.000008 0.000000
# 4 0.000000 0.000000 0.000000 0.039270 0.000000 0.011690
# 5 -0.004113 -0.003078 0.000008 0.000000 0.033303 0.000000
# 6 -0.000001 -0.000001 0.000000 0.011690 0.000000 0.048096
#
#
# Mechanical properties :
#
#
# Convention : Reuss Voigt Hill
#
# Bulk Modulus (GPa) = 8.31829 17.13899 12.72864
# Shear Modulus (GPa) = 16.73855 24.37561 20.55708
#
# Velocity S-wave (km/s) = 2.96033 3.57239 3.28067
# Velocity P-wave (km/s) = 4.00498 5.09796 4.58416
#
# Compressibility (1/GPa) = 0.12021704
#
# Stress axis : x y z
#
# Youngs Moduli (GPa) = 20.57568 14.33113 93.33087
#
# Poissons Ratio (x) = -0.04007 0.10076
# Poissons Ratio (y) = -0.05753 0.57442
# Poissons Ratio (z) = 0.02221 0.08820
#
# Static dielectric constant tensor:
#      x y z
#    x 1.641580 0.000000 0.000180 
#    y 0.000000 1.653740 0.000000 
#    z 0.000180 0.000000 1.679590 
# 
# From -- ./inp_files/319841.got.cif
#   From: 2010.05.17/outbox.cif.g08.bks.cpg/sg12_160_cif.got.tgz:319841.got - 2010.06.03 13:09:07.
