data_PCOD9221948
_publ_section_title
;
Structure prediction by ZEFSAII (Michael W. Deem and Ramdas Pophale) SiO2 
 PCOD9221948
Probable space group: C 2/M
;
_chemical_formula_sum "Si O2"
_cell_formula_units_Z 64
_cell_length_a 25.647131
_cell_length_b 14.772126
_cell_length_c 9.210675
_cell_angle_alpha 90.000000
_cell_angle_beta 114.082704
_cell_angle_gamma 90.000000
_cell_volume 3185.838561
_symmetry_space_group_name_H-M "C 2/M"
_symmetry_group_IT_number 12
_symmetry_cell_setting 'monoclinic'
loop_
_space_group_symop_operation_xyz
x,y,z
-x,y,-z
-x,-y,-z
x,-y,z
1/2+x,1/2+y,z
1/2-x,1/2+y,-z
1/2-x,1/2-y,-z
1/2+x,1/2-y,z
loop_
_atom_site_type_symbol
_atom_site_label
_atom_site_fract_x
_atom_site_fract_y
_atom_site_fract_z
Si Si1 0.706284 0.096349 0.197040
Si Si2 0.562056 0.099580 0.291637
Si Si3 0.753490 0.351942 0.066766
Si Si4 0.797210 0.175985 0.504386
Si Si5 0.439947 0.106704 0.259840
Si Si6 0.355962 0.827299 0.399410
Si Si7 0.645681 0.396035 0.136170
Si Si8 0.596179 0.790132 0.071074
O O1 0.761535 0.110570 0.359031
O O2 0.661624 0.176903 0.171081
O O3 0.678419 0.000000 0.199816
O O4 0.724499 0.096640 0.049746
O O5 0.508545 0.109181 0.338982
O O6 0.620911 0.108555 0.446757
O O7 0.561380 0.176956 0.170778
O O8 0.556246 0.000000 0.217948
O O9 0.799270 0.356110 0.249024
O O10 0.693905 0.383326 0.066515
O O11 0.750000 0.250000 0.000000
O O12 0.750000 0.250000 0.500000
O O13 0.843020 0.231411 0.460081
O O14 0.825183 0.128216 0.675055
O O15 0.405767 0.165959 0.337062
O O16 0.423059 0.000000 0.252713
O O17 0.423258 0.150613 0.087160
O O18 0.626143 0.500000 0.114292
O O19 0.598981 0.317400 0.056018
#
# Coordination Sequence:
#
# PCOD9221948 Si02
#       8
#     8   8   8   8   8   8   8   8
#     4  12  23  36  59  90 124 162 202 244 297 366
#     4  11  24  40  61  91 125 160 201 249 307 374
#     4  12  21  40  60  87 130 163 201 246 291 361
#     4  12  21  41  57  86 125 165 207 245 293 356
#     4  11  24  41  62  93 127 158 200 250 308 375
#     4  12  21  37  63  85 126 168 198 244 296 358
#     4  12  25  41  62  90 123 164 209 254 303 358
#     4  12  22  40  63  88 122 164 203 250 306 365
#
# _framework density 20.088902999999998
#
# number of rings (size 3 to 8) (size 9 to 14) (size 15 to 20)
#    0.000    0.250    7.500    3.000    0.000    3.500 
#    0.000    0.000    0.000    1.500    0.000    0.875 
#    0.000    0.000    0.000    0.000    0.000    0.000 
#
# Total GULP energy -178829.855520 kJ/mol
# GULP energy per Si atom -5588.432985 kJ/mol
# Density = 2.004318 g / cm^3
# Si number density = 20.088903 Si / 1000 Ang^3
#
#
#
# Elastic Constant Matrix: (Units=GPa)
#
#
# Indices 1 2 3 4 5 6 
#
# 1 77.7184 33.3403 7.4913 0.0000 -21.8798 0.0000
# 2 33.3403 125.8321 5.3681 0.0000 -8.1167 0.0000
# 3 7.4913 5.3681 61.1854 0.0000 -6.5003 0.0000
# 4 0.0000 0.0000 0.0000 18.9144 0.0000 2.8008
# 5 -21.8798 -8.1167 -6.5003 0.0000 38.8898 0.0000
# 6 0.0000 0.0000 0.0000 2.8008 0.0000 23.9834
#
#
#
# Elastic Compliance Matrix: (Units=1/GPa)
#
#
# Indices 1 2 3 4 5 6 
#
# 1 0.017065 -0.003929 -0.000827 0.000000 0.008643 0.000000
# 2 -0.003929 0.008977 -0.000349 0.000000 -0.000395 0.000000
# 3 -0.000827 -0.000349 0.016715 0.000000 0.002256 0.000000
# 4 0.000000 0.000000 0.000000 0.053800 0.000000 -0.006283
# 5 0.008643 -0.000395 0.002256 0.000000 0.030871 0.000000
# 6 0.000000 0.000000 0.000000 -0.006283 0.000000 0.042429
#
#
# Mechanical properties :
#
#
# Convention : Reuss Voigt Hill
#
# Bulk Modulus (GPa) = 30.72178 39.68170 35.20174
# Shear Modulus (GPa) = 26.18952 30.92661 28.55806
#
# Velocity S-wave (km/s) = 3.61457 3.92789 3.77448
# Velocity P-wave (km/s) = 5.72243 6.35350 6.04621
#
# Compressibility (1/GPa) = 0.03255020
#
# Stress axis : x y z
#
# Youngs Moduli (GPa) = 58.59842 111.39001 59.82565
#
# Poissons Ratio (x) = 0.43763 0.04945
# Poissons Ratio (y) = 0.23022 0.02085
# Poissons Ratio (z) = 0.04843 0.03883
#
# Static dielectric constant tensor:
#      x y z
#    x 1.732880 0.000000 0.006020 
#    y 0.000000 1.735030 0.000000 
#    z 0.006020 0.000000 1.753370 
# 
# From -- ./inp_files/104646.got.cif
#   From: 2010.05.17/outbox.cif.g08.bks.cpg/sg12_53_cif.got.tgz:104646.got - 2010.06.03 13:09:07.
