data_PCOD9221178
_publ_section_title
;
Structure prediction by ZEFSAII (Michael W. Deem and Ramdas Pophale) SiO2 
 PCOD9221178
Probable space group: C 2/M
;
_chemical_formula_sum "Si O2"
_cell_formula_units_Z 44
_cell_length_a 18.991331
_cell_length_b 24.388279
_cell_length_c 15.065535
_cell_angle_alpha 90.000000
_cell_angle_beta 17.514192
_cell_angle_gamma 90.000000
_cell_volume 2099.925817
_symmetry_space_group_name_H-M "C 2/M"
_symmetry_group_IT_number 12
_symmetry_cell_setting 'monoclinic'
loop_
_space_group_symop_operation_xyz
x,y,z
-x,y,-z
-x,-y,-z
x,-y,z
1/2+x,1/2+y,z
1/2-x,1/2+y,-z
1/2-x,1/2-y,-z
1/2+x,1/2-y,z
loop_
_atom_site_type_symbol
_atom_site_label
_atom_site_fract_x
_atom_site_fract_y
_atom_site_fract_z
Si Si1 0.537974 0.000000 0.560297
Si Si2 0.594825 0.712985 0.119459
Si Si3 0.843418 0.000000 0.351800
Si Si4 0.064786 0.302512 0.819254
Si Si5 0.797824 0.112098 0.800021
Si Si6 0.908740 0.500000 0.010325
Si Si7 0.324066 0.591817 0.969581
O O1 0.500000 0.000000 0.500000
O O2 0.776609 0.000000 0.328671
O O3 0.407395 0.054975 0.749393
O O4 0.341765 0.700471 0.468432
O O5 0.544155 0.747875 0.092534
O O6 0.704116 0.654022 0.964528
O O7 0.750000 0.750000 0.000000
O O8 0.613261 0.000000 0.690498
O O9 0.989781 0.945785 0.202440
O O10 0.000000 0.308785 0.000000
O O11 0.937093 0.351822 0.919900
O O12 0.887450 0.099263 0.790234
O O13 0.000000 0.141073 0.500000
O O14 0.738142 0.054692 0.826911
O O15 0.000000 0.500000 0.000000
#
# Coordination Sequence:
#
# PCOD9221178 Si02
#       7
#     4   8   4   8   8   4   8
#     4  11  26  48  67  98 132 179 236 296 354 406
#     4  11  24  45  69  97 140 178 233 287 348 417
#     4  11  22  43  71  92 140 169 229 283 345 419
#     4  11  25  43  66 100 137 184 231 283 353 421
#     4  12  22  39  64  98 143 176 226 279 347 432
#     4  12  21  34  59 100 133 176 218 270 339 421
#     4  11  23  43  68  98 129 182 223 289 350 414
#
# _framework density 20.953120999999999
#
# number of rings (size 3 to 8) (size 9 to 14) (size 15 to 20)
#    0.000    0.727    3.636    4.636    0.000    1.455 
#    6.545    0.000    0.000    0.000    0.000    0.000 
#    0.000    0.000    0.000    0.000    0.000    0.000 
#
# Total GULP energy -122972.827580 kJ/mol
# GULP energy per Si atom -5589.673981 kJ/mol
# Density = 2.090543 g / cm^3
# Si number density = 20.953121 Si / 1000 Ang^3
#
#
#
# Elastic Constant Matrix: (Units=GPa)
#
#
# Indices 1 2 3 4 5 6 
#
# 1 134.7966 35.7869 12.7139 0.0109 -21.0877 0.0344
# 2 35.7869 162.2210 26.0899 -0.0198 -26.2256 0.1125
# 3 12.7139 26.0899 72.1003 -0.0008 -21.5587 0.0583
# 4 0.0109 -0.0198 -0.0008 17.2507 0.0428 -11.4358
# 5 -21.0877 -26.2256 -21.5587 0.0428 33.9261 -0.0011
# 6 0.0344 0.1125 0.0583 -11.4358 -0.0011 21.9325
#
#
#
# Elastic Compliance Matrix: (Units=1/GPa)
#
#
# Indices 1 2 3 4 5 6 
#
# 1 0.008407 -0.001173 0.000288 -0.000035 0.004502 -0.000026
# 2 -0.001173 0.007285 -0.001189 -0.000034 0.004146 -0.000050
# 3 0.000288 -0.001189 0.017319 -0.000080 0.010265 -0.000082
# 4 -0.000035 -0.000034 -0.000080 0.088591 -0.000210 0.046193
# 5 0.004502 0.004146 0.010265 -0.000210 0.042003 -0.000163
# 6 -0.000026 -0.000050 -0.000082 0.046193 -0.000163 0.069680
#
#
# Mechanical properties :
#
#
# Convention : Reuss Voigt Hill
#
# Bulk Modulus (GPa) = 34.64774 57.58881 46.11827
# Shear Modulus (GPa) = 20.23846 34.25700 27.24773
#
# Velocity S-wave (km/s) = 3.11125 4.04782 3.61004
# Velocity P-wave (km/s) = 5.42939 7.02785 6.27969
#
# Compressibility (1/GPa) = 0.02886191
#
# Stress axis : x y z
#
# Youngs Moduli (GPa) = 118.94598 137.27050 57.74161
#
# Poissons Ratio (x) = 0.16104 -0.01664
# Poissons Ratio (y) = 0.13955 0.06867
# Poissons Ratio (z) = -0.03428 0.16326
#
# Static dielectric constant tensor:
#      x y z
#    x 1.757070 0.000010 -0.012580 
#    y 0.000010 1.794370 0.000180 
#    z -0.012580 0.000180 1.787110 
# 
# From -- ./inp_files/17575.got.cif
#   From: 2010.05.17/outbox.cif.g08.bks.cpg/sg12_9_cif.got.tgz:17575.got - 2010.06.03 13:09:07.
