data_PCOD9221219
_publ_section_title
;
Structure prediction by ZEFSAII (Michael W. Deem and Ramdas Pophale) SiO2 
 PCOD9221219
Probable space group: C 2/M
;
_chemical_formula_sum "Si O2"
_cell_formula_units_Z 58
_cell_length_a 16.531330
_cell_length_b 20.193470
_cell_length_c 11.346224
_cell_angle_alpha 90.000000
_cell_angle_beta 135.918626
_cell_angle_gamma 90.000000
_cell_volume 2634.991315
_symmetry_space_group_name_H-M "C 2/M"
_symmetry_group_IT_number 12
_symmetry_cell_setting 'monoclinic'
loop_
_space_group_symop_operation_xyz
x,y,z
-x,y,-z
-x,-y,-z
x,-y,z
1/2+x,1/2+y,z
1/2-x,1/2+y,-z
1/2-x,1/2-y,-z
1/2+x,1/2-y,z
loop_
_atom_site_type_symbol
_atom_site_label
_atom_site_fract_x
_atom_site_fract_y
_atom_site_fract_z
Si Si1 0.111346 0.794518 0.174988
Si Si2 0.850431 0.365549 0.425108
Si Si3 0.118481 0.882636 0.764828
Si Si4 0.070489 0.227618 0.398489
Si Si5 0.181515 0.579733 0.866298
Si Si6 0.046399 0.423843 0.240945
Si Si7 0.000000 0.000000 0.500000
Si Si8 0.290000 0.837189 0.749517
O O1 0.216464 0.844491 0.299888
O O2 0.153823 0.730917 0.144672
O O3 0.076571 0.764607 0.264866
O O4 0.000000 0.826550 0.000000
O O5 0.860054 0.392118 0.302798
O O6 0.886605 0.416593 0.564087
O O7 0.920330 0.297925 0.527583
O O8 0.041453 0.816169 0.687329
O O9 0.037155 0.942020 0.635731
O O10 0.218424 0.876780 0.771094
O O11 0.191665 0.894901 0.960653
O O12 0.188148 0.188155 0.555191
O O13 0.184181 0.500000 0.863398
O O14 0.083933 0.598006 0.861647
O O15 0.044423 0.500000 0.200834
O O16 0.114529 0.380592 0.217058
#
# Coordination Sequence:
#
# PCOD9221219 Si02
#       8
#     8   8   8   8   8   8   2   8
#     4  11  23  42  67 100 141 177 224 298 349 410
#     4  11  22  45  71  99 140 186 230 286 348 420
#     4  12  26  44  74 104 134 190 236 291 353 411
#     4  11  22  46  68 100 137 179 238 279 352 426
#     4  11  26  45  68 105 146 180 237 292 347 419
#     4  11  24  42  69  98 134 187 229 279 349 418
#     4  12  24  48  72  94 148 180 236 292 334 430
#     4  11  23  42  65  97 133 176 233 278 343 416
#
# _framework density 22.011458000000001
#
# number of rings (size 3 to 8) (size 9 to 14) (size 15 to 20)
#    0.000    0.828    4.828    2.483    2.897    5.517 
#    0.000    5.517    0.000    1.655    0.000    0.000 
#    0.000    0.000    0.000    0.000    0.000    0.000 
#
# Total GULP energy -161965.546468 kJ/mol
# GULP energy per Si atom -5585.018844 kJ/mol
# Density = 2.196136 g / cm^3
# Si number density = 22.011458 Si / 1000 Ang^3
#
#
#
# Elastic Constant Matrix: (Units=GPa)
#
#
# Indices 1 2 3 4 5 6 
#
# 1 81.9334 16.6557 10.0839 0.0000 11.6608 0.0000
# 2 16.6557 59.2945 22.9580 0.0000 10.6529 0.0000
# 3 10.0839 22.9580 96.8857 0.0000 23.2854 0.0000
# 4 0.0000 0.0000 0.0000 17.3482 0.0000 -0.1045
# 5 11.6608 10.6529 23.2854 0.0000 26.2847 0.0000
# 6 0.0000 0.0000 0.0000 -0.1045 0.0000 21.0289
#
#
#
# Elastic Compliance Matrix: (Units=1/GPa)
#
#
# Indices 1 2 3 4 5 6 
#
# 1 0.013508 -0.003076 0.000589 0.000000 -0.005268 0.000000
# 2 -0.003076 0.019719 -0.003506 0.000000 -0.003521 0.000000
# 3 0.000589 -0.003506 0.013737 0.000000 -0.011010 0.000000
# 4 0.000000 0.000000 0.000000 0.057644 0.000000 0.000287
# 5 -0.005268 -0.003521 -0.011010 0.000000 0.051562 0.000000
# 6 0.000000 0.000000 0.000000 0.000287 0.000000 0.047555
#
#
# Mechanical properties :
#
#
# Convention : Reuss Voigt Hill
#
# Bulk Modulus (GPa) = 28.58983 37.50099 33.04541
# Shear Modulus (GPa) = 21.99049 25.49343 23.74196
#
# Velocity S-wave (km/s) = 3.16420 3.40691 3.28780
# Velocity P-wave (km/s) = 5.13482 5.70527 5.42754
#
# Compressibility (1/GPa) = 0.03497748
#
# Stress axis : x y z
#
# Youngs Moduli (GPa) = 74.03283 50.71208 72.79577
#
# Poissons Ratio (x) = 0.15599 -0.04288
# Poissons Ratio (y) = 0.22772 0.25524
# Poissons Ratio (z) = -0.04361 0.17781
#
# Static dielectric constant tensor:
#      x y z
#    x 1.819810 0.000000 -0.007040 
#    y 0.000000 1.788130 0.000000 
#    z -0.007040 0.000000 1.838540 
# 
# From -- ./inp_files/159779.got.cif
#   From: 2010.05.17/outbox.cif.g08.bks.cpg/sg12_80_cif.got.tgz:159779.got - 2010.06.03 13:09:07.
