data_PCOD9221903
_publ_section_title
;
Structure prediction by ZEFSAII (Michael W. Deem and Ramdas Pophale) SiO2 
 PCOD9221903
Probable space group: C 2/M
;
_chemical_formula_sum "Si O2"
_cell_formula_units_Z 56
_cell_length_a 9.171445
_cell_length_b 18.686686
_cell_length_c 20.179757
_cell_angle_alpha 90.000000
_cell_angle_beta 61.012507
_cell_angle_gamma 90.000000
_cell_volume 3025.225697
_symmetry_space_group_name_H-M "C 2/M"
_symmetry_group_IT_number 12
_symmetry_cell_setting 'monoclinic'
loop_
_space_group_symop_operation_xyz
x,y,z
-x,y,-z
-x,-y,-z
x,-y,z
1/2+x,1/2+y,z
1/2-x,1/2+y,-z
1/2-x,1/2-y,-z
1/2+x,1/2-y,z
loop_
_atom_site_type_symbol
_atom_site_label
_atom_site_fract_x
_atom_site_fract_y
_atom_site_fract_z
Si Si1 0.088627 0.086068 0.822371
Si Si2 0.295244 0.179310 0.263844
Si Si3 0.112795 0.327438 0.280320
Si Si4 0.269412 0.583803 0.964389
Si Si5 0.881814 0.583750 0.588017
Si Si6 0.496131 0.583316 0.312872
Si Si7 0.966304 0.584461 0.113907
O O1 0.271824 0.118701 0.787985
O O2 0.026542 0.102572 0.760528
O O3 0.950223 0.113616 0.904798
O O4 0.096779 0.000000 0.824814
O O5 0.221338 0.255730 0.260728
O O6 0.434109 0.187936 0.288935
O O7 0.387327 0.135893 0.185232
O O8 0.135686 0.130833 0.315939
O O9 0.087461 0.365019 0.356750
O O10 0.295681 0.500000 0.973981
O O11 0.156767 0.586350 0.922691
O O12 0.148710 0.610407 0.049162
O O13 0.904763 0.500000 0.602730
O O14 0.685801 0.591525 0.615120
O O15 0.000000 0.598459 0.500000
O O16 0.544442 0.500000 0.303778
O O17 0.974479 0.500000 0.132109
#
# Coordination Sequence:
#
# PCOD9221903 Si02
#       7
#     8   8   8   8   8   8   8
#     4   9  16  32  56  80 107 142 184 231 281 335
#     4  12  23  37  53  78 115 153 192 235 270 327
#     4  11  24  37  55  80 113 149 190 230 273 330
#     4   8  14  28  54  84 107 138 186 236 285 333
#     4   9  19  40  67  92 116 141 173 217 272 333
#     4   9  17  32  58  85 110 144 182 222 272 327
#     4   9  17  30  55  84 108 142 188 238 283 327
#
# _framework density 18.511015
#
# number of rings (size 3 to 8) (size 9 to 14) (size 15 to 20)
#    0.000    2.429    1.429    4.286    0.000    2.286 
#    0.000    5.000    0.000    5.143    0.000    0.000 
#    0.000    0.000    0.000    0.000    0.000    0.000 
#
# Total GULP energy -156112.664164 kJ/mol
# GULP energy per Si atom -5575.452292 kJ/mol
# Density = 1.846888 g / cm^3
# Si number density = 18.511015 Si / 1000 Ang^3
#
#
#
# Elastic Constant Matrix: (Units=GPa)
#
#
# Indices 1 2 3 4 5 6 
#
# 1 87.3636 43.7622 24.5866 0.0000 -14.6719 0.0000
# 2 43.7622 72.5312 51.5922 0.0000 -5.3644 0.0000
# 3 24.5866 51.5922 113.4510 0.0000 -26.5870 0.0000
# 4 0.0000 0.0000 0.0000 -5.1688 0.0000 4.4119
# 5 -14.6719 -5.3644 -26.5870 0.0000 21.4203 0.0000
# 6 0.0000 0.0000 0.0000 4.4119 0.0000 24.6934
#
#
#
# Elastic Compliance Matrix: (Units=1/GPa)
#
#
# Indices 1 2 3 4 5 6 
#
# 1 0.020894 -0.016558 0.007592 0.000000 0.019588 0.000000
# 2 -0.016558 0.034818 -0.018135 0.000000 -0.025131 0.000000
# 3 0.007592 -0.018135 0.021957 0.000000 0.027912 0.000000
# 4 0.000000 0.000000 0.000000 -0.167868 0.000000 0.029992
# 5 0.019588 -0.025131 0.027912 0.000000 0.088452 0.000000
# 6 0.000000 0.000000 0.000000 0.029992 0.000000 0.035138
#
#
# Mechanical properties :
#
#
# Convention : Reuss Voigt Hill
#
# Bulk Modulus (GPa) = 42.61132 57.02529 49.81831
# Shear Modulus (GPa) = 52.40264 18.41595 35.40929
#
# Velocity S-wave (km/s) = 5.32638 3.15757 4.37839
# Velocity P-wave (km/s) = 7.80362 6.64580 7.24787
#
# Compressibility (1/GPa) = 0.02346794
#
# Stress axis : x y z
#
# Youngs Moduli (GPa) = 47.86149 28.72050 45.54373
#
# Poissons Ratio (x) = 0.47556 -0.34578
# Poissons Ratio (y) = 0.79249 0.82592
# Poissons Ratio (z) = -0.36338 0.52084
#
# Static dielectric constant tensor:
#      x y z
#    x 1.661250 0.000000 -0.018030 
#    y 0.000000 1.645980 0.000000 
#    z -0.018030 0.000000 1.649120 
# 
# From -- ./inp_files/300701.got.cif
#   From: 2010.05.17/outbox.cif.g08.bks.cpg/sg12_151_cif.got.tgz:300701.got - 2010.06.03 13:09:07.
