data_PCOD9221543
_publ_section_title
;
Structure prediction by ZEFSAII (Michael W. Deem and Ramdas Pophale) SiO2 
 PCOD9221543
Probable space group: C 2/M
;
_chemical_formula_sum "Si O2"
_cell_formula_units_Z 40
_cell_length_a 14.668711
_cell_length_b 21.282856
_cell_length_c 8.560462
_cell_angle_alpha 90.000000
_cell_angle_beta 131.484079
_cell_angle_gamma 90.000000
_cell_volume 2002.082378
_symmetry_space_group_name_H-M "C 2/M"
_symmetry_group_IT_number 12
_symmetry_cell_setting 'monoclinic'
loop_
_space_group_symop_operation_xyz
x,y,z
-x,y,-z
-x,-y,-z
x,-y,z
1/2+x,1/2+y,z
1/2-x,1/2+y,-z
1/2-x,1/2-y,-z
1/2+x,1/2-y,z
loop_
_atom_site_type_symbol
_atom_site_label
_atom_site_fract_x
_atom_site_fract_y
_atom_site_fract_z
Si Si1 0.569564 0.296968 0.232995
Si Si2 0.437099 0.072765 0.674080
Si Si3 0.192159 0.574637 0.808191
Si Si4 0.674857 0.686540 0.880967
Si Si5 0.711933 0.832629 0.326141
O O1 0.465620 0.295721 0.247842
O O2 0.631214 0.230061 0.260674
O O3 0.682966 0.336138 0.423669
O O4 0.500000 0.319467 0.000000
O O5 0.575501 0.088063 0.786357
O O6 0.359303 0.082809 0.425917
O O7 0.380216 0.111530 0.748872
O O8 0.431494 0.000000 0.704522
O O9 0.225901 0.500000 0.863748
O O10 0.288833 0.627522 0.967177
O O11 0.716857 0.668429 0.755241
O O12 0.750000 0.750000 0.000000
#
# Coordination Sequence:
#
# PCOD9221543 Si02
#       5
#     8   8   8   8   8
#     4  11  23  41  59  86 124 159 202 248 306 362
#     4   9  19  38  62  89 121 161 205 251 299 362
#     4   9  20  38  62  90 124 163 204 247 304 366
#     4  12  23  38  60  91 124 161 200 253 303 361
#     4  11  24  39  60  91 122 160 200 255 305 355
#
# _framework density 19.979196999999999
#
# number of rings (size 3 to 8) (size 9 to 14) (size 15 to 20)
#    0.000    1.600    2.000    4.200    2.800    0.800 
#    0.000    3.000    0.000    6.000    0.000    0.000 
#    0.000    0.000    0.000    0.000    0.000    0.000 
#
# Total GULP energy -111642.781082 kJ/mol
# GULP energy per Si atom -5582.139054 kJ/mol
# Density = 1.993372 g / cm^3
# Si number density = 19.979197 Si / 1000 Ang^3
#
#
#
# Elastic Constant Matrix: (Units=GPa)
#
#
# Indices 1 2 3 4 5 6 
#
# 1 131.3189 31.0957 11.4778 0.0000 -4.6176 0.0000
# 2 31.0957 22.4522 22.8193 0.0000 10.0325 0.0000
# 3 11.4778 22.8193 77.0501 0.0000 5.0601 0.0000
# 4 0.0000 0.0000 0.0000 7.1154 0.0000 2.8374
# 5 -4.6176 10.0325 5.0601 0.0000 27.2300 0.0000
# 6 0.0000 0.0000 0.0000 2.8374 0.0000 35.7940
#
#
#
# Elastic Compliance Matrix: (Units=1/GPa)
#
#
# Indices 1 2 3 4 5 6 
#
# 1 0.016136 -0.036530 0.007442 0.000000 0.014812 0.000000
# 2 -0.036530 0.159707 -0.038051 0.000000 -0.057966 0.000000
# 3 0.007442 -0.038051 0.022409 0.000000 0.011117 0.000000
# 4 0.000000 0.000000 0.000000 0.145128 0.000000 -0.011504
# 5 0.014812 -0.057966 0.011117 0.000000 0.058527 0.000000
# 6 0.000000 0.000000 0.000000 -0.011504 0.000000 0.028850
#
#
# Mechanical properties :
#
#
# Convention : Reuss Voigt Hill
#
# Bulk Modulus (GPa) = 15.63121 40.17853 27.90487
# Shear Modulus (GPa) = 8.52722 25.05644 16.79183
#
# Velocity S-wave (km/s) = 2.06817 3.54521 2.90222
# Velocity P-wave (km/s) = 3.68019 6.07551 5.02273
#
# Compressibility (1/GPa) = 0.06397457
#
# Stress axis : x y z
#
# Youngs Moduli (GPa) = 61.97472 6.26147 44.62504
#
# Poissons Ratio (x) = 0.22873 -0.33212
# Poissons Ratio (y) = 2.26396 1.69801
# Poissons Ratio (z) = -0.46125 0.23825
#
# Static dielectric constant tensor:
#      x y z
#    x 1.724940 0.000000 -0.019210 
#    y 0.000000 1.687710 0.000000 
#    z -0.019210 0.000000 1.749080 
# 
# From -- ./inp_files/63146.got.cif
#   From: 2010.05.17/outbox.cif.g08.bks.cpg/sg12_32_cif.got.tgz:63146.got - 2010.06.03 13:09:07.
