data_PCOD9221031
_publ_section_title
;
Structure prediction by ZEFSAII (Michael W. Deem and Ramdas Pophale) SiO2 
 PCOD9221031
Probable space group: C 2/M
;
_chemical_formula_sum "Si O2"
_cell_formula_units_Z 48
_cell_length_a 14.404728
_cell_length_b 30.439559
_cell_length_c 14.366106
_cell_angle_alpha 90.000000
_cell_angle_beta 159.102845
_cell_angle_gamma 90.000000
_cell_volume 2246.856729
_symmetry_space_group_name_H-M "C 2/M"
_symmetry_group_IT_number 12
_symmetry_cell_setting 'monoclinic'
loop_
_space_group_symop_operation_xyz
x,y,z
-x,y,-z
-x,-y,-z
x,-y,z
1/2+x,1/2+y,z
1/2-x,1/2+y,-z
1/2-x,1/2-y,-z
1/2+x,1/2-y,z
loop_
_atom_site_type_symbol
_atom_site_label
_atom_site_fract_x
_atom_site_fract_y
_atom_site_fract_z
Si Si1 0.661853 0.937113 0.562853
Si Si2 0.953688 0.282819 0.644186
Si Si3 0.220262 0.786738 0.785048
Si Si4 0.275303 0.548254 0.998040
Si Si5 0.753273 0.353688 0.973608
Si Si6 0.349401 0.659564 0.762148
O O1 0.500000 0.954048 0.500000
O O2 0.688981 0.885281 0.605233
O O3 0.959822 0.950146 0.817240
O O4 0.477088 0.948474 0.304026
O O5 0.750000 0.250000 0.500000
O O6 0.836928 0.301128 0.438935
O O7 0.193612 0.252752 0.835628
O O8 0.005009 0.324827 0.758893
O O9 0.188084 0.831055 0.815455
O O10 0.000000 0.785196 0.500000
O O11 0.500000 0.785255 0.000000
O O12 0.277026 0.500000 0.046139
O O13 0.249620 0.593281 0.033139
O O14 0.549609 0.343397 0.864540
O O15 0.500000 0.662604 0.000000
#
# Coordination Sequence:
#
# PCOD9221031 Si02
#       6
#     8   8   8   8   8   8
#     4  11  22  41  59  95 136 177 226 278 336 403
#     4  12  25  44  68  99 140 186 233 287 346 415
#     4  12  29  45  70 102 138 184 232 288 357 419
#     4  11  24  42  70  95 126 181 234 283 351 414
#     4  11  25  47  66  97 144 177 230 294 346 408
#     4  11  25  40  66  97 136 189 233 275 336 405
#
# _framework density 21.363177
#
# number of rings (size 3 to 8) (size 9 to 14) (size 15 to 20)
#    0.000    0.667    3.333    4.500    4.667    2.000 
#    3.000    0.000    0.000    1.000    0.000    0.000 
#    0.000    0.000    0.000    0.000    0.000    0.000 
#
# Total GULP energy -134142.836500 kJ/mol
# GULP energy per Si atom -5589.284854 kJ/mol
# Density = 2.131455 g / cm^3
# Si number density = 21.363177 Si / 1000 Ang^3
#
#
#
# Elastic Constant Matrix: (Units=GPa)
#
#
# Indices 1 2 3 4 5 6 
#
# 1 82.2582 51.0919 31.5594 -0.0022 3.5511 -0.0002
# 2 51.0919 210.7152 39.2775 -0.0007 -5.2792 -0.0004
# 3 31.5594 39.2775 97.8377 -0.0032 3.2191 -0.0033
# 4 -0.0022 -0.0007 -0.0032 68.5655 -0.0030 3.4332
# 5 3.5511 -5.2792 3.2191 -0.0030 36.4499 -0.0005
# 6 -0.0002 -0.0004 -0.0033 3.4332 -0.0005 -17.5207
#
#
#
# Elastic Compliance Matrix: (Units=1/GPa)
#
#
# Indices 1 2 3 4 5 6 
#
# 1 0.015600 -0.003130 -0.003721 0.000000 -0.001644 0.000001
# 2 -0.003130 0.005789 -0.001356 0.000000 0.001263 0.000000
# 3 -0.003721 -0.001356 0.011995 0.000000 -0.000893 -0.000002
# 4 0.000000 0.000000 0.000000 0.014443 0.000001 0.002830
# 5 -0.001644 0.001263 -0.000893 0.000001 0.027857 0.000000
# 6 0.000001 0.000000 -0.000002 0.002830 0.000000 -0.056521
#
#
# Mechanical properties :
#
#
# Convention : Reuss Voigt Hill
#
# Bulk Modulus (GPa) = 58.92986 70.51873 64.72430
# Shear Modulus (GPa) = 121.26002 35.42445 78.34224
#
# Velocity S-wave (km/s) = 7.54218 4.07652 6.06228
# Velocity P-wave (km/s) = 10.17303 7.43226 8.90868
#
# Compressibility (1/GPa) = 0.01696933
#
# Stress axis : x y z
#
# Youngs Moduli (GPa) = 64.10405 172.73952 83.36713
#
# Poissons Ratio (x) = 0.54067 0.31023
# Poissons Ratio (y) = 0.20064 0.11304
# Poissons Ratio (z) = 0.23855 0.23423
#
# Static dielectric constant tensor:
#      x y z
#    x 1.746750 0.000000 0.041230 
#    y 0.000000 1.835730 0.000000 
#    z 0.041230 0.000000 1.875730 
# 
# From -- ./inp_files/13065.got.cif
#   From: 2010.05.17/outbox.cif.g08.bks.cpg/sg12_7_cif.got.tgz:13065.got - 2010.06.03 13:09:07.
