data_PCOD9221264
_publ_section_title
;
Structure prediction by ZEFSAII (Michael W. Deem and Ramdas Pophale) SiO2 
 PCOD9221264
Probable space group: C 2/M
;
_chemical_formula_sum "Si O2"
_cell_formula_units_Z 56
_cell_length_a 21.951226
_cell_length_b 21.352376
_cell_length_c 19.412669
_cell_angle_alpha 90.000000
_cell_angle_beta 161.035112
_cell_angle_gamma 90.000000
_cell_volume 2957.048497
_symmetry_space_group_name_H-M "C 2/M"
_symmetry_group_IT_number 12
_symmetry_cell_setting 'monoclinic'
loop_
_space_group_symop_operation_xyz
x,y,z
-x,y,-z
-x,-y,-z
x,-y,z
1/2+x,1/2+y,z
1/2-x,1/2+y,-z
1/2-x,1/2-y,-z
1/2+x,1/2-y,z
loop_
_atom_site_type_symbol
_atom_site_label
_atom_site_fract_x
_atom_site_fract_y
_atom_site_fract_z
Si Si1 0.185950 0.753924 0.510500
Si Si2 0.706302 0.301009 0.891167
Si Si3 0.218888 0.637184 0.727210
Si Si4 0.304984 0.882724 0.453466
Si Si5 0.075316 0.930363 0.931283
Si Si6 0.430321 0.236168 0.994765
Si Si7 0.354396 0.068220 0.102325
O O1 0.250000 0.750000 0.500000
O O2 0.106003 0.686116 0.446686
O O3 0.020656 0.802891 0.348815
O O4 0.375343 0.759751 0.756072
O O5 0.782037 0.282085 0.896328
O O6 0.750000 0.250000 0.000000
O O7 0.806692 0.367773 0.011706
O O8 0.236298 0.605678 0.670916
O O9 0.337893 0.700335 0.865023
O O10 0.000000 0.651533 0.500000
O O11 0.294620 0.591676 0.867167
O O12 0.445979 0.925986 0.645715
O O13 0.099226 0.884513 0.266262
O O14 0.999507 0.000000 0.863923
O O15 0.201490 0.931881 0.999201
O O16 0.500000 0.199565 0.000000
O O17 0.345372 0.000000 0.056638
#
# Coordination Sequence:
#
# PCOD9221264 Si02
#       7
#     8   8   8   8   8   8   8
#     4  12  22  37  63  90 126 162 209 263 320 370
#     4  12  23  39  65  94 123 166 218 262 321 381
#     4  12  22  36  57  82 127 166 209 253 310 365
#     4  12  21  37  57  85 120 166 201 255 309 374
#     4  11  23  36  53  78 116 167 215 249 297 368
#     4  12  24  39  60  95 130 163 205 269 324 377
#     4  11  24  42  61  88 124 163 213 265 310 372
#
# _framework density 18.937802999999999
#
# number of rings (size 3 to 8) (size 9 to 14) (size 15 to 20)
#    0.000    0.286    7.143    3.429    0.000    2.000 
#    0.000    0.000    0.000    0.429    0.000    1.000 
#    0.000    0.000    0.000    0.000    0.000    0.000 
#
# Total GULP energy -156121.322076 kJ/mol
# GULP energy per Si atom -5575.761503 kJ/mol
# Density = 1.889470 g / cm^3
# Si number density = 18.937803 Si / 1000 Ang^3
#
#
#
# Elastic Constant Matrix: (Units=GPa)
#
#
# Indices 1 2 3 4 5 6 
#
# 1 107.7454 11.6345 23.1791 0.0001 2.3540 0.0000
# 2 11.6345 66.7299 13.7039 0.0001 -12.2216 0.0001
# 3 23.1791 13.7039 125.1342 -0.0001 11.3648 0.0000
# 4 0.0001 0.0001 -0.0001 19.7179 -0.0001 0.6979
# 5 2.3540 -12.2216 11.3648 -0.0001 25.7661 0.0000
# 6 0.0000 0.0001 0.0000 0.6979 0.0000 16.8592
#
#
#
# Elastic Compliance Matrix: (Units=1/GPa)
#
#
# Indices 1 2 3 4 5 6 
#
# 1 0.009806 -0.001564 -0.001559 0.000000 -0.000950 0.000000
# 2 -0.001564 0.017521 -0.002497 0.000000 0.009555 0.000000
# 3 -0.001559 -0.002497 0.009009 0.000000 -0.005016 0.000000
# 4 0.000000 0.000000 0.000000 0.050790 0.000000 -0.002103
# 5 -0.000950 0.009555 -0.005016 0.000000 0.045642 0.000000
# 6 0.000000 0.000000 0.000000 -0.002103 0.000000 0.059402
#
#
# Mechanical properties :
#
#
# Convention : Reuss Voigt Hill
#
# Bulk Modulus (GPa) = 39.84452 44.07162 41.95807
# Shear Modulus (GPa) = 23.61000 29.20811 26.40905
#
# Velocity S-wave (km/s) = 3.53471 3.93150 3.73837
# Velocity P-wave (km/s) = 6.14364 6.62806 6.39044
#
# Compressibility (1/GPa) = 0.02509755
#
# Stress axis : x y z
#
# Youngs Moduli (GPa) = 101.97742 57.07378 110.99807
#
# Poissons Ratio (x) = 0.08924 0.17304
# Poissons Ratio (y) = 0.15945 0.27716
# Poissons Ratio (z) = 0.15897 0.14251
#
# Static dielectric constant tensor:
#      x y z
#    x 1.722170 0.000000 0.006980 
#    y 0.000000 1.731190 0.000000 
#    z 0.006980 0.000000 1.672650 
# 
# From -- ./inp_files/286095.got.cif
#   From: 2010.05.17/outbox.cif.g08.bks.cpg/sg12_144_cif.got.tgz:286095.got - 2010.06.03 13:09:07.
