data_PCOD9221996
_publ_section_title
;
Structure prediction by ZEFSAII (Michael W. Deem and Ramdas Pophale) SiO2 
 PCOD9221996
Probable space group: C 2/M
;
_chemical_formula_sum "Si O2"
_cell_formula_units_Z 32
_cell_length_a 9.280867
_cell_length_b 22.810771
_cell_length_c 11.663072
_cell_angle_alpha 90.000000
_cell_angle_beta 38.622836
_cell_angle_gamma 90.000000
_cell_volume 1541.199983
_symmetry_space_group_name_H-M "C 2/M"
_symmetry_group_IT_number 12
_symmetry_cell_setting 'monoclinic'
loop_
_space_group_symop_operation_xyz
x,y,z
-x,y,-z
-x,-y,-z
x,-y,z
1/2+x,1/2+y,z
1/2-x,1/2+y,-z
1/2-x,1/2-y,-z
1/2+x,1/2-y,z
loop_
_atom_site_type_symbol
_atom_site_label
_atom_site_fract_x
_atom_site_fract_y
_atom_site_fract_z
Si Si1 0.506870 0.270695 0.860432
Si Si2 0.516217 0.620705 0.684690
Si Si3 0.176761 0.065652 0.993188
Si Si4 0.361640 0.141277 0.266907
O O1 0.557436 0.323572 0.742922
O O2 0.646752 0.212106 0.739728
O O3 0.500000 0.285192 0.000000
O O4 0.250000 0.250000 0.000000
O O5 0.719197 0.620361 0.466201
O O6 0.279580 0.622965 0.758356
O O7 0.478922 0.568430 0.795999
O O8 0.384019 0.112725 0.880108
O O9 0.272650 0.000000 0.917565
O O10 0.000000 0.078508 0.000000
#
# Coordination Sequence:
#
# PCOD9221996 Si02
#       4
#     8   8   8   8
#     4  12  21  39  65  93 131 171 205 251 309 371
#     4  11  24  41  65  96 126 167 209 255 313 372
#     4  11  25  45  66  90 123 164 211 264 316 370
#     4  11  24  42  64  94 130 164 210 257 309 376
#
# _framework density 20.76304
#
# number of rings (size 3 to 8) (size 9 to 14) (size 15 to 20)
#    0.000    0.750    5.000    2.250    0.000    4.000 
#    0.000    5.000    0.000    0.000    0.000    0.000 
#    0.000    0.000    0.000    0.000    0.000    0.000 
#
# Total GULP energy -89265.964082 kJ/mol
# GULP energy per Si atom -5579.122755 kJ/mol
# Density = 2.071578 g / cm^3
# Si number density = 20.763040 Si / 1000 Ang^3
#
#
#
# Elastic Constant Matrix: (Units=GPa)
#
#
# Indices 1 2 3 4 5 6 
#
# 1 144.1029 41.6589 60.3619 0.0000 36.5022 0.0000
# 2 41.6589 110.4088 24.5351 0.0000 6.7524 0.0000
# 3 60.3619 24.5351 94.0013 0.0000 18.1905 0.0000
# 4 0.0000 0.0000 0.0000 35.6295 0.0000 -12.3500
# 5 36.5022 6.7524 18.1905 0.0000 26.1334 0.0000
# 6 0.0000 0.0000 0.0000 -12.3500 0.0000 25.9756
#
#
#
# Elastic Compliance Matrix: (Units=1/GPa)
#
#
# Indices 1 2 3 4 5 6 
#
# 1 0.013758 -0.003141 -0.005146 0.000000 -0.014823 0.000000
# 2 -0.003141 0.010348 -0.001174 0.000000 0.002530 0.000000
# 3 -0.005146 -0.001174 0.014792 0.000000 -0.002805 0.000000
# 4 0.000000 0.000000 0.000000 0.033605 0.000000 0.015977
# 5 -0.014823 0.002530 -0.002805 0.000000 0.060268 0.000000
# 6 0.000000 0.000000 0.000000 0.015977 0.000000 0.046094
#
#
# Mechanical properties :
#
#
# Convention : Reuss Voigt Hill
#
# Bulk Modulus (GPa) = 50.05917 66.84718 58.45318
# Shear Modulus (GPa) = 24.45640 32.34484 28.40062
#
# Velocity S-wave (km/s) = 3.43575 3.95119 3.70245
# Velocity P-wave (km/s) = 6.31675 7.28567 6.81844
#
# Compressibility (1/GPa) = 0.01997636
#
# Stress axis : x y z
#
# Youngs Moduli (GPa) = 72.68550 96.63282 67.60471
#
# Poissons Ratio (x) = 0.30352 0.34791
# Poissons Ratio (y) = 0.22830 0.07935
# Poissons Ratio (z) = 0.37406 0.11342
#
# Static dielectric constant tensor:
#      x y z
#    x 1.772420 0.000000 -0.044620 
#    y 0.000000 1.885230 0.000000 
#    z -0.044620 0.000000 1.725120 
# 
# From -- ./inp_files/40071.got.cif
#   From: 2010.05.17/outbox.cif.g08.bks.cpg/sg12_21_cif.got.tgz:40071.got - 2010.06.03 13:09:07.
