data_PCOD9221325
_publ_section_title
;
Structure prediction by ZEFSAII (Michael W. Deem and Ramdas Pophale) SiO2 
 PCOD9221325
Probable space group: C 2/M
;
_chemical_formula_sum "Si O2"
_cell_formula_units_Z 56
_cell_length_a 12.746277
_cell_length_b 26.543654
_cell_length_c 9.003032
_cell_angle_alpha 90.000000
_cell_angle_beta 66.605896
_cell_angle_gamma 90.000000
_cell_volume 2795.624080
_symmetry_space_group_name_H-M "C 2/M"
_symmetry_group_IT_number 12
_symmetry_cell_setting 'monoclinic'
loop_
_space_group_symop_operation_xyz
x,y,z
-x,y,-z
-x,-y,-z
x,-y,z
1/2+x,1/2+y,z
1/2-x,1/2+y,-z
1/2-x,1/2-y,-z
1/2+x,1/2-y,z
loop_
_atom_site_type_symbol
_atom_site_label
_atom_site_fract_x
_atom_site_fract_y
_atom_site_fract_z
Si Si1 0.421261 0.175944 0.416962
Si Si2 0.239337 0.808590 0.031436
Si Si3 0.384360 0.122064 0.128129
Si Si4 0.655458 0.441138 0.275706
Si Si5 0.596620 0.559051 0.658626
Si Si6 0.302893 0.657337 0.276209
Si Si7 0.508619 0.710178 0.323752
O O1 0.500000 0.151656 0.500000
O O2 0.404281 0.141585 0.283191
O O3 0.299191 0.181045 0.567349
O O4 0.481192 0.229468 0.341732
O O5 0.352043 0.829953 0.045420
O O6 0.130504 0.809757 0.200732
O O7 0.250000 0.750000 0.000000
O O8 0.219548 0.834617 0.884449
O O9 0.270506 0.088778 0.178349
O O10 0.500000 0.098139 0.000000
O O11 0.673636 0.500000 0.234623
O O12 0.538220 0.426843 0.256745
O O13 0.629034 0.436420 0.466326
O O14 0.609374 0.500000 0.692826
O O15 0.674579 0.598620 0.701454
O O16 0.415203 0.686028 0.269096
O O17 0.500000 0.693749 0.500000
#
# Coordination Sequence:
#
# PCOD9221325 Si02
#       7
#     8   8   8   8   8   8   8
#     4  11  23  41  59  87 121 165 212 260 313 373
#     4  12  25  41  58  89 130 170 211 261 316 372
#     4  12  23  39  62  88 125 172 213 258 315 382
#     4   9  19  38  64  95 126 160 205 264 324 384
#     4   9  19  38  67  98 126 157 206 268 327 377
#     4  12  22  38  65  92 123 163 213 264 318 378
#     4  11  23  38  60  88 122 163 212 260 314 378
#
# _framework density 20.031305
#
# number of rings (size 3 to 8) (size 9 to 14) (size 15 to 20)
#    0.000    1.143    1.429    7.714    2.000    0.286 
#    0.000    0.714    0.000    6.857    0.000    0.000 
#    0.000    0.000    0.000    0.000    0.000    0.000 
#
# Total GULP energy -156462.261950 kJ/mol
# GULP energy per Si atom -5587.937927 kJ/mol
# Density = 1.998571 g / cm^3
# Si number density = 20.031305 Si / 1000 Ang^3
#
#
#
# Elastic Constant Matrix: (Units=GPa)
#
#
# Indices 1 2 3 4 5 6 
#
# 1 74.4140 13.4750 18.3848 0.0000 -1.6907 0.0000
# 2 13.4750 78.8362 9.1281 0.0000 3.3407 0.0000
# 3 18.3848 9.1281 88.0996 0.0000 -0.9984 0.0000
# 4 0.0000 0.0000 0.0000 -1.4890 0.0000 -13.4022
# 5 -1.6907 3.3407 -0.9984 0.0000 51.1490 0.0000
# 6 0.0000 0.0000 0.0000 -13.4022 0.0000 28.2646
#
#
#
# Elastic Compliance Matrix: (Units=1/GPa)
#
#
# Indices 1 2 3 4 5 6 
#
# 1 0.014539 -0.002185 -0.002801 0.000000 0.000569 0.000000
# 2 -0.002185 0.013205 -0.000923 0.000000 -0.000953 0.000000
# 3 -0.002801 -0.000923 0.012033 0.000000 0.000203 0.000000
# 4 0.000000 0.000000 0.000000 -0.127489 0.000000 -0.060451
# 5 0.000569 -0.000953 0.000203 0.000000 0.019636 0.000000
# 6 0.000000 0.000000 0.000000 -0.060451 0.000000 0.006716
#
#
# Mechanical properties :
#
#
# Convention : Reuss Voigt Hill
#
# Bulk Modulus (GPa) = 35.76632 35.92508 35.84570
# Shear Modulus (GPa) = -124.31160 28.94239 -47.68460
#
# Velocity S-wave (km/s) = -7.88628 3.80525 -4.88433
# Velocity P-wave (km/s) = 8.06415 6.10573 3.72495
#
# Compressibility (1/GPa) = 0.02795927
#
# Stress axis : x y z
#
# Youngs Moduli (GPa) = 68.78082 75.72771 83.10284
#
# Poissons Ratio (x) = 0.16545 0.23279
# Poissons Ratio (y) = 0.15027 0.07671
# Poissons Ratio (z) = 0.19267 0.06990
#
# Static dielectric constant tensor:
#      x y z
#    x 1.736650 0.000000 -0.055330 
#    y 0.000000 1.735030 0.000000 
#    z -0.055330 0.000000 1.728760 
# 
# From -- ./inp_files/53211.got.cif
#   From: 2010.05.17/outbox.cif.g08.bks.cpg/sg12_27_cif.got.tgz:53211.got - 2010.06.03 13:09:07.
