data_PCOD9221222
_publ_section_title
;
Structure prediction by ZEFSAII (Michael W. Deem and Ramdas Pophale) SiO2 
 PCOD9221222
Probable space group: C 2/M
;
_chemical_formula_sum "Si O2"
_cell_formula_units_Z 36
_cell_length_a 15.082547
_cell_length_b 11.446639
_cell_length_c 10.393239
_cell_angle_alpha 90.000000
_cell_angle_beta 118.201734
_cell_angle_gamma 90.000000
_cell_volume 1581.328185
_symmetry_space_group_name_H-M "C 2/M"
_symmetry_group_IT_number 12
_symmetry_cell_setting 'monoclinic'
loop_
_space_group_symop_operation_xyz
x,y,z
-x,y,-z
-x,-y,-z
x,-y,z
1/2+x,1/2+y,z
1/2-x,1/2+y,-z
1/2-x,1/2-y,-z
1/2+x,1/2-y,z
loop_
_atom_site_type_symbol
_atom_site_label
_atom_site_fract_x
_atom_site_fract_y
_atom_site_fract_z
Si Si1 0.602990 0.500000 0.656127
Si Si2 0.657945 0.766890 0.613882
Si Si3 0.500000 0.669933 0.000000
Si Si4 0.440290 0.000000 0.824913
Si Si5 0.620303 0.233254 0.302477
Si Si6 0.873457 0.500000 0.239619
Si Si7 0.347527 0.500000 0.011106
O O1 0.500000 0.500000 0.500000
O O2 0.647265 0.632447 0.656954
O O3 0.605768 0.500000 0.814044
O O4 0.598415 0.767252 0.437871
O O5 0.773645 0.794788 0.650931
O O6 0.628466 0.878417 0.680807
O O7 0.526780 0.726773 0.153503
O O8 0.397213 0.604923 0.965258
O O9 0.367738 0.106792 0.749967
O O10 0.527149 0.000000 0.777769
O O11 0.500000 0.000000 0.000000
O O12 0.772370 0.500000 0.081672
#
# Coordination Sequence:
#
# PCOD9221222 Si02
#       7
#     4   8   4   4   8   4   4
#     4  12  28  45  71 105 144 191 248 301 366 440
#     4  11  27  48  75 106 148 194 244 310 368 445
#     4  11  22  45  72 104 144 189 246 301 374 437
#     4  12  28  44  74 109 149 195 246 316 373 448
#     4  11  24  46  73 104 146 193 247 297 376 436
#     4  12  28  48  77 111 152 193 252 311 383 432
#     4  11  26  43  72 105 144 193 242 309 370 449
#
# _framework density 22.765673
#
# number of rings (size 3 to 8) (size 9 to 14) (size 15 to 20)
#    0.000    0.667    3.333    2.667    9.333    5.333 
#    0.000    0.000    0.000    0.000    0.000    0.000 
#    0.000    0.000    0.000    0.000    0.000    0.000 
#
# Total GULP energy -100282.985169 kJ/mol
# GULP energy per Si atom -5571.276954 kJ/mol
# Density = 2.271386 g / cm^3
# Si number density = 22.765673 Si / 1000 Ang^3
#
#
#
# Elastic Constant Matrix: (Units=GPa)
#
#
# Indices 1 2 3 4 5 6 
#
# 1 75.0306 14.7747 27.5432 0.0000 8.0305 0.0000
# 2 14.7747 103.1162 41.1753 0.0000 -9.9558 0.0000
# 3 27.5432 41.1753 143.2775 0.0000 -24.0878 0.0000
# 4 0.0000 0.0000 0.0000 53.6789 0.0000 4.1855
# 5 8.0305 -9.9558 -24.0878 0.0000 37.8038 0.0000
# 6 0.0000 0.0000 0.0000 4.1855 0.0000 28.3451
#
#
#
# Elastic Compliance Matrix: (Units=1/GPa)
#
#
# Indices 1 2 3 4 5 6 
#
# 1 0.015556 -0.001367 -0.003599 0.000000 -0.005958 0.000000
# 2 -0.001367 0.011108 -0.002675 0.000000 0.001511 0.000000
# 3 -0.003599 -0.002675 0.009464 0.000000 0.006090 0.000000
# 4 0.000000 0.000000 0.000000 0.018846 0.000000 -0.002783
# 5 -0.005958 0.001511 0.006090 0.000000 0.031997 0.000000
# 6 0.000000 0.000000 0.000000 -0.002783 0.000000 0.035690
#
#
# Mechanical properties :
#
#
# Convention : Reuss Voigt Hill
#
# Bulk Modulus (GPa) = 47.97341 54.26785 51.12063
# Shear Modulus (GPa) = 34.50835 39.82764 37.16800
#
# Velocity S-wave (km/s) = 3.89756 4.18719 4.04497
# Velocity P-wave (km/s) = 6.43219 6.87503 6.65730
#
# Compressibility (1/GPa) = 0.02084488
#
# Stress axis : x y z
#
# Youngs Moduli (GPa) = 64.28399 90.02653 105.66207
#
# Poissons Ratio (x) = 0.12306 0.38030
# Poissons Ratio (y) = 0.08787 0.28269
# Poissons Ratio (z) = 0.23137 0.24086
#
# Static dielectric constant tensor:
#      x y z
#    x -0.941040 0.000000 -2.776550 
#    y 0.000000 1.939120 0.000000 
#    z -2.776550 0.000000 -0.985750 
# 
# From -- ./inp_files/140693.got.cif
#   From: 2010.05.17/outbox.cif.g08.bks.cpg/sg12_71_cif.got.tgz:140693.got - 2010.06.03 13:09:07.
