data_PCOD9221380
_publ_section_title
;
Structure prediction by ZEFSAII (Michael W. Deem and Ramdas Pophale) SiO2 
 PCOD9221380
Probable space group: C 2/M
;
_chemical_formula_sum "Si O2"
_cell_formula_units_Z 64
_cell_length_a 26.121891
_cell_length_b 19.710760
_cell_length_c 20.057015
_cell_angle_alpha 90.000000
_cell_angle_beta 17.753328
_cell_angle_gamma 90.000000
_cell_volume 3148.905658
_symmetry_space_group_name_H-M "C 2/M"
_symmetry_group_IT_number 12
_symmetry_cell_setting 'monoclinic'
loop_
_space_group_symop_operation_xyz
x,y,z
-x,y,-z
-x,-y,-z
x,-y,z
1/2+x,1/2+y,z
1/2-x,1/2+y,-z
1/2-x,1/2-y,-z
1/2+x,1/2-y,z
loop_
_atom_site_type_symbol
_atom_site_label
_atom_site_fract_x
_atom_site_fract_y
_atom_site_fract_z
Si Si1 0.857298 0.578648 0.368581
Si Si2 0.569539 0.865093 0.486358
Si Si3 0.628033 0.314586 0.165581
Si Si4 0.992849 0.692296 0.115513
Si Si5 0.973602 0.169758 0.213416
Si Si6 0.781313 0.225298 0.658506
Si Si7 0.379687 0.922546 0.841810
Si Si8 0.898655 0.925522 0.057903
O O1 0.818749 0.500000 0.399405
O O2 0.969554 0.617690 0.174590
O O3 0.699194 0.628275 0.571397
O O4 0.955423 0.578156 0.316797
O O5 0.500000 0.845740 0.500000
O O6 0.679530 0.804722 0.381484
O O7 0.424306 0.887089 0.716653
O O8 0.701292 0.925790 0.316742
O O9 0.553151 0.335349 0.187100
O O10 0.468110 0.302307 0.411465
O O11 0.750000 0.250000 0.000000
O O12 0.742487 0.376216 0.047906
O O13 0.967936 0.750896 0.201730
O O14 0.844271 0.708156 0.246628
O O15 0.173617 0.701300 0.855932
O O16 0.074703 0.131919 0.029861
O O17 0.325766 0.000000 0.898990
O O18 0.955333 0.000000 0.963717
O O19 0.000000 0.910957 0.000000
#
# Coordination Sequence:
#
# PCOD9221380 Si02
#       8
#     8   8   8   8   8   8   8   8
#     4  11  24  44  69  97 130 175 226 279 332 386
#     4  12  24  39  61  94 134 176 212 259 323 397
#     4  12  25  42  65  97 135 171 218 272 330 392
#     4  11  23  43  71  99 127 168 225 278 332 385
#     4  12  23  39  69  99 126 173 223 273 323 395
#     4  11  24  43  66  97 130 169 219 277 333 383
#     4  11  25  43  64  93 136 177 215 269 334 399
#     4  11  23  39  60  93 134 174 213 261 322 392
#
# _framework density 20.324521000000001
#
# number of rings (size 3 to 8) (size 9 to 14) (size 15 to 20)
#    0.000    0.625    3.750    4.875    0.000    6.000 
#    0.000    1.875    0.000    1.500    0.000    0.000 
#    0.000    0.000    0.000    0.000    0.000    0.000 
#
# Total GULP energy -178816.760432 kJ/mol
# GULP energy per Si atom -5588.023763 kJ/mol
# Density = 2.027826 g / cm^3
# Si number density = 20.324521 Si / 1000 Ang^3
#
#
#
# Elastic Constant Matrix: (Units=GPa)
#
#
# Indices 1 2 3 4 5 6 
#
# 1 47.8472 19.9576 -1.3296 -0.0072 -2.6709 -0.0057
# 2 19.9576 99.8350 46.2067 -0.0161 12.6025 -0.0225
# 3 -1.3296 46.2067 136.8316 -0.0341 1.4275 0.0049
# 4 -0.0072 -0.0161 -0.0341 18.1174 0.0125 -7.6008
# 5 -2.6709 12.6025 1.4275 0.0125 19.3507 -0.0046
# 6 -0.0057 -0.0225 0.0049 -7.6008 -0.0046 85.4783
#
#
#
# Elastic Compliance Matrix: (Units=1/GPa)
#
#
# Indices 1 2 3 4 5 6 
#
# 1 0.024324 -0.007006 0.002521 0.000003 0.007734 0.000000
# 2 -0.007006 0.015067 -0.005047 0.000010 -0.010407 0.000004
# 3 0.002521 -0.005047 0.009006 0.000011 0.002971 -0.000001
# 4 0.000003 0.000010 0.000011 0.057335 -0.000043 0.005098
# 5 0.007734 -0.010407 0.002971 -0.000043 0.059304 -0.000003
# 6 0.000000 0.000004 -0.000001 0.005098 -0.000003 0.012152
#
#
# Mechanical properties :
#
#
# Convention : Reuss Voigt Hill
#
# Bulk Modulus (GPa) = 34.09076 46.02034 40.05555
# Shear Modulus (GPa) = 24.26840 39.23453 31.75147
#
# Velocity S-wave (km/s) = 3.45925 4.39840 3.95679
# Velocity P-wave (km/s) = 5.72405 6.96323 6.37383
#
# Compressibility (1/GPa) = 0.02933347
#
# Stress axis : x y z
#
# Youngs Moduli (GPa) = 41.11189 66.37080 111.03425
#
# Poissons Ratio (x) = 0.46498 -0.27997
# Poissons Ratio (y) = 0.28802 0.56044
# Poissons Ratio (z) = -0.10366 0.33500
#
# Static dielectric constant tensor:
#      x y z
#    x 1.707670 0.000000 0.011130 
#    y 0.000000 1.714980 0.000000 
#    z 0.011130 0.000000 1.755290 
# 
# From -- ./inp_files/290913.got.cif
#   From: 2010.05.17/outbox.cif.g08.bks.cpg/sg12_146_cif.got.tgz:290913.got - 2010.06.03 13:09:07.
