data_PCOD9221848
_publ_section_title
;
Structure prediction by ZEFSAII (Michael W. Deem and Ramdas Pophale) SiO2 
 PCOD9221848
Probable space group: C 2/M
;
_chemical_formula_sum "Si O2"
_cell_formula_units_Z 32
_cell_length_a 11.023512
_cell_length_b 21.912082
_cell_length_c 5.997891
_cell_angle_alpha 90.000000
_cell_angle_beta 73.136084
_cell_angle_gamma 90.000000
_cell_volume 1386.476556
_symmetry_space_group_name_H-M "C 2/M"
_symmetry_group_IT_number 12
_symmetry_cell_setting 'monoclinic'
loop_
_space_group_symop_operation_xyz
x,y,z
-x,y,-z
-x,-y,-z
x,-y,z
1/2+x,1/2+y,z
1/2-x,1/2+y,-z
1/2-x,1/2-y,-z
1/2+x,1/2-y,z
loop_
_atom_site_type_symbol
_atom_site_label
_atom_site_fract_x
_atom_site_fract_y
_atom_site_fract_z
Si Si1 0.779142 0.565729 0.427659
Si Si2 0.915116 0.207053 0.849133
Si Si3 0.332295 0.827881 0.747033
Si Si4 0.500000 0.101866 0.000000
Si Si5 0.000000 0.895615 0.500000
O O1 0.799381 0.500000 0.535714
O O2 0.801393 0.626368 0.563524
O O3 0.632223 0.569009 0.433325
O O4 0.879452 0.567917 0.172087
O O5 0.874903 0.257625 0.687613
O O6 0.992530 0.150751 0.710973
O O7 0.788056 0.180620 0.026991
O O8 0.000000 0.235785 0.000000
O O9 0.442863 0.859339 0.828468
#
# Coordination Sequence:
#
# PCOD9221848 Si02
#       5
#     8   8   8   4   4
#     4  12  28  48  71 103 144 191 241 287 345 424
#     4  11  23  44  74 107 142 178 236 298 359 420
#     4  11  25  44  73 105 142 187 232 290 358 421
#     4  12  25  46  68 104 142 190 233 286 356 410
#     4  12  25  46  76 106 137 186 240 296 354 408
#
# _framework density 23.080086000000001
#
# number of rings (size 3 to 8) (size 9 to 14) (size 15 to 20)
#    0.000    0.500    6.250    1.500    3.500    4.000 
#    0.000    1.250    0.000    0.000    0.000    0.000 
#    0.000    0.000    0.000    0.000    0.000    0.000 
#
# Total GULP energy -89388.560589 kJ/mol
# GULP energy per Si atom -5586.785037 kJ/mol
# Density = 2.302755 g / cm^3
# Si number density = 23.080086 Si / 1000 Ang^3
#
#
#
# Elastic Constant Matrix: (Units=GPa)
#
#
# Indices 1 2 3 4 5 6 
#
# 1 143.7224 37.6273 37.0465 0.0000 -33.4793 0.0000
# 2 37.6273 142.7922 46.0046 0.0000 -14.1399 0.0000
# 3 37.0465 46.0046 72.4205 0.0000 -35.7216 0.0000
# 4 0.0000 0.0000 0.0000 -1.4245 0.0000 30.6182
# 5 -33.4793 -14.1399 -35.7216 0.0000 52.5187 0.0000
# 6 0.0000 0.0000 0.0000 30.6182 0.0000 8.4019
#
#
#
# Elastic Compliance Matrix: (Units=1/GPa)
#
#
# Indices 1 2 3 4 5 6 
#
# 1 0.008673 -0.001387 -0.001524 0.000000 0.004119 0.000000
# 2 -0.001387 0.009192 -0.006539 0.000000 -0.002857 0.000000
# 3 -0.001524 -0.006539 0.026176 0.000000 0.015072 0.000000
# 4 0.000000 0.000000 0.000000 -0.008849 0.000000 0.032249
# 5 0.004119 -0.002857 0.015072 0.000000 0.031149 0.000000
# 6 0.000000 0.000000 0.000000 0.032249 0.000000 0.001500
#
#
# Mechanical properties :
#
#
# Convention : Reuss Voigt Hill
#
# Bulk Modulus (GPa) = 39.77449 66.69910 53.23679
# Shear Modulus (GPa) = 52.56355 27.78300 40.17328
#
# Velocity S-wave (km/s) = 4.77743 3.47330 4.17658
# Velocity P-wave (km/s) = 6.90670 6.71169 6.80989
#
# Compressibility (1/GPa) = 0.02514175
#
# Stress axis : x y z
#
# Youngs Moduli (GPa) = 115.29720 108.78464 38.20239
#
# Poissons Ratio (x) = 0.15083 0.05824
# Poissons Ratio (y) = 0.15986 0.24982
# Poissons Ratio (z) = 0.17576 0.71137
#
# Static dielectric constant tensor:
#      x y z
#    x 1.858940 0.000000 -0.010060 
#    y 0.000000 1.855930 0.000000 
#    z -0.010060 0.000000 1.859450 
# 
# From -- ./inp_files/6865.got.cif
#   From: 2010.05.17/outbox.cif.g08.bks.cpg/sg12_4_cif.got.tgz:6865.got - 2010.06.03 13:09:07.
