data_PCOD9221196
_publ_section_title
;
Structure prediction by ZEFSAII (Michael W. Deem and Ramdas Pophale) SiO2 
 PCOD9221196
Probable space group: C 2/M
;
_chemical_formula_sum "Si O2"
_cell_formula_units_Z 48
_cell_length_a 30.740883
_cell_length_b 17.796202
_cell_length_c 9.196602
_cell_angle_alpha 90.000000
_cell_angle_beta 29.685064
_cell_angle_gamma 90.000000
_cell_volume 2491.609306
_symmetry_space_group_name_H-M "C 2/M"
_symmetry_group_IT_number 12
_symmetry_cell_setting 'monoclinic'
loop_
_space_group_symop_operation_xyz
x,y,z
-x,y,-z
-x,-y,-z
x,-y,z
1/2+x,1/2+y,z
1/2-x,1/2+y,-z
1/2-x,1/2-y,-z
1/2+x,1/2-y,z
loop_
_atom_site_type_symbol
_atom_site_label
_atom_site_fract_x
_atom_site_fract_y
_atom_site_fract_z
Si Si1 0.973246 0.413095 0.744670
Si Si2 0.462551 0.500000 0.347397
Si Si3 0.427847 0.659999 0.588328
Si Si4 0.641519 0.500000 0.653203
Si Si5 0.253571 0.704012 0.260825
Si Si6 0.728382 0.134520 0.651094
Si Si7 0.562462 0.786840 0.680669
O O1 0.992806 0.500000 0.722154
O O2 0.000000 0.399091 0.500000
O O3 0.024866 0.356663 0.698841
O O4 0.869581 0.398350 0.061392
O O5 0.443058 0.574689 0.495039
O O6 0.402266 0.500000 0.378273
O O7 0.562782 0.500000 0.999073
O O8 0.500000 0.680467 0.500000
O O9 0.438860 0.714359 0.418699
O O10 0.332439 0.673546 0.934125
O O11 0.701901 0.573062 0.499388
O O12 0.268612 0.791409 0.257379
O O13 0.250474 0.660399 0.423118
O O14 0.160492 0.697501 0.451370
O O15 0.500000 0.773820 0.000000
#
# Coordination Sequence:
#
# PCOD9221196 Si02
#       7
#     8   4   8   4   8   8   8
#     4  11  24  45  69 100 136 182 232 288 349 410
#     4  11  27  44  68 104 134 181 229 297 356 409
#     4  12  26  46  70 101 139 180 231 290 349 420
#     4  11  24  42  71  97 141 178 227 287 349 432
#     4  11  25  42  70  99 138 181 232 280 342 420
#     4  11  22  44  68 101 133 184 229 277 349 417
#     4  12  25  43  69 103 139 181 230 287 347 417
#
# _framework density 19.264657
#
# number of rings (size 3 to 8) (size 9 to 14) (size 15 to 20)
#    0.000    0.667    2.500    5.250    7.000    2.333 
#    3.000    0.000    0.000    0.000    0.000    0.000 
#    0.000    0.000    0.000    0.000    0.000    0.000 
#
# Total GULP energy -134383.352373 kJ/mol
# GULP energy per Si atom -5599.306349 kJ/mol
# Density = 1.922081 g / cm^3
# Si number density = 19.264657 Si / 1000 Ang^3
#
#
#
# Elastic Constant Matrix: (Units=GPa)
#
#
# Indices 1 2 3 4 5 6 
#
# 1 56.7598 -2.1364 34.6974 0.0000 -11.4023 0.0000
# 2 -2.1364 46.8528 35.8284 0.0000 10.4481 0.0000
# 3 34.6974 35.8284 128.2960 0.0000 6.2915 0.0000
# 4 0.0000 0.0000 0.0000 24.0049 0.0000 -7.7510
# 5 -11.4023 10.4481 6.2915 0.0000 38.8459 0.0000
# 6 0.0000 0.0000 0.0000 -7.7510 0.0000 41.2235
#
#
#
# Elastic Compliance Matrix: (Units=1/GPa)
#
#
# Indices 1 2 3 4 5 6 
#
# 1 0.024591 0.006253 -0.008738 0.000000 0.006952 0.000000
# 2 0.006253 0.030254 -0.009910 0.000000 -0.004697 0.000000
# 3 -0.008738 -0.009910 0.013023 0.000000 -0.002009 0.000000
# 4 0.000000 0.000000 0.000000 0.044351 0.000000 0.008339
# 5 0.006952 -0.004697 -0.002009 0.000000 0.029372 0.000000
# 6 0.000000 0.000000 0.000000 0.008339 0.000000 0.025826
#
#
# Mechanical properties :
#
#
# Convention : Reuss Voigt Hill
#
# Bulk Modulus (GPa) = 23.21273 40.96529 32.08901
# Shear Modulus (GPa) = 24.20534 31.71614 27.96074
#
# Velocity S-wave (km/s) = 3.54851 4.06191 3.81386
# Velocity P-wave (km/s) = 5.37259 6.58099 6.00726
#
# Compressibility (1/GPa) = 0.04307982
#
# Stress axis : x y z
#
# Youngs Moduli (GPa) = 40.66467 33.05364 76.78431
#
# Poissons Ratio (x) = -0.20668 0.67093
# Poissons Ratio (y) = -0.25427 0.76090
# Poissons Ratio (z) = 0.35532 0.32755
#
# Static dielectric constant tensor:
#      x y z
#    x 1.640590 0.000000 0.005910 
#    y 0.000000 1.644540 0.000000 
#    z 0.005910 0.000000 1.638870 
# 
# From -- ./inp_files/112767.got.cif
#   From: 2010.05.17/outbox.cif.g08.bks.cpg/sg12_57_cif.got.tgz:112767.got - 2010.06.03 13:09:07.
