data_PCOD9221761
_publ_section_title
;
Structure prediction by ZEFSAII (Michael W. Deem and Ramdas Pophale) SiO2 
 PCOD9221761
Probable space group: C 2/M
;
_chemical_formula_sum "Si O2"
_cell_formula_units_Z 40
_cell_length_a 12.923636
_cell_length_b 22.432980
_cell_length_c 8.320104
_cell_angle_alpha 90.000000
_cell_angle_beta 134.379186
_cell_angle_gamma 90.000000
_cell_volume 1724.012893
_symmetry_space_group_name_H-M "C 2/M"
_symmetry_group_IT_number 12
_symmetry_cell_setting 'monoclinic'
loop_
_space_group_symop_operation_xyz
x,y,z
-x,y,-z
-x,-y,-z
x,-y,z
1/2+x,1/2+y,z
1/2-x,1/2+y,-z
1/2-x,1/2-y,-z
1/2+x,1/2-y,z
loop_
_atom_site_type_symbol
_atom_site_label
_atom_site_fract_x
_atom_site_fract_y
_atom_site_fract_z
Si Si1 0.280022 0.566141 0.593202
Si Si2 0.441101 0.596393 0.259763
Si Si3 0.555385 0.151642 0.236647
Si Si4 0.922838 0.762562 0.237910
Si Si5 0.348468 0.065516 0.191169
O O1 0.233329 0.500000 0.484847
O O2 0.450539 0.569498 0.752768
O O3 0.225975 0.572596 0.716721
O O4 0.212767 0.622644 0.426245
O O5 0.500000 0.583906 0.500000
O O6 0.434894 0.667157 0.225467
O O7 0.282270 0.570366 0.074098
O O8 0.522640 0.220675 0.234300
O O9 0.460102 0.116299 0.265019
O O10 0.500000 0.136932 0.000000
O O11 0.000000 0.752034 0.500000
O O12 0.750000 0.750000 0.000000
O O13 0.415836 0.000000 0.255447
#
# Coordination Sequence:
#
# PCOD9221761 Si02
#       5
#     8   8   8   8   8
#     4  11  25  43  67 102 138 183 235 287 354 428
#     4  11  24  42  69 100 139 179 233 292 350 418
#     4  12  26  43  69 101 137 180 237 293 355 418
#     4  11  25  48  75 103 143 189 238 291 356 427
#     4  11  23  43  68  95 135 184 229 287 353 425
#
# _framework density 23.201684
#
# number of rings (size 3 to 8) (size 9 to 14) (size 15 to 20)
#    0.000    0.800    2.000    4.800    2.800   10.400 
#    0.000    0.000    0.000    0.000    0.000    0.000 
#    0.000    0.000    0.000    0.000    0.000    0.000 
#
# Total GULP energy -111749.721736 kJ/mol
# GULP energy per Si atom -5587.486087 kJ/mol
# Density = 2.314888 g / cm^3
# Si number density = 23.201684 Si / 1000 Ang^3
#
#
#
# Elastic Constant Matrix: (Units=GPa)
#
#
# Indices 1 2 3 4 5 6 
#
# 1 71.8370 6.6833 8.8229 0.0000 2.3768 0.0000
# 2 6.6833 82.2414 28.1903 0.0000 -9.3434 0.0000
# 3 8.8229 28.1903 125.6655 0.0000 13.2681 0.0000
# 4 0.0000 0.0000 0.0000 54.0338 0.0000 7.5223
# 5 2.3768 -9.3434 13.2681 0.0000 37.6013 0.0000
# 6 0.0000 0.0000 0.0000 7.5223 0.0000 27.4330
#
#
#
# Elastic Compliance Matrix: (Units=1/GPa)
#
#
# Indices 1 2 3 4 5 6 
#
# 1 0.014128 -0.001023 -0.000666 0.000000 -0.000912 0.000000
# 2 -0.001023 0.014016 -0.003580 0.000000 0.004811 0.000000
# 3 -0.000666 -0.003580 0.009241 0.000000 -0.004109 0.000000
# 4 0.000000 0.000000 0.000000 0.019241 0.000000 -0.005276
# 5 -0.000912 0.004811 -0.004109 0.000000 0.029298 0.000000
# 6 0.000000 0.000000 0.000000 -0.005276 0.000000 0.037899
#
#
# Mechanical properties :
#
#
# Convention : Reuss Voigt Hill
#
# Bulk Modulus (GPa) = 37.24986 40.79298 39.02142
# Shear Modulus (GPa) = 34.88896 39.55010 37.21953
#
# Velocity S-wave (km/s) = 3.88200 4.13319 4.00956
# Velocity P-wave (km/s) = 6.01522 6.35592 6.18791
#
# Compressibility (1/GPa) = 0.02684574
#
# Stress axis : x y z
#
# Youngs Moduli (GPa) = 70.78343 71.34536 108.20924
#
# Poissons Ratio (x) = 0.07302 0.07207
# Poissons Ratio (y) = 0.07244 0.38743
# Poissons Ratio (z) = 0.04714 0.25544
#
# Static dielectric constant tensor:
#      x y z
#    x 1.840110 0.000000 0.017810 
#    y 0.000000 1.829880 0.000000 
#    z 0.017810 0.000000 1.923460 
# 
# From -- ./inp_files/65617.got.cif
#   From: 2010.05.17/outbox.cif.g08.bks.cpg/sg12_33_cif.got.tgz:65617.got - 2010.06.03 13:09:07.
