data_PCOD9221344
_publ_section_title
;
Structure prediction by ZEFSAII (Michael W. Deem and Ramdas Pophale) SiO2 
 PCOD9221344
Probable space group: C 2/M
;
_chemical_formula_sum "Si O2"
_cell_formula_units_Z 48
_cell_length_a 24.842532
_cell_length_b 10.899387
_cell_length_c 9.586731
_cell_angle_alpha 90.000000
_cell_angle_beta 116.007751
_cell_angle_gamma 90.000000
_cell_volume 2332.920823
_symmetry_space_group_name_H-M "C 2/M"
_symmetry_group_IT_number 12
_symmetry_cell_setting 'monoclinic'
loop_
_space_group_symop_operation_xyz
x,y,z
-x,y,-z
-x,-y,-z
x,-y,z
1/2+x,1/2+y,z
1/2-x,1/2+y,-z
1/2-x,1/2-y,-z
1/2+x,1/2-y,z
loop_
_atom_site_type_symbol
_atom_site_label
_atom_site_fract_x
_atom_site_fract_y
_atom_site_fract_z
Si Si1 0.491320 0.641435 0.647877
Si Si2 0.884338 0.739127 0.700140
Si Si3 0.321839 0.145896 0.357808
Si Si4 0.317675 0.641088 0.867014
Si Si5 0.476208 0.000000 0.314069
Si Si6 0.106571 0.263376 0.819308
Si Si7 0.440473 0.000000 0.841881
O O1 0.500000 0.691800 0.500000
O O2 0.473010 0.500000 0.616639
O O3 0.442679 0.711172 0.684980
O O4 0.557902 0.655822 0.783421
O O5 0.838986 0.690019 0.531338
O O6 0.854675 0.838331 0.766821
O O7 0.903638 0.623768 0.817121
O O8 0.252078 0.162644 0.244978
O O9 0.360815 0.223691 0.292310
O O10 0.335747 0.000000 0.358369
O O11 0.323842 0.500000 0.922413
O O12 0.343106 0.736559 0.009093
O O13 0.500000 0.000000 0.500000
O O14 0.435491 0.883963 0.225011
O O15 0.536142 0.000000 0.290538
O O16 0.500000 0.000000 0.000000
#
# Coordination Sequence:
#
# PCOD9221344 Si02
#       7
#     8   8   8   8   4   8   4
#     4  11  23  38  64  97 130 169 209 259 324 399
#     4  12  23  43  69  93 134 171 220 275 336 393
#     4  11  23  44  69  95 126 174 230 277 328 387
#     4  11  27  45  63  92 135 182 224 269 323 393
#     4  12  22  38  70 106 126 164 208 267 344 394
#     4  12  22  42  68  97 133 164 217 274 336 391
#     4  12  24  38  62 102 132 160 204 271 343 401
#
# _framework density 20.575064999999999
#
# number of rings (size 3 to 8) (size 9 to 14) (size 15 to 20)
#    0.000    0.500    5.000    4.500    0.000    0.000 
#    0.000    1.667    7.333    0.000    0.000    0.000 
#    0.000    0.000    0.000    0.000    0.000    0.000 
#
# Total GULP energy -134138.969091 kJ/mol
# GULP energy per Si atom -5589.123712 kJ/mol
# Density = 2.052823 g / cm^3
# Si number density = 20.575065 Si / 1000 Ang^3
#
#
#
# Elastic Constant Matrix: (Units=GPa)
#
#
# Indices 1 2 3 4 5 6 
#
# 1 66.3496 12.6636 2.2115 0.0000 10.4231 0.0000
# 2 12.6636 80.7671 17.3057 0.0000 9.9475 0.0000
# 3 2.2115 17.3057 92.6391 0.0000 24.1613 0.0000
# 4 0.0000 0.0000 0.0000 26.8778 0.0000 3.6122
# 5 10.4231 9.9475 24.1613 0.0000 38.9396 0.0000
# 6 0.0000 0.0000 0.0000 3.6122 0.0000 24.7548
#
#
#
# Elastic Compliance Matrix: (Units=1/GPa)
#
#
# Indices 1 2 3 4 5 6 
#
# 1 0.016166 -0.002239 0.001207 0.000000 -0.004504 0.000000
# 2 -0.002239 0.013360 -0.002038 0.000000 -0.001549 0.000000
# 3 0.001207 -0.002038 0.013237 0.000000 -0.008016 0.000000
# 4 0.000000 0.000000 0.000000 0.037950 0.000000 -0.005538
# 5 -0.004504 -0.001549 -0.008016 0.000000 0.032256 0.000000
# 6 0.000000 0.000000 0.000000 -0.005538 0.000000 0.041204
#
#
# Mechanical properties :
#
#
# Convention : Reuss Voigt Hill
#
# Bulk Modulus (GPa) = 27.30480 33.79081 30.54780
# Shear Modulus (GPa) = 28.98208 31.95279 30.46743
#
# Velocity S-wave (km/s) = 3.75721 3.94507 3.85228
# Velocity P-wave (km/s) = 5.66761 6.10002 5.88779
#
# Compressibility (1/GPa) = 0.03662360
#
# Stress axis : x y z
#
# Youngs Moduli (GPa) = 61.85699 74.85152 75.54500
#
# Poissons Ratio (x) = 0.16756 -0.09119
# Poissons Ratio (y) = 0.13847 0.15398
# Poissons Ratio (z) = -0.07466 0.15257
#
# Static dielectric constant tensor:
#      x y z
#    x 1.701700 0.000000 0.003570 
#    y 0.000000 1.755340 0.000000 
#    z 0.003570 0.000000 1.761430 
# 
# From -- ./inp_files/95020.got.cif
#   From: 2010.05.17/outbox.cif.g08.bks.cpg/sg12_48_cif.got.tgz:95020.got - 2010.06.03 13:09:07.
