data_PCOD9221232
_publ_section_title
;
Structure prediction by ZEFSAII (Michael W. Deem and Ramdas Pophale) SiO2 
 PCOD9221232
Probable space group: C 2/M
;
_chemical_formula_sum "Si O2"
_cell_formula_units_Z 56
_cell_length_a 20.832285
_cell_length_b 18.120150
_cell_length_c 16.212096
_cell_angle_alpha 90.000000
_cell_angle_beta 152.830809
_cell_angle_gamma 90.000000
_cell_volume 2794.424742
_symmetry_space_group_name_H-M "C 2/M"
_symmetry_group_IT_number 12
_symmetry_cell_setting 'monoclinic'
loop_
_space_group_symop_operation_xyz
x,y,z
-x,y,-z
-x,-y,-z
x,-y,z
1/2+x,1/2+y,z
1/2-x,1/2+y,-z
1/2-x,1/2-y,-z
1/2+x,1/2-y,z
loop_
_atom_site_type_symbol
_atom_site_label
_atom_site_fract_x
_atom_site_fract_y
_atom_site_fract_z
Si Si1 0.457977 0.673315 0.747554
Si Si2 0.833723 0.416915 0.303178
Si Si3 0.747152 0.619662 0.023205
Si Si4 0.955020 0.659963 0.706727
Si Si5 0.220872 0.184327 0.309111
Si Si6 0.123636 0.000000 0.760336
Si Si7 0.277941 0.860392 0.649948
Si Si8 0.296970 0.500000 0.334646
O O1 0.417392 0.757492 0.689296
O O2 0.413065 0.656955 0.790222
O O3 0.358172 0.633107 0.566790
O O4 0.620087 0.669855 0.909793
O O5 0.809151 0.500000 0.309003
O O6 0.797484 0.418162 0.165094
O O7 0.743972 0.354119 0.247594
O O8 0.000000 0.400103 0.500000
O O9 0.885918 0.651709 0.139414
O O10 0.672729 0.568296 0.871340
O O11 0.851810 0.650002 0.511201
O O12 0.906967 0.620060 0.735449
O O13 0.221494 0.275342 0.312300
O O14 0.199955 0.000000 0.760047
O O15 0.958531 0.000000 0.551936
O O16 0.268997 0.923981 0.707423
#
# Coordination Sequence:
#
# PCOD9221232 Si02
#       8
#     8   8   8   8   8   4   8   4
#     4   9  19  37  63  90 128 157 207 255 299 364
#     4  11  23  40  60  91 130 163 207 253 304 365
#     4  12  21  40  61  92 126 160 203 258 307 362
#     4   9  19  37  64  93 122 162 203 251 311 363
#     4   9  19  41  61  94 123 167 207 248 301 368
#     4  11  26  41  60  91 128 154 204 266 311 367
#     4   9  19  40  68  89 122 162 211 252 303 375
#     4  11  22  47  65  90 121 164 204 256 320 367
#
# _framework density 20.039904
#
# number of rings (size 3 to 8) (size 9 to 14) (size 15 to 20)
#    0.000    2.000    3.571    2.143    0.000    1.143 
#   14.143    2.143    0.000    0.000    0.000    0.000 
#    0.000    0.000    0.000    0.000    0.000    0.000 
#
# Total GULP energy -155869.018849 kJ/mol
# GULP energy per Si atom -5566.750673 kJ/mol
# Density = 1.999429 g / cm^3
# Si number density = 20.039904 Si / 1000 Ang^3
#
#
#
# Elastic Constant Matrix: (Units=GPa)
#
#
# Indices 1 2 3 4 5 6 
#
# 1 158.3447 59.8444 39.1166 0.0000 6.4923 0.0000
# 2 59.8444 73.0417 4.3622 0.0000 -1.9956 0.0000
# 3 39.1166 4.3622 61.0670 0.0000 10.9009 0.0000
# 4 0.0000 0.0000 0.0000 1.7201 0.0000 -1.2873
# 5 6.4923 -1.9956 10.9009 0.0000 44.2179 0.0000
# 6 0.0000 0.0000 0.0000 -1.2873 0.0000 25.0689
#
#
#
# Elastic Compliance Matrix: (Units=1/GPa)
#
#
# Indices 1 2 3 4 5 6 
#
# 1 0.011303 -0.008884 -0.006525 0.000000 -0.000452 0.000000
# 2 -0.008884 0.020766 0.003982 0.000000 0.001260 0.000000
# 3 -0.006525 0.003982 0.020991 0.000000 -0.004037 0.000000
# 4 0.000000 0.000000 0.000000 0.604594 0.000000 0.031045
# 5 -0.000452 0.001260 -0.004037 0.000000 0.023734 0.000000
# 6 0.000000 0.000000 0.000000 0.031045 0.000000 0.041484
#
#
# Mechanical properties :
#
#
# Convention : Reuss Voigt Hill
#
# Bulk Modulus (GPa) = 33.10446 55.45554 44.28000
# Shear Modulus (GPa) = 6.61555 26.81007 16.71281
#
# Velocity S-wave (km/s) = 1.81889 3.66161 2.89100
# Velocity P-wave (km/s) = 4.57889 6.75345 5.76955
#
# Compressibility (1/GPa) = 0.03020741
#
# Stress axis : x y z
#
# Youngs Moduli (GPa) = 88.47040 48.15587 47.63882
#
# Poissons Ratio (x) = 0.42780 0.31085
# Poissons Ratio (y) = 0.78593 -0.18970
# Poissons Ratio (z) = 0.57727 -0.19176
#
# Static dielectric constant tensor:
#      x y z
#    x 1.740350 0.000000 -0.008200 
#    y 0.000000 1.732880 0.000000 
#    z -0.008200 0.000000 1.747240 
# 
# From -- ./inp_files/227673.got.cif
#   From: 2010.05.17/outbox.cif.g08.bks.cpg/sg12_114_cif.got.tgz:227673.got - 2010.06.03 13:09:07.
