data_PCOD9221649
_publ_section_title
;
Structure prediction by ZEFSAII (Michael W. Deem and Ramdas Pophale) SiO2 
 PCOD9221649
Probable space group: C 2/M
;
_chemical_formula_sum "Si O2"
_cell_formula_units_Z 32
_cell_length_a 19.749154
_cell_length_b 11.118628
_cell_length_c 18.989052
_cell_angle_alpha 90.000000
_cell_angle_beta 21.439960
_cell_angle_gamma 90.000000
_cell_volume 1524.127530
_symmetry_space_group_name_H-M "C 2/M"
_symmetry_group_IT_number 12
_symmetry_cell_setting 'monoclinic'
loop_
_space_group_symop_operation_xyz
x,y,z
-x,y,-z
-x,-y,-z
x,-y,z
1/2+x,1/2+y,z
1/2-x,1/2+y,-z
1/2-x,1/2-y,-z
1/2+x,1/2-y,z
loop_
_atom_site_type_symbol
_atom_site_label
_atom_site_fract_x
_atom_site_fract_y
_atom_site_fract_z
Si Si1 0.267948 0.636621 0.301068
Si Si2 0.065359 0.757421 0.724960
Si Si3 0.330285 0.138754 0.761255
Si Si4 0.726669 0.371000 0.085823
O O1 0.331879 0.500000 0.249801
O O2 0.377027 0.717200 0.250702
O O3 0.273415 0.661110 0.212651
O O4 0.050528 0.641047 0.532227
O O5 0.250000 0.750000 0.500000
O O6 0.933808 0.857873 0.817015
O O7 0.930038 0.642347 0.854621
O O8 0.292474 0.252224 0.847631
O O9 0.288880 0.000000 0.824079
O O10 0.708979 0.500000 0.139161
#
# Coordination Sequence:
#
# PCOD9221649 Si02
#       4
#     8   8   8   8
#     4   9  18  37  66  92 118 164 218 261 305 365
#     4  11  23  42  63  89 127 172 211 253 314 378
#     4   9  19  39  66  94 123 159 212 265 309 370
#     4  11  25  41  63  98 131 162 207 263 318 376
#
# _framework density 20.995618
#
# number of rings (size 3 to 8) (size 9 to 14) (size 15 to 20)
#    0.000    2.000    2.500    2.250    0.000    8.000 
#    0.000    7.500    0.000    0.000    0.000    0.000 
#    0.000    0.000    0.000    0.000    0.000    0.000 
#
# Total GULP energy -89286.204942 kJ/mol
# GULP energy per Si atom -5580.387809 kJ/mol
# Density = 2.094783 g / cm^3
# Si number density = 20.995618 Si / 1000 Ang^3
#
#
#
# Elastic Constant Matrix: (Units=GPa)
#
#
# Indices 1 2 3 4 5 6 
#
# 1 119.6063 62.6922 35.5081 -0.0020 -19.4319 0.0003
# 2 62.6922 145.8528 35.3708 -0.0063 9.3592 0.0020
# 3 35.5081 35.3708 91.9637 -0.0059 -18.9762 0.0022
# 4 -0.0020 -0.0063 -0.0059 13.1614 0.0019 10.7155
# 5 -19.4319 9.3592 -18.9762 0.0019 38.0722 -0.0004
# 6 0.0003 0.0020 0.0022 10.7155 -0.0004 21.9435
#
#
#
# Elastic Compliance Matrix: (Units=1/GPa)
#
#
# Indices 1 2 3 4 5 6 
#
# 1 0.012938 -0.005727 -0.001271 -0.000005 0.007378 0.000003
# 2 -0.005727 0.010591 -0.003347 0.000007 -0.007195 -0.000004
# 3 -0.001271 -0.003347 0.014142 0.000007 0.007223 -0.000004
# 4 -0.000005 0.000007 0.000007 0.126123 -0.000008 -0.061589
# 5 0.007378 -0.007195 0.007223 -0.000008 0.035400 0.000004
# 6 0.000003 -0.000004 -0.000004 -0.061589 0.000004 0.075647
#
#
# Mechanical properties :
#
#
# Convention : Reuss Voigt Hill
#
# Bulk Modulus (GPa) = 58.88184 69.39610 64.13897
# Shear Modulus (GPa) = 16.60076 29.55887 23.07981
#
# Velocity S-wave (km/s) = 2.81495 3.75622 3.31912
# Velocity P-wave (km/s) = 6.21860 7.20671 6.73081
#
# Compressibility (1/GPa) = 0.01698317
#
# Stress axis : x y z
#
# Youngs Moduli (GPa) = 77.29003 94.41948 70.71027
#
# Poissons Ratio (x) = 0.54070 0.08985
# Poissons Ratio (y) = 0.44261 0.23667
# Poissons Ratio (z) = 0.09821 0.31602
#
# Static dielectric constant tensor:
#      x y z
#    x 1.783140 0.000000 0.027040 
#    y 0.000000 1.732180 0.000000 
#    z 0.027040 0.000000 1.830730 
# 
# From -- ./inp_files/321127.got.cif
#   From: 2010.05.17/outbox.cif.g08.bks.cpg/sg12_161_cif.got.tgz:321127.got - 2010.06.03 13:09:07.
