data_PCOD9221823
_publ_section_title
;
Structure prediction by ZEFSAII (Michael W. Deem and Ramdas Pophale) SiO2 
 PCOD9221823
Probable space group: C 2/M
;
_chemical_formula_sum "Si O2"
_cell_formula_units_Z 32
_cell_length_a 9.262164
_cell_length_b 19.089817
_cell_length_c 15.736585
_cell_angle_alpha 90.000000
_cell_angle_beta 35.960313
_cell_angle_gamma 90.000000
_cell_volume 1633.913499
_symmetry_space_group_name_H-M "C 2/M"
_symmetry_group_IT_number 12
_symmetry_cell_setting 'monoclinic'
loop_
_space_group_symop_operation_xyz
x,y,z
-x,y,-z
-x,-y,-z
x,-y,z
1/2+x,1/2+y,z
1/2-x,1/2+y,-z
1/2-x,1/2-y,-z
1/2+x,1/2-y,z
loop_
_atom_site_type_symbol
_atom_site_label
_atom_site_fract_x
_atom_site_fract_y
_atom_site_fract_z
Si Si1 0.236486 0.614983 0.166017
Si Si2 0.234479 0.127893 0.652736
Si Si3 0.873770 0.500000 0.284040
Si Si4 0.269432 0.729037 0.892353
Si Si5 0.597109 0.500000 0.596609
O O1 0.236567 0.597868 0.265714
O O2 0.199132 0.698374 0.174013
O O3 0.039520 0.569379 0.209258
O O4 0.500000 0.599237 0.000000
O O5 0.500000 0.159509 0.500000
O O6 0.003928 0.180518 0.764907
O O7 0.173041 0.067167 0.615171
O O8 0.731122 0.500000 0.441912
O O9 0.688992 0.500000 0.293251
O O10 0.250000 0.750000 0.000000
O O11 0.000000 0.697573 0.000000
#
# Coordination Sequence:
#
# PCOD9221823 Si02
#       5
#     8   8   4   8   4
#     4  11  23  44  70  96 135 180 216 274 339 396
#     4  12  24  45  71  99 133 181 223 271 338 397
#     4  11  24  45  64 103 132 172 226 277 335 392
#     4  11  24  46  68 100 138 175 219 278 332 395
#     4  11  26  42  68  96 139 170 220 290 325 395
#
# _framework density 19.584879000000001
#
# number of rings (size 3 to 8) (size 9 to 14) (size 15 to 20)
#    0.000    0.750    7.500    1.500    3.500    1.000 
#    4.500    1.875    0.000    0.000    0.000    0.000 
#    0.000    0.000    0.000    0.000    0.000    0.000 
#
# Total GULP energy -89399.972142 kJ/mol
# GULP energy per Si atom -5587.498259 kJ/mol
# Density = 1.954030 g / cm^3
# Si number density = 19.584879 Si / 1000 Ang^3
#
#
#
# Elastic Constant Matrix: (Units=GPa)
#
#
# Indices 1 2 3 4 5 6 
#
# 1 120.8007 29.6353 50.9209 0.0042 -20.2816 0.0014
# 2 29.6353 75.0731 39.4141 0.0015 -26.8226 0.0000
# 3 50.9209 39.4141 130.9892 0.0135 -26.6002 0.0125
# 4 0.0042 0.0015 0.0135 -42.8468 -0.0030 -34.8534
# 5 -20.2816 -26.8226 -26.6002 -0.0030 52.5349 -0.0050
# 6 0.0014 0.0000 0.0125 -34.8534 -0.0050 14.7720
#
#
#
# Elastic Compliance Matrix: (Units=1/GPa)
#
#
# Indices 1 2 3 4 5 6 
#
# 1 0.010311 -0.001915 -0.003146 -0.000001 0.001410 0.000001
# 2 -0.001915 0.018309 -0.003362 -0.000002 0.006906 0.000001
# 3 -0.003146 -0.003362 0.010336 0.000003 0.002303 0.000000
# 4 -0.000001 -0.000002 0.000003 -0.007995 -0.000002 -0.018863
# 5 0.001410 0.006906 0.002303 -0.000002 0.024271 0.000002
# 6 0.000001 0.000001 0.000000 -0.018863 0.000002 0.023189
#
#
# Mechanical properties :
#
#
# Convention : Reuss Voigt Hill
#
# Bulk Modulus (GPa) = 45.22741 62.97817 54.10279
# Shear Modulus (GPa) = 48.71524 18.68488 33.70006
#
# Velocity S-wave (km/s) = 4.99278 3.09212 4.15265
# Velocity P-wave (km/s) = 7.50869 6.70631 7.11881
#
# Compressibility (1/GPa) = 0.02211048
#
# Stress axis : x y z
#
# Youngs Moduli (GPa) = 96.98785 54.61801 96.74620
#
# Poissons Ratio (x) = 0.10458 0.30433
# Poissons Ratio (y) = 0.18571 0.32528
# Poissons Ratio (z) = 0.30509 0.18364
#
# Static dielectric constant tensor:
#      x y z
#    x 1.703570 0.000000 -0.018400 
#    y 0.000000 1.679070 0.000000 
#    z -0.018400 0.000000 1.685310 
# 
# From -- ./inp_files/37616.got.cif
#   From: 2010.05.17/outbox.cif.g08.bks.cpg/sg12_19_cif.got.tgz:37616.got - 2010.06.03 13:09:07.
