data_PCOD9221345
_publ_section_title
;
Structure prediction by ZEFSAII (Michael W. Deem and Ramdas Pophale) SiO2 
 PCOD9221345
Probable space group: C 2/M
;
_chemical_formula_sum "Si O2"
_cell_formula_units_Z 40
_cell_length_a 9.063403
_cell_length_b 18.594029
_cell_length_c 18.162700
_cell_angle_alpha 90.000000
_cell_angle_beta 141.352546
_cell_angle_gamma 90.000000
_cell_volume 1911.596326
_symmetry_space_group_name_H-M "C 2/M"
_symmetry_group_IT_number 12
_symmetry_cell_setting 'monoclinic'
loop_
_space_group_symop_operation_xyz
x,y,z
-x,y,-z
-x,-y,-z
x,-y,z
1/2+x,1/2+y,z
1/2-x,1/2+y,-z
1/2-x,1/2-y,-z
1/2+x,1/2-y,z
loop_
_atom_site_type_symbol
_atom_site_label
_atom_site_fract_x
_atom_site_fract_y
_atom_site_fract_z
Si Si1 0.896464 0.000000 0.724958
Si Si2 0.211286 0.221960 0.749367
Si Si3 0.922629 0.500000 0.887241
Si Si4 0.819595 0.000000 0.860724
Si Si5 0.765497 0.338776 0.362396
Si Si6 0.576287 0.876771 0.841515
Si Si7 0.000000 0.229493 0.000000
O O1 0.766721 0.075287 0.658523
O O2 0.946018 0.000000 0.832035
O O3 0.139865 0.000000 0.774794
O O4 0.208947 0.297973 0.706126
O O5 0.337019 0.168378 0.740344
O O6 0.386343 0.227241 0.888191
O O7 0.963941 0.193026 0.684090
O O8 0.025673 0.430846 0.887658
O O9 0.000000 0.500000 0.000000
O O10 0.660292 0.928829 0.808668
O O11 0.000000 0.000000 0.000000
O O12 0.000000 0.323305 0.500000
O O13 0.787755 0.822522 0.941945
#
# Coordination Sequence:
#
# PCOD9221345 Si02
#       7
#     4   8   4   4   8   8   4
#     4  12  25  46  72 101 138 182 236 290 340 413
#     4  12  26  44  73 103 143 178 232 292 350 418
#     4  11  25  35  66 101 143 182 225 284 354 416
#     4  11  23  38  65  97 145 182 218 272 357 424
#     4  12  28  50  73 100 138 191 241 286 340 411
#     4  11  23  40  61 101 144 178 221 277 346 428
#     4  12  24  39  70 105 142 180 222 284 366 413
#
# _framework density 20.924918000000002
#
# number of rings (size 3 to 8) (size 9 to 14) (size 15 to 20)
#    0.000    0.400    5.000    3.900    4.200    0.000 
#    0.000    0.000    0.000    1.200    0.000    0.000 
#    0.000    0.000    0.000    0.000    0.000    0.000 
#
# Total GULP energy -111816.897853 kJ/mol
# GULP energy per Si atom -5590.844893 kJ/mol
# Density = 2.087729 g / cm^3
# Si number density = 20.924918 Si / 1000 Ang^3
#
#
#
# Elastic Constant Matrix: (Units=GPa)
#
#
# Indices 1 2 3 4 5 6 
#
# 1 124.4782 52.1858 36.1252 0.0002 22.7802 -0.0002
# 2 52.1858 127.5706 19.1420 0.0001 14.9569 0.0000
# 3 36.1252 19.1420 70.6423 0.0010 18.0768 -0.0002
# 4 0.0002 0.0001 0.0010 12.7376 0.0003 17.1864
# 5 22.7802 14.9569 18.0768 0.0003 26.1959 -0.0002
# 6 -0.0002 0.0000 -0.0002 17.1864 -0.0002 41.4635
#
#
#
# Elastic Compliance Matrix: (Units=1/GPa)
#
#
# Indices 1 2 3 4 5 6 
#
# 1 0.011568 -0.003547 -0.003520 0.000001 -0.005605 0.000000
# 2 -0.003547 0.009584 -0.000209 0.000000 -0.002244 0.000000
# 3 -0.003520 -0.000209 0.018458 -0.000003 -0.009557 0.000001
# 4 0.000001 0.000000 -0.000003 0.178129 -0.000001 -0.073833
# 5 -0.005605 -0.002244 -0.009557 -0.000001 0.050924 0.000000
# 6 0.000000 0.000000 0.000001 -0.073833 0.000000 0.054721
#
#
# Mechanical properties :
#
#
# Convention : Reuss Voigt Hill
#
# Bulk Modulus (GPa) = 39.90744 59.73301 49.82022
# Shear Modulus (GPa) = 14.43880 30.42858 22.43369
#
# Velocity S-wave (km/s) = 2.62969 3.81751 3.27785
# Velocity P-wave (km/s) = 5.32292 6.93105 6.17952
#
# Compressibility (1/GPa) = 0.02505799
#
# Stress axis : x y z
#
# Youngs Moduli (GPa) = 86.44651 104.33947 54.17658
#
# Poissons Ratio (x) = 0.37006 0.19071
# Poissons Ratio (y) = 0.30660 0.01133
# Poissons Ratio (z) = 0.30431 0.02183
#
# Static dielectric constant tensor:
#      x y z
#    x 1.779380 0.000000 0.004600 
#    y 0.000000 1.800090 0.000000 
#    z 0.004600 0.000000 1.716230 
# 
# From -- ./inp_files/258356.got.cif
#   From: 2010.05.17/outbox.cif.g08.bks.cpg/sg12_130_cif.got.tgz:258356.got - 2010.06.03 13:09:07.
