data_PCOD9221710
_publ_section_title
;
Structure prediction by ZEFSAII (Michael W. Deem and Ramdas Pophale) SiO2 
 PCOD9221710
Probable space group: C 2/M
;
_chemical_formula_sum "Si O2"
_cell_formula_units_Z 32
_cell_length_a 10.970423
_cell_length_b 16.104728
_cell_length_c 14.617542
_cell_angle_alpha 90.000000
_cell_angle_beta 29.714431
_cell_angle_gamma 90.000000
_cell_volume 1280.118770
_symmetry_space_group_name_H-M "C 2/M"
_symmetry_group_IT_number 12
_symmetry_cell_setting 'monoclinic'
loop_
_space_group_symop_operation_xyz
x,y,z
-x,y,-z
-x,-y,-z
x,-y,z
1/2+x,1/2+y,z
1/2-x,1/2+y,-z
1/2-x,1/2-y,-z
1/2+x,1/2-y,z
loop_
_atom_site_type_symbol
_atom_site_label
_atom_site_fract_x
_atom_site_fract_y
_atom_site_fract_z
Si Si1 0.185146 0.095627 0.588482
Si Si2 0.223689 0.333881 0.791712
Si Si3 0.543343 0.648888 0.872585
Si Si4 0.525732 0.096703 0.208542
O O1 0.436021 0.112589 0.370356
O O2 0.975660 0.152976 0.680801
O O3 0.185629 0.106519 0.696868
O O4 0.120362 0.000000 0.609926
O O5 0.163509 0.237907 0.811578
O O6 0.198754 0.381413 0.712159
O O7 0.000000 0.367155 0.000000
O O8 0.500000 0.606197 0.000000
O O9 0.256750 0.652332 0.029018
O O10 0.590964 0.000000 0.155114
#
# Coordination Sequence:
#
# PCOD9221710 Si02
#       4
#     8   8   8   8
#     4  11  25  46  72 102 133 177 230 279 338 399
#     4  11  23  42  70 102 136 173 227 280 340 397
#     4  11  26  45  66  99 142 181 223 274 337 405
#     4  11  24  44  71 101 135 178 228 280 335 400
#
# _framework density 24.997679000000002
#
# number of rings (size 3 to 8) (size 9 to 14) (size 15 to 20)
#    0.000    1.000    2.500    3.000    3.500    7.000 
#    9.000    2.500    0.000    0.000    0.000    0.000 
#    0.000    0.000    0.000    0.000    0.000    0.000 
#
# Total GULP energy -89591.802937 kJ/mol
# GULP energy per Si atom -5599.487684 kJ/mol
# Density = 2.494078 g / cm^3
# Si number density = 24.997679 Si / 1000 Ang^3
#
#
#
# Elastic Constant Matrix: (Units=GPa)
#
#
# Indices 1 2 3 4 5 6 
#
# 1 95.7655 34.9634 19.9595 -1.0953 21.4247 1.0572
# 2 34.9634 128.0516 45.4832 -0.7630 -6.7620 0.7316
# 3 19.9595 45.4832 125.2589 -1.4003 27.6102 1.3383
# 4 -1.0953 -0.7630 -1.4003 -635.5609 0.6928 649.3372
# 5 21.4247 -6.7620 27.6102 0.6928 55.4943 -0.6688
# 6 1.0572 0.7316 1.3383 649.3372 -0.6688 -592.6730
#
#
#
# Elastic Compliance Matrix: (Units=1/GPa)
#
#
# Indices 1 2 3 4 5 6 
#
# 1 0.013138 -0.004159 0.000726 -0.000013 -0.005940 0.000013
# 2 -0.004159 0.010765 -0.004368 0.000004 0.005091 -0.000005
# 3 0.000726 -0.004368 0.010819 -0.000011 -0.006195 0.000015
# 4 -0.000013 0.000004 -0.000011 0.013183 0.000020 0.014443
# 5 -0.005940 0.005091 -0.006195 0.000020 0.024015 -0.000023
# 6 0.000013 -0.000005 0.000015 0.014443 -0.000023 0.014136
#
#
# Mechanical properties :
#
#
# Convention : Reuss Voigt Hill
#
# Bulk Modulus (GPa) = 52.30268 61.09867 56.70068
# Shear Modulus (GPa) = 46.28237 -217.96992 -85.84377
#
# Velocity S-wave (km/s) = 4.30754 -9.34801 -5.86645
# Velocity P-wave (km/s) = 6.76079 9.59265 4.81200
#
# Compressibility (1/GPa) = 0.01911948
#
# Stress axis : x y z
#
# Youngs Moduli (GPa) = 76.11649 92.89073 92.42721
#
# Poissons Ratio (x) = 0.38630 -0.06706
# Poissons Ratio (y) = 0.31654 0.40376
# Poissons Ratio (z) = -0.05523 0.40578
#
# Static dielectric constant tensor:
#      x y z
#    x 2.067770 -0.000020 0.006090 
#    y -0.000020 1.894950 0.000030 
#    z 0.006090 0.000030 1.991170 
# 
# From -- ./inp_files/96045.got.cif
#   From: 2010.05.17/outbox.cif.g08.bks.cpg/sg12_49_cif.got.tgz:96045.got - 2010.06.03 13:09:07.
