data_PCOD9221067
_publ_section_title
;
Structure prediction by ZEFSAII (Michael W. Deem and Ramdas Pophale) SiO2 
 PCOD9221067
Probable space group: C 2/M
;
_chemical_formula_sum "Si O2"
_cell_formula_units_Z 48
_cell_length_a 12.328251
_cell_length_b 13.379491
_cell_length_c 16.561608
_cell_angle_alpha 90.000000
_cell_angle_beta 47.069193
_cell_angle_gamma 90.000000
_cell_volume 2000.135936
_symmetry_space_group_name_H-M "C 2/M"
_symmetry_group_IT_number 12
_symmetry_cell_setting 'monoclinic'
loop_
_space_group_symop_operation_xyz
x,y,z
-x,y,-z
-x,-y,-z
x,-y,z
1/2+x,1/2+y,z
1/2-x,1/2+y,-z
1/2-x,1/2-y,-z
1/2+x,1/2-y,z
loop_
_atom_site_type_symbol
_atom_site_label
_atom_site_fract_x
_atom_site_fract_y
_atom_site_fract_z
Si Si1 0.341475 0.000000 0.963911
Si Si2 0.300186 0.616782 0.202959
Si Si3 0.668916 0.383339 0.492065
Si Si4 0.834536 0.500000 0.164990
Si Si5 0.125018 0.832244 0.072014
Si Si6 0.375674 0.682192 0.738755
Si Si7 0.329087 0.170495 0.568051
O O1 0.347327 0.000000 0.059900
O O2 0.236696 0.915197 0.985506
O O3 0.514768 0.000000 0.859742
O O4 0.288890 0.500000 0.182402
O O5 0.467113 0.660664 0.108270
O O6 0.184947 0.703794 0.233289
O O7 0.267098 0.617317 0.315586
O O8 0.657706 0.500000 0.471150
O O9 0.518095 0.345422 0.612687
O O10 0.701423 0.290883 0.415389
O O11 0.791132 0.372747 0.499847
O O12 0.748275 0.602283 0.225121
O O13 0.090903 0.841296 0.184601
O O14 0.250000 0.750000 0.000000
O O15 0.500000 0.154550 0.500000
#
# Coordination Sequence:
#
# PCOD9221067 Si02
#       7
#     4   8   8   4   8   8   8
#     4   9  18  36  60  93 112 168 218 261 328 382
#     4  12  25  44  69  98 138 184 223 269 341 409
#     4  11  23  43  70  98 135 174 222 283 334 392
#     4   9  18  34  66  91 124 158 224 274 322 380
#     4  11  23  42  68  94 133 175 225 277 332 396
#     4  11  22  41  67 101 130 177 225 278 329 397
#     4  11  24  43  66 102 131 176 229 265 339 406
#
# _framework density 23.998367999999999
#
# number of rings (size 3 to 8) (size 9 to 14) (size 15 to 20)
#    0.000    1.167    5.000    1.500    0.000    3.667 
#    3.000    0.833    0.000    0.000    0.000    0.000 
#    0.000    0.000    0.000    0.000    0.000    0.000 
#
# Total GULP energy -133872.579516 kJ/mol
# GULP energy per Si atom -5578.024146 kJ/mol
# Density = 2.394375 g / cm^3
# Si number density = 23.998368 Si / 1000 Ang^3
#
#
#
# Elastic Constant Matrix: (Units=GPa)
#
#
# Indices 1 2 3 4 5 6 
#
# 1 80.6945 12.3019 24.7326 0.0000 -28.7552 0.0000
# 2 12.3019 197.6047 30.4763 0.0000 -17.8691 0.0000
# 3 24.7326 30.4763 55.0359 0.0000 -8.4708 0.0000
# 4 0.0000 0.0000 0.0000 21.5978 0.0000 -8.3138
# 5 -28.7552 -17.8691 -8.4708 0.0000 44.8691 0.0000
# 6 0.0000 0.0000 0.0000 -8.3138 0.0000 28.5275
#
#
#
# Elastic Compliance Matrix: (Units=1/GPa)
#
#
# Indices 1 2 3 4 5 6 
#
# 1 0.018235 0.000922 -0.007055 0.000000 0.010722 0.000000
# 2 0.000922 0.005705 -0.003227 0.000000 0.002254 0.000000
# 3 -0.007055 -0.003227 0.022899 0.000000 -0.001483 0.000000
# 4 0.000000 0.000000 0.000000 0.052152 0.000000 0.015199
# 5 0.010722 0.002254 -0.001483 0.000000 0.029776 0.000000
# 6 0.000000 0.000000 0.000000 0.015199 0.000000 0.039483
#
#
# Mechanical properties :
#
#
# Convention : Reuss Voigt Hill
#
# Bulk Modulus (GPa) = 35.56226 52.03963 43.80095
# Shear Modulus (GPa) = 25.46592 36.72048 31.09320
#
# Velocity S-wave (km/s) = 3.26107 3.91592 3.60340
# Velocity P-wave (km/s) = 5.38797 6.49443 5.96690
#
# Compressibility (1/GPa) = 0.02811970
#
# Stress axis : x y z
#
# Youngs Moduli (GPa) = 54.84033 175.29624 43.67022
#
# Poissons Ratio (x) = -0.16170 0.30810
# Poissons Ratio (y) = -0.05059 0.14091
# Poissons Ratio (z) = 0.38691 0.56561
#
# Static dielectric constant tensor:
#      x y z
#    x -4.194040 0.000000 -0.338360 
#    y 0.000000 1.855130 0.000000 
#    z -0.338360 0.000000 1.840090 
# 
# From -- ./inp_files/310220.got.cif
#   From: 2010.05.17/outbox.cif.g08.bks.cpg/sg12_156_cif.got.tgz:310220.got - 2010.06.03 13:09:07.
