data_PCOD9221853
_publ_section_title
;
Structure prediction by ZEFSAII (Michael W. Deem and Ramdas Pophale) SiO2 
 PCOD9221853
Probable space group: C 2/M
;
_chemical_formula_sum "Si O2"
_cell_formula_units_Z 32
_cell_length_a 15.004608
_cell_length_b 12.950904
_cell_length_c 9.565833
_cell_angle_alpha 90.000000
_cell_angle_beta 125.359091
_cell_angle_gamma 90.000000
_cell_volume 1515.979871
_symmetry_space_group_name_H-M "C 2/M"
_symmetry_group_IT_number 12
_symmetry_cell_setting 'monoclinic'
loop_
_space_group_symop_operation_xyz
x,y,z
-x,y,-z
-x,-y,-z
x,-y,z
1/2+x,1/2+y,z
1/2-x,1/2+y,-z
1/2-x,1/2-y,-z
1/2+x,1/2-y,z
loop_
_atom_site_type_symbol
_atom_site_label
_atom_site_fract_x
_atom_site_fract_y
_atom_site_fract_z
Si Si1 0.000000 0.325022 0.000000
Si Si2 0.500000 0.174620 0.500000
Si Si3 0.884223 0.000000 0.808795
Si Si4 0.842590 0.500000 0.230584
Si Si5 0.520420 0.678246 0.271187
Si Si6 0.596470 0.500000 0.698393
Si Si7 0.664608 0.000000 0.115314
O O1 0.981267 0.253775 0.115122
O O2 0.101881 0.400379 0.114079
O O3 0.448198 0.250773 0.569117
O O4 0.410670 0.099856 0.346717
O O5 0.890414 0.101161 0.715268
O O6 0.778350 0.000000 0.811190
O O7 0.000000 0.000000 0.000000
O O8 0.839346 0.500000 0.058579
O O9 0.422667 0.602276 0.228724
O O10 0.500000 0.500000 0.500000
O O11 0.711085 0.500000 0.728763
#
# Coordination Sequence:
#
# PCOD9221853 Si02
#       7
#     4   4   4   4   8   4   4
#     4  11  24  45  68 102 128 173 228 271 332 390
#     4  11  24  45  68  98 134 175 222 271 340 386
#     4  11  24  43  66  99 133 171 227 274 323 395
#     4  11  24  44  70  97 133 177 219 276 331 396
#     4  11  23  45  66  97 139 172 220 273 329 397
#     4  11  25  46  66  98 134 176 220 270 330 394
#     4  11  25  43  70  97 136 171 224 276 328 394
#
# _framework density 21.108459
#
# number of rings (size 3 to 8) (size 9 to 14) (size 15 to 20)
#    0.000    1.000    5.000    1.500    0.000    4.000 
#    9.000    0.000    0.000    0.000    0.000    0.000 
#    0.000    0.000    0.000    0.000    0.000    0.000 
#
# Total GULP energy -89456.157092 kJ/mol
# GULP energy per Si atom -5591.009818 kJ/mol
# Density = 2.106042 g / cm^3
# Si number density = 21.108459 Si / 1000 Ang^3
#
#
#
# Elastic Constant Matrix: (Units=GPa)
#
#
# Indices 1 2 3 4 5 6 
#
# 1 100.5245 37.0829 14.9576 0.0000 21.6937 0.0000
# 2 37.0829 147.3515 33.1783 0.0000 -3.6743 0.0000
# 3 14.9576 33.1783 76.2541 0.0000 -1.1799 0.0000
# 4 0.0000 0.0000 0.0000 129.5581 0.0000 -90.3743
# 5 21.6937 -3.6743 -1.1799 0.0000 34.7057 0.0000
# 6 0.0000 0.0000 0.0000 -90.3743 0.0000 90.9906
#
#
#
# Elastic Compliance Matrix: (Units=1/GPa)
#
#
# Indices 1 2 3 4 5 6 
#
# 1 0.013204 -0.003243 -0.001313 0.000000 -0.008642 0.000000
# 2 -0.003243 0.008336 -0.002948 0.000000 0.002809 0.000000
# 3 -0.001313 -0.002948 0.014670 0.000000 0.001007 0.000000
# 4 0.000000 0.000000 0.000000 0.025128 0.000000 0.024958
# 5 -0.008642 0.002809 0.001007 0.000000 0.034547 0.000000
# 6 0.000000 0.000000 0.000000 0.024958 0.000000 0.035779
#
#
# Mechanical properties :
#
#
# Convention : Reuss Voigt Hill
#
# Bulk Modulus (GPa) = 47.16147 54.95196 51.05672
# Shear Modulus (GPa) = 32.52256 66.97831 49.75044
#
# Velocity S-wave (km/s) = 3.92948 5.63910 4.86005
# Velocity P-wave (km/s) = 6.55581 8.27580 7.46551
#
# Compressibility (1/GPa) = 0.02120375
#
# Stress axis : x y z
#
# Youngs Moduli (GPa) = 75.73240 119.95631 68.16800
#
# Poissons Ratio (x) = 0.38901 0.08949
# Poissons Ratio (y) = 0.24560 0.20093
# Poissons Ratio (z) = 0.09942 0.35358
#
# Static dielectric constant tensor:
#      x y z
#    x 1.736820 0.000000 -0.028850 
#    y 0.000000 1.752320 0.000000 
#    z -0.028850 0.000000 1.789880 
# 
# From -- ./inp_files/58777.got.cif
#   From: 2010.05.17/outbox.cif.g08.bks.cpg/sg12_30_cif.got.tgz:58777.got - 2010.06.03 13:09:07.
