data_PCOD9221390
_publ_section_title
;
Structure prediction by ZEFSAII (Michael W. Deem and Ramdas Pophale) SiO2 
 PCOD9221390
Probable space group: C 2/M
;
_chemical_formula_sum "Si O2"
_cell_formula_units_Z 56
_cell_length_a 9.557115
_cell_length_b 20.636318
_cell_length_c 30.273991
_cell_angle_alpha 90.000000
_cell_angle_beta 28.970890
_cell_angle_gamma 90.000000
_cell_volume 2892.022240
_symmetry_space_group_name_H-M "C 2/M"
_symmetry_group_IT_number 12
_symmetry_cell_setting 'monoclinic'
loop_
_space_group_symop_operation_xyz
x,y,z
-x,y,-z
-x,-y,-z
x,-y,z
1/2+x,1/2+y,z
1/2-x,1/2+y,-z
1/2-x,1/2-y,-z
1/2+x,1/2-y,z
loop_
_atom_site_type_symbol
_atom_site_label
_atom_site_fract_x
_atom_site_fract_y
_atom_site_fract_z
Si Si1 0.419786 0.122283 0.908162
Si Si2 0.057603 0.423223 0.431237
Si Si3 0.029445 0.825135 0.279521
Si Si4 0.130345 0.500000 0.898921
Si Si5 0.834014 0.123481 0.115895
Si Si6 0.196393 0.707840 0.706557
Si Si7 0.507624 0.500000 0.119838
Si Si8 0.388573 0.682046 0.480442
O O1 0.658287 0.174164 0.829746
O O2 0.599484 0.064364 0.879505
O O3 0.289345 0.099721 0.897285
O O4 0.160964 0.144007 0.012011
O O5 0.037470 0.500000 0.427057
O O6 0.370657 0.393063 0.332452
O O7 0.000000 0.414828 0.500000
O O8 0.830972 0.377349 0.467834
O O9 0.089772 0.795258 0.310963
O O10 0.839491 0.780098 0.301093
O O11 0.413546 0.500000 0.850686
O O12 0.826602 0.500000 0.009666
O O13 0.611679 0.177131 0.194622
O O14 0.855142 0.064357 0.144129
O O15 0.338283 0.669271 0.626995
O O16 0.500000 0.688482 0.500000
O O17 0.250000 0.750000 0.500000
#
# Coordination Sequence:
#
# PCOD9221390 Si02
#       8
#     8   8   8   4   8   8   4   8
#     4   9  19  35  56  84 117 162 204 248 292 369
#     4  11  24  44  66  93 128 162 203 261 316 367
#     4  11  23  39  63  92 119 160 211 248 308 367
#     4   9  17  31  55  81 113 157 207 243 302 357
#     4   9  19  37  56  81 122 160 203 248 302 360
#     4  11  23  39  61  91 117 159 204 248 307 368
#     4   9  17  33  53  81 117 157 199 254 304 350
#     4  12  23  42  69  93 125 163 207 254 309 374
#
# _framework density 19.363613000000001
#
# number of rings (size 3 to 8) (size 9 to 14) (size 15 to 20)
#    0.000    1.714    2.857    1.714    1.000    3.714 
#    2.571    0.000    0.000    0.000    0.000    0.000 
#    0.000    0.000    0.000    0.000    0.000    0.000 
#
# Total GULP energy -156046.042474 kJ/mol
# GULP energy per Si atom -5573.072945 kJ/mol
# Density = 1.931954 g / cm^3
# Si number density = 19.363613 Si / 1000 Ang^3
#
#
#
# Elastic Constant Matrix: (Units=GPa)
#
#
# Indices 1 2 3 4 5 6 
#
# 1 105.5714 57.6836 31.9373 0.1133 2.6786 -0.0657
# 2 57.6836 102.2720 29.1798 0.0034 -3.7213 -0.0029
# 3 31.9373 29.1798 99.8634 0.0421 7.4161 -0.0945
# 4 0.1133 0.0034 0.0421 32.1785 -0.0973 -20.5160
# 5 2.6786 -3.7213 7.4161 -0.0973 23.2979 0.0581
# 6 -0.0657 -0.0029 -0.0945 -20.5160 0.0581 49.0439
#
#
#
# Elastic Compliance Matrix: (Units=1/GPa)
#
#
# Indices 1 2 3 4 5 6 
#
# 1 0.014302 -0.007511 -0.002221 -0.000058 -0.002137 -0.000007
# 2 -0.007511 0.014788 -0.002211 0.000038 0.003929 -0.000002
# 3 -0.002221 -0.002211 0.011653 -0.000005 -0.003807 0.000022
# 4 -0.000058 0.000038 -0.000005 0.042380 0.000147 0.017728
# 5 -0.002137 0.003929 -0.003807 0.000147 0.045008 -0.000002
# 6 -0.000007 -0.000002 0.000022 0.017728 -0.000002 0.027806
#
#
# Mechanical properties :
#
#
# Convention : Reuss Voigt Hill
#
# Bulk Modulus (GPa) = 59.31839 60.58979 59.95409
# Shear Modulus (GPa) = 26.96270 33.49779 30.23024
#
# Velocity S-wave (km/s) = 3.73559 4.16376 3.95547
# Velocity P-wave (km/s) = 7.02187 7.38067 7.20351
#
# Compressibility (1/GPa) = 0.01685818
#
# Stress axis : x y z
#
# Youngs Moduli (GPa) = 69.91896 67.62270 85.81812
#
# Poissons Ratio (x) = 0.50791 0.19056
# Poissons Ratio (y) = 0.52516 0.18972
# Poissons Ratio (z) = 0.15526 0.14950
#
# Static dielectric constant tensor:
#      x y z
#    x 1.704910 0.000000 -0.008510 
#    y 0.000000 1.655910 -0.000040 
#    z -0.008510 -0.000040 1.731790 
# 
# From -- ./inp_files/373150.got.cif
#   From: 2010.05.17/outbox.cif.g08.bks.cpg/sg12_187_cif.got.tgz:373150.got - 2010.06.03 13:09:07.
