data_PCOD9221174
_publ_section_title
;
Structure prediction by ZEFSAII (Michael W. Deem and Ramdas Pophale) SiO2 
 PCOD9221174
Probable space group: C 2/M
;
_chemical_formula_sum "Si O2"
_cell_formula_units_Z 32
_cell_length_a 13.307165
_cell_length_b 24.351179
_cell_length_c 8.653156
_cell_angle_alpha 90.000000
_cell_angle_beta 149.205481
_cell_angle_gamma 90.000000
_cell_volume 1435.544589
_symmetry_space_group_name_H-M "C 2/M"
_symmetry_group_IT_number 12
_symmetry_cell_setting 'monoclinic'
loop_
_space_group_symop_operation_xyz
x,y,z
-x,y,-z
-x,-y,-z
x,-y,z
1/2+x,1/2+y,z
1/2-x,1/2+y,-z
1/2-x,1/2-y,-z
1/2+x,1/2-y,z
loop_
_atom_site_type_symbol
_atom_site_label
_atom_site_fract_x
_atom_site_fract_y
_atom_site_fract_z
Si Si1 0.857283 0.000000 0.982155
Si Si2 0.817901 0.310036 0.639710
Si Si3 0.482631 0.606367 0.303867
Si Si4 0.975724 0.500000 0.701757
Si Si5 0.959440 0.613098 0.270494
O O1 0.974597 0.055641 0.173637
O O2 0.676839 0.000000 0.865874
O O3 0.735680 0.000000 0.662680
O O4 0.750000 0.250000 0.500000
O O5 0.644938 0.348378 0.479875
O O6 0.896591 0.339645 0.589961
O O7 0.000000 0.308055 0.000000
O O8 0.500000 0.582555 0.500000
O O9 0.264639 0.631795 0.021641
O O10 0.998592 0.562153 0.792595
O O11 0.000000 0.594436 0.500000
#
# Coordination Sequence:
#
# PCOD9221174 Si02
#       5
#     4   8   8   4   8
#     4   9  17  35  66 101 133 170 209 254 325 396
#     4  12  30  47  65  96 128 172 232 273 319 390
#     4  11  22  43  68  99 136 170 210 271 332 382
#     4   9  16  37  66 101 134 167 212 256 316 402
#     4  11  22  44  71  99 135 171 211 268 327 388
#
# _framework density 22.291191000000001
#
# number of rings (size 3 to 8) (size 9 to 14) (size 15 to 20)
#    0.000    1.250    7.500    0.375    3.500    3.000 
#    0.000    2.500    0.000    0.000    0.000    0.000 
#    0.000    0.000    0.000    0.000    0.000    0.000 
#
# Total GULP energy -89241.523166 kJ/mol
# GULP energy per Si atom -5577.595198 kJ/mol
# Density = 2.224046 g / cm^3
# Si number density = 22.291191 Si / 1000 Ang^3
#
#
#
# Elastic Constant Matrix: (Units=GPa)
#
#
# Indices 1 2 3 4 5 6 
#
# 1 77.4288 58.2695 37.0151 0.0000 18.1345 0.0000
# 2 58.2695 184.0986 50.6611 0.0000 38.0209 0.0000
# 3 37.0151 50.6611 119.0905 0.0000 29.2076 0.0000
# 4 0.0000 0.0000 0.0000 30.7418 0.0000 10.1284
# 5 18.1345 38.0209 29.2076 0.0000 26.5719 0.0000
# 6 0.0000 0.0000 0.0000 10.1284 0.0000 30.3872
#
#
#
# Elastic Compliance Matrix: (Units=1/GPa)
#
#
# Indices 1 2 3 4 5 6 
#
# 1 0.018370 -0.004362 -0.003163 0.000000 -0.002820 0.000000
# 2 -0.004362 0.008800 -0.000041 0.000000 -0.009570 0.000000
# 3 -0.003163 -0.000041 0.012121 0.000000 -0.011107 0.000000
# 4 0.000000 0.000000 0.000000 0.036542 0.000000 -0.012180
# 5 -0.002820 -0.009570 -0.011107 0.000000 0.065461 0.000000
# 6 0.000000 0.000000 0.000000 -0.012180 0.000000 0.036968
#
#
# Mechanical properties :
#
#
# Convention : Reuss Voigt Hill
#
# Bulk Modulus (GPa) = 41.38863 74.72325 58.05594
# Shear Modulus (GPa) = 24.82056 33.18499 29.00277
#
# Velocity S-wave (km/s) = 3.34049 3.86256 3.61097
# Velocity P-wave (km/s) = 5.78671 7.31346 6.59442
#
# Compressibility (1/GPa) = 0.02416123
#
# Stress axis : x y z
#
# Youngs Moduli (GPa) = 54.43741 113.63492 82.49894
#
# Poissons Ratio (x) = 0.49563 0.26091
# Poissons Ratio (y) = 0.23744 0.00336
# Poissons Ratio (z) = 0.17217 0.00463
#
# Static dielectric constant tensor:
#      x y z
#    x 1.889680 0.000000 -0.052850 
#    y 0.000000 1.821340 0.000000 
#    z -0.052850 0.000000 1.895690 
# 
# From -- ./inp_files/65671.got.cif
#   From: 2010.05.17/outbox.cif.g08.bks.cpg/sg12_33_cif.got.tgz:65671.got - 2010.06.03 13:09:07.
