data_PCOD9221169
_publ_section_title
;
Structure prediction by ZEFSAII (Michael W. Deem and Ramdas Pophale) SiO2 
 PCOD9221169
Probable space group: C 2/M
;
_chemical_formula_sum "Si O2"
_cell_formula_units_Z 56
_cell_length_a 16.603597
_cell_length_b 23.458259
_cell_length_c 7.897448
_cell_angle_alpha 90.000000
_cell_angle_beta 59.214580
_cell_angle_gamma 90.000000
_cell_volume 2642.551649
_symmetry_space_group_name_H-M "C 2/M"
_symmetry_group_IT_number 12
_symmetry_cell_setting 'monoclinic'
loop_
_space_group_symop_operation_xyz
x,y,z
-x,y,-z
-x,-y,-z
x,-y,z
1/2+x,1/2+y,z
1/2-x,1/2+y,-z
1/2-x,1/2-y,-z
1/2+x,1/2-y,z
loop_
_atom_site_type_symbol
_atom_site_label
_atom_site_fract_x
_atom_site_fract_y
_atom_site_fract_z
Si Si1 0.715496 0.608778 0.976786
Si Si2 0.168861 0.686628 0.701380
Si Si3 0.519311 0.649563 0.202365
Si Si4 0.297720 0.781915 0.715542
Si Si5 0.855657 0.935739 0.298273
Si Si6 0.208243 0.564022 0.762729
Si Si7 0.500000 0.266232 0.500000
Si Si8 0.500000 0.745042 0.000000
O O1 0.760702 0.670438 0.885386
O O2 0.703554 0.578378 0.807139
O O3 0.610333 0.616622 0.163837
O O4 0.767311 0.573527 0.066324
O O5 0.238254 0.723337 0.749713
O O6 0.206008 0.690947 0.469835
O O7 0.154143 0.621639 0.771696
O O8 0.068647 0.717479 0.816445
O O9 0.441834 0.607630 0.213781
O O10 0.468219 0.689285 0.391397
O O11 0.560981 0.698961 0.035887
O O12 0.406200 0.768237 0.644018
O O13 0.795741 0.932294 0.536004
O O14 0.891394 0.000000 0.245317
O O15 0.168596 0.500000 0.782028
#
# Coordination Sequence:
#
# PCOD9221169 Si02
#       8
#     8   8   8   8   8   8   4   4
#     4  12  23  40  65  94 132 174 219 269 328 389
#     4  11  22  43  67  94 134 174 219 273 333 398
#     4  12  22  39  58  94 136 168 214 266 322 405
#     4  11  23  39  66  98 132 174 215 277 340 390
#     4  11  23  42  64  91 133 182 220 262 319 390
#     4  11  26  43  64  94 129 177 230 271 320 388
#     4  12  26  38  61  98 133 168 216 274 336 396
#     4  12  22  38  66  96 128 166 214 268 334 388
#
# _framework density 21.191638000000001
#
# number of rings (size 3 to 8) (size 9 to 14) (size 15 to 20)
#    0.000    0.571    5.714    3.000    2.000    2.857 
#    0.000    2.143    0.000    0.000    0.000    2.500 
#    0.000    0.000    0.000    0.000    0.000    0.000 
#
# Total GULP energy -156211.700216 kJ/mol
# GULP energy per Si atom -5578.989293 kJ/mol
# Density = 2.114340 g / cm^3
# Si number density = 21.191638 Si / 1000 Ang^3
#
#
#
# Elastic Constant Matrix: (Units=GPa)
#
#
# Indices 1 2 3 4 5 6 
#
# 1 57.4640 39.3900 14.8765 0.0000 5.7906 0.0000
# 2 39.3900 155.7185 35.6997 0.0000 13.1402 0.0000
# 3 14.8765 35.6997 74.1638 0.0000 12.1137 0.0000
# 4 0.0000 0.0000 0.0000 27.0677 0.0000 8.5443
# 5 5.7906 13.1402 12.1137 0.0000 27.2316 0.0000
# 6 0.0000 0.0000 0.0000 8.5443 0.0000 12.1661
#
#
#
# Elastic Compliance Matrix: (Units=1/GPa)
#
#
# Indices 1 2 3 4 5 6 
#
# 1 0.021335 -0.004888 -0.001694 0.000000 -0.001424 0.000000
# 2 -0.004888 0.008450 -0.002794 0.000000 -0.001795 0.000000
# 3 -0.001694 -0.002794 0.016056 0.000000 -0.005434 0.000000
# 4 0.000000 0.000000 0.000000 0.047468 0.000000 -0.033337
# 5 -0.001424 -0.001795 -0.005434 0.000000 0.040309 0.000000
# 6 0.000000 0.000000 0.000000 -0.033337 0.000000 0.105608
#
#
# Mechanical properties :
#
#
# Convention : Reuss Voigt Hill
#
# Bulk Modulus (GPa) = 36.91515 51.91984 44.41750
# Shear Modulus (GPa) = 18.72605 26.45174 22.58890
#
# Velocity S-wave (km/s) = 2.97585 3.53684 3.26841
# Velocity P-wave (km/s) = 5.40972 6.42124 5.93706
#
# Compressibility (1/GPa) = 0.02708915
#
# Stress axis : x y z
#
# Youngs Moduli (GPa) = 46.87128 118.33762 62.28234
#
# Poissons Ratio (x) = 0.57847 0.10550
# Poissons Ratio (y) = 0.22912 0.17401
# Poissons Ratio (z) = 0.07939 0.33063
#
# Static dielectric constant tensor:
#      x y z
#    x 1.777400 0.000000 0.081790 
#    y 0.000000 1.750900 0.000000 
#    z 0.081790 0.000000 1.838270 
# 
# From -- ./inp_files/77408.got.cif
#   From: 2010.05.17/outbox.cif.g08.bks.cpg/sg12_39_cif.got.tgz:77408.got - 2010.06.03 13:09:07.
