data_PCOD9221685
_publ_section_title
;
Structure prediction by ZEFSAII (Michael W. Deem and Ramdas Pophale) SiO2 
 PCOD9221685
Probable space group: C 2/M
;
_chemical_formula_sum "Si O2"
_cell_formula_units_Z 48
_cell_length_a 18.123246
_cell_length_b 14.418294
_cell_length_c 14.631763
_cell_angle_alpha 90.000000
_cell_angle_beta 140.443387
_cell_angle_gamma 90.000000
_cell_volume 2434.877324
_symmetry_space_group_name_H-M "C 2/M"
_symmetry_group_IT_number 12
_symmetry_cell_setting 'monoclinic'
loop_
_space_group_symop_operation_xyz
x,y,z
-x,y,-z
-x,-y,-z
x,-y,z
1/2+x,1/2+y,z
1/2-x,1/2+y,-z
1/2-x,1/2-y,-z
1/2+x,1/2-y,z
loop_
_atom_site_type_symbol
_atom_site_label
_atom_site_fract_x
_atom_site_fract_y
_atom_site_fract_z
Si Si1 0.005354 0.500000 0.652977
Si Si2 0.639772 0.316510 0.391798
Si Si3 0.695763 0.000000 0.675631
Si Si4 0.376147 0.335779 0.838187
Si Si5 0.219593 0.698558 0.113573
Si Si6 0.577649 0.196004 0.794138
Si Si7 0.106900 0.000000 0.470628
Si Si8 0.162121 0.000000 0.738551
O O1 0.097256 0.500000 0.657949
O O2 0.033780 0.592676 0.734697
O O3 0.875835 0.500000 0.487839
O O4 0.750000 0.250000 0.500000
O O5 0.613256 0.334250 0.260381
O O6 0.529573 0.263032 0.326181
O O7 0.653005 0.410073 0.461688
O O8 0.777992 0.088368 0.764461
O O9 0.333678 0.239824 0.844201
O O10 0.500000 0.360429 0.000000
O O11 0.320158 0.768353 0.174446
O O12 0.270774 0.594807 0.171279
O O13 0.124671 0.702055 0.942375
O O14 0.143890 0.000000 0.611741
O O15 0.965572 0.000000 0.336807
#
# Coordination Sequence:
#
# PCOD9221685 Si02
#       8
#     4   8   4   8   8   8   4   4
#     4  11  23  42  67  99 134 171 231 286 333 398
#     4  12  25  44  69 100 142 180 220 280 339 406
#     4  11  24  41  64 101 130 180 223 279 340 397
#     4  12  24  45  67  99 139 174 227 275 342 405
#     4  11  23  44  70 100 131 178 229 278 337 402
#     4  11  23  43  68  98 138 176 225 280 337 404
#     4  11  25  45  66 105 134 183 229 268 340 399
#     4  11  23  44  73  99 133 173 233 280 322 409
#
# _framework density 19.713519000000002
#
# number of rings (size 3 to 8) (size 9 to 14) (size 15 to 20)
#    0.000    0.667    5.000    3.250    0.000    0.667 
#    3.000    1.250    0.000    0.000    0.000    0.000 
#    0.000    0.000    0.000    0.000    0.000    0.000 
#
# Total GULP energy -134182.923393 kJ/mol
# GULP energy per Si atom -5590.955141 kJ/mol
# Density = 1.966865 g / cm^3
# Si number density = 19.713519 Si / 1000 Ang^3
#
#
#
# Elastic Constant Matrix: (Units=GPa)
#
#
# Indices 1 2 3 4 5 6 
#
# 1 58.1744 21.5206 21.5487 0.0000 -0.3387 0.0000
# 2 21.5206 141.3646 37.1197 0.0000 9.6566 0.0000
# 3 21.5487 37.1197 96.1324 0.0000 19.2281 0.0000
# 4 0.0000 0.0000 0.0000 30.8724 0.0000 7.5792
# 5 -0.3387 9.6566 19.2281 0.0000 36.4560 0.0000
# 6 0.0000 0.0000 0.0000 7.5792 0.0000 53.7652
#
#
#
# Elastic Compliance Matrix: (Units=1/GPa)
#
#
# Indices 1 2 3 4 5 6 
#
# 1 0.019516 -0.002079 -0.004157 0.000000 0.002924 0.000000
# 2 -0.002079 0.008103 -0.002493 0.000000 -0.000851 0.000000
# 3 -0.004157 -0.002493 0.013608 0.000000 -0.006556 0.000000
# 4 0.000000 0.000000 0.000000 0.033553 0.000000 -0.004730
# 5 0.002924 -0.000851 -0.006556 0.000000 0.031141 0.000000
# 6 0.000000 0.000000 0.000000 -0.004730 0.000000 0.019266
#
#
# Mechanical properties :
#
#
# Convention : Reuss Voigt Hill
#
# Bulk Modulus (GPa) = 42.07066 50.67214 46.37140
# Shear Modulus (GPa) = 33.20810 38.58421 35.89616
#
# Velocity S-wave (km/s) = 4.10876 4.42888 4.27182
# Velocity P-wave (km/s) = 6.62545 7.20509 6.92134
#
# Compressibility (1/GPa) = 0.02376953
#
# Stress axis : x y z
#
# Youngs Moduli (GPa) = 51.24113 123.41003 73.48770
#
# Poissons Ratio (x) = 0.25660 0.30546
# Poissons Ratio (y) = 0.10654 0.18317
# Poissons Ratio (z) = 0.21299 0.30760
#
# Static dielectric constant tensor:
#      x y z
#    x 1.702420 0.000000 0.003640 
#    y 0.000000 1.466010 0.000000 
#    z 0.003640 0.000000 1.647280 
# 
# From -- ./inp_files/232901.got.cif
#   From: 2010.05.17/outbox.cif.g08.bks.cpg/sg12_117_cif.got.tgz:232901.got - 2010.06.03 13:09:07.
