data_PCOD9221925
_publ_section_title
;
Structure prediction by ZEFSAII (Michael W. Deem and Ramdas Pophale) SiO2 
 PCOD9221925
Probable space group: C 2/M
;
_chemical_formula_sum "Si O2"
_cell_formula_units_Z 58
_cell_length_a 14.101838
_cell_length_b 28.129499
_cell_length_c 19.656173
_cell_angle_alpha 90.000000
_cell_angle_beta 21.996691
_cell_angle_gamma 90.000000
_cell_volume 2920.451624
_symmetry_space_group_name_H-M "C 2/M"
_symmetry_group_IT_number 12
_symmetry_cell_setting 'monoclinic'
loop_
_space_group_symop_operation_xyz
x,y,z
-x,y,-z
-x,-y,-z
x,-y,z
1/2+x,1/2+y,z
1/2-x,1/2+y,-z
1/2-x,1/2-y,-z
1/2+x,1/2-y,z
loop_
_atom_site_type_symbol
_atom_site_label
_atom_site_fract_x
_atom_site_fract_y
_atom_site_fract_z
Si Si1 0.265241 0.444029 0.363033
Si Si2 0.634156 0.328542 0.474121
Si Si3 0.973817 0.238834 0.213995
Si Si4 0.901860 0.913329 0.974218
Si Si5 0.782051 0.823402 0.219194
Si Si6 0.425927 0.104665 0.381244
Si Si7 0.500000 0.500000 0.000000
Si Si8 0.785332 0.774982 0.806365
O O1 0.306373 0.500000 0.331410
O O2 0.503160 0.418444 0.166963
O O3 0.222092 0.430476 0.470456
O O4 0.000000 0.432779 0.500000
O O5 0.500000 0.353308 0.500000
O O6 0.749942 0.364378 0.450332
O O7 0.422304 0.298125 0.652511
O O8 0.835272 0.289070 0.316064
O O9 0.039887 0.217839 0.244020
O O10 0.816702 0.204107 0.268367
O O11 0.250000 0.250000 0.000000
O O12 0.980736 0.859588 0.940775
O O13 0.051204 0.957271 0.909508
O O14 0.627148 0.918390 0.193357
O O15 0.560604 0.859676 0.345896
O O16 0.745510 0.780867 0.189778
O O17 0.500000 0.793978 0.000000
#
# Coordination Sequence:
#
# PCOD9221925 Si02
#       8
#     8   8   8   8   8   8   2   8
#     4  11  24  39  64 103 138 169 210 261 335 420
#     4  12  26  45  62  91 127 174 231 277 323 393
#     4  12  24  38  62  88 126 172 225 274 323 383
#     4  12  24  40  65  97 142 171 215 263 340 408
#     4  12  23  39  60  92 130 176 221 267 329 392
#     4  12  26  41  67  96 134 176 218 277 338 399
#     4  12  20  40  66 100 138 180 196 272 334 412
#     4  12  24  41  61  88 128 180 223 275 324 376
#
# _framework density 19.859942
#
# number of rings (size 3 to 8) (size 9 to 14) (size 15 to 20)
#    0.000    0.138    7.586    2.069    4.828    1.103 
#    0.000    0.000    0.000    0.414    0.000    0.966 
#    0.000    0.000    0.000    0.000    0.000    0.000 
#
# Total GULP energy -161503.517217 kJ/mol
# GULP energy per Si atom -5569.086801 kJ/mol
# Density = 1.981474 g / cm^3
# Si number density = 19.859942 Si / 1000 Ang^3
#
#
#
# Elastic Constant Matrix: (Units=GPa)
#
#
# Indices 1 2 3 4 5 6 
#
# 1 123.8790 28.5800 29.7045 0.0888 7.6636 -0.0874
# 2 28.5800 67.6127 37.0811 0.0394 15.4055 -0.0150
# 3 29.7045 37.0811 110.8970 0.1790 25.2871 -0.1979
# 4 0.0888 0.0394 0.1790 18.2787 -0.1035 15.8572
# 5 7.6636 15.4055 25.2871 -0.1035 30.3175 0.0936
# 6 -0.0874 -0.0150 -0.1979 15.8572 0.0936 31.0843
#
#
#
# Elastic Compliance Matrix: (Units=1/GPa)
#
#
# Indices 1 2 3 4 5 6 
#
# 1 0.009130 -0.003154 -0.001519 -0.000055 0.000561 0.000041
# 2 -0.003154 0.019870 -0.004543 -0.000008 -0.005511 -0.000008
# 3 -0.001519 -0.004543 0.012757 -0.000428 -0.007951 0.000317
# 4 -0.000055 -0.000008 -0.000428 0.098167 0.000864 -0.050084
# 5 0.000561 -0.005511 -0.007951 0.000864 0.042279 -0.000620
# 6 0.000041 -0.000008 0.000317 -0.050084 -0.000620 0.057724
#
#
# Mechanical properties :
#
#
# Convention : Reuss Voigt Hill
#
# Bulk Modulus (GPa) = 42.86984 54.79109 48.83047
# Shear Modulus (GPa) = 18.78758 29.73767 24.26262
#
# Velocity S-wave (km/s) = 3.07905 3.87378 3.49906
# Velocity P-wave (km/s) = 5.85438 6.90340 6.40041
#
# Compressibility (1/GPa) = 0.02332642
#
# Stress axis : x y z
#
# Youngs Moduli (GPa) = 109.53445 50.32630 78.38624
#
# Poissons Ratio (x) = 0.15873 0.11904
# Poissons Ratio (y) = 0.34548 0.35609
# Poissons Ratio (z) = 0.16634 0.22862
#
# Static dielectric constant tensor:
#      x y z
#    x 1.796410 -0.000020 0.050770 
#    y -0.000020 1.694270 0.000100 
#    z 0.050770 0.000100 1.801460 
# 
# From -- ./inp_files/312713.got.cif
#   From: 2010.05.17/outbox.cif.g08.bks.cpg/sg12_157_cif.got.tgz:312713.got - 2010.06.03 13:09:07.
