data_PCOD9221124
_publ_section_title
;
Structure prediction by ZEFSAII (Michael W. Deem and Ramdas Pophale) SiO2 
 PCOD9221124
Probable space group: C 2/M
;
_chemical_formula_sum "Si O2"
_cell_formula_units_Z 56
_cell_length_a 18.315017
_cell_length_b 16.966523
_cell_length_c 11.438718
_cell_angle_alpha 90.000000
_cell_angle_beta 51.560725
_cell_angle_gamma 90.000000
_cell_volume 2784.117954
_symmetry_space_group_name_H-M "C 2/M"
_symmetry_group_IT_number 12
_symmetry_cell_setting 'monoclinic'
loop_
_space_group_symop_operation_xyz
x,y,z
-x,y,-z
-x,-y,-z
x,-y,z
1/2+x,1/2+y,z
1/2-x,1/2+y,-z
1/2-x,1/2-y,-z
1/2+x,1/2-y,z
loop_
_atom_site_type_symbol
_atom_site_label
_atom_site_fract_x
_atom_site_fract_y
_atom_site_fract_z
Si Si1 0.852200 0.000000 0.698317
Si Si2 0.224766 0.171697 0.185725
Si Si3 0.977436 0.140514 0.150310
Si Si4 0.715085 0.728421 0.663636
Si Si5 0.607497 0.762714 0.132988
Si Si6 0.340751 0.913761 0.628564
Si Si7 0.474328 0.913509 0.713767
Si Si8 0.047065 0.000000 0.644353
O O1 0.799714 0.919950 0.785534
O O2 0.876213 0.000000 0.535429
O O3 0.949134 0.000000 0.672799
O O4 0.261091 0.199721 0.274660
O O5 0.136998 0.224301 0.228023
O O6 0.304696 0.195127 0.014380
O O7 0.891812 0.201592 0.228307
O O8 0.951029 0.075878 0.273420
O O9 0.068224 0.189450 0.099554
O O10 0.000000 0.106295 0.000000
O O11 0.750000 0.750000 0.500000
O O12 0.772323 0.654867 0.660318
O O13 0.531582 0.832117 0.212174
O O14 0.386882 0.907897 0.710898
O O15 0.430675 0.912762 0.454514
O O16 0.295095 0.000000 0.664007
O O17 0.468397 0.000000 0.778456
#
# Coordination Sequence:
#
# PCOD9221124 Si02
#       8
#     4   8   8   8   8   8   8   4
#     4  11  24  46  72  99 134 173 237 284 335 397
#     4  11  24  43  66  97 129 169 228 275 326 402
#     4  12  25  45  66  97 141 174 225 276 346 416
#     4  12  24  41  64  95 131 180 220 273 337 403
#     4  11  22  42  67  93 131 173 217 275 332 397
#     4   9  19  37  58  92 126 156 214 270 321 388
#     4   9  18  35  64  93 121 161 211 270 327 380
#     4  11  25  46  68 102 135 184 221 281 345 409
#
# _framework density 20.114090999999998
#
# number of rings (size 3 to 8) (size 9 to 14) (size 15 to 20)
#    0.000    1.286    4.286    2.786    2.000    0.000 
#    1.286    0.000    1.571    1.286    0.000    0.000 
#    0.000    0.000    0.000    0.000    0.000    0.000 
#
# Total GULP energy -156308.207277 kJ/mol
# GULP energy per Si atom -5582.435974 kJ/mol
# Density = 2.006831 g / cm^3
# Si number density = 20.114091 Si / 1000 Ang^3
#
#
#
# Elastic Constant Matrix: (Units=GPa)
#
#
# Indices 1 2 3 4 5 6 
#
# 1 60.8279 27.7681 17.0383 0.0000 2.0165 0.0000
# 2 27.7681 132.6603 18.9848 0.0000 2.7074 0.0000
# 3 17.0383 18.9848 64.7020 0.0000 15.1803 0.0000
# 4 0.0000 0.0000 0.0000 33.4301 0.0000 -0.8755
# 5 2.0165 2.7074 15.1803 0.0000 27.4684 0.0000
# 6 0.0000 0.0000 0.0000 -0.8755 0.0000 27.5061
#
#
#
# Elastic Compliance Matrix: (Units=1/GPa)
#
#
# Indices 1 2 3 4 5 6 
#
# 1 0.019177 -0.003417 -0.004362 0.000000 0.001339 0.000000
# 2 -0.003417 0.008485 -0.001669 0.000000 0.000337 0.000000
# 3 -0.004362 -0.001669 0.019510 0.000000 -0.010297 0.000000
# 4 0.000000 0.000000 0.000000 0.029938 0.000000 0.000953
# 5 0.001339 0.000337 -0.010297 0.000000 0.041965 0.000000
# 6 0.000000 0.000000 0.000000 0.000953 0.000000 0.036386
#
#
# Mechanical properties :
#
#
# Convention : Reuss Voigt Hill
#
# Bulk Modulus (GPa) = 35.36487 42.86361 39.11424
# Shear Modulus (GPa) = 27.20618 30.64085 28.92351
#
# Velocity S-wave (km/s) = 3.68175 3.90725 3.79617
# Velocity P-wave (km/s) = 5.97445 6.45848 6.22117
#
# Compressibility (1/GPa) = 0.02827665
#
# Stress axis : x y z
#
# Youngs Moduli (GPa) = 52.14548 117.85088 51.25671
#
# Poissons Ratio (x) = 0.40273 0.22356
# Poissons Ratio (y) = 0.17819 0.08554
# Poissons Ratio (z) = 0.22744 0.19668
#
# Static dielectric constant tensor:
#      x y z
#    x 1.727450 0.000000 0.006330 
#    y 0.000000 1.717060 0.000000 
#    z 0.006330 0.000000 1.709020 
# 
# From -- ./inp_files/156575.got.cif
#   From: 2010.05.17/outbox.cif.g08.bks.cpg/sg12_79_cif.got.tgz:156575.got - 2010.06.03 13:09:07.
