data_PCOD9221870
_publ_section_title
;
Structure prediction by ZEFSAII (Michael W. Deem and Ramdas Pophale) SiO2 
 PCOD9221870
Probable space group: C 2/M
;
_chemical_formula_sum "Si O2"
_cell_formula_units_Z 58
_cell_length_a 19.340292
_cell_length_b 16.808096
_cell_length_c 18.722267
_cell_angle_alpha 90.000000
_cell_angle_beta 152.480219
_cell_angle_gamma 90.000000
_cell_volume 2812.117653
_symmetry_space_group_name_H-M "C 2/M"
_symmetry_group_IT_number 12
_symmetry_cell_setting 'monoclinic'
loop_
_space_group_symop_operation_xyz
x,y,z
-x,y,-z
-x,-y,-z
x,-y,z
1/2+x,1/2+y,z
1/2-x,1/2+y,-z
1/2-x,1/2-y,-z
1/2+x,1/2-y,z
loop_
_atom_site_type_symbol
_atom_site_label
_atom_site_fract_x
_atom_site_fract_y
_atom_site_fract_z
Si Si1 0.381328 0.715176 0.570894
Si Si2 0.375968 0.850630 0.052912
Si Si3 0.621727 0.407077 0.055216
Si Si4 0.085844 0.303811 0.649814
Si Si5 0.689883 0.091782 0.308231
Si Si6 0.000000 0.000000 0.500000
Si Si7 0.099908 0.834718 0.893557
Si Si8 0.275846 0.630031 0.236340
O O1 0.250000 0.750000 0.500000
O O2 0.470431 0.782440 0.607998
O O3 0.308960 0.652124 0.450483
O O4 0.495815 0.671798 0.729089
O O5 0.533884 0.894042 0.205224
O O6 0.397254 0.754721 0.071172
O O7 0.261771 0.861212 0.013233
O O8 0.301715 0.878531 0.911112
O O9 0.644940 0.500000 0.089972
O O10 0.779532 0.361776 0.205228
O O11 0.500000 0.375448 0.000000
O O12 0.554144 0.392362 0.914848
O O13 0.162080 0.219165 0.701984
O O14 0.000000 0.331761 0.500000
O O15 0.668579 0.113494 0.205616
O O16 0.743018 0.000000 0.359333
O O17 0.909949 0.930827 0.372170
#
# Coordination Sequence:
#
# PCOD9221870 Si02
#       8
#     8   8   8   8   8   2   8   8
#     4  12  25  45  72 107 142 186 239 283 344 433
#     4  11  24  42  68 102 139 185 238 283 339 423
#     4  11  28  50  73 104 137 174 240 310 361 414
#     4  12  24  45  76 106 134 191 232 280 355 428
#     4  12  27  43  65 108 149 184 230 291 348 417
#     4  12  24  40  62 104 154 180 220 286 328 416
#     4  11  23  45  72  98 134 185 237 289 348 415
#     4  12  23  41  68  99 145 187 230 271 342 416
#
# _framework density 20.625025999999998
#
# number of rings (size 3 to 8) (size 9 to 14) (size 15 to 20)
#    0.000    0.414    6.897    1.241    4.828    1.931 
#    0.000    0.000    0.000    0.000    0.000    0.000 
#    0.000    0.000    0.000    0.000    0.000    0.000 
#
# Total GULP energy -161946.830826 kJ/mol
# GULP energy per Si atom -5584.373477 kJ/mol
# Density = 2.057808 g / cm^3
# Si number density = 20.625026 Si / 1000 Ang^3
#
#
#
# Elastic Constant Matrix: (Units=GPa)
#
#
# Indices 1 2 3 4 5 6 
#
# 1 114.9278 37.8401 38.4856 0.0010 10.9091 -0.0003
# 2 37.8401 65.6200 21.1615 0.0037 1.8181 0.0013
# 3 38.4856 21.1615 104.5862 0.0043 -16.0504 0.0020
# 4 0.0010 0.0037 0.0043 8.2423 0.0028 12.4426
# 5 10.9091 1.8181 -16.0504 0.0028 38.1542 0.0007
# 6 -0.0003 0.0013 0.0020 12.4426 0.0007 19.1410
#
#
#
# Elastic Compliance Matrix: (Units=1/GPa)
#
#
# Indices 1 2 3 4 5 6 
#
# 1 0.012466 -0.005690 -0.004214 0.000162 -0.005066 -0.000104
# 2 -0.005690 0.019093 -0.001774 -0.000278 -0.000029 0.000180
# 3 -0.004214 -0.001774 0.012474 -0.000269 0.006537 0.000173
# 4 0.000162 -0.000278 -0.000269 6.496930 -0.000535 -4.223338
# 5 -0.005066 -0.000029 0.006537 -0.000535 0.030409 0.000346
# 6 -0.000104 0.000180 0.000173 -4.223338 0.000346 2.797631
#
#
# Mechanical properties :
#
#
# Convention : Reuss Voigt Hill
#
# Bulk Modulus (GPa) = 48.35795 53.34538 50.85167
# Shear Modulus (GPa) = 0.53196 25.61727 13.07461
#
# Velocity S-wave (km/s) = 0.50841 3.52809 2.52051
# Velocity P-wave (km/s) = 4.88281 6.52052 5.76016
#
# Compressibility (1/GPa) = 0.02067912
#
# Stress axis : x y z
#
# Youngs Moduli (GPa) = 80.21668 52.37489 80.16587
#
# Poissons Ratio (x) = 0.29799 0.33778
# Poissons Ratio (y) = 0.45640 0.14222
# Poissons Ratio (z) = 0.33800 0.09292
#
# Static dielectric constant tensor:
#      x y z
#    x 1.821160 0.000000 0.082120 
#    y 0.000000 1.708070 0.000000 
#    z 0.082120 0.000000 1.815150 
# 
# From -- ./inp_files/278836.got.cif
#   From: 2010.05.17/outbox.cif.g08.bks.cpg/sg12_140_cif.got.tgz:278836.got - 2010.06.03 13:09:07.
