data_PCOD9221497
_publ_section_title
;
Structure prediction by ZEFSAII (Michael W. Deem and Ramdas Pophale) SiO2 
 PCOD9221497
Probable space group: C 2/M
;
_chemical_formula_sum "Si O2"
_cell_formula_units_Z 40
_cell_length_a 19.259252
_cell_length_b 9.030518
_cell_length_c 28.381346
_cell_angle_alpha 90.000000
_cell_angle_beta 156.024389
_cell_angle_gamma 90.000000
_cell_volume 2005.778233
_symmetry_space_group_name_H-M "C 2/M"
_symmetry_group_IT_number 12
_symmetry_cell_setting 'monoclinic'
loop_
_space_group_symop_operation_xyz
x,y,z
-x,y,-z
-x,-y,-z
x,-y,z
1/2+x,1/2+y,z
1/2-x,1/2+y,-z
1/2-x,1/2-y,-z
1/2+x,1/2-y,z
loop_
_atom_site_type_symbol
_atom_site_label
_atom_site_fract_x
_atom_site_fract_y
_atom_site_fract_z
Si Si1 0.354194 0.323375 0.522124
Si Si2 0.273687 0.676311 0.277214
Si Si3 0.178204 0.173587 0.908605
Si Si4 0.541771 0.328481 0.970912
Si Si5 0.769608 0.174632 0.651005
O O1 0.326915 0.500000 0.505431
O O2 0.250000 0.250000 0.500000
O O3 0.558373 0.296551 0.650357
O O4 0.294229 0.254632 0.435476
O O5 0.252947 0.500000 0.270018
O O6 0.299689 0.750300 0.344424
O O7 0.106247 0.746114 0.149870
O O8 0.975280 0.189822 0.780131
O O9 0.219250 0.000000 0.934813
O O10 0.250000 0.250000 0.000000
O O11 0.278487 0.251519 0.928466
O O12 0.547322 0.500000 0.959101
O O13 0.500000 0.321968 0.000000
O O14 0.727551 0.000000 0.623981
#
# Coordination Sequence:
#
# PCOD9221497 Si02
#       5
#     8   8   8   8   8
#     4  11  26  45  66  95 128 166 213 263 320 378
#     4  11  24  43  67  94 126 167 214 262 315 378
#     4  11  23  40  65  96 130 167 212 259 312 377
#     4  11  25  42  63  95 131 169 212 260 318 378
#     4  11  24  42  67  97 128 167 213 260 314 377
#
# _framework density 19.942384000000001
#
# number of rings (size 3 to 8) (size 9 to 14) (size 15 to 20)
#    0.000    1.000    2.000    3.600    2.800    9.600 
#    0.000    0.000    0.000    0.000    0.000    0.000 
#    0.000    0.000    0.000    0.000    0.000    0.000 
#
# Total GULP energy -111928.582489 kJ/mol
# GULP energy per Si atom -5596.429124 kJ/mol
# Density = 1.989699 g / cm^3
# Si number density = 19.942384 Si / 1000 Ang^3
#
#
#
# Elastic Constant Matrix: (Units=GPa)
#
#
# Indices 1 2 3 4 5 6 
#
# 1 119.0228 61.0696 23.9454 0.0000 20.5646 0.0001
# 2 61.0696 124.9821 40.4084 0.0001 24.4108 -0.0003
# 3 23.9454 40.4084 52.3035 0.0001 7.7391 -0.0004
# 4 0.0000 0.0001 0.0001 32.0427 0.0002 0.5754
# 5 20.5646 24.4108 7.7391 0.0002 33.4980 0.0000
# 6 0.0001 -0.0003 -0.0004 0.5754 0.0000 39.6536
#
#
#
# Elastic Compliance Matrix: (Units=1/GPa)
#
#
# Indices 1 2 3 4 5 6 
#
# 1 0.011611 -0.004584 -0.001257 0.000000 -0.003497 0.000000
# 2 -0.004584 0.013820 -0.007770 0.000000 -0.005462 0.000000
# 3 -0.001257 -0.007770 0.025621 0.000000 0.000514 0.000000
# 4 0.000000 0.000000 0.000000 0.031216 0.000000 -0.000453
# 5 -0.003497 -0.005462 0.000514 0.000000 0.035861 0.000000
# 6 0.000000 0.000000 0.000000 -0.000453 0.000000 0.025225
#
#
# Mechanical properties :
#
#
# Convention : Reuss Voigt Hill
#
# Bulk Modulus (GPa) = 41.96311 60.79503 51.37907
# Shear Modulus (GPa) = 28.00815 32.43119 30.21967
#
# Velocity S-wave (km/s) = 3.75167 4.03705 3.89697
# Velocity P-wave (km/s) = 6.31305 7.23062 6.78736
#
# Compressibility (1/GPa) = 0.02383045
#
# Stress axis : x y z
#
# Youngs Moduli (GPa) = 86.12655 72.35912 39.02989
#
# Poissons Ratio (x) = 0.33170 0.04905
# Poissons Ratio (y) = 0.39481 0.30327
# Poissons Ratio (z) = 0.10823 0.56224
#
# Static dielectric constant tensor:
#      x y z
#    x 1.701770 0.000000 0.021580 
#    y 0.000000 1.668240 0.000000 
#    z 0.021580 0.000000 1.686380 
# 
# From -- ./inp_files/288647.got.cif
#   From: 2010.05.17/outbox.cif.g08.bks.cpg/sg12_145_cif.got.tgz:288647.got - 2010.06.03 13:09:07.
