data_PCOD9221249
_publ_section_title
;
Structure prediction by ZEFSAII (Michael W. Deem and Ramdas Pophale) SiO2 
 PCOD9221249
Probable space group: C 2/M
;
_chemical_formula_sum "Si O2"
_cell_formula_units_Z 64
_cell_length_a 9.259864
_cell_length_b 27.437534
_cell_length_c 18.507924
_cell_angle_alpha 90.000000
_cell_angle_beta 39.996250
_cell_angle_gamma 90.000000
_cell_volume 3022.323938
_symmetry_space_group_name_H-M "C 2/M"
_symmetry_group_IT_number 12
_symmetry_cell_setting 'monoclinic'
loop_
_space_group_symop_operation_xyz
x,y,z
-x,y,-z
-x,-y,-z
x,-y,z
1/2+x,1/2+y,z
1/2-x,1/2+y,-z
1/2-x,1/2-y,-z
1/2+x,1/2-y,z
loop_
_atom_site_type_symbol
_atom_site_label
_atom_site_fract_x
_atom_site_fract_y
_atom_site_fract_z
Si Si1 0.099127 0.368912 0.882345
Si Si2 0.999962 0.055749 0.267882
Si Si3 0.436113 0.690084 0.654746
Si Si4 0.606344 0.588163 0.532961
Si Si5 0.757957 0.751834 0.912152
Si Si6 0.624019 0.113748 0.321022
Si Si7 0.720679 0.285551 0.675283
Si Si8 0.239399 0.360446 0.115688
O O1 0.273449 0.412985 0.825775
O O2 0.243995 0.326365 0.786467
O O3 0.905575 0.378168 0.897228
O O4 0.000000 0.360449 0.000000
O O5 0.941986 0.059125 0.375195
O O6 0.804813 0.081975 0.296266
O O7 0.025405 0.000000 0.235765
O O8 0.494444 0.641678 0.588196
O O9 0.652455 0.705979 0.618477
O O10 0.345219 0.735127 0.643758
O O11 0.500000 0.567834 0.500000
O O12 0.872687 0.594634 0.425932
O O13 0.794040 0.698181 0.864442
O O14 0.977711 0.782640 0.808144
O O15 0.500000 0.765691 0.000000
O O16 0.750000 0.750000 0.000000
O O17 0.647789 0.168329 0.343975
O O18 0.675117 0.115897 0.216218
O O19 0.500000 0.368331 0.000000
#
# Coordination Sequence:
#
# PCOD9221249 Si02
#       8
#     8   8   8   8   8   8   8   8
#     4  11  23  44  70 102 147 186 230 283 349 414
#     4  11  26  50  79 106 130 170 230 298 365 420
#     4  11  25  41  62  97 141 195 238 282 334 403
#     4  11  26  48  70 100 139 176 228 288 355 424
#     4  11  23  34  55  91 136 187 240 278 315 379
#     4  12  24  45  69  98 140 181 233 292 347 418
#     4  12  23  39  60  94 141 186 240 280 329 400
#     4  11  23  40  64  99 141 189 228 278 337 403
#
# _framework density 21.175757999999998
#
# number of rings (size 3 to 8) (size 9 to 14) (size 15 to 20)
#    0.000    0.750    3.750    5.625    3.500    2.000 
#    0.000    1.875    0.000    1.500    0.000    0.000 
#    0.000    0.000    0.000    0.000    0.000    0.000 
#
# Total GULP energy -178991.353466 kJ/mol
# GULP energy per Si atom -5593.479796 kJ/mol
# Density = 2.112756 g / cm^3
# Si number density = 21.175758 Si / 1000 Ang^3
#
#
#
# Elastic Constant Matrix: (Units=GPa)
#
#
# Indices 1 2 3 4 5 6 
#
# 1 168.7509 28.4861 46.6110 0.0000 -3.4895 0.0000
# 2 28.4861 88.9646 20.1930 0.0000 -9.7054 0.0000
# 3 46.6110 20.1930 81.9573 0.0000 -1.7076 0.0000
# 4 0.0000 0.0000 0.0000 -9.5603 0.0000 4.2908
# 5 -3.4895 -9.7054 -1.7076 0.0000 44.5790 0.0000
# 6 0.0000 0.0000 0.0000 4.2908 0.0000 14.4958
#
#
#
# Elastic Compliance Matrix: (Units=1/GPa)
#
#
# Indices 1 2 3 4 5 6 
#
# 1 0.007205 -0.001447 -0.003739 0.000000 0.000106 0.000000
# 2 -0.001447 0.012478 -0.002199 0.000000 0.002519 0.000000
# 3 -0.003739 -0.002199 0.014866 0.000000 -0.000202 0.000000
# 4 0.000000 0.000000 0.000000 -0.092332 0.000000 0.027331
# 5 0.000106 0.002519 -0.000202 0.000000 0.022981 0.000000
# 6 0.000000 0.000000 0.000000 0.027331 0.000000 0.060895
#
#
# Mechanical properties :
#
#
# Convention : Reuss Voigt Hill
#
# Bulk Modulus (GPa) = 50.55966 58.91700 54.73833
# Shear Modulus (GPa) = 105.36406 26.19510 65.77958
#
# Velocity S-wave (km/s) = 7.06151 3.52096 5.57952
# Velocity P-wave (km/s) = 9.50866 6.66429 8.21059
#
# Compressibility (1/GPa) = 0.01977862
#
# Stress axis : x y z
#
# Youngs Moduli (GPa) = 138.79114 80.14349 67.26977
#
# Poissons Ratio (x) = 0.11595 0.25152
# Poissons Ratio (y) = 0.20081 0.14792
# Poissons Ratio (z) = 0.51894 0.17623
#
# Static dielectric constant tensor:
#      x y z
#    x 1.762170 0.000000 0.005970 
#    y 0.000000 1.753440 0.000000 
#    z 0.005970 0.000000 1.777960 
# 
# From -- ./inp_files/260297.got.cif
#   From: 2010.05.17/outbox.cif.g08.bks.cpg/sg12_131_cif.got.tgz:260297.got - 2010.06.03 13:09:07.
