data_PCOD9221808
_publ_section_title
;
Structure prediction by ZEFSAII (Michael W. Deem and Ramdas Pophale) SiO2 
 PCOD9221808
Probable space group: C 2/M
;
_chemical_formula_sum "Si O2"
_cell_formula_units_Z 40
_cell_length_a 14.118083
_cell_length_b 17.364873
_cell_length_c 14.560392
_cell_angle_alpha 90.000000
_cell_angle_beta 150.575298
_cell_angle_gamma 90.000000
_cell_volume 1753.674103
_symmetry_space_group_name_H-M "C 2/M"
_symmetry_group_IT_number 12
_symmetry_cell_setting 'monoclinic'
loop_
_space_group_symop_operation_xyz
x,y,z
-x,y,-z
-x,-y,-z
x,-y,z
1/2+x,1/2+y,z
1/2-x,1/2+y,-z
1/2-x,1/2-y,-z
1/2+x,1/2-y,z
loop_
_atom_site_type_symbol
_atom_site_label
_atom_site_fract_x
_atom_site_fract_y
_atom_site_fract_z
Si Si1 0.961850 0.915985 0.858597
Si Si2 0.272153 0.769893 0.303195
Si Si3 0.392157 0.000000 0.006366
Si Si4 0.956007 0.000000 0.573461
Si Si5 0.797434 0.688985 0.118048
Si Si6 0.637397 0.128564 0.311815
O O1 0.809496 0.847733 0.720247
O O2 0.903604 0.000000 0.774344
O O3 0.162740 0.885304 0.989403
O O4 0.000000 0.922734 0.000000
O O5 0.500000 0.766925 0.500000
O O6 0.232286 0.775709 0.160483
O O7 0.189766 0.696278 0.285591
O O8 0.500000 0.000000 0.000000
O O9 0.478743 0.926384 0.131302
O O10 0.163651 0.000000 0.797083
O O11 0.824997 0.075063 0.486464
O O12 0.000000 0.000000 0.500000
O O13 0.022081 0.665925 0.300006
O O14 0.750000 0.750000 0.000000
#
# Coordination Sequence:
#
# PCOD9221808 Si02
#       6
#     8   8   4   4   8   8
#     4   9  20  42  67  93 131 183 234 280 340 413
#     4  11  25  44  69  98 138 185 231 296 351 413
#     4  11  25  42  73 101 138 194 224 279 370 420
#     4  11  23  44  67 105 138 182 227 288 351 422
#     4  11  24  42  69 101 134 181 240 285 350 420
#     4  11  25  44  69 103 144 182 236 289 346 428
#
# _framework density 22.809255
#
# number of rings (size 3 to 8) (size 9 to 14) (size 15 to 20)
#    0.000    1.400    4.000    0.600    5.600    1.200 
#    3.600    0.000    0.000    0.000    0.000    0.000 
#    0.000    0.000    0.000    0.000    0.000    0.000 
#
# Total GULP energy -111881.169705 kJ/mol
# GULP energy per Si atom -5594.058485 kJ/mol
# Density = 2.275734 g / cm^3
# Si number density = 22.809255 Si / 1000 Ang^3
#
#
#
# Elastic Constant Matrix: (Units=GPa)
#
#
# Indices 1 2 3 4 5 6 
#
# 1 131.8428 69.0505 40.5438 -0.0001 39.0811 0.0000
# 2 69.0505 199.6015 66.8131 0.0000 25.2229 0.0000
# 3 40.5438 66.8131 128.6764 -0.0002 31.8982 -0.0001
# 4 -0.0001 0.0000 -0.0002 11.9126 -0.0001 -1.9285
# 5 39.0811 25.2229 31.8982 -0.0001 41.5099 0.0000
# 6 0.0000 0.0000 -0.0001 -1.9285 0.0000 11.0967
#
#
#
# Elastic Compliance Matrix: (Units=1/GPa)
#
#
# Indices 1 2 3 4 5 6 
#
# 1 0.011919 -0.002969 0.000149 0.000000 -0.009533 0.000000
# 2 -0.002969 0.006886 -0.002836 0.000000 0.000790 0.000000
# 3 0.000149 -0.002836 0.010877 0.000000 -0.006775 0.000000
# 4 0.000000 0.000000 0.000000 0.086375 0.000000 0.015011
# 5 -0.009533 0.000790 -0.006775 0.000000 0.037792 0.000000
# 6 0.000000 0.000000 0.000000 0.015011 0.000000 0.092725
#
#
# Mechanical properties :
#
#
# Convention : Reuss Voigt Hill
#
# Bulk Modulus (GPa) = 54.43446 90.32615 72.38030
# Shear Modulus (GPa) = 18.93869 31.81807 25.37838
#
# Velocity S-wave (km/s) = 2.88463 3.73897 3.33924
# Velocity P-wave (km/s) = 5.91707 7.63718 6.83148
#
# Compressibility (1/GPa) = 0.01837072
#
# Stress axis : x y z
#
# Youngs Moduli (GPa) = 83.89639 145.21169 91.94041
#
# Poissons Ratio (x) = 0.43109 -0.01369
# Poissons Ratio (y) = 0.24906 0.26076
# Poissons Ratio (z) = -0.01249 0.41184
#
# Static dielectric constant tensor:
#      x y z
#    x 1.875040 0.000000 -0.036030 
#    y 0.000000 1.847680 0.000000 
#    z -0.036030 0.000000 1.861290 
# 
# From -- ./inp_files/216973.got.cif
#   From: 2010.05.17/outbox.cif.g08.bks.cpg/sg12_109_cif.got.tgz:216973.got - 2010.06.03 13:09:07.
