data_PCOD9221854
_publ_section_title
;
Structure prediction by ZEFSAII (Michael W. Deem and Ramdas Pophale) SiO2 
 PCOD9221854
Probable space group: C 2/M
;
_chemical_formula_sum "Si O2"
_cell_formula_units_Z 40
_cell_length_a 11.810306
_cell_length_b 20.735288
_cell_length_c 11.621035
_cell_angle_alpha 90.000000
_cell_angle_beta 141.328049
_cell_angle_gamma 90.000000
_cell_volume 1778.275805
_symmetry_space_group_name_H-M "C 2/M"
_symmetry_group_IT_number 12
_symmetry_cell_setting 'monoclinic'
loop_
_space_group_symop_operation_xyz
x,y,z
-x,y,-z
-x,-y,-z
x,-y,z
1/2+x,1/2+y,z
1/2-x,1/2+y,-z
1/2-x,1/2-y,-z
1/2+x,1/2-y,z
loop_
_atom_site_type_symbol
_atom_site_label
_atom_site_fract_x
_atom_site_fract_y
_atom_site_fract_z
Si Si1 0.718578 0.174755 0.450500
Si Si2 0.589186 0.500000 0.865707
Si Si3 0.598043 0.637251 0.837616
Si Si4 0.168694 0.358569 0.752583
Si Si5 0.253440 0.500000 0.749000
Si Si6 0.211071 0.722285 0.198072
O O1 0.750000 0.250000 0.500000
O O2 0.522253 0.150263 0.333637
O O3 0.733758 0.174376 0.323804
O O4 0.884943 0.140926 0.646005
O O5 0.650810 0.563972 0.850479
O O6 0.377459 0.500000 0.733354
O O7 0.663140 0.500000 0.055312
O O8 0.688653 0.691584 0.831675
O O9 0.668735 0.644232 0.023926
O O10 0.171146 0.427366 0.690428
O O11 0.204235 0.292854 0.710015
O O12 0.000000 0.728534 0.000000
#
# Coordination Sequence:
#
# PCOD9221854 Si02
#       6
#     8   4   8   8   4   8
#     4  12  25  41  64  98 134 171 220 273 319 385
#     4   9  22  43  70  96 132 172 215 270 329 396
#     4  11  23  45  66  98 131 171 217 272 327 389
#     4  11  24  43  67  99 134 170 218 272 327 393
#     4   9  22  41  70  99 129 174 216 263 338 390
#     4  12  24  41  69  96 130 177 219 269 331 385
#
# _framework density 22.493701000000001
#
# number of rings (size 3 to 8) (size 9 to 14) (size 15 to 20)
#    0.000    1.000    4.000    2.400    8.400    0.800 
#    0.000    4.500    0.000    0.000    0.000    0.000 
#    0.000    0.000    0.000    0.000    0.000    0.000 
#
# Total GULP energy -111721.813556 kJ/mol
# GULP energy per Si atom -5586.090678 kJ/mol
# Density = 2.244250 g / cm^3
# Si number density = 22.493701 Si / 1000 Ang^3
#
#
#
# Elastic Constant Matrix: (Units=GPa)
#
#
# Indices 1 2 3 4 5 6 
#
# 1 74.2755 37.2627 22.7519 0.0000 2.8464 0.0000
# 2 37.2627 156.6196 11.3015 0.0000 4.8867 0.0000
# 3 22.7519 11.3015 141.2314 0.0000 3.0597 0.0000
# 4 0.0000 0.0000 0.0000 5.8665 0.0000 6.8456
# 5 2.8464 4.8867 3.0597 0.0000 26.7943 0.0000
# 6 0.0000 0.0000 0.0000 6.8456 0.0000 29.3616
#
#
#
# Elastic Compliance Matrix: (Units=1/GPa)
#
#
# Indices 1 2 3 4 5 6 
#
# 1 0.016005 -0.003620 -0.002272 0.000000 -0.000781 0.000000
# 2 -0.003620 0.007274 0.000021 0.000000 -0.000945 0.000000
# 3 -0.002272 0.000021 0.007458 0.000000 -0.000614 0.000000
# 4 0.000000 0.000000 0.000000 0.234164 0.000000 -0.054595
# 5 -0.000781 -0.000945 -0.000614 0.000000 0.037647 0.000000
# 6 0.000000 0.000000 0.000000 -0.054595 0.000000 0.046787
#
#
# Mechanical properties :
#
#
# Convention : Reuss Voigt Hill
#
# Bulk Modulus (GPa) = 52.63886 57.19543 54.91714
# Shear Modulus (GPa) = 13.60891 32.45853 23.03372
#
# Velocity S-wave (km/s) = 2.46236 3.80281 3.20348
# Velocity P-wave (km/s) = 5.61576 6.69062 6.17661
#
# Compressibility (1/GPa) = 0.01899737
#
# Stress axis : x y z
#
# Youngs Moduli (GPa) = 62.48012 137.47615 134.08160
#
# Poissons Ratio (x) = 0.49761 0.30461
# Poissons Ratio (y) = 0.22615 -0.00288
# Poissons Ratio (z) = 0.14194 -0.00296
#
# Static dielectric constant tensor:
#      x y z
#    x 1.859550 0.000000 0.042680 
#    y 0.000000 1.842050 0.000000 
#    z 0.042680 0.000000 2.001110 
# 
# From -- ./inp_files/77790.got.cif
#   From: 2010.05.17/outbox.cif.g08.bks.cpg/sg12_39_cif.got.tgz:77790.got - 2010.06.03 13:09:07.
