data_PCOD9221979
_publ_section_title
;
Structure prediction by ZEFSAII (Michael W. Deem and Ramdas Pophale) SiO2 
 PCOD9221979
Probable space group: C 2/M
;
_chemical_formula_sum "Si O2"
_cell_formula_units_Z 40
_cell_length_a 22.763807
_cell_length_b 17.419143
_cell_length_c 5.150808
_cell_angle_alpha 90.000000
_cell_angle_beta 102.631168
_cell_angle_gamma 90.000000
_cell_volume 1992.998366
_symmetry_space_group_name_H-M "C 2/M"
_symmetry_group_IT_number 12
_symmetry_cell_setting 'monoclinic'
loop_
_space_group_symop_operation_xyz
x,y,z
-x,y,-z
-x,-y,-z
x,-y,z
1/2+x,1/2+y,z
1/2-x,1/2+y,-z
1/2-x,1/2-y,-z
1/2+x,1/2-y,z
loop_
_atom_site_type_symbol
_atom_site_label
_atom_site_fract_x
_atom_site_fract_y
_atom_site_fract_z
Si Si1 0.068345 0.910765 0.468769
Si Si2 0.633727 0.090885 0.587734
Si Si3 0.428681 0.840723 0.981108
Si Si4 0.615704 0.334435 0.015644
Si Si5 0.251569 0.304668 0.751168
O O1 0.106933 0.862855 0.713762
O O2 0.000000 0.902859 0.500000
O O3 0.075555 0.880170 0.184670
O O4 0.085239 0.000000 0.495775
O O5 0.588453 0.114116 0.774850
O O6 0.695612 0.137521 0.692112
O O7 0.644035 0.000000 0.594953
O O8 0.604543 0.118917 0.291006
O O9 0.402921 0.754523 0.983913
O O10 0.500000 0.837949 0.000000
O O11 0.684156 0.345944 0.171926
O O12 0.250000 0.250000 0.500000
O O13 0.250000 0.250000 0.000000
#
# Coordination Sequence:
#
# PCOD9221979 Si02
#       5
#     8   8   8   8   8
#     4  11  24  41  62  97 141 174 211 272 331 381
#     4  12  26  45  68 101 136 173 222 276 332 392
#     4  12  25  43  70 100 133 180 224 269 329 398
#     4  12  23  42  71  97 127 175 232 267 322 402
#     4  12  23  46  70  93 130 173 216 274 332 384
#
# _framework density 20.070264000000002
#
# number of rings (size 3 to 8) (size 9 to 14) (size 15 to 20)
#    0.000    0.200    4.000    6.000    0.000    5.600 
#    0.000    0.000    0.000    0.000    0.000    0.000 
#    0.000    0.000    0.000    0.000    0.000    0.000 
#
# Total GULP energy -111994.676483 kJ/mol
# GULP energy per Si atom -5599.733824 kJ/mol
# Density = 2.002458 g / cm^3
# Si number density = 20.070264 Si / 1000 Ang^3
#
#
#
# Elastic Constant Matrix: (Units=GPa)
#
#
# Indices 1 2 3 4 5 6 
#
# 1 67.0022 30.2656 -6.4628 0.0000 4.9227 0.0000
# 2 30.2656 91.5369 17.5258 0.0000 3.7785 0.0000
# 3 -6.4628 17.5258 77.9867 0.0000 -14.8006 0.0000
# 4 0.0000 0.0000 0.0000 13.3100 0.0000 -2.4575
# 5 4.9227 3.7785 -14.8006 0.0000 39.8017 0.0000
# 6 0.0000 0.0000 0.0000 -2.4575 0.0000 20.6217
#
#
#
# Elastic Compliance Matrix: (Units=1/GPa)
#
#
# Indices 1 2 3 4 5 6 
#
# 1 0.018199 -0.006544 0.002872 0.000000 -0.000562 0.000000
# 2 -0.006544 0.013949 -0.004061 0.000000 -0.002025 0.000000
# 3 0.002872 -0.004061 0.015041 0.000000 0.005623 0.000000
# 4 0.000000 0.000000 0.000000 0.076822 0.000000 0.009155
# 5 -0.000562 -0.002025 0.005623 0.000000 0.027477 0.000000
# 6 0.000000 0.000000 0.000000 0.009155 0.000000 0.049584
#
#
# Mechanical properties :
#
#
# Convention : Reuss Voigt Hill
#
# Bulk Modulus (GPa) = 31.52320 35.46478 33.49399
# Shear Modulus (GPa) = 22.01548 27.75984 24.88766
#
# Velocity S-wave (km/s) = 3.31557 3.72308 3.52522
# Velocity P-wave (km/s) = 5.51343 6.01585 5.77011
#
# Compressibility (1/GPa) = 0.03172267
#
# Stress axis : x y z
#
# Youngs Moduli (GPa) = 54.94740 71.68716 66.48645
#
# Poissons Ratio (x) = 0.46913 -0.19097
# Poissons Ratio (y) = 0.35958 0.27003
# Poissons Ratio (z) = -0.15782 0.29116
#
# Static dielectric constant tensor:
#      x y z
#    x 1.733220 0.000000 0.001780 
#    y 0.000000 1.615970 0.000000 
#    z 0.001780 0.000000 1.680960 
# 
# From -- ./inp_files/24884.got.cif
#   From: 2010.05.17/outbox.cif.g08.bks.cpg/sg12_13_cif.got.tgz:24884.got - 2010.06.03 13:09:07.
