data_PCOD9221912
_publ_section_title
;
Structure prediction by ZEFSAII (Michael W. Deem and Ramdas Pophale) SiO2 
 PCOD9221912
Probable space group: C 2/M
;
_chemical_formula_sum "Si O2"
_cell_formula_units_Z 36
_cell_length_a 14.478636
_cell_length_b 22.281024
_cell_length_c 14.050938
_cell_angle_alpha 90.000000
_cell_angle_beta 160.057558
_cell_angle_gamma 90.000000
_cell_volume 1546.034733
_symmetry_space_group_name_H-M "C 2/M"
_symmetry_group_IT_number 12
_symmetry_cell_setting 'monoclinic'
loop_
_space_group_symop_operation_xyz
x,y,z
-x,y,-z
-x,-y,-z
x,-y,z
1/2+x,1/2+y,z
1/2-x,1/2+y,-z
1/2-x,1/2-y,-z
1/2+x,1/2-y,z
loop_
_atom_site_type_symbol
_atom_site_label
_atom_site_fract_x
_atom_site_fract_y
_atom_site_fract_z
Si Si1 0.082246 0.877846 0.281292
Si Si2 0.736977 0.000000 0.343419
Si Si3 0.394619 0.173512 0.290262
Si Si4 0.187254 0.000000 0.922930
Si Si5 0.500000 0.892585 0.000000
Si Si6 0.900147 0.814018 0.293883
O O1 0.397482 0.869513 0.564369
O O2 0.041526 0.847752 0.344674
O O3 0.939678 0.942355 0.148567
O O4 0.909757 0.844032 0.032470
O O5 0.034668 0.000000 0.673918
O O6 0.693638 0.939801 0.241052
O O7 0.505066 0.000000 0.202777
O O8 0.500000 0.168819 0.500000
O O9 0.410019 0.243887 0.279042
O O10 0.616071 0.848545 0.031462
O O11 0.000000 0.819320 0.500000
#
# Coordination Sequence:
#
# PCOD9221912 Si02
#       6
#     8   4   8   4   4   8
#     4  12  25  47  70 103 134 187 231 287 347 410
#     4  11  24  42  64 102 150 185 213 275 331 432
#     4  11  27  47  71  97 138 179 241 296 346 390
#     4  12  24  45  69  98 137 179 238 282 341 410
#     4  11  24  38  68 104 148 185 222 256 350 431
#     4  11  25  40  71 105 148 180 222 271 350 430
#
# _framework density 23.285377
#
# number of rings (size 3 to 8) (size 9 to 14) (size 15 to 20)
#    0.000    0.667    2.222    4.667    9.333    0.889 
#    0.000    3.333    0.000    0.000    0.000    0.000 
#    0.000    0.000    0.000    0.000    0.000    0.000 
#
# Total GULP energy -100630.804880 kJ/mol
# GULP energy per Si atom -5590.600271 kJ/mol
# Density = 2.323238 g / cm^3
# Si number density = 23.285377 Si / 1000 Ang^3
#
#
#
# Elastic Constant Matrix: (Units=GPa)
#
#
# Indices 1 2 3 4 5 6 
#
# 1 61.3741 27.1535 4.0797 -0.0006 11.3954 -0.0016
# 2 27.1535 131.3230 1.2137 -0.0007 4.8861 -0.0013
# 3 4.0797 1.2137 88.5153 -0.0026 -3.7752 -0.0073
# 4 -0.0006 -0.0007 -0.0026 65.9306 -0.0017 39.9525
# 5 11.3954 4.8861 -3.7752 -0.0017 51.0285 -0.0032
# 6 -0.0016 -0.0013 -0.0073 39.9525 -0.0032 92.0175
#
#
#
# Elastic Compliance Matrix: (Units=1/GPa)
#
#
# Indices 1 2 3 4 5 6 
#
# 1 0.018727 -0.003718 -0.000978 0.000000 -0.003898 0.000000
# 2 -0.003718 0.008382 0.000058 0.000000 0.000032 0.000000
# 3 -0.000978 0.000058 0.011387 0.000000 0.001055 0.000001
# 4 0.000000 0.000000 0.000000 0.020583 0.000000 -0.008937
# 5 -0.003898 0.000032 0.001055 0.000000 0.020542 0.000001
# 6 0.000000 0.000000 0.000001 -0.008937 0.000001 0.014748
#
#
# Mechanical properties :
#
#
# Convention : Reuss Voigt Hill
#
# Bulk Modulus (GPa) = 34.22488 38.45624 36.34056
# Shear Modulus (GPa) = 44.09704 58.37969 51.23836
#
# Velocity S-wave (km/s) = 4.35646 5.01257 4.69599
# Velocity P-wave (km/s) = 6.32732 7.07475 6.71145
#
# Compressibility (1/GPa) = 0.02921851
#
# Stress axis : x y z
#
# Youngs Moduli (GPa) = 53.39773 119.30489 87.82097
#
# Poissons Ratio (x) = 0.44359 0.08593
# Poissons Ratio (y) = 0.19854 -0.00508
# Poissons Ratio (z) = 0.05225 -0.00690
#
# Static dielectric constant tensor:
#      x y z
#    x 1.892190 0.000000 0.017350 
#    y 0.000000 1.857160 0.000000 
#    z 0.017350 0.000000 1.939230 
# 
# From -- ./inp_files/218622.got.cif
#   From: 2010.05.17/outbox.cif.g08.bks.cpg/sg12_110_cif.got.tgz:218622.got - 2010.06.03 13:09:07.
