data_PCOD9221775
_publ_section_title
;
Structure prediction by ZEFSAII (Michael W. Deem and Ramdas Pophale) SiO2 
 PCOD9221775
Probable space group: C 2/M
;
_chemical_formula_sum "Si O2"
_cell_formula_units_Z 42
_cell_length_a 16.838538
_cell_length_b 9.242630
_cell_length_c 14.077673
_cell_angle_alpha 90.000000
_cell_angle_beta 58.604342
_cell_angle_gamma 90.000000
_cell_volume 1870.166539
_symmetry_space_group_name_H-M "C 2/M"
_symmetry_group_IT_number 12
_symmetry_cell_setting 'monoclinic'
loop_
_space_group_symop_operation_xyz
x,y,z
-x,y,-z
-x,-y,-z
x,-y,z
1/2+x,1/2+y,z
1/2-x,1/2+y,-z
1/2-x,1/2-y,-z
1/2+x,1/2-y,z
loop_
_atom_site_type_symbol
_atom_site_label
_atom_site_fract_x
_atom_site_fract_y
_atom_site_fract_z
Si Si1 0.510377 0.256811 0.645301
Si Si2 0.637872 0.674231 0.943485
Si Si3 0.020148 0.327032 0.851706
Si Si4 0.298565 0.339705 0.551694
Si Si5 0.000000 0.500000 0.500000
Si Si6 0.698000 0.334309 0.232870
O O1 0.542918 0.204629 0.728621
O O2 0.593143 0.343668 0.543962
O O3 0.493595 0.123721 0.586486
O O4 0.411611 0.334049 0.717858
O O5 0.629259 0.500000 0.954026
O O6 0.589550 0.740175 0.878229
O O7 0.743649 0.727834 0.869992
O O8 0.579975 0.756058 0.061167
O O9 0.021370 0.500000 0.869237
O O10 0.258246 0.500000 0.576009
O O11 0.250000 0.250000 0.500000
O O12 0.289741 0.284490 0.664776
O O13 0.732787 0.500000 0.202207
#
# Coordination Sequence:
#
# PCOD9221775 Si02
#       6
#     8   8   8   8   2   8
#     4  12  25  42  70  94 137 171 219 268 330 388
#     4  11  25  43  68  98 133 170 221 277 328 385
#     4  11  23  43  69  97 130 175 218 267 330 391
#     4  11  25  41  64  95 128 171 219 269 328 389
#     4  12  24  44  66 102 136 170 216 272 330 386
#     4  11  24  43  65  92 131 174 218 270 327 391
#
# _framework density 22.457892999999999
#
# number of rings (size 3 to 8) (size 9 to 14) (size 15 to 20)
#    0.000    0.762    2.857    5.143    2.667    9.143 
#    0.000    0.000    0.000    0.000    0.000    0.000 
#    0.000    0.000    0.000    0.000    0.000    0.000 
#
# Total GULP energy -117190.227748 kJ/mol
# GULP energy per Si atom -5580.487036 kJ/mol
# Density = 2.240678 g / cm^3
# Si number density = 22.457893 Si / 1000 Ang^3
#
#
#
# Elastic Constant Matrix: (Units=GPa)
#
#
# Indices 1 2 3 4 5 6 
#
# 1 43.9915 6.0573 0.3213 0.0000 -16.0116 0.0000
# 2 6.0573 137.3695 18.5975 0.0000 -5.8194 0.0000
# 3 0.3213 18.5975 101.1744 0.0000 -5.6807 0.0000
# 4 0.0000 0.0000 0.0000 39.5865 0.0000 -17.0303
# 5 -16.0116 -5.8194 -5.6807 0.0000 48.1335 0.0000
# 6 0.0000 0.0000 0.0000 -17.0303 0.0000 -47.2832
#
#
#
# Elastic Compliance Matrix: (Units=1/GPa)
#
#
# Indices 1 2 3 4 5 6 
#
# 1 0.025977 -0.000857 0.000558 0.000000 0.008604 0.000000
# 2 -0.000857 0.007520 -0.001354 0.000000 0.000465 0.000000
# 3 0.000558 -0.001354 0.010200 0.000000 0.001226 0.000000
# 4 0.000000 0.000000 0.000000 0.021872 0.000000 -0.007878
# 5 0.008604 0.000465 0.001226 0.000000 0.023838 0.000000
# 6 0.000000 0.000000 0.000000 -0.007878 0.000000 -0.018312
#
#
# Mechanical properties :
#
#
# Convention : Reuss Voigt Hill
#
# Bulk Modulus (GPa) = 24.75684 36.94310 30.84997
# Shear Modulus (GPa) = 56.90601 25.25795 41.08198
#
# Velocity S-wave (km/s) = 5.03924 3.35726 4.28166
# Velocity P-wave (km/s) = 6.70121 5.61373 6.18143
#
# Compressibility (1/GPa) = 0.04039287
#
# Stress axis : x y z
#
# Youngs Moduli (GPa) = 38.49570 132.97280 98.04134
#
# Poissons Ratio (x) = 0.11390 -0.05471
# Poissons Ratio (y) = 0.03297 0.13270
# Poissons Ratio (z) = -0.02148 0.17999
#
# Static dielectric constant tensor:
#      x y z
#    x 1.896030 0.000000 -0.035260 
#    y 0.000000 1.784470 0.000000 
#    z -0.035260 0.000000 1.816140 
# 
# From -- ./inp_files/221443.got.cif
#   From: 2010.05.17/outbox.cif.g08.bks.cpg/sg12_111_cif.got.tgz:221443.got - 2010.06.03 13:09:07.
