data_PCOD9221312
_publ_section_title
;
Structure prediction by ZEFSAII (Michael W. Deem and Ramdas Pophale) SiO2 
 PCOD9221312
Probable space group: C 2/M
;
_chemical_formula_sum "Si O2"
_cell_formula_units_Z 40
_cell_length_a 26.682989
_cell_length_b 16.795976
_cell_length_c 8.139106
_cell_angle_alpha 90.000000
_cell_angle_beta 28.737324
_cell_angle_gamma 90.000000
_cell_volume 1753.784316
_symmetry_space_group_name_H-M "C 2/M"
_symmetry_group_IT_number 12
_symmetry_cell_setting 'monoclinic'
loop_
_space_group_symop_operation_xyz
x,y,z
-x,y,-z
-x,-y,-z
x,-y,z
1/2+x,1/2+y,z
1/2-x,1/2+y,-z
1/2-x,1/2-y,-z
1/2+x,1/2-y,z
loop_
_atom_site_type_symbol
_atom_site_label
_atom_site_fract_x
_atom_site_fract_y
_atom_site_fract_z
Si Si1 0.712812 0.290522 0.806309
Si Si2 0.026317 0.792034 0.107118
Si Si3 0.621353 0.910868 0.601492
Si Si4 0.590023 0.413340 0.378407
Si Si5 0.594111 0.159674 0.333983
O O1 0.822369 0.336212 0.470564
O O2 0.643585 0.297953 0.840130
O O3 0.667282 0.350872 0.074986
O O4 0.686147 0.203477 0.963270
O O5 0.967424 0.875707 0.301912
O O6 0.968398 0.731772 0.397115
O O7 0.000000 0.768309 0.000000
O O8 0.629404 0.895313 0.382252
O O9 0.662082 0.000000 0.526955
O O10 0.500000 0.910776 0.000000
O O11 0.500000 0.419281 0.500000
O O12 0.634512 0.500000 0.282046
O O13 0.500000 0.120833 0.500000
#
# Coordination Sequence:
#
# PCOD9221312 Si02
#       5
#     8   8   8   8   8
#     4   9  18  35  58  81 110 150 192 232 279 336
#     4   9  17  31  54  85 115 141 180 239 295 338
#     4  11  23  38  57  83 119 158 191 228 278 339
#     4   8  14  26  46  72 104 142 180 223 278 335
#     4   9  19  38  61  83 108 143 193 243 286 334
#
# _framework density 22.807822000000002
#
# number of rings (size 3 to 8) (size 9 to 14) (size 15 to 20)
#    0.000    2.800    0.000    4.200    0.000    1.600 
#    0.000   13.000    0.000    2.400    0.000    0.000 
#    0.000    7.200    0.000    0.000    0.000    0.000 
#
# Total GULP energy -111494.013558 kJ/mol
# GULP energy per Si atom -5574.700678 kJ/mol
# Density = 2.275591 g / cm^3
# Si number density = 22.807822 Si / 1000 Ang^3
#
#
#
# Elastic Constant Matrix: (Units=GPa)
#
#
# Indices 1 2 3 4 5 6 
#
# 1 124.0509 21.4136 36.1996 0.0000 -5.2861 0.0000
# 2 21.4136 81.0883 21.4733 0.0000 -4.0493 0.0000
# 3 36.1996 21.4733 73.4463 0.0000 -17.9061 0.0000
# 4 0.0000 0.0000 0.0000 22.0127 0.0000 6.2346
# 5 -5.2861 -4.0493 -17.9061 0.0000 24.7878 0.0000
# 6 0.0000 0.0000 0.0000 6.2346 0.0000 28.4961
#
#
#
# Elastic Compliance Matrix: (Units=1/GPa)
#
#
# Indices 1 2 3 4 5 6 
#
# 1 0.009607 -0.001366 -0.004723 0.000000 -0.001586 0.000000
# 2 -0.001366 0.013574 -0.003430 0.000000 -0.000551 0.000000
# 3 -0.004723 -0.003430 0.020104 0.000000 0.012955 0.000000
# 4 0.000000 0.000000 0.000000 0.048429 0.000000 -0.010596
# 5 -0.001586 -0.000551 0.012955 0.000000 0.049273 0.000000
# 6 0.000000 0.000000 0.000000 -0.010596 0.000000 0.037411
#
#
# Mechanical properties :
#
#
# Convention : Reuss Voigt Hill
#
# Bulk Modulus (GPa) = 41.23847 48.52872 44.88359
# Shear Modulus (GPa) = 24.32882 28.35926 26.34404
#
# Velocity S-wave (km/s) = 3.26956 3.53001 3.40228
# Velocity P-wave (km/s) = 5.68977 6.15939 5.92923
#
# Compressibility (1/GPa) = 0.02424920
#
# Stress axis : x y z
#
# Youngs Moduli (GPa) = 104.08545 73.67232 49.74061
#
# Poissons Ratio (x) = 0.10061 0.23490
# Poissons Ratio (y) = 0.14215 0.17060
# Poissons Ratio (z) = 0.49155 0.25268
#
# Static dielectric constant tensor:
#      x y z
#    x 1.821010 0.000000 -0.037980 
#    y 0.000000 1.870190 0.000000 
#    z -0.037980 0.000000 2.022510 
# 
# From -- ./inp_files/105698.got.cif
#   From: 2010.05.17/outbox.cif.g08.bks.cpg/sg12_53_cif.got.tgz:105698.got - 2010.06.03 13:09:07.
