data_PCOD9221413
_publ_section_title
;
Structure prediction by ZEFSAII (Michael W. Deem and Ramdas Pophale) SiO2 
 PCOD9221413
Probable space group: C 2/M
;
_chemical_formula_sum "Si O2"
_cell_formula_units_Z 48
_cell_length_a 25.086412
_cell_length_b 8.688403
_cell_length_c 12.717482
_cell_angle_alpha 90.000000
_cell_angle_beta 70.596880
_cell_angle_gamma 90.000000
_cell_volume 2614.481270
_symmetry_space_group_name_H-M "C 2/M"
_symmetry_group_IT_number 12
_symmetry_cell_setting 'monoclinic'
loop_
_space_group_symop_operation_xyz
x,y,z
-x,y,-z
-x,-y,-z
x,-y,z
1/2+x,1/2+y,z
1/2-x,1/2+y,-z
1/2-x,1/2-y,-z
1/2+x,1/2-y,z
loop_
_atom_site_type_symbol
_atom_site_label
_atom_site_fract_x
_atom_site_fract_y
_atom_site_fract_z
Si Si1 0.109951 0.816399 0.249084
Si Si2 0.809622 0.183512 0.000938
Si Si3 0.812829 0.316409 0.227652
Si Si4 0.127903 0.816490 0.612522
Si Si5 0.191390 0.683790 0.373830
Si Si6 0.008232 0.316251 0.619034
O O1 0.143921 0.787532 0.119320
O O2 0.143901 0.734485 0.321026
O O3 0.046730 0.752148 0.288377
O O4 0.109563 0.000000 0.268775
O O5 0.804025 0.000000 0.018523
O O6 0.750000 0.250000 0.000000
O O7 0.824293 0.260127 0.102080
O O8 0.814629 0.500000 0.232034
O O9 0.855454 0.243427 0.283568
O O10 0.750234 0.258407 0.300055
O O11 0.171490 0.744134 0.500035
O O12 0.065710 0.760834 0.620527
O O13 0.131698 0.000000 0.605262
O O14 0.196617 0.500000 0.371923
O O15 0.011627 0.500000 0.631406
O O16 0.000000 0.286304 0.500000
#
# Coordination Sequence:
#
# PCOD9221413 Si02
#       6
#     8   8   8   8   8   8
#     4  11  23  39  63  95 126 162 208 258 308 364
#     4  11  23  40  64  93 127 164 210 257 309 367
#     4  12  25  42  63  91 128 167 210 256 314 375
#     4  12  25  42  64  91 127 166 208 257 315 374
#     4  12  23  38  62  93 129 164 205 256 313 372
#     4  11  23  40  64  93 126 164 207 256 308 367
#
# _framework density 18.359282
#
# number of rings (size 3 to 8) (size 9 to 14) (size 15 to 20)
#    0.000    0.500    3.333    6.500    0.000    2.667 
#    0.000    0.833    0.000    5.000    0.000    0.000 
#    0.000    0.000    0.000    0.000    0.000    0.000 
#
# Total GULP energy -134356.489809 kJ/mol
# GULP energy per Si atom -5598.187075 kJ/mol
# Density = 1.831750 g / cm^3
# Si number density = 18.359282 Si / 1000 Ang^3
#
#
#
# Elastic Constant Matrix: (Units=GPa)
#
#
# Indices 1 2 3 4 5 6 
#
# 1 43.5664 12.8264 16.3172 0.0000 2.8353 0.0000
# 2 12.8264 94.3096 35.5977 0.0000 -4.2414 0.0000
# 3 16.3172 35.5977 81.9720 0.0000 5.5524 0.0000
# 4 0.0000 0.0000 0.0000 34.2186 0.0000 1.3299
# 5 2.8353 -4.2414 5.5524 0.0000 37.2123 0.0000
# 6 0.0000 0.0000 0.0000 1.3299 0.0000 34.2596
#
#
#
# Elastic Compliance Matrix: (Units=1/GPa)
#
#
# Indices 1 2 3 4 5 6 
#
# 1 0.025148 -0.001960 -0.004051 0.000000 -0.001535 0.000000
# 2 -0.001960 0.013031 -0.005434 0.000000 0.002445 0.000000
# 3 -0.004051 -0.005434 0.015544 0.000000 -0.002630 0.000000
# 4 0.000000 0.000000 0.000000 0.029268 0.000000 -0.001136
# 5 -0.001535 0.002445 -0.002630 0.000000 0.027661 0.000000
# 6 0.000000 0.000000 0.000000 -0.001136 0.000000 0.029233
#
#
# Mechanical properties :
#
#
# Convention : Reuss Voigt Hill
#
# Bulk Modulus (GPa) = 32.43389 38.81450 35.62419
# Shear Modulus (GPa) = 28.89297 31.47855 30.18576
#
# Velocity S-wave (km/s) = 3.97136 4.14525 4.05923
# Velocity P-wave (km/s) = 6.22362 6.64065 6.43552
#
# Compressibility (1/GPa) = 0.03083195
#
# Stress axis : x y z
#
# Youngs Moduli (GPa) = 39.76521 76.73880 64.33459
#
# Poissons Ratio (x) = 0.15043 0.26059
# Poissons Ratio (y) = 0.07795 0.34962
# Poissons Ratio (z) = 0.16107 0.41703
#
# Static dielectric constant tensor:
#      x y z
#    x 1.607020 0.000000 0.001480 
#    y 0.000000 1.611930 0.000000 
#    z 0.001480 0.000000 1.613720 
# 
# From -- ./inp_files/172887.got.cif
#   From: 2010.05.17/outbox.cif.g08.bks.cpg/sg12_87_cif.got.tgz:172887.got - 2010.06.03 13:09:07.
