data_PCOD9221419
_publ_section_title
;
Structure prediction by ZEFSAII (Michael W. Deem and Ramdas Pophale) SiO2 
 PCOD9221419
Probable space group: C 2/M
;
_chemical_formula_sum "Si O2"
_cell_formula_units_Z 44
_cell_length_a 8.506826
_cell_length_b 17.034275
_cell_length_c 21.289871
_cell_angle_alpha 90.000000
_cell_angle_beta 40.785839
_cell_angle_gamma 90.000000
_cell_volume 2015.267377
_symmetry_space_group_name_H-M "C 2/M"
_symmetry_group_IT_number 12
_symmetry_cell_setting 'monoclinic'
loop_
_space_group_symop_operation_xyz
x,y,z
-x,y,-z
-x,-y,-z
x,-y,z
1/2+x,1/2+y,z
1/2-x,1/2+y,-z
1/2-x,1/2-y,-z
1/2+x,1/2-y,z
loop_
_atom_site_type_symbol
_atom_site_label
_atom_site_fract_x
_atom_site_fract_y
_atom_site_fract_z
Si Si1 0.279031 0.138413 0.105255
Si Si2 0.374875 0.152485 0.383855
Si Si3 0.491962 0.000000 0.124745
Si Si4 0.634645 0.302957 0.694573
Si Si5 0.945741 0.000000 0.909669
Si Si6 0.521436 0.000000 0.728222
Si Si7 0.777153 0.090298 0.441961
O O1 0.391647 0.077844 0.121377
O O2 0.134467 0.078297 0.103903
O O3 0.100747 0.199932 0.191075
O O4 0.500000 0.174794 0.000000
O O5 0.302034 0.225054 0.362784
O O6 0.640630 0.171273 0.331072
O O7 0.217718 0.135721 0.493596
O O8 0.391861 0.075282 0.336547
O O9 0.405416 0.000000 0.221816
O O10 0.778615 0.000000 0.022511
O O11 0.583675 0.367680 0.656099
O O12 0.231596 0.000000 0.822384
O O13 0.500000 0.091543 0.500000
O O14 0.843488 0.000000 0.431594
#
# Coordination Sequence:
#
# PCOD9221419 Si02
#       7
#     8   8   4   8   4   4   8
#     4   9  19  38  61  88 123 162 205 246 300 366
#     4  11  24  40  62  91 126 158 204 253 304 361
#     4   9  21  33  60  90 125 154 207 259 296 351
#     4  11  23  39  64  88 125 166 200 249 312 359
#     4   9  17  37  60  89 113 165 208 249 298 362
#     4  12  21  38  63  88 126 157 208 254 301 363
#     4   9  19  37  64  92 117 156 206 249 298 368
#
# _framework density 21.833331000000001
#
# number of rings (size 3 to 8) (size 9 to 14) (size 15 to 20)
#    0.000    2.000    2.727    1.909    6.364    0.000 
#    0.000    2.727    0.000    2.182    0.000    0.000 
#    0.000    0.000    0.000    0.000    0.000    0.000 
#
# Total GULP energy -123023.773922 kJ/mol
# GULP energy per Si atom -5591.989724 kJ/mol
# Density = 2.178364 g / cm^3
# Si number density = 21.833331 Si / 1000 Ang^3
#
#
#
# Elastic Constant Matrix: (Units=GPa)
#
#
# Indices 1 2 3 4 5 6 
#
# 1 42.2330 10.0066 33.0924 0.0007 11.6657 -0.0206
# 2 10.0066 82.6834 24.8649 0.0040 12.5928 -0.0027
# 3 33.0924 24.8649 126.1012 0.0032 7.5726 -0.0419
# 4 0.0007 0.0040 0.0032 28.6432 -0.0013 -2.1289
# 5 11.6657 12.5928 7.5726 -0.0013 37.1974 0.0211
# 6 -0.0206 -0.0027 -0.0419 -2.1289 0.0211 -23.6150
#
#
#
# Elastic Compliance Matrix: (Units=1/GPa)
#
#
# Indices 1 2 3 4 5 6 
#
# 1 0.032263 -0.000242 -0.007913 -0.000002 -0.008425 -0.000021
# 2 -0.000242 0.013438 -0.002346 -0.000002 -0.003996 -0.000001
# 3 -0.007913 -0.002346 0.010400 -0.000001 0.001159 -0.000010
# 4 -0.000002 -0.000002 -0.000001 0.034680 0.000004 -0.003126
# 5 -0.008425 -0.003996 0.001159 0.000004 0.030643 0.000033
# 6 -0.000021 -0.000001 -0.000010 -0.003126 0.000033 -0.042064
#
#
# Mechanical properties :
#
#
# Convention : Reuss Voigt Hill
#
# Bulk Modulus (GPa) = 28.49129 42.99394 35.74262
# Shear Modulus (GPa) = 44.61859 20.64873 32.63366
#
# Velocity S-wave (km/s) = 4.52552 3.07863 3.87029
# Velocity P-wave (km/s) = 6.35491 5.68963 6.03145
#
# Compressibility (1/GPa) = 0.03509844
#
# Stress axis : x y z
#
# Youngs Moduli (GPa) = 30.99510 74.41737 96.15569
#
# Poissons Ratio (x) = 0.01799 0.76089
# Poissons Ratio (y) = 0.00749 0.22561
# Poissons Ratio (z) = 0.24527 0.17460
#
# Static dielectric constant tensor:
#      x y z
#    x 1.833530 0.000000 -0.013870 
#    y 0.000000 1.752930 0.000000 
#    z -0.013870 0.000000 1.769880 
# 
# From -- ./inp_files/195677.got.cif
#   From: 2010.05.17/outbox.cif.g08.bks.cpg/sg12_98_cif.got.tgz:195677.got - 2010.06.03 13:09:07.
