data_PCOD9221484
_publ_section_title
;
Structure prediction by ZEFSAII (Michael W. Deem and Ramdas Pophale) SiO2 
 PCOD9221484
Probable space group: C 2/M
;
_chemical_formula_sum "Si O2"
_cell_formula_units_Z 56
_cell_length_a 18.667090
_cell_length_b 9.032132
_cell_length_c 16.956497
_cell_angle_alpha 90.000000
_cell_angle_beta 80.513554
_cell_angle_gamma 90.000000
_cell_volume 2819.829876
_symmetry_space_group_name_H-M "C 2/M"
_symmetry_group_IT_number 12
_symmetry_cell_setting 'monoclinic'
loop_
_space_group_symop_operation_xyz
x,y,z
-x,y,-z
-x,-y,-z
x,-y,z
1/2+x,1/2+y,z
1/2-x,1/2+y,-z
1/2-x,1/2-y,-z
1/2+x,1/2-y,z
loop_
_atom_site_type_symbol
_atom_site_label
_atom_site_fract_x
_atom_site_fract_y
_atom_site_fract_z
Si Si1 0.875379 0.823689 0.196263
Si Si2 0.277108 0.675135 0.758903
Si Si3 0.585557 0.833113 0.974805
Si Si4 0.597863 0.825237 0.367136
Si Si5 0.188330 0.826383 0.063403
Si Si6 0.828973 0.324801 0.475401
Si Si7 0.552787 0.322962 0.656096
O O1 0.799604 0.755069 0.239794
O O2 0.893672 0.750788 0.109148
O O3 0.935642 0.795295 0.252572
O O4 0.867633 0.000000 0.188459
O O5 0.271255 0.500000 0.743382
O O6 0.340476 0.747737 0.696451
O O7 0.296660 0.694466 0.847469
O O8 0.616277 0.000000 0.965033
O O9 0.500000 0.840734 0.000000
O O10 0.615896 0.749369 0.045255
O O11 0.624877 0.810253 0.452202
O O12 0.520364 0.750476 0.363870
O O13 0.593280 0.000000 0.349962
O O14 0.186371 0.000000 0.047054
O O15 0.250000 0.750000 0.000000
O O16 0.820175 0.500000 0.460112
O O17 0.750000 0.250000 0.500000
O O18 0.877409 0.245156 0.400557
O O19 0.550612 0.500000 0.644429
#
# Coordination Sequence:
#
# PCOD9221484 Si02
#       7
#     8   8   8   8   8   8   8
#     4  11  24  42  64  91 125 165 209 259 314 374
#     4  11  24  41  64  94 126 163 212 260 311 375
#     4  11  25  42  62  91 125 164 212 261 316 378
#     4  11  25  43  65  95 130 167 209 256 311 372
#     4  11  23  40  64  92 124 164 212 263 316 374
#     4  11  24  43  68  98 129 167 211 255 309 372
#     4  11  25  43  65  96 130 166 210 258 313 373
#
# _framework density 19.859355000000001
#
# number of rings (size 3 to 8) (size 9 to 14) (size 15 to 20)
#    0.000    1.000    1.429    4.286    2.000   12.571 
#    0.000    0.000    0.000    0.000    0.000    0.000 
#    0.000    0.000    0.000    0.000    0.000    0.000 
#
# Total GULP energy -156653.954946 kJ/mol
# GULP energy per Si atom -5594.784105 kJ/mol
# Density = 1.981415 g / cm^3
# Si number density = 19.859355 Si / 1000 Ang^3
#
#
#
# Elastic Constant Matrix: (Units=GPa)
#
#
# Indices 1 2 3 4 5 6 
#
# 1 110.3707 46.3475 14.4362 0.0000 7.5208 0.0000
# 2 46.3475 119.5345 51.2514 0.0000 21.7143 0.0000
# 3 14.4362 51.2514 60.7152 0.0000 -0.3309 0.0000
# 4 0.0000 0.0000 0.0000 33.5560 0.0000 -0.6349
# 5 7.5208 21.7143 -0.3309 0.0000 32.8102 0.0000
# 6 0.0000 0.0000 0.0000 -0.6349 0.0000 38.6928
#
#
#
# Elastic Compliance Matrix: (Units=1/GPa)
#
#
# Indices 1 2 3 4 5 6 
#
# 1 0.010935 -0.005166 0.001766 0.000000 0.000930 0.000000
# 2 -0.005166 0.018693 -0.014613 0.000000 -0.011335 0.000000
# 3 0.001766 -0.014613 0.028438 0.000000 0.009553 0.000000
# 4 0.000000 0.000000 0.000000 0.029810 0.000000 0.000489
# 5 0.000930 -0.011335 0.009553 0.000000 0.037863 0.000000
# 6 0.000000 0.000000 0.000000 0.000489 0.000000 0.025853
#
#
# Mechanical properties :
#
#
# Convention : Reuss Voigt Hill
#
# Bulk Modulus (GPa) = 45.37215 57.18787 51.28001
# Shear Modulus (GPa) = 25.64559 32.91749 29.28154
#
# Velocity S-wave (km/s) = 3.59745 4.07570 3.84402
# Velocity P-wave (km/s) = 6.33655 7.14194 6.75127
#
# Compressibility (1/GPa) = 0.02203995
#
# Stress axis : x y z
#
# Youngs Moduli (GPa) = 91.44609 53.49508 35.16453
#
# Poissons Ratio (x) = 0.27636 -0.06209
# Poissons Ratio (y) = 0.47242 0.51386
# Poissons Ratio (z) = -0.16148 0.78172
#
# Static dielectric constant tensor:
#      x y z
#    x 1.722850 0.000000 0.019190 
#    y 0.000000 1.674690 0.000000 
#    z 0.019190 0.000000 1.677080 
# 
# From -- ./inp_files/275030.got.cif
#   From: 2010.05.17/outbox.cif.g08.bks.cpg/sg12_138_cif.got.tgz:275030.got - 2010.06.03 13:09:07.
