data_PCOD9221922
_publ_section_title
;
Structure prediction by ZEFSAII (Michael W. Deem and Ramdas Pophale) SiO2 
 PCOD9221922
Probable space group: C 2/M
;
_chemical_formula_sum "Si O2"
_cell_formula_units_Z 40
_cell_length_a 11.008511
_cell_length_b 28.585556
_cell_length_c 6.783568
_cell_angle_alpha 90.000000
_cell_angle_beta 113.521609
_cell_angle_gamma 90.000000
_cell_volume 1957.311453
_symmetry_space_group_name_H-M "C 2/M"
_symmetry_group_IT_number 12
_symmetry_cell_setting 'monoclinic'
loop_
_space_group_symop_operation_xyz
x,y,z
-x,y,-z
-x,-y,-z
x,-y,z
1/2+x,1/2+y,z
1/2-x,1/2+y,-z
1/2-x,1/2-y,-z
1/2+x,1/2-y,z
loop_
_atom_site_type_symbol
_atom_site_label
_atom_site_fract_x
_atom_site_fract_y
_atom_site_fract_z
Si Si1 0.500000 0.604073 0.000000
Si Si2 0.500000 0.841591 0.500000
Si Si3 0.818936 0.820354 0.086166
Si Si4 0.126474 0.612492 0.199422
Si Si5 0.297319 0.238350 0.314233
Si Si6 0.132217 0.945190 0.453513
O O1 0.409300 0.637684 0.073709
O O2 0.593238 0.575421 0.212608
O O3 0.437541 0.869430 0.639012
O O4 0.610668 0.806274 0.643785
O O5 0.689670 0.845982 0.102973
O O6 0.865795 0.785756 0.287160
O O7 0.814120 0.781477 0.906038
O O8 0.248368 0.580402 0.352829
O O9 0.000000 0.591332 0.000000
O O10 0.250000 0.250000 0.500000
O O11 0.000000 0.940516 0.500000
O O12 0.163739 0.000000 0.453208
#
# Coordination Sequence:
#
# PCOD9221922 Si02
#       6
#     4   4   8   8   8   8
#     4  12  25  44  74 104 138 182 242 296 355 426
#     4  12  24  40  69  94 146 196 233 292 350 410
#     4  11  25  40  64 102 138 191 238 290 344 408
#     4  12  25  46  70 105 144 189 234 290 364 433
#     4  11  24  39  60  97 144 192 243 283 330 407
#     4  11  26  49  78 106 136 180 236 304 364 432
#
# _framework density 20.436195000000001
#
# number of rings (size 3 to 8) (size 9 to 14) (size 15 to 20)
#    0.000    0.600    6.000    1.500    2.800    0.400 
#    0.000    0.500    0.000    0.000    0.000    0.000 
#    0.000    0.000    0.000    0.000    0.000    0.000 
#
# Total GULP energy -111434.150726 kJ/mol
# GULP energy per Si atom -5571.707536 kJ/mol
# Density = 2.038968 g / cm^3
# Si number density = 20.436195 Si / 1000 Ang^3
#
#
#
# Elastic Constant Matrix: (Units=GPa)
#
#
# Indices 1 2 3 4 5 6 
#
# 1 106.8299 55.8195 62.7141 0.0000 -13.2237 0.0000
# 2 55.8195 125.4860 83.4552 0.0000 -3.2051 0.0000
# 3 62.7141 83.4552 137.9754 0.0000 0.2295 0.0000
# 4 0.0000 0.0000 0.0000 21.4752 0.0000 3.7101
# 5 -13.2237 -3.2051 0.2295 0.0000 43.3642 0.0000
# 6 0.0000 0.0000 0.0000 3.7101 0.0000 25.3996
#
#
#
# Elastic Compliance Matrix: (Units=1/GPa)
#
#
# Indices 1 2 3 4 5 6 
#
# 1 0.014199 -0.003202 -0.004524 0.000000 0.004117 0.000000
# 2 -0.003202 0.014100 -0.007073 0.000000 0.000103 0.000000
# 3 -0.004524 -0.007073 0.013585 0.000000 -0.001974 0.000000
# 4 0.000000 0.000000 0.000000 0.047771 0.000000 -0.006978
# 5 0.004117 0.000103 -0.001974 0.000000 0.024334 0.000000
# 6 0.000000 0.000000 0.000000 -0.006978 0.000000 0.040390
#
#
# Mechanical properties :
#
#
# Convention : Reuss Voigt Hill
#
# Bulk Modulus (GPa) = 81.39319 86.02986 83.71152
# Shear Modulus (GPa) = 26.58525 29.26796 27.92661
#
# Velocity S-wave (km/s) = 3.61070 3.78850 3.70067
# Velocity P-wave (km/s) = 7.56950 7.83104 7.70138
#
# Compressibility (1/GPa) = 0.01228604
#
# Stress axis : x y z
#
# Youngs Moduli (GPa) = 70.42576 70.92081 73.60828
#
# Poissons Ratio (x) = 0.22712 0.33299
# Poissons Ratio (y) = 0.22554 0.52064
# Poissons Ratio (z) = 0.31860 0.50163
#
# Static dielectric constant tensor:
#      x y z
#    x 1.637080 0.000000 -0.139680 
#    y 0.000000 1.697140 0.000000 
#    z -0.139680 0.000000 1.455750 
# 
# From -- ./inp_files/8567.got.cif
#   From: 2010.05.17/outbox.cif.g08.bks.cpg/sg12_5_cif.got.tgz:8567.got - 2010.06.03 13:09:07.
