data_PCOD9221574
_publ_section_title
;
Structure prediction by ZEFSAII (Michael W. Deem and Ramdas Pophale) SiO2 
 PCOD9221574
Probable space group: C 2/M
;
_chemical_formula_sum "Si O2"
_cell_formula_units_Z 56
_cell_length_a 9.622364
_cell_length_b 16.581363
_cell_length_c 25.456190
_cell_angle_alpha 90.000000
_cell_angle_beta 42.158356
_cell_angle_gamma 90.000000
_cell_volume 2726.061807
_symmetry_space_group_name_H-M "C 2/M"
_symmetry_group_IT_number 12
_symmetry_cell_setting 'monoclinic'
loop_
_space_group_symop_operation_xyz
x,y,z
-x,y,-z
-x,-y,-z
x,-y,z
1/2+x,1/2+y,z
1/2-x,1/2+y,-z
1/2-x,1/2-y,-z
1/2+x,1/2-y,z
loop_
_atom_site_type_symbol
_atom_site_label
_atom_site_fract_x
_atom_site_fract_y
_atom_site_fract_z
Si Si1 0.771749 0.593803 0.079372
Si Si2 0.163652 0.156359 0.828695
Si Si3 0.499313 0.597236 0.331498
Si Si4 0.335129 0.904185 0.498380
Si Si5 0.341760 0.158830 0.169252
Si Si6 0.176397 0.402361 0.327537
Si Si7 0.729835 0.406715 0.919824
O O1 0.754257 0.500000 0.068969
O O2 0.581923 0.640936 0.107681
O O3 0.759369 0.602709 0.145534
O O4 0.000000 0.623426 0.000000
O O5 0.202486 0.248966 0.831828
O O6 0.263347 0.135063 0.744797
O O7 0.245403 0.101404 0.852793
O O8 0.518759 0.500000 0.328886
O O9 0.380409 0.626822 0.417251
O O10 0.719048 0.635536 0.256379
O O11 0.348663 0.615348 0.323986
O O12 0.500000 0.897126 0.500000
O O13 0.455674 0.873721 0.413324
O O14 0.305840 0.000000 0.498199
O O15 0.584699 0.143284 0.107279
O O16 0.172102 0.500000 0.323404
O O17 0.751322 0.500000 0.930258
O O18 0.500000 0.378863 0.000000
#
# Coordination Sequence:
#
# PCOD9221574 Si02
#       7
#     8   8   8   8   8   8   8
#     4  11  23  41  65  86 105 142 199 249 282 327
#     4  12  24  37  57  87 119 150 184 231 290 340
#     4   9  16  31  57  84 111 144 189 236 276 327
#     4   7  12  24  49  85 111 135 180 237 281 317
#     4  12  24  37  57  87 119 150 184 231 290 340
#     4   9  16  31  57  84 111 144 189 236 276 327
#     4  11  25  43  59  78 111 154 193 229 280 343
#
# _framework density 20.542456000000001
#
# number of rings (size 3 to 8) (size 9 to 14) (size 15 to 20)
#    0.000    1.857    1.429    6.000    0.000    5.714 
#    0.000    0.714    0.000    0.857    0.000    4.000 
#    0.000    0.000    0.000    0.000    0.000    0.000 
#
# Total GULP energy -156323.033300 kJ/mol
# GULP energy per Si atom -5582.965475 kJ/mol
# Density = 2.049570 g / cm^3
# Si number density = 20.542456 Si / 1000 Ang^3
#
#
#
# Elastic Constant Matrix: (Units=GPa)
#
#
# Indices 1 2 3 4 5 6 
#
# 1 30.2984 0.0266 -5.5800 0.0011 5.6582 -0.0001
# 2 0.0266 31.4907 10.8448 0.0003 -1.0142 0.0000
# 3 -5.5800 10.8448 112.0915 0.0012 1.9742 0.0001
# 4 0.0011 0.0003 0.0012 -4.5703 -0.0018 -20.3554
# 5 5.6582 -1.0142 1.9742 -0.0018 23.1161 -0.0001
# 6 -0.0001 0.0000 0.0001 -20.3554 -0.0001 2.9916
#
#
#
# Elastic Compliance Matrix: (Units=1/GPa)
#
#
# Indices 1 2 3 4 5 6 
#
# 1 0.035014 -0.000999 0.001994 0.000000 -0.008785 0.000003
# 2 -0.000999 0.032946 -0.003272 0.000000 0.001970 0.000000
# 3 0.001994 -0.003272 0.009362 0.000000 -0.001431 0.000001
# 4 0.000000 0.000000 0.000000 -0.006990 -0.000001 -0.047558
# 5 -0.008785 0.001970 -0.001431 -0.000001 0.045619 -0.000004
# 6 0.000003 0.000000 0.000001 -0.047558 -0.000004 0.010678
#
#
# Mechanical properties :
#
#
# Convention : Reuss Voigt Hill
#
# Bulk Modulus (GPa) = 13.74217 20.49593 17.11905
# Shear Modulus (GPa) = 32.16681 15.54677 23.85679
#
# Velocity S-wave (km/s) = 3.96140 2.75401 3.41154
# Velocity P-wave (km/s) = 5.25621 4.48461 4.88567
#
# Compressibility (1/GPa) = 0.07276869
#
# Stress axis : x y z
#
# Youngs Moduli (GPa) = 28.56022 30.35224 106.81085
#
# Poissons Ratio (x) = 0.03033 -0.21303
# Poissons Ratio (y) = 0.02854 0.34949
# Poissons Ratio (z) = -0.05696 0.09931
#
# Static dielectric constant tensor:
#      x y z
#    x 1.705250 0.000000 0.008620 
#    y 0.000000 1.691870 0.000000 
#    z 0.008620 0.000000 1.804100 
# 
# From -- ./inp_files/356636.got.cif
#   From: 2010.05.17/outbox.cif.g08.bks.cpg/sg12_179_cif.got.tgz:356636.got - 2010.06.03 13:09:07.
