data_PCOD9221450
_publ_section_title
;
Structure prediction by ZEFSAII (Michael W. Deem and Ramdas Pophale) SiO2 
 PCOD9221450
Probable space group: C 2/M
;
_chemical_formula_sum "Si O2"
_cell_formula_units_Z 40
_cell_length_a 8.548889
_cell_length_b 13.203643
_cell_length_c 21.359960
_cell_angle_alpha 90.000000
_cell_angle_beta 53.815622
_cell_angle_gamma 90.000000
_cell_volume 1945.999403
_symmetry_space_group_name_H-M "C 2/M"
_symmetry_group_IT_number 12
_symmetry_cell_setting 'monoclinic'
loop_
_space_group_symop_operation_xyz
x,y,z
-x,y,-z
-x,-y,-z
x,-y,z
1/2+x,1/2+y,z
1/2-x,1/2+y,-z
1/2-x,1/2-y,-z
1/2+x,1/2-y,z
loop_
_atom_site_type_symbol
_atom_site_label
_atom_site_fract_x
_atom_site_fract_y
_atom_site_fract_z
Si Si1 0.435572 0.684741 0.077049
Si Si2 0.032511 0.288601 0.558686
Si Si3 0.015530 0.325547 0.819737
Si Si4 0.638521 0.000000 0.872497
Si Si5 0.314203 0.876858 0.353700
Si Si6 0.791213 0.000000 0.969018
O O1 0.213372 0.651402 0.125007
O O2 0.462306 0.730178 0.139914
O O3 0.590405 0.596286 0.037408
O O4 0.500000 0.751581 0.000000
O O5 0.250000 0.250000 0.500000
O O6 0.047090 0.352652 0.619248
O O7 0.000000 0.345296 0.500000
O O8 0.881860 0.193158 0.596332
O O9 0.148935 0.404458 0.825531
O O10 0.082156 0.332947 0.732800
O O11 0.781072 0.000000 0.896446
O O12 0.422976 0.000000 0.952654
O O13 0.281669 0.000000 0.357381
#
# Coordination Sequence:
#
# PCOD9221450 Si02
#       6
#     8   8   8   4   8   4
#     4  12  24  40  61  88 123 174 225 283 327 387
#     4   9  21  42  69 101 133 163 211 260 311 399
#     4  12  24  40  62  89 128 169 218 271 335 385
#     4  11  23  40  59  86 123 163 224 281 322 392
#     4  11  23  43  69  98 136 178 212 267 335 393
#     4  11  24  39  60  87 118 166 234 282 328 389
#
# _framework density 20.554991999999999
#
# number of rings (size 3 to 8) (size 9 to 14) (size 15 to 20)
#    0.000    1.000    3.000    3.900    2.800    4.000 
#    0.000    3.000    0.000    0.000    0.000    0.000 
#    0.000    0.000    0.000    0.000    0.000    0.000 
#
# Total GULP energy -111443.062503 kJ/mol
# GULP energy per Si atom -5572.153125 kJ/mol
# Density = 2.050821 g / cm^3
# Si number density = 20.554992 Si / 1000 Ang^3
#
#
#
# Elastic Constant Matrix: (Units=GPa)
#
#
# Indices 1 2 3 4 5 6 
#
# 1 130.4362 20.8922 58.0631 0.0000 26.8947 0.0000
# 2 20.8922 75.4036 32.0422 0.0000 10.0488 0.0000
# 3 58.0631 32.0422 154.1007 0.0000 31.6137 0.0000
# 4 0.0000 0.0000 0.0000 22.5878 0.0000 7.2177
# 5 26.8947 10.0488 31.6137 0.0000 50.6097 0.0000
# 6 0.0000 0.0000 0.0000 7.2177 0.0000 26.6893
#
#
#
# Elastic Compliance Matrix: (Units=1/GPa)
#
#
# Indices 1 2 3 4 5 6 
#
# 1 0.009745 -0.001087 -0.002784 0.000000 -0.003223 0.000000
# 2 -0.001087 0.014727 -0.002490 0.000000 -0.000791 0.000000
# 3 -0.002784 -0.002490 0.008776 0.000000 -0.003508 0.000000
# 4 0.000000 0.000000 0.000000 0.048459 0.000000 -0.013105
# 5 -0.003223 -0.000791 -0.003508 0.000000 0.023820 0.000000
# 6 0.000000 0.000000 0.000000 -0.013105 0.000000 0.041012
#
#
# Mechanical properties :
#
#
# Convention : Reuss Voigt Hill
#
# Bulk Modulus (GPa) = 48.72429 64.65951 56.69190
# Shear Modulus (GPa) = 30.10159 36.57355 33.33757
#
# Velocity S-wave (km/s) = 3.83095 4.22275 4.03162
# Velocity P-wave (km/s) = 6.58210 7.43644 7.02228
#
# Compressibility (1/GPa) = 0.02052364
#
# Stress axis : x y z
#
# Youngs Moduli (GPa) = 102.61880 67.90339 113.94978
#
# Poissons Ratio (x) = 0.07383 0.31728
# Poissons Ratio (y) = 0.11157 0.28377
# Poissons Ratio (z) = 0.28573 0.16910
#
# Static dielectric constant tensor:
#      x y z
#    x 1.763740 0.000000 0.074540 
#    y 0.000000 2.679960 0.000000 
#    z 0.074540 0.000000 1.780260 
# 
# From -- ./inp_files/255013.got.cif
#   From: 2010.05.17/outbox.cif.g08.bks.cpg/sg12_128_cif.got.tgz:255013.got - 2010.06.03 13:09:07.
