data_PCOD9221405
_publ_section_title
;
Structure prediction by ZEFSAII (Michael W. Deem and Ramdas Pophale) SiO2 
 PCOD9221405
Probable space group: C 2/M
;
_chemical_formula_sum "Si O2"
_cell_formula_units_Z 60
_cell_length_a 9.203558
_cell_length_b 16.801527
_cell_length_c 23.112847
_cell_angle_alpha 90.000000
_cell_angle_beta 45.337178
_cell_angle_gamma 90.000000
_cell_volume 2542.047946
_symmetry_space_group_name_H-M "C 2/M"
_symmetry_group_IT_number 12
_symmetry_cell_setting 'monoclinic'
loop_
_space_group_symop_operation_xyz
x,y,z
-x,y,-z
-x,-y,-z
x,-y,z
1/2+x,1/2+y,z
1/2-x,1/2+y,-z
1/2-x,1/2-y,-z
1/2+x,1/2-y,z
loop_
_atom_site_type_symbol
_atom_site_label
_atom_site_fract_x
_atom_site_fract_y
_atom_site_fract_z
Si Si1 0.164697 0.336994 0.004441
Si Si2 0.866840 0.410381 0.590251
Si Si3 0.951765 0.112781 0.641362
Si Si4 0.500000 0.633918 0.500000
Si Si5 0.405664 0.774739 0.794608
Si Si6 0.054921 0.295951 0.626702
Si Si7 0.853211 0.647412 0.183762
Si Si8 0.931549 0.090499 0.086440
O O1 0.036587 0.380092 0.091915
O O2 0.250000 0.250000 0.000000
O O3 0.362569 0.389389 0.935757
O O4 0.000000 0.325297 0.000000
O O5 0.940139 0.500000 0.581871
O O6 0.640487 0.413943 0.628234
O O7 0.000000 0.376625 0.500000
O O8 0.909843 0.356444 0.633085
O O9 0.962184 0.087864 0.571425
O O10 0.986434 0.207963 0.628477
O O11 0.750751 0.096428 0.736471
O O12 0.708731 0.683732 0.451337
O O13 0.522131 0.800506 0.704328
O O14 0.317081 0.687433 0.808729
O O15 0.554469 0.777402 0.807173
O O16 0.233942 0.841206 0.855265
O O17 0.860632 0.000000 0.117259
O O18 0.000000 0.096483 0.000000
#
# Coordination Sequence:
#
# PCOD9221405 Si02
#       8
#     8   8   8   4   8   8   8   8
#     4  12  23  40  70  98 128 167 214 264 323 392
#     4  11  25  45  63  90 133 179 216 267 338 400
#     4  11  24  39  66  97 133 170 224 275 323 389
#     4  12  20  38  61  96 125 172 220 274 322 374
#     4  11  23  40  63  97 130 167 215 270 326 381
#     4  11  24  38  67  96 128 169 225 271 324 393
#     4  11  23  39  63 101 130 162 215 278 322 376
#     4  11  24  43  66  92 130 174 215 261 327 398
#
# _framework density 23.603017999999999
#
# number of rings (size 3 to 8) (size 9 to 14) (size 15 to 20)
#    0.000    0.800    5.333    2.400    7.467    0.800 
#    0.000    2.667    0.000    0.000    0.000    0.000 
#    0.000    0.000    0.000    0.000    0.000    0.000 
#
# Total GULP energy -167764.227830 kJ/mol
# GULP energy per Si atom -5592.140928 kJ/mol
# Density = 2.354930 g / cm^3
# Si number density = 23.603018 Si / 1000 Ang^3
#
#
#
# Elastic Constant Matrix: (Units=GPa)
#
#
# Indices 1 2 3 4 5 6 
#
# 1 107.6306 4.0919 6.5612 -0.0004 7.3472 -0.0007
# 2 4.0919 81.2820 8.6438 -0.0006 4.7726 0.0002
# 3 6.5612 8.6438 139.9876 0.0004 -4.6480 -0.0002
# 4 -0.0004 -0.0006 0.0004 -27.8149 -0.0001 -26.2843
# 5 7.3472 4.7726 -4.6480 -0.0001 39.5157 0.0002
# 6 -0.0007 0.0002 -0.0002 -26.2843 0.0002 73.7989
#
#
#
# Elastic Compliance Matrix: (Units=1/GPa)
#
#
# Indices 1 2 3 4 5 6 
#
# 1 0.009454 -0.000320 -0.000482 0.000000 -0.001776 0.000000
# 2 -0.000320 0.012496 -0.000808 0.000000 -0.001545 0.000000
# 3 -0.000482 -0.000808 0.007251 0.000000 0.001040 0.000000
# 4 0.000000 0.000000 0.000000 -0.026899 0.000000 -0.009580
# 5 -0.001776 -0.001545 0.001040 0.000000 0.025945 0.000000
# 6 0.000000 0.000000 0.000000 -0.009580 0.000000 0.010138
#
#
# Mechanical properties :
#
#
# Convention : Reuss Voigt Hill
#
# Bulk Modulus (GPa) = 38.49271 40.83269 39.66270
# Shear Modulus (GPa) = 99.47193 37.74016 68.60604
#
# Velocity S-wave (km/s) = 6.49886 4.00303 5.39720
# Velocity P-wave (km/s) = 8.52393 6.22117 7.46192
#
# Compressibility (1/GPa) = 0.02597895
#
# Stress axis : x y z
#
# Youngs Moduli (GPa) = 105.77708 80.02833 137.92138
#
# Poissons Ratio (x) = 0.02564 0.06652
# Poissons Ratio (y) = 0.03389 0.11142
# Poissons Ratio (z) = 0.05101 0.06465
#
# Static dielectric constant tensor:
#      x y z
#    x 1.913820 0.000000 -0.003740 
#    y 0.000000 1.863320 0.000000 
#    z -0.003740 0.000000 1.952920 
# 
# From -- ./inp_files/301893.got.cif
#   From: 2010.05.17/outbox.cif.g08.bks.cpg/sg12_151_cif.got.tgz:301893.got - 2010.06.03 13:09:07.
