data_PCOD9221978
_publ_section_title
;
Structure prediction by ZEFSAII (Michael W. Deem and Ramdas Pophale) SiO2 
 PCOD9221978
Probable space group: C 2/M
;
_chemical_formula_sum "Si O2"
_cell_formula_units_Z 36
_cell_length_a 8.482773
_cell_length_b 10.763958
_cell_length_c 19.796108
_cell_angle_alpha 90.000000
_cell_angle_beta 61.295280
_cell_angle_gamma 90.000000
_cell_volume 1585.411607
_symmetry_space_group_name_H-M "C 2/M"
_symmetry_group_IT_number 12
_symmetry_cell_setting 'monoclinic'
loop_
_space_group_symop_operation_xyz
x,y,z
-x,y,-z
-x,-y,-z
x,-y,z
1/2+x,1/2+y,z
1/2-x,1/2+y,-z
1/2-x,1/2-y,-z
1/2+x,1/2-y,z
loop_
_atom_site_type_symbol
_atom_site_label
_atom_site_fract_x
_atom_site_fract_y
_atom_site_fract_z
Si Si1 0.000000 0.186786 0.500000
Si Si2 0.272749 0.638690 0.285407
Si Si3 0.625356 0.800359 0.613037
Si Si4 0.424233 0.861069 0.162558
Si Si5 0.315821 0.295762 0.058531
O O1 0.815476 0.129146 0.567105
O O2 0.931809 0.265651 0.450769
O O3 0.340558 0.500000 0.255831
O O4 0.329530 0.680357 0.349640
O O5 0.349694 0.750821 0.224691
O O6 0.056275 0.638893 0.321500
O O7 0.367864 0.815790 0.098966
O O8 0.640954 0.862046 0.124509
O O9 0.355606 0.000000 0.191124
O O10 0.500000 0.364001 0.000000
O O11 0.250000 0.250000 0.000000
#
# Coordination Sequence:
#
# PCOD9221978 Si02
#       5
#     4   8   8   8   8
#     4   8  16  38  62  90 126 162 206 262 324 382
#     4  11  24  41  62  93 131 169 212 261 314 375
#     4   9  19  38  64  89 126 168 207 258 323 383
#     4  11  24  42  66  95 128 169 215 259 311 378
#     4   9  21  41  64  95 128 159 201 263 322 370
#
# _framework density 22.707035999999999
#
# number of rings (size 3 to 8) (size 9 to 14) (size 15 to 20)
#    0.000    2.222    0.000    1.333    0.000   11.556 
#    0.000   31.111    0.000    0.000    0.000    0.000 
#    0.000    0.000    0.000    0.000    0.000    0.000 
#
# Total GULP energy -100212.017570 kJ/mol
# GULP energy per Si atom -5567.334309 kJ/mol
# Density = 2.265535 g / cm^3
# Si number density = 22.707036 Si / 1000 Ang^3
#
#
#
# Elastic Constant Matrix: (Units=GPa)
#
#
# Indices 1 2 3 4 5 6 
#
# 1 141.5974 47.1640 46.3835 0.0000 -14.0023 0.0000
# 2 47.1640 186.5060 64.3975 0.0000 -9.3190 0.0000
# 3 46.3835 64.3975 114.6996 0.0000 -14.8478 0.0000
# 4 0.0000 0.0000 0.0000 -19.8708 0.0000 -14.4085
# 5 -14.0023 -9.3190 -14.8478 0.0000 50.6869 0.0000
# 6 0.0000 0.0000 0.0000 -14.4085 0.0000 0.5638
#
#
#
# Elastic Compliance Matrix: (Units=1/GPa)
#
#
# Indices 1 2 3 4 5 6 
#
# 1 0.008431 -0.001176 -0.002574 0.000000 0.001359 0.000000
# 2 -0.001176 0.006816 -0.003359 0.000000 -0.000055 0.000000
# 3 -0.002574 -0.003359 0.011925 0.000000 0.002165 0.000000
# 4 0.000000 0.000000 0.000000 -0.002577 0.000000 -0.065850
# 5 0.001359 -0.000055 0.002165 0.000000 0.020728 0.000000
# 6 0.000000 0.000000 0.000000 -0.065850 0.000000 0.090814
#
#
# Mechanical properties :
#
#
# Convention : Reuss Voigt Hill
#
# Bulk Modulus (GPa) = 77.17942 84.29921 80.73931
# Shear Modulus (GPa) = 32.32641 25.26653 28.79647
#
# Velocity S-wave (km/s) = 3.77720 3.33936 3.56501
# Velocity P-wave (km/s) = 7.28601 7.21621 7.25120
#
# Compressibility (1/GPa) = 0.01295682
#
# Stress axis : x y z
#
# Youngs Moduli (GPa) = 118.60593 146.71529 83.85731
#
# Poissons Ratio (x) = 0.17248 0.21581
# Poissons Ratio (y) = 0.13943 0.28164
# Poissons Ratio (z) = 0.30524 0.49275
#
# Static dielectric constant tensor:
#      x y z
#    x 1.898980 0.000000 -0.082820 
#    y 0.000000 1.926690 0.000000 
#    z -0.082820 0.000000 1.947110 
# 
# From -- ./inp_files/298978.got.cif
#   From: 2010.05.17/outbox.cif.g08.bks.cpg/sg12_150_cif.got.tgz:298978.got - 2010.06.03 13:09:07.
