data_PCOD9221252
_publ_section_title
;
Structure prediction by ZEFSAII (Michael W. Deem and Ramdas Pophale) SiO2 
 PCOD9221252
Probable space group: C 2/M
;
_chemical_formula_sum "Si O2"
_cell_formula_units_Z 64
_cell_length_a 22.359388
_cell_length_b 11.254441
_cell_length_c 23.544557
_cell_angle_alpha 90.000000
_cell_angle_beta 35.782687
_cell_angle_gamma 90.000000
_cell_volume 3464.310378
_symmetry_space_group_name_H-M "C 2/M"
_symmetry_group_IT_number 12
_symmetry_cell_setting 'monoclinic'
loop_
_space_group_symop_operation_xyz
x,y,z
-x,y,-z
-x,-y,-z
x,-y,z
1/2+x,1/2+y,z
1/2-x,1/2+y,-z
1/2-x,1/2-y,-z
1/2+x,1/2-y,z
loop_
_atom_site_type_symbol
_atom_site_label
_atom_site_fract_x
_atom_site_fract_y
_atom_site_fract_z
Si Si1 0.908129 0.130853 0.163520
Si Si2 0.955482 0.141756 0.782222
Si Si3 0.782286 0.221385 0.834961
Si Si4 0.626089 0.145061 0.464662
Si Si5 0.830180 0.135966 0.354049
Si Si6 0.608161 0.142428 0.348403
Si Si7 0.364437 0.363254 0.971025
Si Si8 0.114105 0.370693 0.886320
O O1 0.868221 0.130589 0.259001
O O2 0.873646 0.250672 0.159537
O O3 0.031449 0.135892 0.072065
O O4 0.878835 0.000000 0.161447
O O5 0.881642 0.163359 0.786682
O O6 0.899053 0.186050 0.883018
O O7 0.071806 0.190381 0.689305
O O8 0.967326 0.000000 0.781919
O O9 0.822657 0.306708 0.754253
O O10 0.699409 0.136193 0.869596
O O11 0.721565 0.291112 0.930552
O O12 0.717066 0.190448 0.435053
O O13 0.640846 0.179410 0.387032
O O14 0.510450 0.178945 0.569023
O O15 0.630885 0.000000 0.461945
O O16 0.816848 0.000000 0.385048
O O17 0.610793 0.000000 0.345651
O O18 0.331470 0.500000 0.989153
O O19 0.124067 0.500000 0.849096
O O20 0.000000 0.365887 0.000000
#
# Coordination Sequence:
#
# PCOD9221252 Si02
#       8
#     8   8   8   8   8   8   8   8
#     4   9  17  32  53  78  97 124 168 216 258 300
#     4   9  19  33  47  67  93 129 173 211 246 297
#     4  12  20  31  48  69  97 137 169 205 243 299
#     4   8  14  29  49  74 104 128 148 199 272 320
#     4   8  14  28  53  75  95 121 162 212 258 297
#     4   9  18  29  48  78 106 126 157 203 262 315
#     4   9  18  32  50  71  96 122 160 213 261 294
#     4  11  23  35  45  67 104 141 169 202 252 312
#
# _framework density 18.474095999999999
#
# number of rings (size 3 to 8) (size 9 to 14) (size 15 to 20)
#    0.000    2.625    1.250    4.125    0.000    2.250 
#    0.000    0.625    0.000    3.000    0.000   16.625 
#    0.000    0.000    0.000    0.000    0.000    0.000 
#
# Total GULP energy -178183.287989 kJ/mol
# GULP energy per Si atom -5568.227750 kJ/mol
# Density = 1.843205 g / cm^3
# Si number density = 18.474096 Si / 1000 Ang^3
#
#
#
# Elastic Constant Matrix: (Units=GPa)
#
#
# Indices 1 2 3 4 5 6 
#
# 1 103.4486 16.6357 17.4848 0.0000 -30.4178 0.0000
# 2 16.6357 57.3697 -4.0128 0.0000 2.0346 0.0000
# 3 17.4848 -4.0128 40.3236 0.0000 -19.7336 0.0000
# 4 0.0000 0.0000 0.0000 4.2771 0.0000 0.0697
# 5 -30.4178 2.0346 -19.7336 0.0000 28.7339 0.0000
# 6 0.0000 0.0000 0.0000 0.0697 0.0000 47.9052
#
#
#
# Elastic Compliance Matrix: (Units=1/GPa)
#
#
# Indices 1 2 3 4 5 6 
#
# 1 0.015424 -0.004997 0.001474 0.000000 0.017693 0.000000
# 2 -0.004997 0.019172 0.001237 0.000000 -0.005797 0.000000
# 3 0.001474 0.001237 0.037662 0.000000 0.027338 0.000000
# 4 0.000000 0.000000 0.000000 0.233811 0.000000 -0.000340
# 5 0.017693 -0.005797 0.027338 0.000000 0.072718 0.000000
# 6 0.000000 0.000000 0.000000 -0.000340 0.000000 0.020875
#
#
# Mechanical properties :
#
#
# Convention : Reuss Voigt Hill
#
# Bulk Modulus (GPa) = 14.77407 29.03969 21.90688
# Shear Modulus (GPa) = 11.71522 27.58553 19.65037
#
# Velocity S-wave (km/s) = 2.52095 3.86839 3.26494
# Velocity P-wave (km/s) = 4.06056 5.97544 5.10852
#
# Compressibility (1/GPa) = 0.06768613
#
# Stress axis : x y z
#
# Youngs Moduli (GPa) = 64.83543 52.15958 26.55199
#
# Poissons Ratio (x) = 0.26064 -0.03913
# Poissons Ratio (y) = 0.32398 -0.03286
# Poissons Ratio (z) = -0.09555 -0.06454
#
# Static dielectric constant tensor:
#      x y z
#    x 1.697780 0.000000 -0.036310 
#    y 0.000000 1.630280 0.000000 
#    z -0.036310 0.000000 1.648420 
# 
# From -- ./inp_files/321249.got.cif
#   From: 2010.05.17/outbox.cif.g08.bks.cpg/sg12_161_cif.got.tgz:321249.got - 2010.06.03 13:09:07.
