data_PCOD9221867
_publ_section_title
;
Structure prediction by ZEFSAII (Michael W. Deem and Ramdas Pophale) SiO2 
 PCOD9221867
Probable space group: C 2/M
;
_chemical_formula_sum "Si O2"
_cell_formula_units_Z 36
_cell_length_a 12.939247
_cell_length_b 26.500274
_cell_length_c 5.369208
_cell_angle_alpha 90.000000
_cell_angle_beta 132.830530
_cell_angle_gamma 90.000000
_cell_volume 1350.179118
_symmetry_space_group_name_H-M "C 2/M"
_symmetry_group_IT_number 12
_symmetry_cell_setting 'monoclinic'
loop_
_space_group_symop_operation_xyz
x,y,z
-x,y,-z
-x,-y,-z
x,-y,z
1/2+x,1/2+y,z
1/2-x,1/2+y,-z
1/2-x,1/2-y,-z
1/2+x,1/2-y,z
loop_
_atom_site_type_symbol
_atom_site_label
_atom_site_fract_x
_atom_site_fract_y
_atom_site_fract_z
Si Si1 0.058210 0.297224 0.843988
Si Si2 0.764109 0.900283 0.521985
Si Si3 0.416296 0.500000 0.612000
Si Si4 0.155035 0.559520 0.864636
Si Si5 0.115531 0.807261 0.508703
O O1 0.000000 0.323286 0.500000
O O2 0.969016 0.243833 0.695745
O O3 0.228217 0.293567 0.126360
O O4 0.000000 0.320405 0.000000
O O5 0.736225 0.916178 0.760911
O O6 0.839323 0.846199 0.631307
O O7 0.853288 0.944303 0.540773
O O8 0.649901 0.906299 0.106244
O O9 0.500000 0.500000 0.500000
O O10 0.500000 0.500000 0.000000
O O11 0.197795 0.500000 0.982086
O O12 0.000000 0.555177 0.500000
O O13 0.000000 0.833293 0.500000
#
# Coordination Sequence:
#
# PCOD9221867 Si02
#       5
#     8   8   4   8   8
#     4  11  25  48  76 106 147 197 246 319 378 439
#     4  12  25  43  70 108 143 192 247 295 372 440
#     4  12  24  42  63  94 139 186 228 292 356 432
#     4  11  23  45  72 103 148 196 244 304 364 441
#     4  11  26  48  76 111 151 198 255 310 378 450
#
# _framework density 26.663126999999999
#
# number of rings (size 3 to 8) (size 9 to 14) (size 15 to 20)
#    0.000    0.667    2.222    6.000    0.000   10.667 
#    0.000    0.000    0.000    0.000    0.000    0.000 
#    0.000    0.000    0.000    0.000    0.000    0.000 
#
# Total GULP energy -100417.403234 kJ/mol
# GULP energy per Si atom -5578.744624 kJ/mol
# Density = 2.660244 g / cm^3
# Si number density = 26.663127 Si / 1000 Ang^3
#
#
#
# Elastic Constant Matrix: (Units=GPa)
#
#
# Indices 1 2 3 4 5 6 
#
# 1 169.1512 60.2552 46.3641 0.0000 -5.7654 0.0000
# 2 60.2552 160.6012 33.3828 0.0000 2.2774 0.0000
# 3 46.3641 33.3828 101.2765 0.0000 3.9593 0.0000
# 4 0.0000 0.0000 0.0000 -57.2850 0.0000 55.9026
# 5 -5.7654 2.2774 3.9593 0.0000 69.2368 0.0000
# 6 0.0000 0.0000 0.0000 55.9026 0.0000 24.3138
#
#
#
# Elastic Compliance Matrix: (Units=1/GPa)
#
#
# Indices 1 2 3 4 5 6 
#
# 1 0.007490 -0.002257 -0.002718 0.000000 0.000853 0.000000
# 2 -0.002257 0.007365 -0.001381 0.000000 -0.000351 0.000000
# 3 -0.002718 -0.001381 0.011607 0.000000 -0.000845 0.000000
# 4 0.000000 0.000000 0.000000 -0.005382 0.000000 0.012374
# 5 0.000853 -0.000351 -0.000845 0.000000 0.014574 0.000000
# 6 0.000000 0.000000 0.000000 0.012374 0.000000 0.012680
#
#
# Mechanical properties :
#
#
# Convention : Reuss Voigt Hill
#
# Bulk Modulus (GPa) = 72.72936 79.00367 75.86651
# Shear Modulus (GPa) = 76.18491 26.65490 51.41991
#
# Velocity S-wave (km/s) = 5.35118 3.16522 4.39624
# Velocity P-wave (km/s) = 8.09423 6.56146 7.36781
#
# Compressibility (1/GPa) = 0.01374961
#
# Stress axis : x y z
#
# Youngs Moduli (GPa) = 133.50923 135.76869 86.15852
#
# Poissons Ratio (x) = 0.30646 0.23420
# Poissons Ratio (y) = 0.30136 0.11896
# Poissons Ratio (z) = 0.36292 0.18746
#
# Static dielectric constant tensor:
#      x y z
#    x 0.977110 0.000000 1.470010 
#    y 0.000000 2.172920 0.000000 
#    z 1.470010 0.000000 0.459750 
# 
# From -- ./inp_files/13288.got.cif
#   From: 2010.05.17/outbox.cif.g08.bks.cpg/sg12_7_cif.got.tgz:13288.got - 2010.06.03 13:09:07.
