data_PCOD9221738
_publ_section_title
;
Structure prediction by ZEFSAII (Michael W. Deem and Ramdas Pophale) SiO2 
 PCOD9221738
Probable space group: C 2/M
;
_chemical_formula_sum "Si O2"
_cell_formula_units_Z 44
_cell_length_a 16.772983
_cell_length_b 28.051811
_cell_length_c 7.429048
_cell_angle_alpha 90.000000
_cell_angle_beta 37.594762
_cell_angle_gamma 90.000000
_cell_volume 2132.485015
_symmetry_space_group_name_H-M "C 2/M"
_symmetry_group_IT_number 12
_symmetry_cell_setting 'monoclinic'
loop_
_space_group_symop_operation_xyz
x,y,z
-x,y,-z
-x,-y,-z
x,-y,z
1/2+x,1/2+y,z
1/2-x,1/2+y,-z
1/2-x,1/2-y,-z
1/2+x,1/2-y,z
loop_
_atom_site_type_symbol
_atom_site_label
_atom_site_fract_x
_atom_site_fract_y
_atom_site_fract_z
Si Si1 0.500000 0.131462 0.500000
Si Si2 0.913688 0.552451 0.876679
Si Si3 0.676458 0.202974 0.343997
Si Si4 0.153146 0.850801 0.688887
Si Si5 0.294343 0.052915 0.483364
Si Si6 0.859921 0.188597 0.669647
O O1 0.394450 0.095709 0.775558
O O2 0.556553 0.166189 0.550714
O O3 0.891557 0.500000 0.835215
O O4 0.065888 0.556101 0.666062
O O5 0.831421 0.554752 0.205593
O O6 0.768134 0.189882 0.345662
O O7 0.629526 0.257186 0.424227
O O8 0.756448 0.192172 0.016855
O O9 0.204088 0.901438 0.674412
O O10 0.176706 0.844132 0.433895
O O11 0.000000 0.845838 0.000000
O O12 0.239255 0.000000 0.621281
O O13 0.000000 0.174301 0.500000
#
# Coordination Sequence:
#
# PCOD9221738 Si02
#       6
#     4   8   8   8   8   8
#     4  12  19  34  60  90 118 146 193 246 290 344
#     4   9  18  33  57  85 119 150 184 240 297 344
#     4  11  24  40  60  90 119 152 195 242 290 345
#     4  12  23  40  64  85 116 159 199 234 287 350
#     4   9  19  37  56  83 117 151 191 239 290 343
#     4  11  23  43  60  84 122 156 193 242 290 342
#
# _framework density 20.633205
#
# number of rings (size 3 to 8) (size 9 to 14) (size 15 to 20)
#    0.000    1.455    4.545    3.000    0.000    0.364 
#    0.000    0.000    0.000    0.545    0.000    0.000 
#    0.000    0.000    0.000    0.000    0.000    0.000 
#
# Total GULP energy -122872.842034 kJ/mol
# GULP energy per Si atom -5585.129183 kJ/mol
# Density = 2.058624 g / cm^3
# Si number density = 20.633205 Si / 1000 Ang^3
#
#
#
# Elastic Constant Matrix: (Units=GPa)
#
#
# Indices 1 2 3 4 5 6 
#
# 1 71.6021 17.9727 -1.1552 0.0000 -1.5146 0.0000
# 2 17.9727 95.0121 -16.4573 0.0000 -6.0246 0.0000
# 3 -1.1552 -16.4573 20.1341 0.0000 5.2579 0.0000
# 4 0.0000 0.0000 0.0000 13.8747 0.0000 5.1079
# 5 -1.5146 -6.0246 5.2579 0.0000 27.5967 0.0000
# 6 0.0000 0.0000 0.0000 5.1079 0.0000 27.9519
#
#
#
# Elastic Compliance Matrix: (Units=1/GPa)
#
#
# Indices 1 2 3 4 5 6 
#
# 1 0.014716 -0.003062 -0.001784 0.000000 0.000479 0.000000
# 2 -0.003062 0.012915 0.010196 0.000000 0.000709 0.000000
# 3 -0.001784 0.010196 0.060346 0.000000 -0.009370 0.000000
# 4 0.000000 0.000000 0.000000 0.077272 0.000000 -0.014121
# 5 0.000479 0.000709 -0.009370 0.000000 0.038202 0.000000
# 6 0.000000 0.000000 0.000000 -0.014121 0.000000 0.038356
#
#
# Mechanical properties :
#
#
# Convention : Reuss Voigt Hill
#
# Bulk Modulus (GPa) = 10.13412 20.82983 15.48197
# Shear Modulus (GPa) = 18.93940 26.31054 22.62497
#
# Velocity S-wave (km/s) = 3.03299 3.57481 3.31498
# Velocity P-wave (km/s) = 4.14579 5.21116 4.70870
#
# Compressibility (1/GPa) = 0.09867660
#
# Stress axis : x y z
#
# Youngs Moduli (GPa) = 67.95285 77.42766 16.57121
#
# Poissons Ratio (x) = 0.23711 0.02956
# Poissons Ratio (y) = 0.20809 -0.16896
# Poissons Ratio (z) = 0.12122 -0.78945
#
# Static dielectric constant tensor:
#      x y z
#    x 1.730840 0.000000 0.012230 
#    y 0.000000 1.752500 0.000000 
#    z 0.012230 0.000000 1.735330 
# 
# From -- ./inp_files/78995.got.cif
#   From: 2010.05.17/outbox.cif.g08.bks.cpg/sg12_40_cif.got.tgz:78995.got - 2010.06.03 13:09:07.
