data_PCOD9221197
_publ_section_title
;
Structure prediction by ZEFSAII (Michael W. Deem and Ramdas Pophale) SiO2 
 PCOD9221197
Probable space group: C 2/M
;
_chemical_formula_sum "Si O2"
_cell_formula_units_Z 58
_cell_length_a 16.155914
_cell_length_b 19.559399
_cell_length_c 12.628397
_cell_angle_alpha 90.000000
_cell_angle_beta 139.634807
_cell_angle_gamma 90.000000
_cell_volume 2584.523166
_symmetry_space_group_name_H-M "C 2/M"
_symmetry_group_IT_number 12
_symmetry_cell_setting 'monoclinic'
loop_
_space_group_symop_operation_xyz
x,y,z
-x,y,-z
-x,-y,-z
x,-y,z
1/2+x,1/2+y,z
1/2-x,1/2+y,-z
1/2-x,1/2-y,-z
1/2+x,1/2-y,z
loop_
_atom_site_type_symbol
_atom_site_label
_atom_site_fract_x
_atom_site_fract_y
_atom_site_fract_z
Si Si1 0.726265 0.334871 0.362376
Si Si2 0.300431 0.920203 0.771552
Si Si3 0.309634 0.879238 0.233377
Si Si4 0.500692 0.221897 0.660924
Si Si5 0.554178 0.793453 0.166200
Si Si6 0.930820 0.122658 0.590866
Si Si7 0.785108 0.920556 0.086138
Si Si8 0.500000 0.000000 0.500000
O O1 0.713187 0.371652 0.237002
O O2 0.876341 0.326790 0.532161
O O3 0.670535 0.258323 0.303452
O O4 0.652387 0.374039 0.382599
O O5 0.393544 0.870197 0.797921
O O6 0.159257 0.911012 0.584534
O O7 0.291661 0.895393 0.884859
O O8 0.336712 0.000000 0.801833
O O9 0.388639 0.808648 0.302406
O O10 0.407403 0.940019 0.356391
O O11 0.246722 0.888365 0.057630
O O12 0.535771 0.217840 0.820097
O O13 0.463882 0.298677 0.596287
O O14 0.500000 0.772487 0.000000
O O15 0.065316 0.087092 0.742392
O O16 0.752347 0.000000 0.045537
#
# Coordination Sequence:
#
# PCOD9221197 Si02
#       8
#     8   8   8   8   8   8   8   2
#     4  11  23  43  68  97 132 167 222 271 328 394
#     4  11  23  43  67  94 132 182 220 260 327 397
#     4  12  26  45  70  99 125 181 217 276 332 385
#     4  11  22  44  68  97 128 169 226 270 327 387
#     4  11  23  41  65 100 133 166 213 285 326 385
#     4  11  23  43  69  99 133 176 214 272 328 393
#     4  11  26  44  64  98 139 168 222 272 321 394
#     4  12  24  48  68  90 136 172 224 268 324 388
#
# _framework density 22.441276999999999
#
# number of rings (size 3 to 8) (size 9 to 14) (size 15 to 20)
#    0.000    0.828    4.828    2.483    5.793    3.034 
#    6.207    0.690    0.000    0.000    0.000    0.000 
#    0.000    0.000    0.000    0.000    0.000    0.000 
#
# Total GULP energy -162004.792342 kJ/mol
# GULP energy per Si atom -5586.372150 kJ/mol
# Density = 2.239020 g / cm^3
# Si number density = 22.441277 Si / 1000 Ang^3
#
#
#
# Elastic Constant Matrix: (Units=GPa)
#
#
# Indices 1 2 3 4 5 6 
#
# 1 82.9568 13.9059 19.5147 0.0000 -30.5652 0.0000
# 2 13.9059 56.2565 6.0519 0.0000 -15.9286 0.0000
# 3 19.5147 6.0519 88.3643 0.0000 -21.2660 0.0000
# 4 0.0000 0.0000 0.0000 28.2474 0.0000 -3.0569
# 5 -30.5652 -15.9286 -21.2660 0.0000 36.6610 0.0000
# 6 0.0000 0.0000 0.0000 -3.0569 0.0000 16.1695
#
#
#
# Elastic Compliance Matrix: (Units=1/GPa)
#
#
# Indices 1 2 3 4 5 6 
#
# 1 0.017415 -0.000248 -0.000419 0.000000 0.014168 0.000000
# 2 -0.000248 0.020328 0.000858 0.000000 0.009123 0.000000
# 3 -0.000419 0.000858 0.013199 0.000000 0.007680 0.000000
# 4 0.000000 0.000000 0.000000 0.036141 0.000000 0.006833
# 5 0.014168 0.009123 0.007680 0.000000 0.047508 0.000000
# 6 0.000000 0.000000 0.000000 0.006833 0.000000 0.063136
#
#
# Mechanical properties :
#
#
# Convention : Reuss Voigt Hill
#
# Bulk Modulus (GPa) = 19.48428 34.05806 26.77117
# Shear Modulus (GPa) = 23.31518 28.75595 26.03557
#
# Velocity S-wave (km/s) = 3.22676 3.58353 3.40981
# Velocity P-wave (km/s) = 4.75224 5.68610 5.24002
#
# Compressibility (1/GPa) = 0.05132343
#
# Stress axis : x y z
#
# Youngs Moduli (GPa) = 57.42209 49.19365 75.76455
#
# Poissons Ratio (x) = 0.01220 0.03176
# Poissons Ratio (y) = 0.01424 -0.06502
# Poissons Ratio (z) = 0.02407 -0.04222
#
# Static dielectric constant tensor:
#      x y z
#    x 1.852710 0.000000 -0.028670 
#    y 0.000000 1.795610 0.000000 
#    z -0.028670 0.000000 1.870240 
# 
# From -- ./inp_files/159788.got.cif
#   From: 2010.05.17/outbox.cif.g08.bks.cpg/sg12_80_cif.got.tgz:159788.got - 2010.06.03 13:09:07.
