data_PCOD9221421
_publ_section_title
;
Structure prediction by ZEFSAII (Michael W. Deem and Ramdas Pophale) SiO2 
 PCOD9221421
Probable space group: C 2/M
;
_chemical_formula_sum "Si O2"
_cell_formula_units_Z 58
_cell_length_a 8.595333
_cell_length_b 17.011360
_cell_length_c 19.289501
_cell_angle_alpha 90.000000
_cell_angle_beta 63.935834
_cell_angle_gamma 90.000000
_cell_volume 2533.642681
_symmetry_space_group_name_H-M "C 2/M"
_symmetry_group_IT_number 12
_symmetry_cell_setting 'monoclinic'
loop_
_space_group_symop_operation_xyz
x,y,z
-x,y,-z
-x,-y,-z
x,-y,z
1/2+x,1/2+y,z
1/2-x,1/2+y,-z
1/2-x,1/2-y,-z
1/2+x,1/2-y,z
loop_
_atom_site_type_symbol
_atom_site_label
_atom_site_fract_x
_atom_site_fract_y
_atom_site_fract_z
Si Si1 0.822941 0.208721 0.555124
Si Si2 0.811840 0.403976 0.946796
Si Si3 0.933451 0.414728 0.329753
Si Si4 0.500559 0.663255 0.242980
Si Si5 0.000000 0.500000 0.500000
Si Si6 0.702535 0.124182 0.393408
Si Si7 0.294684 0.908226 0.102551
Si Si8 0.690693 0.830441 0.192773
O O1 0.750000 0.250000 0.500000
O O2 0.695953 0.152990 0.621648
O O3 0.863884 0.286438 0.591743
O O4 0.000000 0.166859 0.500000
O O5 0.793182 0.500000 0.939805
O O6 0.742493 0.353781 0.896125
O O7 0.015280 0.379897 0.913109
O O8 0.738273 0.380599 0.036797
O O9 0.850260 0.500000 0.341523
O O10 0.084087 0.417764 0.358791
O O11 0.040826 0.393446 0.240459
O O12 0.401872 0.634148 0.331525
O O13 0.650553 0.606470 0.187570
O O14 0.594689 0.747577 0.223909
O O15 0.346972 0.665203 0.216498
O O16 0.848138 0.570485 0.531585
O O17 0.321434 0.000000 0.087301
#
# Coordination Sequence:
#
# PCOD9221421 Si02
#       8
#     8   8   8   8   2   8   8   8
#     4  12  23  42  67  93 127 170 209 268 331 393
#     4   9  19  40  65  92 127 177 209 265 328 391
#     4  11  23  42  66  94 130 169 216 271 324 393
#     4  11  24  39  61  95 126 172 213 275 325 392
#     4  12  20  40  68  96 124 172 220 270 318 410
#     4  11  23  40  66  95 128 168 217 266 332 388
#     4   9  20  39  65  93 131 166 217 266 328 390
#     4  11  23  39  64  89 130 168 219 264 331 386
#
# _framework density 22.891940999999999
#
# number of rings (size 3 to 8) (size 9 to 14) (size 15 to 20)
#    0.000    1.379    4.138    2.069    0.966    2.483 
#    2.483    1.379    0.000    0.000    0.000    0.000 
#    0.000    0.000    0.000    0.000    0.000    0.000 
#
# Total GULP energy -161661.390779 kJ/mol
# GULP energy per Si atom -5574.530717 kJ/mol
# Density = 2.283984 g / cm^3
# Si number density = 22.891941 Si / 1000 Ang^3
#
#
#
# Elastic Constant Matrix: (Units=GPa)
#
#
# Indices 1 2 3 4 5 6 
#
# 1 28.2030 -3.5037 -12.0080 0.0000 -8.8825 0.0000
# 2 -3.5037 79.4672 -14.4810 0.0000 -3.0902 0.0000
# 3 -12.0080 -14.4810 42.8730 0.0000 -13.5436 0.0000
# 4 0.0000 0.0000 0.0000 27.3175 0.0000 -3.0885
# 5 -8.8825 -3.0902 -13.5436 0.0000 35.9370 0.0000
# 6 0.0000 0.0000 0.0000 -3.0885 0.0000 20.9837
#
#
#
# Elastic Compliance Matrix: (Units=1/GPa)
#
#
# Indices 1 2 3 4 5 6 
#
# 1 0.054912 0.008026 0.025650 0.000000 0.023929 0.000000
# 2 0.008026 0.014924 0.009445 0.000000 0.006827 0.000000
# 3 0.025650 0.009445 0.040818 0.000000 0.022535 0.000000
# 4 0.000000 0.000000 0.000000 0.037226 0.000000 0.005479
# 5 0.023929 0.006827 0.022535 0.000000 0.042821 0.000000
# 6 0.000000 0.000000 0.000000 0.005479 0.000000 0.048463
#
#
# Mechanical properties :
#
#
# Convention : Reuss Voigt Hill
#
# Bulk Modulus (GPa) = 5.07882 10.06198 7.57040
# Shear Modulus (GPa) = 22.87765 28.88335 25.88050
#
# Velocity S-wave (km/s) = 3.16472 3.55593 3.36601
# Velocity P-wave (km/s) = 3.94682 4.61134 4.29196
#
# Compressibility (1/GPa) = 0.19689618
#
# Stress axis : x y z
#
# Youngs Moduli (GPa) = 18.21101 67.00478 24.49897
#
# Poissons Ratio (x) = -0.53776 -0.62840
# Poissons Ratio (y) = -0.14616 -0.23140
# Poissons Ratio (z) = -0.46711 -0.63288
#
# Static dielectric constant tensor:
#      x y z
#    x 1.868370 0.000000 0.083580 
#    y 0.000000 1.784970 0.000000 
#    z 0.083580 0.000000 2.038830 
# 
# From -- ./inp_files/301108.got.cif
#   From: 2010.05.17/outbox.cif.g08.bks.cpg/sg12_151_cif.got.tgz:301108.got - 2010.06.03 13:09:07.
