data_PCOD9221692
_publ_section_title
;
Structure prediction by ZEFSAII (Michael W. Deem and Ramdas Pophale) SiO2 
 PCOD9221692
Probable space group: C 2/M
;
_chemical_formula_sum "Si O2"
_cell_formula_units_Z 40
_cell_length_a 7.743105
_cell_length_b 21.830099
_cell_length_c 10.324967
_cell_angle_alpha 90.000000
_cell_angle_beta 91.847175
_cell_angle_gamma 90.000000
_cell_volume 1744.350645
_symmetry_space_group_name_H-M "C 2/M"
_symmetry_group_IT_number 12
_symmetry_cell_setting 'monoclinic'
loop_
_space_group_symop_operation_xyz
x,y,z
-x,y,-z
-x,-y,-z
x,-y,z
1/2+x,1/2+y,z
1/2-x,1/2+y,-z
1/2-x,1/2-y,-z
1/2+x,1/2-y,z
loop_
_atom_site_type_symbol
_atom_site_label
_atom_site_fract_x
_atom_site_fract_y
_atom_site_fract_z
Si Si1 0.614725 0.267778 0.606860
Si Si2 0.815800 0.879080 0.220369
Si Si3 0.127935 0.932008 0.382362
Si Si4 0.195084 0.429498 0.952510
Si Si5 0.940998 0.631178 0.306638
O O1 0.500000 0.305695 0.500000
O O2 0.750000 0.250000 0.500000
O O3 0.660654 0.309563 0.729033
O O4 0.544259 0.203540 0.662477
O O5 0.632264 0.896450 0.286285
O O6 0.990710 0.911519 0.269995
O O7 0.793468 0.893512 0.068771
O O8 0.304246 0.893875 0.408511
O O9 0.000000 0.935063 0.500000
O O10 0.192934 0.000000 0.354524
O O11 0.258623 0.500000 0.936454
O O12 0.167987 0.388165 0.824187
O O13 0.000000 0.435618 0.000000
#
# Coordination Sequence:
#
# PCOD9221692 Si02
#       5
#     8   8   8   8   8
#     4  12  23  40  65  97 131 176 227 269 328 400
#     4  11  23  42  68  96 133 177 220 275 338 393
#     4  11  25  41  62  98 134 170 227 281 328 401
#     4   9  20  41  68  97 129 172 226 274 329 403
#     4  11  24  42  68  95 132 180 219 275 337 401
#
# _framework density 22.931168
#
# number of rings (size 3 to 8) (size 9 to 14) (size 15 to 20)
#    0.000    1.200    2.000    4.200    0.000    4.000 
#    0.000    4.000    0.000    0.000    0.000    0.000 
#    0.000    0.000    0.000    0.000    0.000    0.000 
#
# Total GULP energy -111355.558687 kJ/mol
# GULP energy per Si atom -5567.777934 kJ/mol
# Density = 2.287898 g / cm^3
# Si number density = 22.931168 Si / 1000 Ang^3
#
#
#
# Elastic Constant Matrix: (Units=GPa)
#
#
# Indices 1 2 3 4 5 6 
#
# 1 97.2628 17.4229 -5.4185 0.0000 -1.4987 0.0000
# 2 17.4229 128.9692 29.1242 0.0000 12.9055 0.0000
# 3 -5.4185 29.1242 111.5381 0.0000 13.2561 0.0000
# 4 0.0000 0.0000 0.0000 40.3195 0.0000 3.8254
# 5 -1.4987 12.9055 13.2561 0.0000 35.6425 0.0000
# 6 0.0000 0.0000 0.0000 3.8254 0.0000 13.1185
#
#
#
# Elastic Compliance Matrix: (Units=1/GPa)
#
#
# Indices 1 2 3 4 5 6 
#
# 1 0.010648 -0.001710 0.000876 0.000000 0.000741 0.000000
# 2 -0.001710 0.008696 -0.002062 0.000000 -0.002454 0.000000
# 3 0.000876 -0.002062 0.009891 0.000000 -0.002895 0.000000
# 4 0.000000 0.000000 0.000000 0.025508 0.000000 -0.007438
# 5 0.000741 -0.002454 -0.002895 0.000000 0.030053 0.000000
# 6 0.000000 0.000000 0.000000 -0.007438 0.000000 0.078397
#
#
# Mechanical properties :
#
#
# Convention : Reuss Voigt Hill
#
# Bulk Modulus (GPa) = 42.66004 46.66968 44.66486
# Shear Modulus (GPa) = 28.28061 37.59220 32.93641
#
# Velocity S-wave (km/s) = 3.51562 4.05328 3.79399
# Velocity P-wave (km/s) = 5.92650 6.50398 6.22194
#
# Compressibility (1/GPa) = 0.02344114
#
# Stress axis : x y z
#
# Youngs Moduli (GPa) = 93.91405 114.99449 101.10597
#
# Poissons Ratio (x) = 0.19669 -0.08855
# Poissons Ratio (y) = 0.16063 0.20850
# Poissons Ratio (z) = -0.08225 0.23714
#
# Static dielectric constant tensor:
#      x y z
#    x 1.692300 0.000000 -0.043560 
#    y 0.000000 1.875160 0.000000 
#    z -0.043560 0.000000 1.975160 
# 
# From -- ./inp_files/120254.got.cif
#   From: 2010.05.17/outbox.cif.g08.bks.cpg/sg12_61_cif.got.tgz:120254.got - 2010.06.03 13:09:07.
