data_PCOD9221475
_publ_section_title
;
Structure prediction by ZEFSAII (Michael W. Deem and Ramdas Pophale) SiO2 
 PCOD9221475
Probable space group: C 2/M
;
_chemical_formula_sum "Si O2"
_cell_formula_units_Z 40
_cell_length_a 9.432464
_cell_length_b 16.155234
_cell_length_c 25.261638
_cell_angle_alpha 90.000000
_cell_angle_beta 31.848318
_cell_angle_gamma 90.000000
_cell_volume 2031.254019
_symmetry_space_group_name_H-M "C 2/M"
_symmetry_group_IT_number 12
_symmetry_cell_setting 'monoclinic'
loop_
_space_group_symop_operation_xyz
x,y,z
-x,y,-z
-x,-y,-z
x,-y,z
1/2+x,1/2+y,z
1/2-x,1/2+y,-z
1/2-x,1/2-y,-z
1/2+x,1/2-y,z
loop_
_atom_site_type_symbol
_atom_site_label
_atom_site_fract_x
_atom_site_fract_y
_atom_site_fract_z
Si Si1 0.040561 0.597179 0.221448
Si Si2 0.064565 0.407615 0.418878
Si Si3 0.550895 0.251739 0.924146
Si Si4 0.322304 0.816617 0.396272
Si Si5 0.378521 0.651288 0.735408
O O1 0.114593 0.500000 0.198752
O O2 0.915594 0.624660 0.317805
O O3 0.816365 0.612336 0.246839
O O4 0.287002 0.660835 0.131423
O O5 0.960871 0.500000 0.441753
O O6 0.386632 0.405143 0.315564
O O7 0.000000 0.386698 0.500000
O O8 0.934349 0.349161 0.416612
O O9 0.713970 0.188033 0.836489
O O10 0.500000 0.226318 0.000000
O O11 0.250000 0.250000 0.000000
O O12 0.465899 0.729356 0.339712
O O13 0.000000 0.811634 0.500000
#
# Coordination Sequence:
#
# PCOD9221475 Si02
#       5
#     8   8   8   8   8
#     4  11  24  41  65  95 125 160 204 257 312 365
#     4  11  24  40  60  90 129 165 201 253 310 362
#     4  11  23  44  67  92 122 162 206 257 307 368
#     4  11  23  40  63  91 126 168 209 248 300 370
#     4  11  23  41  66  90 123 161 210 255 302 369
#
# _framework density 19.692269
#
# number of rings (size 3 to 8) (size 9 to 14) (size 15 to 20)
#    0.000    1.000    2.000    5.400    2.800    6.000 
#    0.000    0.000    0.000    3.000    0.000    0.000 
#    0.000    0.000    0.000    0.000    0.000    0.000 
#
# Total GULP energy -111732.425909 kJ/mol
# GULP energy per Si atom -5586.621295 kJ/mol
# Density = 1.964745 g / cm^3
# Si number density = 19.692269 Si / 1000 Ang^3
#
#
#
# Elastic Constant Matrix: (Units=GPa)
#
#
# Indices 1 2 3 4 5 6 
#
# 1 117.0077 21.2909 39.8450 0.0140 -5.4522 -0.0124
# 2 21.2909 72.0005 19.9092 0.0085 10.8198 -0.0071
# 3 39.8450 19.9092 128.8380 0.0223 0.3198 -0.1241
# 4 0.0140 0.0085 0.0223 3.4854 -0.0011 -3.5705
# 5 -5.4522 10.8198 0.3198 -0.0011 42.5133 0.0003
# 6 -0.0124 -0.0071 -0.1241 -3.5705 0.0003 -6.0429
#
#
#
# Elastic Compliance Matrix: (Units=1/GPa)
#
#
# Indices 1 2 3 4 5 6 
#
# 1 0.010017 -0.002503 -0.002716 0.000014 0.001942 0.000030
# 2 -0.002503 0.015732 -0.001646 0.000001 -0.004313 0.000020
# 3 -0.002716 -0.001646 0.008856 -0.000137 0.000004 -0.000093
# 4 0.000014 0.000001 -0.000137 0.178731 0.000008 -0.105603
# 5 0.001942 -0.004313 0.000004 0.000008 0.024869 -0.000002
# 6 0.000030 0.000020 -0.000093 -0.105603 -0.000002 -0.103086
#
#
# Mechanical properties :
#
#
# Convention : Reuss Voigt Hill
#
# Bulk Modulus (GPa) = 47.90434 53.32627 50.61530
# Shear Modulus (GPa) = 32.09063 23.77790 27.93427
#
# Velocity S-wave (km/s) = 4.04122 3.47864 3.77044
# Velocity P-wave (km/s) = 6.79371 6.57824 6.68684
#
# Compressibility (1/GPa) = 0.02087494
#
# Stress axis : x y z
#
# Youngs Moduli (GPa) = 99.82749 63.56383 112.91822
#
# Poissons Ratio (x) = 0.15910 0.30669
# Poissons Ratio (y) = 0.24987 0.18589
# Poissons Ratio (z) = 0.27113 0.10464
#
# Static dielectric constant tensor:
#      x y z
#    x 1.601220 0.000030 0.071190 
#    y 0.000030 1.675020 -0.000070 
#    z 0.071190 -0.000070 1.508470 
# 
# From -- ./inp_files/118912.got.cif
#   From: 2010.05.17/outbox.cif.g08.bks.cpg/sg12_60_cif.got.tgz:118912.got - 2010.06.03 13:09:07.
