data_PCOD9221011
_publ_section_title
;
Structure prediction by ZEFSAII (Michael W. Deem and Ramdas Pophale) SiO2 
 PCOD9221011
Probable space group: C 2/M
;
_chemical_formula_sum "Si O2"
_cell_formula_units_Z 48
_cell_length_a 13.801710
_cell_length_b 15.638511
_cell_length_c 28.442735
_cell_angle_alpha 90.000000
_cell_angle_beta 23.180814
_cell_angle_gamma 90.000000
_cell_volume 2416.531018
_symmetry_space_group_name_H-M "C 2/M"
_symmetry_group_IT_number 12
_symmetry_cell_setting 'monoclinic'
loop_
_space_group_symop_operation_xyz
x,y,z
-x,y,-z
-x,-y,-z
x,-y,z
1/2+x,1/2+y,z
1/2-x,1/2+y,-z
1/2-x,1/2-y,-z
1/2+x,1/2-y,z
loop_
_atom_site_type_symbol
_atom_site_label
_atom_site_fract_x
_atom_site_fract_y
_atom_site_fract_z
Si Si1 0.360548 0.604392 0.201621
Si Si2 0.671174 0.152064 0.529673
Si Si3 0.225923 0.900551 0.616968
Si Si4 0.230065 0.858920 0.868544
Si Si5 0.122721 0.500000 0.709854
Si Si6 0.129195 0.000000 0.501246
Si Si7 0.216404 0.835743 0.120992
O O1 0.361859 0.500000 0.201819
O O2 0.323091 0.634386 0.163961
O O3 0.601575 0.641418 0.120893
O O4 0.124815 0.638499 0.336651
O O5 0.750000 0.250000 0.500000
O O6 0.805220 0.114676 0.424160
O O7 0.757879 0.088693 0.531412
O O8 0.500000 0.859019 0.500000
O O9 0.990295 0.870710 0.750994
O O10 0.251997 0.000000 0.617550
O O11 0.458434 0.916625 0.781339
O O12 0.270244 0.763897 0.870563
O O13 0.000000 0.894706 0.000000
O O14 0.347989 0.500000 0.644859
O O15 0.276525 0.500000 0.593720
O O16 0.500000 0.868040 0.000000
#
# Coordination Sequence:
#
# PCOD9221011 Si02
#       7
#     8   8   8   8   4   4   8
#     4  12  23  46  73  96 138 187 229 278 354 421
#     4  12  23  41  66  98 137 177 227 283 352 412
#     4  11  22  40  68  96 129 174 229 276 328 418
#     4  11  24  46  71  98 134 181 237 278 340 422
#     4  11  23  42  68  94 136 171 231 288 351 398
#     4  11  24  42  63 104 136 171 223 302 343 415
#     4  11  27  45  67 105 143 178 231 289 347 406
#
# _framework density 19.863184
#
# number of rings (size 3 to 8) (size 9 to 14) (size 15 to 20)
#    0.000    0.667    5.833    1.750    2.333    4.000 
#    3.000    0.000    0.000    0.000    0.000    0.000 
#    0.000    0.000    0.000    0.000    0.000    0.000 
#
# Total GULP energy -133702.628830 kJ/mol
# GULP energy per Si atom -5570.942868 kJ/mol
# Density = 1.981797 g / cm^3
# Si number density = 19.863184 Si / 1000 Ang^3
#
#
#
# Elastic Constant Matrix: (Units=GPa)
#
#
# Indices 1 2 3 4 5 6 
#
# 1 32.1695 18.3267 29.8522 0.1142 -16.0374 -0.1249
# 2 18.3267 103.4735 37.4294 0.0130 -21.8018 -0.0282
# 3 29.8522 37.4294 149.8237 0.0035 -22.7203 0.0046
# 4 0.1142 0.0130 0.0035 45.0861 0.0065 -6.0373
# 5 -16.0374 -21.8018 -22.7203 0.0065 43.3815 -0.0288
# 6 -0.1249 -0.0282 0.0046 -6.0373 -0.0288 30.7557
#
#
#
# Elastic Compliance Matrix: (Units=1/GPa)
#
#
# Indices 1 2 3 4 5 6 
#
# 1 0.044521 -0.003161 -0.006329 -0.000090 0.011555 0.000172
# 2 -0.003161 0.011639 -0.001703 0.000005 0.003788 0.000003
# 3 -0.006329 -0.001703 0.008556 0.000012 0.001285 -0.000025
# 4 -0.000090 0.000005 0.000012 0.022779 -0.000025 0.004471
# 5 0.011555 0.003788 0.001285 -0.000025 0.029900 0.000073
# 6 0.000172 0.000003 -0.000025 0.004471 0.000073 0.033393
#
#
# Mechanical properties :
#
#
# Convention : Reuss Voigt Hill
#
# Bulk Modulus (GPa) = 23.62449 50.74260 37.18355
# Shear Modulus (GPa) = 26.69763 37.16855 31.93309
#
# Velocity S-wave (km/s) = 3.67014 4.33046 4.01390
# Velocity P-wave (km/s) = 5.46620 7.11375 6.34369
#
# Compressibility (1/GPa) = 0.04232895
#
# Stress axis : x y z
#
# Youngs Moduli (GPa) = 22.46150 85.92155 116.87822
#
# Poissons Ratio (x) = 0.27162 0.73968
# Poissons Ratio (y) = 0.07101 0.19907
# Poissons Ratio (z) = 0.14215 0.14634
#
# Static dielectric constant tensor:
#      x y z
#    x 1.576050 -0.000030 0.078690 
#    y -0.000030 1.695020 0.000080 
#    z 0.078690 0.000080 1.665770 
# 
# From -- ./inp_files/376597.got.cif
#   From: 2010.05.17/outbox.cif.g08.bks.cpg/sg12_189_cif.got.tgz:376597.got - 2010.06.03 13:09:07.
