data_PCOD9221231
_publ_section_title
;
Structure prediction by ZEFSAII (Michael W. Deem and Ramdas Pophale) SiO2 
 PCOD9221231
Probable space group: C 2/M
;
_chemical_formula_sum "Si O2"
_cell_formula_units_Z 32
_cell_length_a 15.253608
_cell_length_b 13.927710
_cell_length_c 9.936840
_cell_angle_alpha 90.000000
_cell_angle_beta 41.403378
_cell_angle_gamma 90.000000
_cell_volume 1396.162439
_symmetry_space_group_name_H-M "C 2/M"
_symmetry_group_IT_number 12
_symmetry_cell_setting 'monoclinic'
loop_
_space_group_symop_operation_xyz
x,y,z
-x,y,-z
-x,-y,-z
x,-y,z
1/2+x,1/2+y,z
1/2-x,1/2+y,-z
1/2-x,1/2-y,-z
1/2+x,1/2-y,z
loop_
_atom_site_type_symbol
_atom_site_label
_atom_site_fract_x
_atom_site_fract_y
_atom_site_fract_z
Si Si1 0.353330 0.818137 0.717653
Si Si2 0.670231 0.500000 0.899268
Si Si3 0.722384 0.849196 0.693556
Si Si4 0.600284 0.500000 0.663021
Si Si5 0.460868 0.887759 0.849063
O O1 0.500000 0.844985 0.500000
O O2 0.294725 0.736682 0.688568
O O3 0.384035 0.812803 0.841213
O O4 0.255216 0.906045 0.819978
O O5 0.631526 0.500000 0.786201
O O6 0.557590 0.500000 0.144141
O O7 0.602281 0.838835 0.723524
O O8 0.833843 0.910874 0.489982
O O9 0.635577 0.897435 0.911816
O O10 0.483448 0.000000 0.775666
#
# Coordination Sequence:
#
# PCOD9221231 Si02
#       5
#     8   4   8   4   8
#     4  12  27  46  74 109 151 200 253 308 374 451
#     4  11  27  47  75 106 156 198 250 309 380 446
#     4  11  24  45  78 115 148 194 255 312 372 442
#     4  11  24  46  75 109 150 197 247 313 379 441
#     4  11  22  46  80 107 150 201 252 305 369 450
#
# _framework density 22.919969999999999
#
# number of rings (size 3 to 8) (size 9 to 14) (size 15 to 20)
#    0.000    0.750    3.750    3.375    0.000   12.000 
#    0.000    1.875    0.000    1.500    0.000    0.000 
#    0.000    0.000    0.000    0.000    0.000    0.000 
#
# Total GULP energy -89237.812917 kJ/mol
# GULP energy per Si atom -5577.363307 kJ/mol
# Density = 2.286780 g / cm^3
# Si number density = 22.919970 Si / 1000 Ang^3
#
#
#
# Elastic Constant Matrix: (Units=GPa)
#
#
# Indices 1 2 3 4 5 6 
#
# 1 137.3104 108.5439 49.7631 0.0000 -12.2764 0.0000
# 2 108.5439 115.0676 90.0189 0.0000 -24.9309 0.0000
# 3 49.7631 90.0189 190.1062 0.0000 -17.9350 0.0000
# 4 0.0000 0.0000 0.0000 4.9580 0.0000 9.0962
# 5 -12.2764 -24.9309 -17.9350 0.0000 39.6495 0.0000
# 6 0.0000 0.0000 0.0000 9.0962 0.0000 23.0231
#
#
#
# Elastic Compliance Matrix: (Units=1/GPa)
#
#
# Indices 1 2 3 4 5 6 
#
# 1 0.048555 -0.060726 0.014479 0.000000 -0.016600 0.000000
# 2 -0.060726 0.091256 -0.024731 0.000000 0.027391 0.000000
# 3 0.014479 -0.024731 0.012678 0.000000 -0.005333 0.000000
# 4 0.000000 0.000000 0.000000 0.733020 0.000000 -0.289608
# 5 -0.016600 0.027391 -0.005333 0.000000 0.034892 0.000000
# 6 0.000000 0.000000 0.000000 -0.289608 0.000000 0.157855
#
#
# Mechanical properties :
#
#
# Convention : Reuss Voigt Hill
#
# Bulk Modulus (GPa) = 94.95046 104.34845 99.64945
# Shear Modulus (GPa) = 4.08589 26.47001 15.27795
#
# Velocity S-wave (km/s) = 1.33662 3.40205 2.58462
# Velocity P-wave (km/s) = 6.62563 7.81397 7.24421
#
# Compressibility (1/GPa) = 0.01053181
#
# Stress axis : x y z
#
# Youngs Moduli (GPa) = 20.59508 10.95815 78.87757
#
# Poissons Ratio (x) = 0.66545 -1.14205
# Poissons Ratio (y) = 1.25066 1.95076
# Poissons Ratio (z) = -0.29819 0.27101
#
# Static dielectric constant tensor:
#      x y z
#    x 2.032450 0.000000 0.057220 
#    y 0.000000 1.860860 0.000000 
#    z 0.057220 0.000000 1.900490 
# 
# From -- ./inp_files/156461.got.cif
#   From: 2010.05.17/outbox.cif.g08.bks.cpg/sg12_79_cif.got.tgz:156461.got - 2010.06.03 13:09:07.
