data_PCOD9221617
_publ_section_title
;
Structure prediction by ZEFSAII (Michael W. Deem and Ramdas Pophale) SiO2 
 PCOD9221617
Probable space group: C 2/M
;
_chemical_formula_sum "Si O2"
_cell_formula_units_Z 32
_cell_length_a 11.221336
_cell_length_b 19.959720
_cell_length_c 8.917236
_cell_angle_alpha 90.000000
_cell_angle_beta 40.351131
_cell_angle_gamma 90.000000
_cell_volume 1293.150315
_symmetry_space_group_name_H-M "C 2/M"
_symmetry_group_IT_number 12
_symmetry_cell_setting 'monoclinic'
loop_
_space_group_symop_operation_xyz
x,y,z
-x,y,-z
-x,-y,-z
x,-y,z
1/2+x,1/2+y,z
1/2-x,1/2+y,-z
1/2-x,1/2-y,-z
1/2+x,1/2-y,z
loop_
_atom_site_type_symbol
_atom_site_label
_atom_site_fract_x
_atom_site_fract_y
_atom_site_fract_z
Si Si1 0.623170 0.705705 0.012241
Si Si2 0.284639 0.073022 0.166234
Si Si3 0.779160 0.828436 0.515567
Si Si4 0.416909 0.104767 0.722957
O O1 0.475588 0.662036 0.246367
O O2 0.500000 0.740770 0.000000
O O3 0.750000 0.750000 0.000000
O O4 0.777617 0.659823 0.788736
O O5 0.207068 0.137538 0.331374
O O6 0.208351 0.000000 0.288326
O O7 0.500000 0.071855 0.000000
O O8 0.297008 0.075236 0.973635
O O9 0.750000 0.750000 0.500000
O O10 0.595037 0.863127 0.630831
O O11 0.500000 0.067581 0.500000
#
# Coordination Sequence:
#
# PCOD9221617 Si02
#       4
#     8   8   8   8
#     4  12  26  42  69 106 152 198 248 316 396 459
#     4   9  22  45  73 105 145 201 257 306 370 457
#     4  11  23  42  72 105 149 192 249 317 383 444
#     4  11  23  41  68 103 149 192 249 310 381 443
#
# _framework density 24.745768999999999
#
# number of rings (size 3 to 8) (size 9 to 14) (size 15 to 20)
#    0.000    1.250    5.000    0.000    3.500    1.500 
#    0.000    2.500    0.000    1.500    0.000    0.000 
#    0.000    0.000    0.000    0.000    0.000    0.000 
#
# Total GULP energy -89076.788766 kJ/mol
# GULP energy per Si atom -5567.299298 kJ/mol
# Density = 2.468945 g / cm^3
# Si number density = 24.745769 Si / 1000 Ang^3
#
#
#
# Elastic Constant Matrix: (Units=GPa)
#
#
# Indices 1 2 3 4 5 6 
#
# 1 160.8785 50.3079 50.8305 0.0000 -5.9767 0.0000
# 2 50.3079 131.1532 65.3040 0.0000 18.2333 0.0000
# 3 50.8305 65.3040 172.2402 0.0000 9.4591 0.0000
# 4 0.0000 0.0000 0.0000 -3.7082 0.0000 7.1419
# 5 -5.9767 18.2333 9.4591 0.0000 65.2731 0.0000
# 6 0.0000 0.0000 0.0000 7.1419 0.0000 -7.6984
#
#
#
# Elastic Compliance Matrix: (Units=1/GPa)
#
#
# Indices 1 2 3 4 5 6 
#
# 1 0.007456 -0.002388 -0.001380 0.000000 0.001550 0.000000
# 2 -0.002388 0.010466 -0.003116 0.000000 -0.002691 0.000000
# 3 -0.001380 -0.003116 0.007413 0.000000 -0.000330 0.000000
# 4 0.000000 0.000000 0.000000 0.342768 0.000000 0.317991
# 5 0.001550 -0.002691 -0.000330 0.000000 0.016262 0.000000
# 6 0.000000 0.000000 0.000000 0.317991 0.000000 0.165107
#
#
# Mechanical properties :
#
#
# Convention : Reuss Voigt Hill
#
# Bulk Modulus (GPa) = 86.45291 88.57296 87.51294
# Shear Modulus (GPa) = 8.81685 30.62860 19.72273
#
# Velocity S-wave (km/s) = 1.88963 3.52196 2.82621
# Velocity P-wave (km/s) = 6.30660 7.23946 6.78907
#
# Compressibility (1/GPa) = 0.01156699
#
# Stress axis : x y z
#
# Youngs Moduli (GPa) = 134.11360 95.54528 134.90718
#
# Poissons Ratio (x) = 0.22821 0.18618
# Poissons Ratio (y) = 0.32032 0.42031
# Poissons Ratio (z) = 0.18508 0.29768
#
# Static dielectric constant tensor:
#      x y z
#    x 1.949020 0.000000 -0.012780 
#    y 0.000000 2.045310 0.000000 
#    z -0.012780 0.000000 1.853860 
# 
# From -- ./inp_files/50274.got.cif
#   From: 2010.05.17/outbox.cif.g08.bks.cpg/sg12_26_cif.got.tgz:50274.got - 2010.06.03 13:09:07.
