data_PCOD9221892
_publ_section_title
;
Structure prediction by ZEFSAII (Michael W. Deem and Ramdas Pophale) SiO2 
 PCOD9221892
Probable space group: C 2/M
;
_chemical_formula_sum "Si O2"
_cell_formula_units_Z 32
_cell_length_a 12.036636
_cell_length_b 19.488319
_cell_length_c 8.084765
_cell_angle_alpha 90.000000
_cell_angle_beta 134.912304
_cell_angle_gamma 90.000000
_cell_volume 1343.060628
_symmetry_space_group_name_H-M "C 2/M"
_symmetry_group_IT_number 12
_symmetry_cell_setting 'monoclinic'
loop_
_space_group_symop_operation_xyz
x,y,z
-x,y,-z
-x,-y,-z
x,-y,z
1/2+x,1/2+y,z
1/2-x,1/2+y,-z
1/2-x,1/2-y,-z
1/2+x,1/2-y,z
loop_
_atom_site_type_symbol
_atom_site_label
_atom_site_fract_x
_atom_site_fract_y
_atom_site_fract_z
Si Si1 0.683901 0.000000 0.402231
Si Si2 0.875316 0.872407 0.745224
Si Si3 0.185419 0.255424 0.740620
Si Si4 0.670882 0.000000 0.986293
Si Si5 0.120901 0.117856 0.745842
O O1 0.766554 0.931584 0.556432
O O2 0.677575 0.000000 0.194890
O O3 0.502588 0.000000 0.263195
O O4 0.783345 0.810412 0.737578
O O5 0.000019 0.844913 0.741441
O O6 0.000000 0.906957 0.000000
O O7 0.210523 0.174250 0.730704
O O8 0.000000 0.269550 0.500000
O O9 0.250000 0.250000 0.000000
O O10 0.763482 0.931584 0.037491
O O11 0.000000 0.077803 0.500000
#
# Coordination Sequence:
#
# PCOD9221892 Si02
#       5
#     4   8   8   4   8
#     4  11  26  45  76 117 148 202 249 319 374 464
#     4  12  25  48  75 112 149 200 255 307 389 451
#     4  11  27  49  74 113 154 202 254 320 380 451
#     4  11  24  48  78 112 155 192 256 312 388 449
#     4  11  23  47  76 107 152 201 247 314 381 457
#
# _framework density 23.826176
#
# number of rings (size 3 to 8) (size 9 to 14) (size 15 to 20)
#    0.000    0.750    5.000    1.500    3.500    4.000 
#    4.500    1.875    0.000    0.000    0.000    0.000 
#    0.000    0.000    0.000    0.000    0.000    0.000 
#
# Total GULP energy -89140.174546 kJ/mol
# GULP energy per Si atom -5571.260909 kJ/mol
# Density = 2.377195 g / cm^3
# Si number density = 23.826176 Si / 1000 Ang^3
#
#
#
# Elastic Constant Matrix: (Units=GPa)
#
#
# Indices 1 2 3 4 5 6 
#
# 1 121.1172 80.7263 47.1415 0.0000 25.0997 0.0000
# 2 80.7263 177.7051 48.4252 0.0000 28.0209 0.0000
# 3 47.1415 48.4252 143.1713 0.0000 27.3872 0.0000
# 4 0.0000 0.0000 0.0000 34.8405 0.0000 18.0403
# 5 25.0997 28.0209 27.3872 0.0000 42.8753 0.0000
# 6 0.0000 0.0000 0.0000 18.0403 0.0000 37.2692
#
#
#
# Elastic Compliance Matrix: (Units=1/GPa)
#
#
# Indices 1 2 3 4 5 6 
#
# 1 0.012900 -0.004818 -0.002023 0.000000 -0.003111 0.000000
# 2 -0.004818 0.008380 -0.000843 0.000000 -0.002117 0.000000
# 3 -0.002023 -0.000843 0.008662 0.000000 -0.003798 0.000000
# 4 0.000000 0.000000 0.000000 0.038302 0.000000 -0.018540
# 5 -0.003111 -0.002117 -0.003798 0.000000 0.028955 0.000000
# 6 0.000000 0.000000 0.000000 -0.018540 0.000000 0.035806
#
#
# Mechanical properties :
#
#
# Convention : Reuss Voigt Hill
#
# Bulk Modulus (GPa) = 68.61417 88.28662 78.45040
# Shear Modulus (GPa) = 32.63051 40.71038 36.67044
#
# Velocity S-wave (km/s) = 3.70472 4.13806 3.92737
# Velocity P-wave (km/s) = 6.86733 7.74379 7.31869
#
# Compressibility (1/GPa) = 0.01457425
#
# Stress axis : x y z
#
# Youngs Moduli (GPa) = 77.52002 119.33657 115.44338
#
# Poissons Ratio (x) = 0.57500 0.23351
# Poissons Ratio (y) = 0.37352 0.09728
# Poissons Ratio (z) = 0.15680 0.10057
#
# Static dielectric constant tensor:
#      x y z
#    x 2.018400 0.000000 -0.127540 
#    y 0.000000 1.930640 0.000000 
#    z -0.127540 0.000000 2.090900 
# 
# From -- ./inp_files/49079.got.cif
#   From: 2010.05.17/outbox.cif.g08.bks.cpg/sg12_25_cif.got.tgz:49079.got - 2010.06.03 13:09:07.
