data_PCOD9221369
_publ_section_title
;
Structure prediction by ZEFSAII (Michael W. Deem and Ramdas Pophale) SiO2 
 PCOD9221369
Probable space group: C 2/M
;
_chemical_formula_sum "Si O2"
_cell_formula_units_Z 48
_cell_length_a 15.456087
_cell_length_b 8.393802
_cell_length_c 27.068199
_cell_angle_alpha 90.000000
_cell_angle_beta 134.133715
_cell_angle_gamma 90.000000
_cell_volume 2520.406956
_symmetry_space_group_name_H-M "C 2/M"
_symmetry_group_IT_number 12
_symmetry_cell_setting 'monoclinic'
loop_
_space_group_symop_operation_xyz
x,y,z
-x,y,-z
-x,-y,-z
x,-y,z
1/2+x,1/2+y,z
1/2-x,1/2+y,-z
1/2-x,1/2-y,-z
1/2+x,1/2-y,z
loop_
_atom_site_type_symbol
_atom_site_label
_atom_site_fract_x
_atom_site_fract_y
_atom_site_fract_z
Si Si1 0.923317 0.810070 0.329947
Si Si2 0.294532 0.194818 0.826419
Si Si3 0.692866 0.188734 0.425970
Si Si4 0.226757 0.691729 0.069411
Si Si5 0.938394 0.307347 0.086551
Si Si6 0.619799 0.189999 0.578067
O O1 0.819212 0.754084 0.251140
O O2 0.883890 0.770785 0.370082
O O3 0.052124 0.731733 0.370285
O O4 0.937126 0.000000 0.330337
O O5 0.287299 0.248949 0.880333
O O6 0.423449 0.244662 0.855813
O O7 0.294008 0.000000 0.826378
O O8 0.750000 0.250000 0.500000
O O9 0.765456 0.265541 0.409456
O O10 0.708453 0.000000 0.429904
O O11 0.221744 0.500000 0.068689
O O12 0.352598 0.743419 0.095325
O O13 0.122481 0.743975 0.989709
O O14 0.935123 0.500000 0.086505
O O15 0.500000 0.238608 0.500000
O O16 0.614644 0.000000 0.582930
#
# Coordination Sequence:
#
# PCOD9221369 Si02
#       6
#     8   8   8   8   8   8
#     4  11  23  39  59  86 119 153 191 237 289 345
#     4   9  19  35  55  80 112 150 189 227 276 336
#     4  12  24  40  63  88 114 146 187 234 286 342
#     4   9  17  32  55  81 110 147 189 232 276 325
#     4   9  17  32  55  81 110 146 190 233 274 325
#     4  11  23  40  63  87 113 146 188 236 284 341
#
# _framework density 19.044542
#
# number of rings (size 3 to 8) (size 9 to 14) (size 15 to 20)
#    0.000    1.833    1.667    3.000    0.000    4.000 
#    0.000    7.500    0.000    4.000    0.000    0.000 
#    0.000    0.000    0.000    0.000    0.000    0.000 
#
# Total GULP energy -134068.877076 kJ/mol
# GULP energy per Si atom -5586.203212 kJ/mol
# Density = 1.900120 g / cm^3
# Si number density = 19.044542 Si / 1000 Ang^3
#
#
#
# Elastic Constant Matrix: (Units=GPa)
#
#
# Indices 1 2 3 4 5 6 
#
# 1 67.1285 -19.7053 22.1613 0.0000 20.2438 0.0000
# 2 -19.7053 11.9240 -3.1205 0.0000 0.5988 0.0000
# 3 22.1613 -3.1205 70.2298 0.0000 32.5046 0.0000
# 4 0.0000 0.0000 0.0000 17.2513 0.0000 3.7369
# 5 20.2438 0.5988 32.5046 0.0000 27.8488 0.0000
# 6 0.0000 0.0000 0.0000 3.7369 0.0000 32.6035
#
#
#
# Elastic Compliance Matrix: (Units=1/GPa)
#
#
# Indices 1 2 3 4 5 6 
#
# 1 0.061217 0.108519 0.015617 0.000000 -0.065060 0.000000
# 2 0.108519 0.279638 0.038005 0.000000 -0.129257 0.000000
# 3 0.015617 0.038005 0.036173 0.000000 -0.054390 0.000000
# 4 0.000000 0.000000 0.000000 0.059443 0.000000 -0.006813
# 5 -0.065060 -0.129257 -0.054390 0.000000 0.149463 0.000000
# 6 0.000000 0.000000 0.000000 -0.006813 0.000000 0.031452
#
#
# Mechanical properties :
#
#
# Convention : Reuss Voigt Hill
#
# Bulk Modulus (GPa) = 1.42590 16.43927 8.93259
# Shear Modulus (GPa) = 9.48994 25.53716 17.51355
#
# Velocity S-wave (km/s) = 2.23469 3.66583 3.03580
# Velocity P-wave (km/s) = 2.72191 5.15446 4.12173
#
# Compressibility (1/GPa) = 0.70130967
#
# Stress axis : x y z
#
# Youngs Moduli (GPa) = 16.33540 3.57605 27.64496
#
# Poissons Ratio (x) = -0.38807 -0.43172
# Poissons Ratio (y) = -1.77271 -1.05065
# Poissons Ratio (z) = -0.25510 -0.13591
#
# Static dielectric constant tensor:
#      x y z
#    x 1.642690 0.000000 -0.000540 
#    y 0.000000 1.658990 0.000000 
#    z -0.000540 0.000000 1.651780 
# 
# From -- ./inp_files/267612.got.cif
#   From: 2010.05.17/outbox.cif.g08.bks.cpg/sg12_134_cif.got.tgz:267612.got - 2010.06.03 13:09:07.
