data_PCOD9221337
_publ_section_title
;
Structure prediction by ZEFSAII (Michael W. Deem and Ramdas Pophale) SiO2 
 PCOD9221337
Probable space group: C 2/M
;
_chemical_formula_sum "Si O2"
_cell_formula_units_Z 36
_cell_length_a 10.443132
_cell_length_b 16.745205
_cell_length_c 10.933616
_cell_angle_alpha 90.000000
_cell_angle_beta 107.046933
_cell_angle_gamma 90.000000
_cell_volume 1827.984239
_symmetry_space_group_name_H-M "C 2/M"
_symmetry_group_IT_number 12
_symmetry_cell_setting 'monoclinic'
loop_
_space_group_symop_operation_xyz
x,y,z
-x,y,-z
-x,-y,-z
x,-y,z
1/2+x,1/2+y,z
1/2-x,1/2+y,-z
1/2-x,1/2-y,-z
1/2+x,1/2-y,z
loop_
_atom_site_type_symbol
_atom_site_label
_atom_site_fract_x
_atom_site_fract_y
_atom_site_fract_z
Si Si1 0.646529 0.247463 0.082592
Si Si2 0.228889 0.910868 0.501607
Si Si3 0.578355 0.909200 0.208200
Si Si4 0.500000 0.287108 0.500000
Si Si5 0.652153 0.159891 0.702429
O O1 0.627252 0.157716 0.127803
O O2 0.713403 0.301612 0.205771
O O3 0.500000 0.275902 0.000000
O O4 0.750000 0.250000 0.000000
O O5 0.325716 0.905164 0.645823
O O6 0.117329 0.843077 0.482170
O O7 0.313092 0.895611 0.402588
O O8 0.170316 0.000000 0.482569
O O9 0.432032 0.885037 0.217308
O O10 0.580950 0.000000 0.162613
O O11 0.560396 0.231043 0.622585
#
# Coordination Sequence:
#
# PCOD9221337 Si02
#       5
#     8   8   8   4   8
#     4  12  26  45  67  94 128 180 229 265 310 384
#     4  11  23  38  62  99 136 163 202 270 341 393
#     4  11  23  42  67  97 130 170 215 271 331 388
#     4  12  21  36  63  96 128 170 204 268 331 382
#     4  12  22  40  68  96 128 167 221 267 321 389
#
# _framework density 19.693823999999999
#
# number of rings (size 3 to 8) (size 9 to 14) (size 15 to 20)
#    0.000    0.444    6.667    3.000    0.000    2.222 
#    0.000    0.000    0.000    3.333    0.000    0.000 
#    0.000    0.000    0.000    0.000    0.000    0.000 
#
# Total GULP energy -100709.921082 kJ/mol
# GULP energy per Si atom -5594.995616 kJ/mol
# Density = 1.964900 g / cm^3
# Si number density = 19.693824 Si / 1000 Ang^3
#
#
#
# Elastic Constant Matrix: (Units=GPa)
#
#
# Indices 1 2 3 4 5 6 
#
# 1 96.7864 25.5092 26.3048 0.0000 -2.5875 0.0000
# 2 25.5092 84.3261 31.1009 0.0000 3.0216 0.0000
# 3 26.3048 31.1009 88.9294 0.0000 13.8309 0.0000
# 4 0.0000 0.0000 0.0000 -5.8926 0.0000 6.9139
# 5 -2.5875 3.0216 13.8309 0.0000 50.1021 0.0000
# 6 0.0000 0.0000 0.0000 6.9139 0.0000 25.4586
#
#
#
# Elastic Compliance Matrix: (Units=1/GPa)
#
#
# Indices 1 2 3 4 5 6 
#
# 1 0.011826 -0.002588 -0.002834 0.000000 0.001549 0.000000
# 2 -0.002588 0.014194 -0.004226 0.000000 0.000177 0.000000
# 3 -0.002834 -0.004226 0.014152 0.000000 -0.003798 0.000000
# 4 0.000000 0.000000 0.000000 -0.128697 0.000000 0.034951
# 5 0.001549 0.000177 -0.003798 0.000000 0.021077 0.000000
# 6 0.000000 0.000000 0.000000 0.034951 0.000000 0.029788
#
#
# Mechanical properties :
#
#
# Convention : Reuss Voigt Hill
#
# Bulk Modulus (GPa) = 47.90182 48.43017 48.16600
# Shear Modulus (GPa) = -438.32706 26.40876 -205.95915
#
# Velocity S-wave (km/s) = -14.93499 3.66589 -10.23756
# Velocity P-wave (km/s) = 16.52360 6.52406 10.73466
#
# Compressibility (1/GPa) = 0.02087603
#
# Stress axis : x y z
#
# Youngs Moduli (GPa) = 84.56188 70.45331 70.66242
#
# Poissons Ratio (x) = 0.18231 0.20025
# Poissons Ratio (y) = 0.21882 0.29862
# Poissons Ratio (z) = 0.23964 0.29774
#
# Static dielectric constant tensor:
#      x y z
#    x 1.699760 0.000000 -0.013810 
#    y 0.000000 1.677850 0.000000 
#    z -0.013810 0.000000 1.719260 
# 
# From -- ./inp_files/118752.got.cif
#   From: 2010.05.17/outbox.cif.g08.bks.cpg/sg12_60_cif.got.tgz:118752.got - 2010.06.03 13:09:07.
