data_PCOD9221883
_publ_section_title
;
Structure prediction by ZEFSAII (Michael W. Deem and Ramdas Pophale) SiO2 
 PCOD9221883
Probable space group: C 2/M
;
_chemical_formula_sum "Si O2"
_cell_formula_units_Z 40
_cell_length_a 17.210342
_cell_length_b 25.589650
_cell_length_c 9.249421
_cell_angle_alpha 90.000000
_cell_angle_beta 28.125615
_cell_angle_gamma 90.000000
_cell_volume 1920.276145
_symmetry_space_group_name_H-M "C 2/M"
_symmetry_group_IT_number 12
_symmetry_cell_setting 'monoclinic'
loop_
_space_group_symop_operation_xyz
x,y,z
-x,y,-z
-x,-y,-z
x,-y,z
1/2+x,1/2+y,z
1/2-x,1/2+y,-z
1/2-x,1/2-y,-z
1/2+x,1/2-y,z
loop_
_atom_site_type_symbol
_atom_site_label
_atom_site_fract_x
_atom_site_fract_y
_atom_site_fract_z
Si Si1 0.312855 0.000000 0.366184
Si Si2 0.687707 0.600131 0.748436
Si Si3 0.376553 0.203468 0.329270
Si Si4 0.123466 0.706222 0.166865
Si Si5 0.684284 0.500000 0.258811
Si Si6 0.312847 0.905229 0.864221
O O1 0.273802 0.949045 0.527434
O O2 0.200257 0.000000 0.405868
O O3 0.500000 0.000000 0.000000
O O4 0.780337 0.653762 0.551863
O O5 0.703758 0.594399 0.896302
O O6 0.500000 0.602266 0.000000
O O7 0.250000 0.250000 0.500000
O O8 0.509096 0.224492 0.225535
O O9 0.500000 0.185890 0.000000
O O10 0.204773 0.649407 0.020481
O O11 0.000000 0.698390 0.500000
O O12 0.250000 0.750000 0.000000
O O13 0.500000 0.500000 0.500000
O O14 0.770848 0.450063 0.045585
O O15 0.500000 0.912023 0.500000
#
# Coordination Sequence:
#
# PCOD9221883 Si02
#       6
#     4   8   8   8   4   8
#     4  12  26  44  72 104 136 176 228 284 338 400
#     4  12  25  45  70  99 139 182 226 275 340 406
#     4  12  26  44  70 102 137 176 225 282 338 398
#     4  11  24  45  68  99 133 177 225 269 336 400
#     4  12  26  44  68 104 134 170 226 282 338 390
#     4  11  23  46  69  94 135 181 224 268 336 407
#
# _framework density 20.830338000000001
#
# number of rings (size 3 to 8) (size 9 to 14) (size 15 to 20)
#    0.000    0.400    4.000    6.000    5.600    0.800 
#    0.000    0.000    0.000    0.000    0.000    0.000 
#    0.000    0.000    0.000    0.000    0.000    0.000 
#
# Total GULP energy -111831.804498 kJ/mol
# GULP energy per Si atom -5591.590225 kJ/mol
# Density = 2.078293 g / cm^3
# Si number density = 20.830338 Si / 1000 Ang^3
#
#
#
# Elastic Constant Matrix: (Units=GPa)
#
#
# Indices 1 2 3 4 5 6 
#
# 1 148.5175 25.9238 -3.3331 -0.0009 -18.8922 0.0006
# 2 25.9238 176.6742 22.0699 -0.0003 -11.5759 0.0002
# 3 -3.3331 22.0699 35.9264 -0.0008 -15.5158 0.0005
# 4 -0.0009 -0.0003 -0.0008 34.7068 0.0005 -0.2671
# 5 -18.8922 -11.5759 -15.5158 0.0005 40.3881 -0.0004
# 6 0.0006 0.0002 0.0005 -0.2671 -0.0004 29.4894
#
#
#
# Elastic Compliance Matrix: (Units=1/GPa)
#
#
# Indices 1 2 3 4 5 6 
#
# 1 0.007602 -0.001247 0.003420 0.000000 0.004512 0.000000
# 2 -0.001247 0.006340 -0.004169 0.000000 -0.000368 0.000000
# 3 0.003420 -0.004169 0.037032 0.000001 0.014631 0.000000
# 4 0.000000 0.000000 0.000001 0.028815 0.000000 0.000261
# 5 0.004512 -0.000368 0.014631 0.000000 0.032386 0.000000
# 6 0.000000 0.000000 0.000000 0.000261 0.000000 0.033913
#
#
# Mechanical properties :
#
#
# Convention : Reuss Voigt Hill
#
# Bulk Modulus (GPa) = 21.28509 50.04880 35.66695
# Shear Modulus (GPa) = 30.16779 42.01404 36.09091
#
# Velocity S-wave (km/s) = 3.80973 4.49593 4.16698
# Velocity P-wave (km/s) = 5.43991 7.14355 6.34913
#
# Compressibility (1/GPa) = 0.04698124
#
# Stress axis : x y z
#
# Youngs Moduli (GPa) = 131.55117 157.73345 27.00360
#
# Poissons Ratio (x) = 0.19669 -0.09235
# Poissons Ratio (y) = 0.16404 0.11258
# Poissons Ratio (z) = -0.44991 0.65762
#
# Static dielectric constant tensor:
#      x y z
#    x 1.676870 0.000000 -0.116690 
#    y 0.000000 1.748170 0.000000 
#    z -0.116690 0.000000 1.541740 
# 
# From -- ./inp_files/79291.got.cif
#   From: 2010.05.17/outbox.cif.g08.bks.cpg/sg12_40_cif.got.tgz:79291.got - 2010.06.03 13:09:07.
