data_PCOD9221453
_publ_section_title
;
Structure prediction by ZEFSAII (Michael W. Deem and Ramdas Pophale) SiO2 
 PCOD9221453
Probable space group: C 2/M
;
_chemical_formula_sum "Si O2"
_cell_formula_units_Z 28
_cell_length_a 12.634320
_cell_length_b 19.627288
_cell_length_c 12.043181
_cell_angle_alpha 90.000000
_cell_angle_beta 149.149634
_cell_angle_gamma 90.000000
_cell_volume 1531.438221
_symmetry_space_group_name_H-M "C 2/M"
_symmetry_group_IT_number 12
_symmetry_cell_setting 'monoclinic'
loop_
_space_group_symop_operation_xyz
x,y,z
-x,y,-z
-x,-y,-z
x,-y,z
1/2+x,1/2+y,z
1/2-x,1/2+y,-z
1/2-x,1/2-y,-z
1/2+x,1/2-y,z
loop_
_atom_site_type_symbol
_atom_site_label
_atom_site_fract_x
_atom_site_fract_y
_atom_site_fract_z
Si Si1 0.311098 0.178773 0.409556
Si Si2 0.379445 0.181177 0.122306
Si Si3 0.500000 0.217517 0.000000
Si Si4 0.041484 0.922187 0.904998
O O1 0.500000 0.155787 0.500000
O O2 0.428717 0.200360 0.626856
O O3 0.157746 0.119871 0.312495
O O4 0.053575 0.000000 0.877336
O O5 0.432109 0.170529 0.041105
O O6 0.242413 0.121045 0.051646
O O7 0.250000 0.250000 0.000000
O O8 0.174577 0.232679 0.213851
O O9 0.000000 0.923067 0.000000
#
# Coordination Sequence:
#
# PCOD9221453 Si02
#       4
#     8   8   4   8
#     4  12  20  38  62  93 123 155 197 252 309 350
#     4  12  23  39  64  92 124 157 204 250 304 355
#     4  12  24  38  60  98 122 158 198 254 302 362
#     4  11  23  40  60  90 125 158 202 250 300 360
#
# _framework density 18.283467000000002
#
# number of rings (size 3 to 8) (size 9 to 14) (size 15 to 20)
#    0.000    0.286   10.000    0.857    0.000    1.714 
#    0.000    0.714    0.000    1.714    0.000    0.000 
#    0.000    0.000    0.000    0.000    0.000    0.000 
#
# Total GULP energy -78013.602927 kJ/mol
# GULP energy per Si atom -5572.400209 kJ/mol
# Density = 1.824185 g / cm^3
# Si number density = 18.283467 Si / 1000 Ang^3
#
#
#
# Elastic Constant Matrix: (Units=GPa)
#
#
# Indices 1 2 3 4 5 6 
#
# 1 123.6734 35.7286 44.0260 0.0000 -8.9493 0.0000
# 2 35.7286 101.5879 55.0586 0.0000 11.3024 0.0000
# 3 44.0260 55.0586 167.0567 0.0000 -3.0720 0.0000
# 4 0.0000 0.0000 0.0000 12.2535 0.0000 0.2095
# 5 -8.9493 11.3024 -3.0720 0.0000 36.1656 0.0000
# 6 0.0000 0.0000 0.0000 0.2095 0.0000 21.3999
#
#
#
# Elastic Compliance Matrix: (Units=1/GPa)
#
#
# Indices 1 2 3 4 5 6 
#
# 1 0.009712 -0.002941 -0.001531 0.000000 0.003192 0.000000
# 2 -0.002941 0.013510 -0.003775 0.000000 -0.005270 0.000000
# 3 -0.001531 -0.003775 0.007660 0.000000 0.001451 0.000000
# 4 0.000000 0.000000 0.000000 0.081623 0.000000 -0.000799
# 5 0.003192 -0.005270 0.001451 0.000000 0.030211 0.000000
# 6 0.000000 0.000000 0.000000 -0.000799 0.000000 0.046737
#
#
# Mechanical properties :
#
#
# Convention : Reuss Voigt Hill
#
# Bulk Modulus (GPa) = 69.50030 73.54938 71.52484
# Shear Modulus (GPa) = 23.72564 31.13078 27.42821
#
# Velocity S-wave (km/s) = 3.60621 4.13082 3.87740
# Velocity P-wave (km/s) = 7.44546 7.94142 7.69743
#
# Compressibility (1/GPa) = 0.01438843
#
# Stress axis : x y z
#
# Youngs Moduli (GPa) = 102.97041 74.01896 130.54293
#
# Poissons Ratio (x) = 0.21767 0.19992
# Poissons Ratio (y) = 0.30280 0.49274
# Poissons Ratio (z) = 0.15770 0.27939
#
# Static dielectric constant tensor:
#      x y z
#    x 1.791370 0.000000 0.015930 
#    y 0.000000 1.625230 0.000000 
#    z 0.015930 0.000000 1.738230 
# 
# From -- ./inp_files/38076.got.cif
#   From: 2010.05.17/outbox.cif.g08.bks.cpg/sg12_20_cif.got.tgz:38076.got - 2010.06.03 13:09:07.
