data_PCOD9221152
_publ_section_title
;
Structure prediction by ZEFSAII (Michael W. Deem and Ramdas Pophale) SiO2 
 PCOD9221152
Probable space group: C 2/M
;
_chemical_formula_sum "Si O2"
_cell_formula_units_Z 36
_cell_length_a 7.778870
_cell_length_b 25.479081
_cell_length_c 11.099141
_cell_angle_alpha 90.000000
_cell_angle_beta 45.156252
_cell_angle_gamma 90.000000
_cell_volume 1559.752856
_symmetry_space_group_name_H-M "C 2/M"
_symmetry_group_IT_number 12
_symmetry_cell_setting 'monoclinic'
loop_
_space_group_symop_operation_xyz
x,y,z
-x,y,-z
-x,-y,-z
x,-y,z
1/2+x,1/2+y,z
1/2-x,1/2+y,-z
1/2-x,1/2-y,-z
1/2+x,1/2-y,z
loop_
_atom_site_type_symbol
_atom_site_label
_atom_site_fract_x
_atom_site_fract_y
_atom_site_fract_z
Si Si1 0.500000 0.877709 0.500000
Si Si2 0.264828 0.907522 0.844004
Si Si3 0.766101 0.690123 0.030148
Si Si4 0.947563 0.843989 0.396970
Si Si5 0.185375 0.441599 0.796271
O O1 0.302725 0.905297 0.681949
O O2 0.661637 0.848923 0.519734
O O3 0.498842 0.937512 0.778000
O O4 0.262552 0.852246 0.922716
O O5 0.000000 0.931036 0.000000
O O6 0.541652 0.683136 0.230669
O O7 0.750000 0.750000 0.000000
O O8 0.000000 0.681886 0.000000
O O9 0.106282 0.898079 0.319498
O O10 0.000000 0.818036 0.500000
O O11 0.289278 0.500000 0.754910
O O12 0.000000 0.433248 0.000000
#
# Coordination Sequence:
#
# PCOD9221152 Si02
#       5
#     4   8   8   8   8
#     4  12  24  40  73 102 132 184 234 288 347 422
#     4  12  22  44  69  98 144 183 232 296 353 409
#     4  12  24  44  71  99 133 186 230 288 359 419
#     4  12  23  46  71 100 145 184 232 296 352 413
#     4  11  22  42  71  99 138 192 237 284 355 422
#
# _framework density 23.080579
#
# number of rings (size 3 to 8) (size 9 to 14) (size 15 to 20)
#    0.000    0.222    8.889    0.667    0.000    0.889 
#    2.000    4.444    0.000    0.000    0.000    0.000 
#    0.000    0.000    0.000    0.000    0.000    0.000 
#
# Total GULP energy -100520.667703 kJ/mol
# GULP energy per Si atom -5584.481539 kJ/mol
# Density = 2.302805 g / cm^3
# Si number density = 23.080579 Si / 1000 Ang^3
#
#
#
# Elastic Constant Matrix: (Units=GPa)
#
#
# Indices 1 2 3 4 5 6 
#
# 1 112.7809 -9.5799 2.3904 0.0000 -6.7194 0.0000
# 2 -9.5799 98.9010 5.5851 0.0000 5.7730 0.0000
# 3 2.3904 5.5851 129.0475 0.0000 16.8272 0.0000
# 4 0.0000 0.0000 0.0000 11.4261 0.0000 7.8489
# 5 -6.7194 5.7730 16.8272 0.0000 53.8696 0.0000
# 6 0.0000 0.0000 0.0000 7.8489 0.0000 19.6567
#
#
#
# Elastic Compliance Matrix: (Units=1/GPa)
#
#
# Indices 1 2 3 4 5 6 
#
# 1 0.009013 0.000826 -0.000352 0.000000 0.001146 0.000000
# 2 0.000826 0.010262 -0.000343 0.000000 -0.000889 0.000000
# 3 -0.000352 -0.000343 0.008101 0.000000 -0.002538 0.000000
# 4 0.000000 0.000000 0.000000 0.120597 0.000000 -0.048154
# 5 0.001146 -0.000889 -0.002538 0.000000 0.019594 0.000000
# 6 0.000000 0.000000 0.000000 -0.048154 0.000000 0.070101
#
#
# Mechanical properties :
#
#
# Convention : Reuss Voigt Hill
#
# Bulk Modulus (GPa) = 36.18290 37.50230 36.84260
# Shear Modulus (GPa) = 20.27403 39.81271 30.04337
#
# Velocity S-wave (km/s) = 2.96700 4.15775 3.61179
# Velocity P-wave (km/s) = 5.23911 6.27159 5.77846
#
# Compressibility (1/GPa) = 0.02763736
#
# Stress axis : x y z
#
# Youngs Moduli (GPa) = 110.95540 97.44262 123.43575
#
# Poissons Ratio (x) = -0.08049 0.04346
# Poissons Ratio (y) = -0.09165 0.04240
# Poissons Ratio (z) = 0.03907 0.03347
#
# Static dielectric constant tensor:
#      x y z
#    x 2.047390 0.000000 -0.078160 
#    y 0.000000 1.899210 0.000000 
#    z -0.078160 0.000000 1.993080 
# 
# From -- ./inp_files/123347.got.cif
#   From: 2010.05.17/outbox.cif.g08.bks.cpg/sg12_62_cif.got.tgz:123347.got - 2010.06.03 13:09:07.
