data_PCOD9221049
_publ_section_title
;
Structure prediction by ZEFSAII (Michael W. Deem and Ramdas Pophale) SiO2 
 PCOD9221049
Probable space group: C 2/M
;
_chemical_formula_sum "Si O2"
_cell_formula_units_Z 40
_cell_length_a 15.079562
_cell_length_b 28.063359
_cell_length_c 8.415533
_cell_angle_alpha 90.000000
_cell_angle_beta 150.217968
_cell_angle_gamma 90.000000
_cell_volume 1768.910030
_symmetry_space_group_name_H-M "C 2/M"
_symmetry_group_IT_number 12
_symmetry_cell_setting 'monoclinic'
loop_
_space_group_symop_operation_xyz
x,y,z
-x,y,-z
-x,-y,-z
x,-y,z
1/2+x,1/2+y,z
1/2-x,1/2+y,-z
1/2-x,1/2-y,-z
1/2+x,1/2-y,z
loop_
_atom_site_type_symbol
_atom_site_label
_atom_site_fract_x
_atom_site_fract_y
_atom_site_fract_z
Si Si1 0.127263 0.323036 0.074351
Si Si2 0.805353 0.666496 0.163378
Si Si3 0.020372 0.221535 0.216309
Si Si4 0.818784 0.080042 0.821212
Si Si5 0.331971 0.000000 0.627249
Si Si6 0.526136 0.500000 0.725727
O O1 0.299922 0.299680 0.428560
O O2 0.190431 0.349582 0.014185
O O3 0.000000 0.350734 0.000000
O O4 0.001524 0.278508 0.825420
O O5 0.770180 0.625867 0.239438
O O6 0.000000 0.687349 0.500000
O O7 0.645837 0.703100 0.940503
O O8 0.000000 0.205996 0.000000
O O9 0.689586 0.047150 0.514367
O O10 0.874408 0.046493 0.054580
O O11 0.000000 0.089952 0.000000
O O12 0.159904 0.000000 0.471714
O O13 0.500000 0.000000 0.000000
O O14 0.500000 0.500000 0.500000
#
# Coordination Sequence:
#
# PCOD9221049 Si02
#       6
#     8   8   8   8   4   4
#     4  11  23  41  64  90 121 165 216 263 315 374
#     4  12  24  39  59  90 127 165 206 259 314 370
#     4  11  22  41  65  89 120 163 213 269 316 370
#     4   9  21  42  64  89 125 163 202 249 307 371
#     4   9  19  41  70  96 121 158 203 252 306 372
#     4   9  19  37  64  92 120 158 199 242 299 372
#
# _framework density 22.612795999999999
#
# number of rings (size 3 to 8) (size 9 to 14) (size 15 to 20)
#    0.000    1.600    0.000    7.800    0.000    3.200 
#    0.000   11.000    0.000    0.000    0.000    2.100 
#    0.000    0.000    0.000    0.000    0.000    0.000 
#
# Total GULP energy -111843.734678 kJ/mol
# GULP energy per Si atom -5592.186734 kJ/mol
# Density = 2.256133 g / cm^3
# Si number density = 22.612796 Si / 1000 Ang^3
#
#
#
# Elastic Constant Matrix: (Units=GPa)
#
#
# Indices 1 2 3 4 5 6 
#
# 1 164.0163 33.8654 37.8951 0.0000 -14.4002 0.0000
# 2 33.8654 43.7855 9.2653 0.0000 0.9152 0.0000
# 3 37.8951 9.2653 131.2573 0.0000 -5.0947 0.0000
# 4 0.0000 0.0000 0.0000 2.6532 0.0000 9.3574
# 5 -14.4002 0.9152 -5.0947 0.0000 48.4769 0.0000
# 6 0.0000 0.0000 0.0000 9.3574 0.0000 11.0920
#
#
#
# Elastic Compliance Matrix: (Units=1/GPa)
#
#
# Indices 1 2 3 4 5 6 
#
# 1 0.007902 -0.005782 -0.001785 0.000000 0.002269 0.000000
# 2 -0.005782 0.027433 -0.000355 0.000000 -0.002273 0.000000
# 3 -0.001785 -0.000355 0.008172 0.000000 0.000335 0.000000
# 4 0.000000 0.000000 0.000000 -0.190805 0.000000 0.160967
# 5 0.002269 -0.002273 0.000335 0.000000 0.021381 0.000000
# 6 0.000000 0.000000 0.000000 0.160967 0.000000 -0.045640
#
#
# Mechanical properties :
#
#
# Convention : Reuss Voigt Hill
#
# Bulk Modulus (GPa) = 36.14964 55.67895 45.91430
# Shear Modulus (GPa) = -34.13185 29.64665 -2.24260
#
# Velocity S-wave (km/s) = -3.88932 3.62478 -0.99694
# Velocity P-wave (km/s) = 2.03667 6.49576 4.36159
#
# Compressibility (1/GPa) = 0.02766279
#
# Stress axis : x y z
#
# Youngs Moduli (GPa) = 126.54349 36.45231 122.36664
#
# Poissons Ratio (x) = 0.21076 0.21846
# Poissons Ratio (y) = 0.73163 0.04350
# Poissons Ratio (z) = 0.22592 0.01296
#
# Static dielectric constant tensor:
#      x y z
#    x 1.897220 0.000000 -0.023470 
#    y 0.000000 1.858490 0.000000 
#    z -0.023470 0.000000 1.807680 
# 
# From -- ./inp_files/68789.got.cif
#   From: 2010.05.17/outbox.cif.g08.bks.cpg/sg12_35_cif.got.tgz:68789.got - 2010.06.03 13:09:07.
