data_PCOD9221229
_publ_section_title
;
Structure prediction by ZEFSAII (Michael W. Deem and Ramdas Pophale) SiO2 
 PCOD9221229
Probable space group: C 2/M
;
_chemical_formula_sum "Si O2"
_cell_formula_units_Z 40
_cell_length_a 27.195859
_cell_length_b 14.017514
_cell_length_c 9.431429
_cell_angle_alpha 90.000000
_cell_angle_beta 150.680458
_cell_angle_gamma 90.000000
_cell_volume 1760.611455
_symmetry_space_group_name_H-M "C 2/M"
_symmetry_group_IT_number 12
_symmetry_cell_setting 'monoclinic'
loop_
_space_group_symop_operation_xyz
x,y,z
-x,y,-z
-x,-y,-z
x,-y,z
1/2+x,1/2+y,z
1/2-x,1/2+y,-z
1/2-x,1/2-y,-z
1/2+x,1/2-y,z
loop_
_atom_site_type_symbol
_atom_site_label
_atom_site_fract_x
_atom_site_fract_y
_atom_site_fract_z
Si Si1 0.111142 0.500000 0.349538
Si Si2 0.391409 0.346753 0.264436
Si Si3 0.040189 0.198118 0.842696
Si Si4 0.087838 0.000000 0.109284
Si Si5 0.223753 0.500000 0.903443
Si Si6 0.292956 0.000000 0.801743
Si Si7 0.664174 0.832312 0.290638
O O1 0.126869 0.500000 0.557879
O O2 0.166449 0.405453 0.427038
O O3 0.000000 0.500000 0.000000
O O4 0.500000 0.398041 0.500000
O O5 0.390933 0.281023 0.124238
O O6 0.426275 0.299625 0.499530
O O7 0.295895 0.410862 0.045692
O O8 0.075326 0.094430 0.984245
O O9 0.062794 0.272275 0.021077
O O10 0.184794 0.000000 0.451942
O O11 0.000000 0.000000 0.000000
O O12 0.206007 0.500000 0.026697
O O13 0.338384 0.904480 0.849044
O O14 0.750000 0.750000 0.500000
#
# Coordination Sequence:
#
# PCOD9221229 Si02
#       7
#     4   8   8   4   4   4   8
#     4  11  29  50  71  96 140 193 222 276 347 416
#     4   8  19  33  66 100 128 171 209 286 346 377
#     4   9  19  36  61  96 132 167 224 263 343 392
#     4  12  20  31  59  99 140 164 207 286 342 382
#     4  12  20  45  65  98 141 161 230 283 344 402
#     4  11  26  37  64  99 128 179 227 275 339 386
#     4  11  22  46  70  94 133 186 235 268 326 413
#
# _framework density 22.719379
#
# number of rings (size 3 to 8) (size 9 to 14) (size 15 to 20)
#    1.200    0.400    2.000    3.900    2.800    0.800 
#   10.800    3.000    0.000    0.000    0.000    0.000 
#    0.000    0.000    0.000    0.000    0.000    0.000 
#
# Total GULP energy -111376.282363 kJ/mol
# GULP energy per Si atom -5568.814118 kJ/mol
# Density = 2.266767 g / cm^3
# Si number density = 22.719379 Si / 1000 Ang^3
#
#
#
# Elastic Constant Matrix: (Units=GPa)
#
#
# Indices 1 2 3 4 5 6 
#
# 1 71.6592 23.1154 41.0897 0.0000 -26.0262 0.0000
# 2 23.1154 123.7622 39.1669 0.0000 -16.6503 0.0000
# 3 41.0897 39.1669 132.7293 0.0000 -33.4163 0.0000
# 4 0.0000 0.0000 0.0000 20.4876 0.0000 -8.0314
# 5 -26.0262 -16.6503 -33.4163 0.0000 38.4744 0.0000
# 6 0.0000 0.0000 0.0000 -8.0314 0.0000 -4.5267
#
#
#
# Elastic Compliance Matrix: (Units=1/GPa)
#
#
# Indices 1 2 3 4 5 6 
#
# 1 0.019898 -0.001339 -0.003228 0.000000 0.010077 0.000000
# 2 -0.001339 0.009126 -0.001935 0.000000 0.001363 0.000000
# 3 -0.003228 -0.001935 0.010679 0.000000 0.006254 0.000000
# 4 0.000000 0.000000 0.000000 0.028788 0.000000 -0.051076
# 5 0.010077 0.001363 0.006254 0.000000 0.038830 0.000000
# 6 0.000000 0.000000 0.000000 -0.051076 0.000000 -0.130291
#
#
# Mechanical properties :
#
#
# Convention : Reuss Voigt Hill
#
# Bulk Modulus (GPa) = 37.45569 59.43275 48.44422
# Shear Modulus (GPa) = -4681.05949 25.87230 -2327.59359
#
# Velocity S-wave (km/s) = -45.44067 3.37824 -32.04249
# Velocity P-wave (km/s) = 52.31269 6.43684 36.70957
#
# Compressibility (1/GPa) = 0.02669821
#
# Stress axis : x y z
#
# Youngs Moduli (GPa) = 50.25747 109.57801 93.64184
#
# Poissons Ratio (x) = 0.14674 0.30224
# Poissons Ratio (y) = 0.06730 0.18123
# Poissons Ratio (z) = 0.16221 0.21207
#
# Static dielectric constant tensor:
#      x y z
#    x 1.885230 0.000000 -0.023130 
#    y 0.000000 1.981980 0.000000 
#    z -0.023130 0.000000 1.888060 
# 
# From -- ./inp_files/112153.got.cif
#   From: 2010.05.17/outbox.cif.g08.bks.cpg/sg12_57_cif.got.tgz:112153.got - 2010.06.03 13:09:07.
