data_PCOD9221726
_publ_section_title
;
Structure prediction by ZEFSAII (Michael W. Deem and Ramdas Pophale) SiO2 
 PCOD9221726
Probable space group: C 2/M
;
_chemical_formula_sum "Si O2"
_cell_formula_units_Z 36
_cell_length_a 13.775091
_cell_length_b 18.763458
_cell_length_c 7.463065
_cell_angle_alpha 90.000000
_cell_angle_beta 55.131089
_cell_angle_gamma 90.000000
_cell_volume 1582.643724
_symmetry_space_group_name_H-M "C 2/M"
_symmetry_group_IT_number 12
_symmetry_cell_setting 'monoclinic'
loop_
_space_group_symop_operation_xyz
x,y,z
-x,y,-z
-x,-y,-z
x,-y,z
1/2+x,1/2+y,z
1/2-x,1/2+y,-z
1/2-x,1/2-y,-z
1/2+x,1/2-y,z
loop_
_atom_site_type_symbol
_atom_site_label
_atom_site_fract_x
_atom_site_fract_y
_atom_site_fract_z
Si Si1 0.054628 0.000000 0.234929
Si Si2 0.744985 0.374906 0.959307
Si Si3 0.622671 0.209297 0.477772
Si Si4 0.126669 0.500000 0.290348
Si Si5 0.298318 0.500000 0.452401
Si Si6 0.756198 0.347127 0.336791
O O1 0.131417 0.928389 0.106549
O O2 0.000000 0.000000 0.500000
O O3 0.934110 0.000000 0.251134
O O4 0.762615 0.331423 0.120335
O O5 0.772464 0.327853 0.753993
O O6 0.851243 0.430985 0.847038
O O7 0.500000 0.204377 0.500000
O O8 0.653637 0.290762 0.496054
O O9 0.631098 0.169095 0.658335
O O10 0.000000 0.500000 0.500000
O O11 0.782137 0.500000 0.639420
O O12 0.275403 0.428840 0.590782
#
# Coordination Sequence:
#
# PCOD9221726 Si02
#       6
#     4   8   8   4   4   8
#     4  11  23  42  72 109 146 184 242 301 358 416
#     4  11  23  44  72 104 142 192 244 289 360 437
#     4  11  26  48  70 104 155 189 239 302 363 432
#     4  11  24  46  71 104 150 186 236 307 357 430
#     4  12  23  45  74 103 141 189 240 294 367 408
#     4  11  25  46  71 107 140 192 245 292 366 429
#
# _framework density 22.746749000000001
#
# number of rings (size 3 to 8) (size 9 to 14) (size 15 to 20)
#    0.000    0.889    4.444    2.000    3.111    2.667 
#    0.000    1.111    0.000    0.000    0.000    0.000 
#    0.000    0.000    0.000    0.000    0.000    0.000 
#
# Total GULP energy -100383.641819 kJ/mol
# GULP energy per Si atom -5576.868990 kJ/mol
# Density = 2.269498 g / cm^3
# Si number density = 22.746749 Si / 1000 Ang^3
#
#
#
# Elastic Constant Matrix: (Units=GPa)
#
#
# Indices 1 2 3 4 5 6 
#
# 1 141.6394 0.0238 16.1637 0.0000 -14.2051 0.0000
# 2 0.0238 123.6801 2.4014 0.0000 -8.3783 0.0000
# 3 16.1637 2.4014 64.7606 0.0000 -7.9659 0.0000
# 4 0.0000 0.0000 0.0000 30.6381 0.0000 15.7228
# 5 -14.2051 -8.3783 -7.9659 0.0000 38.6028 0.0000
# 6 0.0000 0.0000 0.0000 15.7228 0.0000 23.3520
#
#
#
# Elastic Compliance Matrix: (Units=1/GPa)
#
#
# Indices 1 2 3 4 5 6 
#
# 1 0.007488 0.000197 -0.001572 0.000000 0.002474 0.000000
# 2 0.000197 0.008212 -0.000129 0.000000 0.001828 0.000000
# 3 -0.001572 -0.000129 0.016175 0.000000 0.002731 0.000000
# 4 0.000000 0.000000 0.000000 0.049870 0.000000 -0.033577
# 5 0.002474 0.001828 0.002731 0.000000 0.027775 0.000000
# 6 0.000000 0.000000 0.000000 -0.033577 0.000000 0.065430
#
#
# Mechanical properties :
#
#
# Convention : Reuss Voigt Hill
#
# Bulk Modulus (GPa) = 34.64289 40.80644 37.72467
# Shear Modulus (GPa) = 26.65535 39.28468 32.97001
#
# Velocity S-wave (km/s) = 3.42692 4.16028 3.81128
# Velocity P-wave (km/s) = 5.56069 6.40747 5.99904
#
# Compressibility (1/GPa) = 0.02886595
#
# Stress axis : x y z
#
# Youngs Moduli (GPa) = 133.55398 121.77792 61.82549
#
# Poissons Ratio (x) = -0.02395 0.09718
# Poissons Ratio (y) = -0.02626 0.00796
# Poissons Ratio (z) = 0.20993 0.01568
#
# Static dielectric constant tensor:
#      x y z
#    x 1.889810 0.000000 0.064490 
#    y 0.000000 1.886000 0.000000 
#    z 0.064490 0.000000 1.950730 
# 
# From -- ./inp_files/60763.got.cif
#   From: 2010.05.17/outbox.cif.g08.bks.cpg/sg12_31_cif.got.tgz:60763.got - 2010.06.03 13:09:07.
