data_PCOD9221496
_publ_section_title
;
Structure prediction by ZEFSAII (Michael W. Deem and Ramdas Pophale) SiO2 
 PCOD9221496
Probable space group: C 2/M
;
_chemical_formula_sum "Si O2"
_cell_formula_units_Z 48
_cell_length_a 8.488140
_cell_length_b 31.169769
_cell_length_c 12.872898
_cell_angle_alpha 90.000000
_cell_angle_beta 139.573565
_cell_angle_gamma 90.000000
_cell_volume 2208.579981
_symmetry_space_group_name_H-M "C 2/M"
_symmetry_group_IT_number 12
_symmetry_cell_setting 'monoclinic'
loop_
_space_group_symop_operation_xyz
x,y,z
-x,y,-z
-x,-y,-z
x,-y,z
1/2+x,1/2+y,z
1/2-x,1/2+y,-z
1/2-x,1/2-y,-z
1/2+x,1/2-y,z
loop_
_atom_site_type_symbol
_atom_site_label
_atom_site_fract_x
_atom_site_fract_y
_atom_site_fract_z
Si Si1 0.773463 0.868901 0.130269
Si Si2 0.713685 0.209858 0.824541
Si Si3 0.499518 0.046701 0.678351
Si Si4 0.703829 0.706929 0.689375
Si Si5 0.257438 0.121556 0.114833
Si Si6 0.601546 0.452442 0.306745
O O1 0.810518 0.830102 0.229323
O O2 0.942642 0.909993 0.226601
O O3 0.500000 0.885030 0.000000
O O4 0.779922 0.854687 0.013291
O O5 0.651906 0.246671 0.712091
O O6 0.480368 0.210611 0.785146
O O7 0.707096 0.159953 0.785898
O O8 0.000000 0.218043 0.000000
O O9 0.535659 0.086531 0.772501
O O10 0.706866 0.050024 0.692748
O O11 0.253036 0.048275 0.489711
O O12 0.523272 0.000000 0.741087
O O13 0.500000 0.697438 0.500000
O O14 0.000000 0.098325 0.000000
O O15 0.483762 0.500000 0.239559
#
# Coordination Sequence:
#
# PCOD9221496 Si02
#       6
#     8   8   8   8   8   8
#     4  12  25  42  66  94 140 177 219 274 338 401
#     4  11  26  47  73  98 140 175 227 277 342 403
#     4   9  19  39  67  98 133 171 225 282 332 392
#     4  12  28  48  71 104 136 179 226 285 340 407
#     4  11  23  40  65 103 129 177 225 273 335 394
#     4   9  20  39  64  97 134 177 220 276 338 394
#
# _framework density 21.733422000000001
#
# number of rings (size 3 to 8) (size 9 to 14) (size 15 to 20)
#    0.000    1.333    3.333    2.500    7.000    1.333 
#    3.000    0.000    0.000    2.500    0.000    0.000 
#    0.000    0.000    0.000    0.000    0.000    0.000 
#
# Total GULP energy -133745.895358 kJ/mol
# GULP energy per Si atom -5572.745640 kJ/mol
# Density = 2.168396 g / cm^3
# Si number density = 21.733422 Si / 1000 Ang^3
#
#
#
# Elastic Constant Matrix: (Units=GPa)
#
#
# Indices 1 2 3 4 5 6 
#
# 1 52.4018 17.1982 29.0672 0.0000 1.8303 0.0000
# 2 17.1982 153.2287 69.3750 0.0000 -7.0926 0.0000
# 3 29.0672 69.3750 95.9273 0.0000 -11.1154 0.0000
# 4 0.0000 0.0000 0.0000 41.3655 0.0000 -0.2359
# 5 1.8303 -7.0926 -11.1154 0.0000 26.3665 0.0000
# 6 0.0000 0.0000 0.0000 -0.2359 0.0000 28.4041
#
#
#
# Elastic Compliance Matrix: (Units=1/GPa)
#
#
# Indices 1 2 3 4 5 6 
#
# 1 0.023607 0.000921 -0.008390 0.000000 -0.004928 0.000000
# 2 0.000921 0.009743 -0.007390 0.000000 -0.000558 0.000000
# 3 -0.008390 -0.007390 0.019081 0.000000 0.006638 0.000000
# 4 0.000000 0.000000 0.000000 0.024176 0.000000 0.000201
# 5 -0.004928 -0.000558 0.006638 0.000000 0.040917 0.000000
# 6 0.000000 0.000000 0.000000 0.000201 0.000000 0.035208
#
#
# Mechanical properties :
#
#
# Convention : Reuss Voigt Hill
#
# Bulk Modulus (GPa) = 44.02926 59.20429 51.61677
# Shear Modulus (GPa) = 26.31291 31.62173 28.96732
#
# Velocity S-wave (km/s) = 3.48330 3.81856 3.65478
# Velocity P-wave (km/s) = 6.03992 6.83682 6.45069
#
# Compressibility (1/GPa) = 0.02271217
#
# Stress axis : x y z
#
# Youngs Moduli (GPa) = 42.35968 102.64074 52.40945
#
# Poissons Ratio (x) = -0.09454 0.43974
# Poissons Ratio (y) = -0.03902 0.38729
# Poissons Ratio (z) = 0.35542 0.75849
#
# Static dielectric constant tensor:
#      x y z
#    x 1.955690 0.000000 -0.005320 
#    y 0.000000 1.797070 0.000000 
#    z -0.005320 0.000000 1.799080 
# 
# From -- ./inp_files/200241.got.cif
#   From: 2010.05.17/outbox.cif.g08.bks.cpg/sg12_101_cif.got.tgz:200241.got - 2010.06.03 13:09:07.
