data_PCOD9221965
_publ_section_title
;
Structure prediction by ZEFSAII (Michael W. Deem and Ramdas Pophale) SiO2 
 PCOD9221965
Probable space group: C 2/M
;
_chemical_formula_sum "Si O2"
_cell_formula_units_Z 56
_cell_length_a 10.158237
_cell_length_b 27.775420
_cell_length_c 18.947516
_cell_angle_alpha 90.000000
_cell_angle_beta 36.469669
_cell_angle_gamma 90.000000
_cell_volume 3177.664080
_symmetry_space_group_name_H-M "C 2/M"
_symmetry_group_IT_number 12
_symmetry_cell_setting 'monoclinic'
loop_
_space_group_symop_operation_xyz
x,y,z
-x,y,-z
-x,-y,-z
x,-y,z
1/2+x,1/2+y,z
1/2-x,1/2+y,-z
1/2-x,1/2-y,-z
1/2+x,1/2-y,z
loop_
_atom_site_type_symbol
_atom_site_label
_atom_site_fract_x
_atom_site_fract_y
_atom_site_fract_z
Si Si1 0.617974 0.152118 0.762235
Si Si2 0.869013 0.445357 0.859413
Si Si3 0.904735 0.847886 0.237768
Si Si4 0.447263 0.445357 0.140588
Si Si5 0.081547 0.184826 0.612275
Si Si6 0.498372 0.796991 0.667733
Si Si7 0.651234 0.794674 0.000005
O O1 0.546456 0.096795 0.785676
O O2 0.535822 0.181729 0.729317
O O3 0.495739 0.174010 0.883159
O O4 0.878434 0.159309 0.660738
O O5 0.955660 0.500000 0.827244
O O6 0.730664 0.441497 0.846220
O O7 0.686101 0.438695 0.000000
O O8 0.860820 0.840706 0.339225
O O9 0.723773 0.818269 0.270743
O O10 0.903502 0.903207 0.214327
O O11 0.145244 0.825994 0.116824
O O12 0.437405 0.500000 0.172756
O O13 0.294078 0.188122 0.470606
O O14 0.000966 0.239069 0.666003
O O15 0.500000 0.778204 0.000000
O O16 0.750000 0.750000 0.000000
#
# Coordination Sequence:
#
# PCOD9221965 Si02
#       7
#     8   8   8   8   8   8   8
#     4  12  22  38  62  88 122 155 200 254 303 353
#     4   9  18  35  59  88 119 157 204 246 298 372
#     4  12  22  38  62  88 122 155 200 254 303 353
#     4   9  18  35  59  88 119 157 204 246 298 372
#     4  11  24  41  58  85 124 161 209 246 290 356
#     4  11  24  41  62  83 114 173 211 240 284 360
#     4  12  26  38  57  90 131 163 190 241 313 372
#
# _framework density 17.623007000000001
#
# number of rings (size 3 to 8) (size 9 to 14) (size 15 to 20)
#    0.000    1.143    4.286    4.286    2.000    2.286 
#    0.000    0.714    0.000    7.714    0.000    0.000 
#    0.000    0.000    0.000    0.000    0.000    0.000 
#
# Total GULP energy -156508.815805 kJ/mol
# GULP energy per Si atom -5589.600564 kJ/mol
# Density = 1.758290 g / cm^3
# Si number density = 17.623007 Si / 1000 Ang^3
#
#
#
# Elastic Constant Matrix: (Units=GPa)
#
#
# Indices 1 2 3 4 5 6 
#
# 1 120.7635 49.1868 32.0726 0.0000 -0.6951 0.0000
# 2 49.1868 134.6319 36.0004 0.0000 -0.1936 0.0000
# 3 32.0726 36.0004 64.0915 0.0001 -0.1762 0.0000
# 4 0.0000 0.0000 0.0001 24.4758 0.0000 0.0803
# 5 -0.6951 -0.1936 -0.1762 0.0000 21.0463 0.0000
# 6 0.0000 0.0000 0.0000 0.0803 0.0000 19.1288
#
#
#
# Elastic Compliance Matrix: (Units=1/GPa)
#
#
# Indices 1 2 3 4 5 6 
#
# 1 0.010394 -0.002832 -0.003610 0.000000 0.000287 0.000000
# 2 -0.002832 0.009512 -0.003926 0.000000 -0.000039 0.000000
# 3 -0.003610 -0.003926 0.019615 0.000000 0.000009 0.000000
# 4 0.000000 0.000000 0.000000 0.040857 0.000000 -0.000172
# 5 0.000287 -0.000039 0.000009 0.000000 0.047523 0.000000
# 6 0.000000 0.000000 0.000000 -0.000172 0.000000 0.052278
#
#
# Mechanical properties :
#
#
# Convention : Reuss Voigt Hill
#
# Bulk Modulus (GPa) = 53.23344 61.55626 57.39485
# Shear Modulus (GPa) = 24.13394 26.41199 25.27297
#
# Velocity S-wave (km/s) = 3.70463 3.87553 3.79105
# Velocity P-wave (km/s) = 6.96932 7.41833 7.19733
#
# Compressibility (1/GPa) = 0.01878518
#
# Stress axis : x y z
#
# Youngs Moduli (GPa) = 96.20490 105.13080 50.98262
#
# Poissons Ratio (x) = 0.29771 0.18406
# Poissons Ratio (y) = 0.27243 0.20015
# Poissons Ratio (z) = 0.34732 0.41274
#
# Static dielectric constant tensor:
#      x y z
#    x 1.585100 0.000000 0.000070 
#    y 0.000000 1.582930 0.000000 
#    z 0.000070 0.000000 1.590440 
# 
# From -- ./inp_files/124339.got.cif
#   From: 2010.05.17/outbox.cif.g08.bks.cpg/sg12_63_cif.got.tgz:124339.got - 2010.06.03 13:09:07.
