data_PCOD9221016
_publ_section_title
;
Structure prediction by ZEFSAII (Michael W. Deem and Ramdas Pophale) SiO2 
 PCOD9221016
Probable space group: C 2/M
;
_chemical_formula_sum "Si O2"
_cell_formula_units_Z 52
_cell_length_a 31.192227
_cell_length_b 14.788882
_cell_length_c 8.453881
_cell_angle_alpha 90.000000
_cell_angle_beta 42.230621
_cell_angle_gamma 90.000000
_cell_volume 2621.092536
_symmetry_space_group_name_H-M "C 2/M"
_symmetry_group_IT_number 12
_symmetry_cell_setting 'monoclinic'
loop_
_space_group_symop_operation_xyz
x,y,z
-x,y,-z
-x,-y,-z
x,-y,z
1/2+x,1/2+y,z
1/2-x,1/2+y,-z
1/2-x,1/2-y,-z
1/2+x,1/2-y,z
loop_
_atom_site_type_symbol
_atom_site_label
_atom_site_fract_x
_atom_site_fract_y
_atom_site_fract_z
Si Si1 0.361509 0.236958 0.820840
Si Si2 0.566377 0.396491 0.532454
Si Si3 0.055734 0.217857 0.123100
Si Si4 0.634573 0.895020 0.488216
Si Si5 0.367444 0.603697 0.324397
Si Si6 0.500000 0.843075 0.000000
Si Si7 0.268978 0.249175 0.632473
O O1 0.381170 0.331457 0.686370
O O2 0.413279 0.226542 0.819397
O O3 0.366449 0.158290 0.676747
O O4 0.292527 0.247649 0.087757
O O5 0.571303 0.500000 0.467709
O O6 0.498706 0.352460 0.679528
O O7 0.577871 0.393864 0.690589
O O8 0.109575 0.158210 0.890753
O O9 0.024659 0.282360 0.077726
O O10 0.563854 0.891449 0.760243
O O11 0.684426 0.835149 0.455084
O O12 0.653467 0.000000 0.421407
O O13 0.352788 0.500000 0.329529
O O14 0.308460 0.659170 0.553730
O O15 0.250000 0.250000 0.500000
#
# Coordination Sequence:
#
# PCOD9221016 Si02
#       7
#     8   8   8   8   8   4   8
#     4  12  25  42  69  96 138 179 221 274 336 404
#     4  11  23  39  66 103 137 171 214 274 348 412
#     4  12  20  41  71  96 136 174 216 275 345 393
#     4  12  27  47  70 100 134 179 228 280 333 393
#     4  11  22  40  69 101 133 174 219 272 337 407
#     4  12  21  46  73  96 128 178 225 282 331 394
#     4  12  24  48  70  96 132 179 225 277 330 395
#
# _framework density 19.839057
#
# number of rings (size 3 to 8) (size 9 to 14) (size 15 to 20)
#    0.000    0.308    7.692    1.615    0.000    4.923 
#    0.000    3.846    0.000    0.000    0.000    0.000 
#    0.000    0.000    0.000    0.000    0.000    0.000 
#
# Total GULP energy -145315.600018 kJ/mol
# GULP energy per Si atom -5589.061539 kJ/mol
# Density = 1.979390 g / cm^3
# Si number density = 19.839057 Si / 1000 Ang^3
#
#
#
# Elastic Constant Matrix: (Units=GPa)
#
#
# Indices 1 2 3 4 5 6 
#
# 1 137.6088 60.6996 28.2062 0.0000 8.5014 0.0000
# 2 60.6996 134.2228 41.7289 0.0000 0.6955 0.0000
# 3 28.2062 41.7289 120.8062 0.0000 -2.9045 0.0000
# 4 0.0000 0.0000 0.0000 11.3401 0.0000 4.9118
# 5 8.5014 0.6955 -2.9045 0.0000 29.8680 0.0000
# 6 0.0000 0.0000 0.0000 4.9118 0.0000 12.4880
#
#
#
# Elastic Compliance Matrix: (Units=1/GPa)
#
#
# Indices 1 2 3 4 5 6 
#
# 1 0.009350 -0.003939 -0.000886 0.000000 -0.002656 0.000000
# 2 -0.003939 0.010013 -0.002523 0.000000 0.000643 0.000000
# 3 -0.000886 -0.002523 0.009386 0.000000 0.001224 0.000000
# 4 0.000000 0.000000 0.000000 0.106291 0.000000 -0.041807
# 5 -0.002656 0.000643 0.001224 0.000000 0.034341 0.000000
# 6 0.000000 0.000000 0.000000 -0.041807 0.000000 0.096521
#
#
# Mechanical properties :
#
#
# Convention : Reuss Voigt Hill
#
# Bulk Modulus (GPa) = 71.16925 72.65634 71.91280
# Shear Modulus (GPa) = 17.52643 28.20609 22.86626
#
# Velocity S-wave (km/s) = 2.97548 3.77469 3.39866
# Velocity P-wave (km/s) = 6.91056 7.46325 7.19222
#
# Compressibility (1/GPa) = 0.01405101
#
# Stress axis : x y z
#
# Youngs Moduli (GPa) = 106.94834 99.87103 106.54462
#
# Poissons Ratio (x) = 0.39341 0.09443
# Poissons Ratio (y) = 0.42129 0.26886
# Poissons Ratio (z) = 0.09479 0.25202
#
# Static dielectric constant tensor:
#      x y z
#    x 1.746570 0.000000 0.000270 
#    y 0.000000 1.659240 0.000000 
#    z 0.000270 0.000000 1.730660 
# 
# From -- ./inp_files/111904.got.cif
#   From: 2010.05.17/outbox.cif.g08.bks.cpg/sg12_56_cif.got.tgz:111904.got - 2010.06.03 13:09:07.
