data_PCOD9221211
_publ_section_title
;
Structure prediction by ZEFSAII (Michael W. Deem and Ramdas Pophale) SiO2 
 PCOD9221211
Probable space group: C 2/M
;
_chemical_formula_sum "Si O2"
_cell_formula_units_Z 40
_cell_length_a 26.212488
_cell_length_b 9.773401
_cell_length_c 13.572590
_cell_angle_alpha 90.000000
_cell_angle_beta 147.429934
_cell_angle_gamma 90.000000
_cell_volume 1871.827138
_symmetry_space_group_name_H-M "C 2/M"
_symmetry_group_IT_number 12
_symmetry_cell_setting 'monoclinic'
loop_
_space_group_symop_operation_xyz
x,y,z
-x,y,-z
-x,-y,-z
x,-y,z
1/2+x,1/2+y,z
1/2-x,1/2+y,-z
1/2-x,1/2-y,-z
1/2+x,1/2-y,z
loop_
_atom_site_type_symbol
_atom_site_label
_atom_site_fract_x
_atom_site_fract_y
_atom_site_fract_z
Si Si1 0.808188 0.000000 0.681860
Si Si2 0.938541 0.000000 0.711944
Si Si3 0.063569 0.232740 0.015053
Si Si4 0.632276 0.500000 0.616660
Si Si5 0.347329 0.000000 0.931551
Si Si6 0.945168 0.500000 0.293259
Si Si7 0.668708 0.000000 0.624356
Si Si8 0.831074 0.724157 0.215281
O O1 0.707376 0.000000 0.574928
O O2 0.840428 0.000000 0.618575
O O3 0.859791 0.132596 0.811028
O O4 0.932885 0.000000 0.585274
O O5 0.997622 0.866269 0.841881
O O6 0.108972 0.360752 0.037045
O O7 0.000000 0.287911 0.000000
O O8 0.736223 0.500000 0.737104
O O9 0.629185 0.365736 0.678617
O O10 0.372085 0.000000 0.085596
O O11 0.913694 0.633168 0.302217
O O12 0.054029 0.500000 0.437714
O O13 0.702165 0.131320 0.744534
O O14 0.750000 0.750000 0.000000
#
# Coordination Sequence:
#
# PCOD9221211 Si02
#       8
#     4   4   8   4   4   4   4   8
#     4   9  19  43  71  94 134 182 214 255 335 399
#     4   9  22  44  67 102 132 168 220 276 314 400
#     4   9  20  42  67  95 135 176 217 262 326 393
#     4  12  24  41  71 101 127 164 228 275 331 387
#     4  12  22  39  64  98 131 169 213 273 332 386
#     4  11  26  45  64  90 138 168 218 270 330 387
#     4  11  24  44  68  92 131 181 216 259 337 395
#     4  11  22  45  65  93 126 174 215 276 325 387
#
# _framework density 21.369495000000001
#
# number of rings (size 3 to 8) (size 9 to 14) (size 15 to 20)
#    0.000    1.600    2.000    4.500    2.800    0.000 
#    3.600    5.000    0.000    0.000    0.000    0.000 
#    0.000    0.000    0.000    0.000    0.000    0.000 
#
# Total GULP energy -111674.994547 kJ/mol
# GULP energy per Si atom -5583.749727 kJ/mol
# Density = 2.132086 g / cm^3
# Si number density = 21.369495 Si / 1000 Ang^3
#
#
#
# Elastic Constant Matrix: (Units=GPa)
#
#
# Indices 1 2 3 4 5 6 
#
# 1 76.6282 45.7338 10.2093 0.0000 17.5514 0.0000
# 2 45.7338 153.1406 7.6323 0.0000 -6.5220 0.0000
# 3 10.2093 7.6323 67.6212 0.0000 -5.5269 0.0000
# 4 0.0000 0.0000 0.0000 12.9107 0.0000 -24.5096
# 5 17.5514 -6.5220 -5.5269 0.0000 40.1855 0.0000
# 6 0.0000 0.0000 0.0000 -24.5096 0.0000 37.4020
#
#
#
# Elastic Compliance Matrix: (Units=1/GPa)
#
#
# Indices 1 2 3 4 5 6 
#
# 1 0.019307 -0.006033 -0.003037 0.000000 -0.009829 0.000000
# 2 -0.006033 0.008490 0.000284 0.000000 0.004052 0.000000
# 3 -0.003037 0.000284 0.015501 0.000000 0.003505 0.000000
# 4 0.000000 0.000000 0.000000 -0.317414 0.000000 -0.208001
# 5 -0.009829 0.004052 0.003505 0.000000 0.030317 0.000000
# 6 0.000000 0.000000 0.000000 -0.208001 0.000000 -0.109567
#
#
# Mechanical properties :
#
#
# Convention : Reuss Voigt Hill
#
# Bulk Modulus (GPa) = 38.87285 47.17122 43.02204
# Shear Modulus (GPa) = -15.28037 33.68727 9.20345
#
# Velocity S-wave (km/s) = -2.67695 3.97472 2.07754
# Velocity P-wave (km/s) = 2.94543 6.57165 5.09225
#
# Compressibility (1/GPa) = 0.02572490
#
# Stress axis : x y z
#
# Youngs Moduli (GPa) = 51.79556 117.78486 64.51094
#
# Poissons Ratio (x) = 0.71059 0.19594
# Poissons Ratio (y) = 0.31248 -0.01831
# Poissons Ratio (z) = 0.15732 -0.03342
#
# Static dielectric constant tensor:
#      x y z
#    x 1.833460 0.000000 0.014290 
#    y 0.000000 1.733480 0.000000 
#    z 0.014290 0.000000 1.777220 
# 
# From -- ./inp_files/250284.got.cif
#   From: 2010.05.17/outbox.cif.g08.bks.cpg/sg12_126_cif.got.tgz:250284.got - 2010.06.03 13:09:07.
