data_PCOD9221689
_publ_section_title
;
Structure prediction by ZEFSAII (Michael W. Deem and Ramdas Pophale) SiO2 
 PCOD9221689
Probable space group: C 2/M
;
_chemical_formula_sum "Si O2"
_cell_formula_units_Z 24
_cell_length_a 10.363555
_cell_length_b 21.920815
_cell_length_c 6.841447
_cell_angle_alpha 90.000000
_cell_angle_beta 46.421046
_cell_angle_gamma 90.000000
_cell_volume 1125.918421
_symmetry_space_group_name_H-M "C 2/M"
_symmetry_group_IT_number 12
_symmetry_cell_setting 'monoclinic'
loop_
_space_group_symop_operation_xyz
x,y,z
-x,y,-z
-x,-y,-z
x,-y,z
1/2+x,1/2+y,z
1/2-x,1/2+y,-z
1/2-x,1/2-y,-z
1/2+x,1/2-y,z
loop_
_atom_site_type_symbol
_atom_site_label
_atom_site_fract_x
_atom_site_fract_y
_atom_site_fract_z
Si Si1 0.035403 0.742868 0.689508
Si Si2 0.352456 0.428065 0.488746
Si Si3 0.500000 0.867444 0.000000
Si Si4 0.500000 0.653375 0.000000
O O1 0.250000 0.750000 0.500000
O O2 0.000000 0.746480 0.500000
O O3 0.976458 0.679112 0.844169
O O4 0.933421 0.797545 0.908554
O O5 0.500000 0.413282 0.500000
O O6 0.361681 0.500000 0.438438
O O7 0.167834 0.408638 0.777302
O O8 0.379898 0.390290 0.259705
#
# Coordination Sequence:
#
# PCOD9221689 Si02
#       4
#     8   8   4   4
#     4  11  25  42  69 105 137 180 223 283 347 414
#     4  11  25  45  69  97 136 183 232 284 338 401
#     4  11  25  42  70 102 137 175 230 282 342 409
#     4  11  23  42  68  94 139 173 226 272 344 401
#
# _framework density 21.315930000000002
#
# number of rings (size 3 to 8) (size 9 to 14) (size 15 to 20)
#    0.000    1.000    3.333    2.000    4.667    2.667 
#    0.000    0.000    0.000    8.000    0.000    0.000 
#    0.000    0.000    0.000    0.000    0.000    0.000 
#
# Total GULP energy -67081.385723 kJ/mol
# GULP energy per Si atom -5590.115477 kJ/mol
# Density = 2.126741 g / cm^3
# Si number density = 21.315930 Si / 1000 Ang^3
#
#
#
# Elastic Constant Matrix: (Units=GPa)
#
#
# Indices 1 2 3 4 5 6 
#
# 1 112.5021 19.4837 69.0055 0.0000 9.2520 0.0000
# 2 19.4837 57.8137 20.2135 0.0000 10.8653 0.0000
# 3 69.0055 20.2135 150.8265 0.0000 12.4411 0.0000
# 4 0.0000 0.0000 0.0000 61.5782 0.0000 -2.6933
# 5 9.2520 10.8653 12.4411 0.0000 53.0369 0.0000
# 6 0.0000 0.0000 0.0000 -2.6933 0.0000 -0.1856
#
#
#
# Elastic Compliance Matrix: (Units=1/GPa)
#
#
# Indices 1 2 3 4 5 6 
#
# 1 0.012664 -0.002275 -0.005451 0.000000 -0.000465 0.000000
# 2 -0.002275 0.019108 -0.001254 0.000000 -0.003223 0.000000
# 3 -0.005451 -0.001254 0.009374 0.000000 -0.000991 0.000000
# 4 0.000000 0.000000 0.000000 0.009935 0.000000 -0.144136
# 5 -0.000465 -0.003223 -0.000991 0.000000 0.019829 0.000000
# 6 0.000000 0.000000 0.000000 -0.144136 0.000000 -3.295471
#
#
# Mechanical properties :
#
#
# Convention : Reuss Voigt Hill
#
# Bulk Modulus (GPa) = 43.12910 59.83864 51.48387
# Shear Modulus (GPa) = -1.56305 37.04853 17.74274
#
# Velocity S-wave (km/s) = -0.85725 4.17354 2.88821
# Velocity P-wave (km/s) = 4.39288 7.16643 5.94370
#
# Compressibility (1/GPa) = 0.02318620
#
# Stress axis : x y z
#
# Youngs Moduli (GPa) = 78.96185 52.33446 106.67969
#
# Poissons Ratio (x) = 0.11905 0.58151
# Poissons Ratio (y) = 0.17963 0.13379
# Poissons Ratio (z) = 0.43042 0.06563
#
# Static dielectric constant tensor:
#      x y z
#    x 1.805780 0.000000 -0.019390 
#    y 0.000000 1.759020 0.000000 
#    z -0.019390 0.000000 1.774170 
# 
# From -- ./inp_files/6478.got.cif
#   From: 2010.05.17/outbox.cif.g08.bks.cpg/sg12_4_cif.got.tgz:6478.got - 2010.06.03 13:09:07.
