data_PCOD9221202
_publ_section_title
;
Structure prediction by ZEFSAII (Michael W. Deem and Ramdas Pophale) SiO2 
 PCOD9221202
Probable space group: C 2/M
;
_chemical_formula_sum "Si O2"
_cell_formula_units_Z 28
_cell_length_a 9.339513
_cell_length_b 17.807983
_cell_length_c 7.535950
_cell_angle_alpha 90.000000
_cell_angle_beta 110.165852
_cell_angle_gamma 90.000000
_cell_volume 1176.530434
_symmetry_space_group_name_H-M "C 2/M"
_symmetry_group_IT_number 12
_symmetry_cell_setting 'monoclinic'
loop_
_space_group_symop_operation_xyz
x,y,z
-x,y,-z
-x,-y,-z
x,-y,z
1/2+x,1/2+y,z
1/2-x,1/2+y,-z
1/2-x,1/2-y,-z
1/2+x,1/2-y,z
loop_
_atom_site_type_symbol
_atom_site_label
_atom_site_fract_x
_atom_site_fract_y
_atom_site_fract_z
Si Si1 0.865962 0.082125 0.705333
Si Si2 0.870108 0.292052 0.297252
Si Si3 0.500000 0.143757 0.000000
Si Si4 0.690732 0.616193 0.727473
O O1 0.768648 0.149899 0.742767
O O2 0.830669 0.084486 0.478643
O O3 0.048007 0.093630 0.788589
O O4 0.823689 0.000000 0.757571
O O5 0.944623 0.305211 0.138734
O O6 0.816922 0.206693 0.295577
O O7 0.000000 0.307560 0.500000
O O8 0.354295 0.096848 0.875327
#
# Coordination Sequence:
#
# PCOD9221202 Si02
#       4
#     8   8   4   8
#     4  11  24  45  72  99 139 188 226 273 348 414
#     4  12  23  45  73 103 138 181 227 285 341 400
#     4  12  26  40  69 112 133 172 236 290 330 404
#     4  11  22  44  72 103 138 176 232 284 338 404
#
# _framework density 23.798791000000001
#
# number of rings (size 3 to 8) (size 9 to 14) (size 15 to 20)
#    0.000    0.571    5.714    5.143    0.000    1.714 
#    0.000    7.857    0.000    0.000    0.000    0.000 
#    0.000    0.000    0.000    0.000    0.000    0.000 
#
# Total GULP energy -78508.903021 kJ/mol
# GULP energy per Si atom -5607.778787 kJ/mol
# Density = 2.374462 g / cm^3
# Si number density = 23.798791 Si / 1000 Ang^3
#
#
#
# Elastic Constant Matrix: (Units=GPa)
#
#
# Indices 1 2 3 4 5 6 
#
# 1 149.5593 43.6339 46.2229 0.0000 24.7553 0.0000
# 2 43.6339 161.5483 6.2609 0.0000 -5.8052 0.0000
# 3 46.2229 6.2609 82.3079 0.0000 9.3874 0.0000
# 4 0.0000 0.0000 0.0000 7.9606 0.0000 -18.6708
# 5 24.7553 -5.8052 9.3874 0.0000 61.3320 0.0000
# 6 0.0000 0.0000 0.0000 -18.6708 0.0000 51.2764
#
#
#
# Elastic Compliance Matrix: (Units=1/GPa)
#
#
# Indices 1 2 3 4 5 6 
#
# 1 0.009418 -0.002480 -0.004722 0.000000 -0.003313 0.000000
# 2 -0.002480 0.006889 0.000692 0.000000 0.001547 0.000000
# 3 -0.004722 0.000692 0.014782 0.000000 -0.000291 0.000000
# 4 0.000000 0.000000 0.000000 0.860412 0.000000 0.313294
# 5 -0.003313 0.001547 -0.000291 0.000000 0.017833 0.000000
# 6 0.000000 0.000000 0.000000 0.313294 0.000000 0.133579
#
#
# Mechanical properties :
#
#
# Convention : Reuss Voigt Hill
#
# Bulk Modulus (GPa) = 55.34492 65.07233 60.20863
# Shear Modulus (GPa) = 4.70830 43.93367 24.32098
#
# Velocity S-wave (km/s) = 1.40807 4.30123 3.20025
# Velocity P-wave (km/s) = 5.09406 7.21592 6.24575
#
# Compressibility (1/GPa) = 0.01806850
#
# Stress axis : x y z
#
# Youngs Moduli (GPa) = 106.18368 145.16673 67.64981
#
# Poissons Ratio (x) = 0.35997 0.31946
# Poissons Ratio (y) = 0.26331 -0.04682
# Poissons Ratio (z) = 0.50143 -0.10048
#
# Static dielectric constant tensor:
#      x y z
#    x 1.890230 0.000000 0.030290 
#    y 0.000000 1.852450 0.000000 
#    z 0.030290 0.000000 1.925550 
# 
# From -- ./inp_files/37748.got.cif
#   From: 2010.05.17/outbox.cif.g08.bks.cpg/sg12_19_cif.got.tgz:37748.got - 2010.06.03 13:09:07.
