data_PCOD9221058
_publ_section_title
;
Structure prediction by ZEFSAII (Michael W. Deem and Ramdas Pophale) SiO2 
 PCOD9221058
Probable space group: C 2/M
;
_chemical_formula_sum "Si O2"
_cell_formula_units_Z 48
_cell_length_a 14.523714
_cell_length_b 24.252630
_cell_length_c 14.315269
_cell_angle_alpha 90.000000
_cell_angle_beta 29.236902
_cell_angle_gamma 90.000000
_cell_volume 2462.810853
_symmetry_space_group_name_H-M "C 2/M"
_symmetry_group_IT_number 12
_symmetry_cell_setting 'monoclinic'
loop_
_space_group_symop_operation_xyz
x,y,z
-x,y,-z
-x,-y,-z
x,-y,z
1/2+x,1/2+y,z
1/2-x,1/2+y,-z
1/2-x,1/2-y,-z
1/2+x,1/2-y,z
loop_
_atom_site_type_symbol
_atom_site_label
_atom_site_fract_x
_atom_site_fract_y
_atom_site_fract_z
Si Si1 0.748568 0.155156 0.490138
Si Si2 0.845113 0.809090 0.897478
Si Si3 0.181715 0.866937 0.886852
Si Si4 0.695235 0.770826 0.365446
Si Si5 0.970490 0.666783 0.130124
Si Si6 0.963795 0.563243 0.420418
O O1 0.664664 0.203029 0.495821
O O2 0.651282 0.143822 0.675453
O O3 0.709522 0.100273 0.462924
O O4 0.956027 0.178692 0.326499
O O5 0.750000 0.750000 0.000000
O O6 0.882739 0.833636 0.966064
O O7 0.680322 0.835681 0.984325
O O8 0.261170 0.822127 0.742616
O O9 0.343810 0.906974 0.780877
O O10 0.000000 0.894708 0.000000
O O11 0.500000 0.745820 0.500000
O O12 0.866071 0.726984 0.211499
O O13 0.000000 0.643759 0.000000
O O14 0.945429 0.500000 0.407733
O O15 0.000000 0.564474 0.500000
#
# Coordination Sequence:
#
# PCOD9221058 Si02
#       6
#     8   8   8   8   8   8
#     4  12  23  41  63  88 129 173 215 269 321 377
#     4  12  23  37  62  94 131 174 213 253 320 394
#     4  12  20  37  60  94 138 164 205 261 318 391
#     4  12  21  36  59  89 130 174 206 251 322 389
#     4  12  27  39  57  91 129 174 221 261 309 387
#     4  11  22  41  66  94 128 170 218 270 326 382
#
# _framework density 19.489926000000001
#
# number of rings (size 3 to 8) (size 9 to 14) (size 15 to 20)
#    0.000    0.167    8.333    2.000    4.667    0.333 
#    0.000    0.833    0.000    0.500    0.000    1.167 
#    0.000    0.000    0.000    0.000    0.000    0.000 
#
# Total GULP energy -133796.199478 kJ/mol
# GULP energy per Si atom -5574.841645 kJ/mol
# Density = 1.944557 g / cm^3
# Si number density = 19.489926 Si / 1000 Ang^3
#
#
#
# Elastic Constant Matrix: (Units=GPa)
#
#
# Indices 1 2 3 4 5 6 
#
# 1 88.1682 20.1729 58.8077 0.0066 0.0023 -0.0403
# 2 20.1729 69.9939 6.3516 -0.0413 -16.8114 0.0071
# 3 58.8077 6.3516 74.3388 0.0028 -16.6233 -0.0065
# 4 0.0066 -0.0413 0.0028 10.9615 0.0030 -6.2839
# 5 0.0023 -16.8114 -16.6233 0.0030 52.0802 0.0146
# 6 -0.0403 0.0071 -0.0065 -6.2839 0.0146 23.3328
#
#
#
# Elastic Compliance Matrix: (Units=1/GPa)
#
#
# Indices 1 2 3 4 5 6 
#
# 1 0.030980 -0.009279 -0.026259 -0.000014 -0.011378 0.000052
# 2 -0.009279 0.018270 0.007644 0.000066 0.008338 -0.000007
# 3 -0.026259 0.007644 0.036746 0.000006 0.014197 -0.000045
# 4 -0.000014 0.000066 0.000006 0.107886 0.000009 0.029055
# 5 -0.011378 0.008338 0.014197 0.000009 0.026425 -0.000032
# 6 0.000052 -0.000007 -0.000045 0.029055 -0.000032 0.050683
#
#
# Mechanical properties :
#
#
# Convention : Reuss Voigt Hill
#
# Bulk Modulus (GPa) = 33.10344 44.79614 38.94979
# Shear Modulus (GPa) = 14.84351 27.08613 20.96482
#
# Velocity S-wave (km/s) = 2.76270 3.73198 3.28331
# Velocity P-wave (km/s) = 5.21521 6.45015 5.86527
#
# Compressibility (1/GPa) = 0.03020834
#
# Stress axis : x y z
#
# Youngs Moduli (GPa) = 32.27910 54.73407 27.21350
#
# Poissons Ratio (x) = 0.50786 0.71460
# Poissons Ratio (y) = 0.29951 -0.20801
# Poissons Ratio (z) = 0.84761 -0.41836
#
# Static dielectric constant tensor:
#      x y z
#    x 1.740570 -0.000020 0.016110 
#    y -0.000020 1.690450 0.000010 
#    z 0.016110 0.000010 1.831310 
# 
# From -- ./inp_files/218886.got.cif
#   From: 2010.05.17/outbox.cif.g08.bks.cpg/sg12_110_cif.got.tgz:218886.got - 2010.06.03 13:09:07.
