data_PCOD9221132
_publ_section_title
;
Structure prediction by ZEFSAII (Michael W. Deem and Ramdas Pophale) SiO2 
 PCOD9221132
Probable space group: C 2/M
;
_chemical_formula_sum "Si O2"
_cell_formula_units_Z 40
_cell_length_a 20.259203
_cell_length_b 11.597925
_cell_length_c 13.430040
_cell_angle_alpha 90.000000
_cell_angle_beta 41.650234
_cell_angle_gamma 90.000000
_cell_volume 2097.144055
_symmetry_space_group_name_H-M "C 2/M"
_symmetry_group_IT_number 12
_symmetry_cell_setting 'monoclinic'
loop_
_space_group_symop_operation_xyz
x,y,z
-x,y,-z
-x,-y,-z
x,-y,z
1/2+x,1/2+y,z
1/2-x,1/2+y,-z
1/2-x,1/2-y,-z
1/2+x,1/2-y,z
loop_
_atom_site_type_symbol
_atom_site_label
_atom_site_fract_x
_atom_site_fract_y
_atom_site_fract_z
Si Si1 0.273416 0.755632 0.590262
Si Si2 0.424483 0.000000 0.719421
Si Si3 0.887379 0.363938 0.087370
Si Si4 0.019386 0.862831 0.592036
Si Si5 0.158465 0.500000 0.405160
Si Si6 0.864490 0.731714 0.896624
O O1 0.250000 0.750000 0.500000
O O2 0.189167 0.687405 0.746235
O O3 0.378755 0.694476 0.488918
O O4 0.287242 0.885884 0.615431
O O5 0.399316 0.887089 0.808639
O O6 0.542811 0.000000 0.568748
O O7 0.356949 0.000000 0.696363
O O8 0.864423 0.500000 0.093294
O O9 0.878379 0.286777 0.998374
O O10 0.000000 0.358700 0.000000
O O11 0.000000 0.822269 0.500000
O O12 0.931993 0.826707 0.765756
O O13 0.029090 0.000000 0.579181
O O14 0.750000 0.750000 0.000000
#
# Coordination Sequence:
#
# PCOD9221132 Si02
#       6
#     8   4   8   8   4   8
#     4  12  26  44  70  96 131 176 223 273 326 393
#     4  11  22  42  68  95 131 171 222 276 329 386
#     4  11  25  45  68  96 132 171 218 271 333 398
#     4  11  24  43  68  98 134 174 222 273 325 387
#     4  11  24  42  68  98 130 170 227 278 320 386
#     4  12  24  40  67  99 134 173 218 272 332 394
#
# _framework density 19.073557999999998
#
# number of rings (size 3 to 8) (size 9 to 14) (size 15 to 20)
#    0.000    0.600    3.000    5.400    4.200    1.600 
#    1.800    0.500    0.000    0.000    0.000    0.000 
#    0.000    0.000    0.000    0.000    0.000    0.000 
#
# Total GULP energy -111853.792967 kJ/mol
# GULP energy per Si atom -5592.689648 kJ/mol
# Density = 1.903015 g / cm^3
# Si number density = 19.073558 Si / 1000 Ang^3
#
#
#
# Elastic Constant Matrix: (Units=GPa)
#
#
# Indices 1 2 3 4 5 6 
#
# 1 141.0821 31.3067 62.7984 0.0000 10.2328 0.0000
# 2 31.3067 73.3795 23.1400 0.0000 -3.5279 0.0000
# 3 62.7984 23.1400 129.8279 0.0000 4.8890 0.0000
# 4 0.0000 0.0000 0.0000 57.5370 0.0000 0.1910
# 5 10.2328 -3.5279 4.8890 0.0000 44.4015 0.0000
# 6 0.0000 0.0000 0.0000 0.1910 0.0000 37.1215
#
#
#
# Elastic Compliance Matrix: (Units=1/GPa)
#
#
# Indices 1 2 3 4 5 6 
#
# 1 0.009712 -0.002949 -0.004096 0.000000 -0.002022 0.000000
# 2 -0.002949 0.015427 -0.001401 0.000000 0.002060 0.000000
# 3 -0.004096 -0.001401 0.009943 0.000000 -0.000262 0.000000
# 4 0.000000 0.000000 0.000000 0.017380 0.000000 -0.000089
# 5 -0.002022 0.002060 -0.000262 0.000000 0.023180 0.000000
# 6 0.000000 0.000000 0.000000 -0.000089 0.000000 0.026939
#
#
# Mechanical properties :
#
#
# Convention : Reuss Voigt Hill
#
# Bulk Modulus (GPa) = 54.97361 64.30886 59.64123
# Shear Modulus (GPa) = 39.82871 42.94830 41.38851
#
# Velocity S-wave (km/s) = 4.57460 4.75038 4.66332
# Velocity P-wave (km/s) = 7.53572 7.99234 7.76739
#
# Compressibility (1/GPa) = 0.01819055
#
# Stress axis : x y z
#
# Youngs Moduli (GPa) = 102.96090 64.82257 100.56979
#
# Poissons Ratio (x) = 0.19117 0.41195
# Poissons Ratio (y) = 0.30365 0.14086
# Poissons Ratio (z) = 0.42174 0.09079
#
# Static dielectric constant tensor:
#      x y z
#    x 1.620630 0.000000 0.009430 
#    y 0.000000 23.245110 0.000000 
#    z 0.009430 0.000000 1.640990 
# 
# From -- ./inp_files/165389.got.cif
#   From: 2010.05.17/outbox.cif.g08.bks.cpg/sg12_83_cif.got.tgz:165389.got - 2010.06.03 13:09:07.
