data_PCOD9221384
_publ_section_title
;
Structure prediction by ZEFSAII (Michael W. Deem and Ramdas Pophale) SiO2 
 PCOD9221384
Probable space group: C 2/M
;
_chemical_formula_sum "Si O2"
_cell_formula_units_Z 56
_cell_length_a 14.963456
_cell_length_b 7.943881
_cell_length_c 25.157550
_cell_angle_alpha 90.000000
_cell_angle_beta 62.489200
_cell_angle_gamma 90.000000
_cell_volume 2652.279475
_symmetry_space_group_name_H-M "C 2/M"
_symmetry_group_IT_number 12
_symmetry_cell_setting 'monoclinic'
loop_
_space_group_symop_operation_xyz
x,y,z
-x,y,-z
-x,-y,-z
x,-y,z
1/2+x,1/2+y,z
1/2-x,1/2+y,-z
1/2-x,1/2-y,-z
1/2+x,1/2-y,z
loop_
_atom_site_type_symbol
_atom_site_label
_atom_site_fract_x
_atom_site_fract_y
_atom_site_fract_z
Si Si1 0.989954 0.804015 0.563643
Si Si2 0.375389 0.304316 0.810862
Si Si3 0.409005 0.707866 0.226850
Si Si4 0.659752 0.305911 0.863568
Si Si5 0.770445 0.306671 0.651016
Si Si6 0.817721 0.306926 0.431876
Si Si7 0.259085 0.202417 0.936689
O O1 0.067757 0.712785 0.580863
O O2 0.000000 0.739689 0.500000
O O3 0.875979 0.785784 0.614460
O O4 0.019647 0.000000 0.554522
O O5 0.368252 0.500000 0.797640
O O6 0.488227 0.240646 0.771988
O O7 0.278741 0.208010 0.814060
O O8 0.353503 0.285667 0.880405
O O9 0.409962 0.500000 0.226455
O O10 0.402857 0.769156 0.167551
O O11 0.308677 0.762697 0.284657
O O12 0.667641 0.240352 0.922048
O O13 0.129763 0.000000 0.875683
O O14 0.793470 0.500000 0.658275
O O15 0.712107 0.299657 0.611007
O O16 0.794490 0.500000 0.425493
O O17 0.750000 0.250000 0.500000
O O18 0.266692 0.000000 0.930191
O O19 0.250000 0.250000 0.000000
#
# Coordination Sequence:
#
# PCOD9221384 Si02
#       7
#     8   8   8   8   8   8   8
#     4  11  23  40  62  86 116 149 188 235 286 342
#     4   9  17  32  55  80 109 144 181 225 274 319
#     4   9  19  37  58  81 111 148 189 226 270 334
#     4   8  17  34  54  76 108 147 183 221 270 322
#     4  11  23  39  61  88 117 150 190 236 285 344
#     4  12  24  40  62  87 116 150 188 234 289 344
#     4   9  17  31  55  80 110 145 184 227 276 328
#
# _framework density 21.113913
#
# number of rings (size 3 to 8) (size 9 to 14) (size 15 to 20)
#    0.857    1.286    1.429    2.571    0.000    1.714 
#    0.000    9.286    0.000    4.286    0.000    0.000 
#    0.000    0.000    0.000    0.000    0.000    0.000 
#
# Total GULP energy -155979.856070 kJ/mol
# GULP energy per Si atom -5570.709145 kJ/mol
# Density = 2.106586 g / cm^3
# Si number density = 21.113913 Si / 1000 Ang^3
#
#
#
# Elastic Constant Matrix: (Units=GPa)
#
#
# Indices 1 2 3 4 5 6 
#
# 1 59.1105 -13.7535 -11.7922 0.0000 1.6129 0.0000
# 2 -13.7535 40.1586 -12.9019 0.0000 -0.7603 0.0000
# 3 -11.7922 -12.9019 25.3758 0.0000 5.9962 0.0000
# 4 0.0000 0.0000 0.0000 10.0599 0.0000 -5.5181
# 5 1.6129 -0.7603 5.9962 0.0000 27.6404 0.0000
# 6 0.0000 0.0000 0.0000 -5.5181 0.0000 20.7850
#
#
#
# Elastic Compliance Matrix: (Units=1/GPa)
#
#
# Indices 1 2 3 4 5 6 
#
# 1 0.024536 0.014790 0.020199 0.000000 -0.005407 0.000000
# 2 0.014790 0.038856 0.028016 0.000000 -0.005872 0.000000
# 3 0.020199 0.028016 0.066546 0.000000 -0.014844 0.000000
# 4 0.000000 0.000000 0.000000 0.116348 0.000000 0.030889
# 5 -0.005407 -0.005872 -0.014844 0.000000 0.039553 0.000000
# 6 0.000000 0.000000 0.000000 0.030889 0.000000 0.056312
#
#
# Mechanical properties :
#
#
# Convention : Reuss Voigt Hill
#
# Bulk Modulus (GPa) = 3.90701 5.30553 4.60627
# Shear Modulus (GPa) = 16.58612 22.56987 19.57800
#
# Velocity S-wave (km/s) = 2.80581 3.27304 3.04839
# Velocity P-wave (km/s) = 3.51444 4.09902 3.81793
#
# Compressibility (1/GPa) = 0.25595043
#
# Stress axis : x y z
#
# Youngs Moduli (GPa) = 40.75654 25.73582 15.02711
#
# Poissons Ratio (x) = -0.38064 -0.30354
# Poissons Ratio (y) = -0.60280 -0.42101
# Poissons Ratio (z) = -0.82325 -0.72102
#
# Static dielectric constant tensor:
#      x y z
#    x 1.788380 0.000000 0.012260 
#    y 0.000000 1.760460 0.000000 
#    z 0.012260 0.000000 1.769240 
# 
# From -- ./inp_files/338514.got.cif
#   From: 2010.05.17/outbox.cif.g08.bks.cpg/sg12_170_cif.got.tgz:338514.got - 2010.06.03 13:09:07.
