data_PCOD9221878
_publ_section_title
;
Structure prediction by ZEFSAII (Michael W. Deem and Ramdas Pophale) SiO2 
 PCOD9221878
Probable space group: C 2/M
;
_chemical_formula_sum "Si O2"
_cell_formula_units_Z 40
_cell_length_a 22.241337
_cell_length_b 11.693794
_cell_length_c 10.473605
_cell_angle_alpha 90.000000
_cell_angle_beta 141.183806
_cell_angle_gamma 90.000000
_cell_volume 1707.490031
_symmetry_space_group_name_H-M "C 2/M"
_symmetry_group_IT_number 12
_symmetry_cell_setting 'monoclinic'
loop_
_space_group_symop_operation_xyz
x,y,z
-x,y,-z
-x,-y,-z
x,-y,z
1/2+x,1/2+y,z
1/2-x,1/2+y,-z
1/2-x,1/2-y,-z
1/2+x,1/2-y,z
loop_
_atom_site_type_symbol
_atom_site_label
_atom_site_fract_x
_atom_site_fract_y
_atom_site_fract_z
Si Si1 0.199771 0.731229 0.583589
Si Si2 0.552917 0.370631 0.223438
Si Si3 0.875258 0.250291 0.037386
Si Si4 0.884080 0.133146 0.313491
Si Si5 0.375962 0.000000 0.665230
Si Si6 0.395038 0.000000 0.994615
O O1 0.160291 0.822284 0.414076
O O2 0.153865 0.785649 0.636915
O O3 0.162323 0.611138 0.470495
O O4 0.309103 0.718187 0.807953
O O5 0.550247 0.500000 0.270299
O O6 0.483900 0.286720 0.187817
O O7 0.500000 0.372656 0.000000
O O8 0.847243 0.183073 0.118065
O O9 0.868688 0.386901 0.029011
O O10 0.000000 0.137305 0.500000
O O11 0.856336 0.000000 0.285161
O O12 0.490970 0.000000 0.840991
O O13 0.352922 0.000000 0.779768
#
# Coordination Sequence:
#
# PCOD9221878 Si02
#       6
#     8   8   8   8   4   4
#     4  12  26  44  69 104 137 177 232 281 341 410
#     4  11  24  44  70  99 138 186 234 283 336 403
#     4  12  26  44  69 104 137 177 232 281 341 410
#     4  11  23  45  75  98 133 181 226 288 348 400
#     4  11  24  45  69  96 141 185 219 278 344 399
#     4  11  24  45  69  96 141 185 219 278 344 399
#
# _framework density 23.426199
#
# number of rings (size 3 to 8) (size 9 to 14) (size 15 to 20)
#    0.000    0.600    4.000    3.000    5.600    4.000 
#    0.000    2.000    0.000    0.000    0.000    0.000 
#    0.000    0.000    0.000    0.000    0.000    0.000 
#
# Total GULP energy -111898.225148 kJ/mol
# GULP energy per Si atom -5594.911257 kJ/mol
# Density = 2.337288 g / cm^3
# Si number density = 23.426199 Si / 1000 Ang^3
#
#
#
# Elastic Constant Matrix: (Units=GPa)
#
#
# Indices 1 2 3 4 5 6 
#
# 1 65.5661 30.6961 20.8753 0.0000 -21.1231 0.0000
# 2 30.6961 193.7620 54.4257 0.0000 -18.7902 0.0000
# 3 20.8753 54.4257 166.3810 0.0000 -7.6377 0.0000
# 4 0.0000 0.0000 0.0000 27.3337 0.0000 -7.2649
# 5 -21.1231 -18.7902 -7.6377 0.0000 43.2074 0.0000
# 6 0.0000 0.0000 0.0000 -7.2649 0.0000 20.5465
#
#
#
# Elastic Compliance Matrix: (Units=1/GPa)
#
#
# Indices 1 2 3 4 5 6 
#
# 1 0.019263 -0.001838 -0.001432 0.000000 0.008365 0.000000
# 2 -0.001838 0.006066 -0.001687 0.000000 0.001441 0.000000
# 3 -0.001432 -0.001687 0.006731 0.000000 -0.000244 0.000000
# 4 0.000000 0.000000 0.000000 0.040380 0.000000 0.014278
# 5 0.008365 0.001441 -0.000244 0.000000 0.027817 0.000000
# 6 0.000000 0.000000 0.000000 0.014278 0.000000 0.053718
#
#
# Mechanical properties :
#
#
# Convention : Reuss Voigt Hill
#
# Bulk Modulus (GPa) = 45.15705 70.85592 58.00649
# Shear Modulus (GPa) = 29.19348 39.53166 34.36257
#
# Velocity S-wave (km/s) = 3.53397 4.11237 3.83409
# Velocity P-wave (km/s) = 5.99751 7.27055 6.66450
#
# Compressibility (1/GPa) = 0.02214493
#
# Stress axis : x y z
#
# Youngs Moduli (GPa) = 51.91287 164.85499 148.57288
#
# Poissons Ratio (x) = 0.30307 0.21268
# Poissons Ratio (y) = 0.09544 0.25071
# Poissons Ratio (z) = 0.07431 0.27819
#
# Static dielectric constant tensor:
#      x y z
#    x 1.917250 0.000000 0.000970 
#    y 0.000000 1.832060 0.000000 
#    z 0.000970 0.000000 1.881650 
# 
# From -- ./inp_files/182798.got.cif
#   From: 2010.05.17/outbox.cif.g08.bks.cpg/sg12_92_cif.got.tgz:182798.got - 2010.06.03 13:09:07.
