data_PCOD9221690
_publ_section_title
;
Structure prediction by ZEFSAII (Michael W. Deem and Ramdas Pophale) SiO2 
 PCOD9221690
Probable space group: C 2/M
;
_chemical_formula_sum "Si O2"
_cell_formula_units_Z 48
_cell_length_a 9.008063
_cell_length_b 16.858097
_cell_length_c 24.984509
_cell_angle_alpha 90.000000
_cell_angle_beta 141.539329
_cell_angle_gamma 90.000000
_cell_volume 2359.854959
_symmetry_space_group_name_H-M "C 2/M"
_symmetry_group_IT_number 12
_symmetry_cell_setting 'monoclinic'
loop_
_space_group_symop_operation_xyz
x,y,z
-x,y,-z
-x,-y,-z
x,-y,z
1/2+x,1/2+y,z
1/2-x,1/2+y,-z
1/2-x,1/2-y,-z
1/2+x,1/2-y,z
loop_
_atom_site_type_symbol
_atom_site_label
_atom_site_fract_x
_atom_site_fract_y
_atom_site_fract_z
Si Si1 0.802906 0.089311 0.814388
Si Si2 0.553404 0.208896 0.228435
Si Si3 0.452698 0.589700 0.330443
Si Si4 0.675589 0.337067 0.499291
Si Si5 0.735490 0.304437 0.943605
Si Si6 0.788925 0.631615 0.330678
O O1 0.609190 0.153350 0.780086
O O2 0.797702 0.092135 0.748593
O O3 0.060632 0.121849 0.904822
O O4 0.754815 0.000000 0.819438
O O5 0.389730 0.253335 0.138962
O O6 0.700961 0.276546 0.301573
O O7 0.746346 0.151168 0.255779
O O8 0.362872 0.500000 0.307184
O O9 0.549019 0.616399 0.415437
O O10 0.664663 0.596424 0.347648
O O11 0.500000 0.331645 0.500000
O O12 0.750000 0.250000 0.500000
O O13 0.927249 0.375804 0.586156
O O14 0.750000 0.250000 0.000000
O O15 0.000000 0.327594 0.000000
#
# Coordination Sequence:
#
# PCOD9221690 Si02
#       6
#     8   8   8   8   8   8
#     4  11  24  42  66  98 134 169 213 271 329 379
#     4  11  23  42  69  93 131 177 217 263 322 397
#     4  12  26  42  66 101 135 171 219 276 328 378
#     4  12  25  42  68  96 129 177 226 270 320 387
#     4  11  23  44  70  97 126 169 217 263 318 396
#     4  11  23  42  68  95 131 178 221 264 320 393
#
# _framework density 20.340232
#
# number of rings (size 3 to 8) (size 9 to 14) (size 15 to 20)
#    0.000    0.667    3.333    5.500    2.333    2.667 
#    0.000    2.500    0.000    0.000    0.000    0.000 
#    0.000    0.000    0.000    0.000    0.000    0.000 
#
# Total GULP energy -134292.643944 kJ/mol
# GULP energy per Si atom -5595.526831 kJ/mol
# Density = 2.029394 g / cm^3
# Si number density = 20.340232 Si / 1000 Ang^3
#
#
#
# Elastic Constant Matrix: (Units=GPa)
#
#
# Indices 1 2 3 4 5 6 
#
# 1 121.3177 7.0802 18.3604 -0.0002 11.3245 0.0000
# 2 7.0802 106.7350 7.5373 -0.0002 6.2227 0.0000
# 3 18.3604 7.5373 81.6828 -0.0008 14.0365 0.0000
# 4 -0.0002 -0.0002 -0.0008 8.7529 -0.0001 -0.3002
# 5 11.3245 6.2227 14.0365 -0.0001 43.2170 0.0000
# 6 0.0000 0.0000 0.0000 -0.3002 0.0000 14.6931
#
#
#
# Elastic Compliance Matrix: (Units=1/GPa)
#
#
# Indices 1 2 3 4 5 6 
#
# 1 0.008668 -0.000362 -0.001624 0.000000 -0.001692 0.000000
# 2 -0.000362 0.009499 -0.000611 0.000000 -0.001075 0.000000
# 3 -0.001624 -0.000611 0.013319 0.000001 -0.003812 0.000000
# 4 0.000000 0.000000 0.000001 0.114328 0.000000 0.002336
# 5 -0.001692 -0.001075 -0.003812 0.000000 0.024975 0.000000
# 6 0.000000 0.000000 0.000000 0.002336 0.000000 0.068107
#
#
# Mechanical properties :
#
#
# Convention : Reuss Voigt Hill
#
# Bulk Modulus (GPa) = 38.03348 41.74348 39.88848
# Shear Modulus (GPa) = 19.77437 31.78309 25.77873
#
# Velocity S-wave (km/s) = 3.12136 3.95723 3.56389
# Velocity P-wave (km/s) = 5.63292 6.43791 6.04882
#
# Compressibility (1/GPa) = 0.02629262
#
# Stress axis : x y z
#
# Youngs Moduli (GPa) = 115.37151 105.27697 75.08049
#
# Poissons Ratio (x) = 0.03807 0.12195
# Poissons Ratio (y) = 0.04172 0.04584
# Poissons Ratio (z) = 0.18739 0.06428
#
# Static dielectric constant tensor:
#      x y z
#    x 1.709770 0.000000 0.015430 
#    y 0.000000 1.726080 0.000000 
#    z 0.015430 0.000000 1.711290 
# 
# From -- ./inp_files/356363.got.cif
#   From: 2010.05.17/outbox.cif.g08.bks.cpg/sg12_179_cif.got.tgz:356363.got - 2010.06.03 13:09:07.
