data_PCOD9221659
_publ_section_title
;
Structure prediction by ZEFSAII (Michael W. Deem and Ramdas Pophale) SiO2 
 PCOD9221659
Probable space group: C 2/M
;
_chemical_formula_sum "Si O2"
_cell_formula_units_Z 56
_cell_length_a 10.262325
_cell_length_b 19.611193
_cell_length_c 31.560269
_cell_angle_alpha 90.000000
_cell_angle_beta 27.333610
_cell_angle_gamma 90.000000
_cell_volume 2916.518144
_symmetry_space_group_name_H-M "C 2/M"
_symmetry_group_IT_number 12
_symmetry_cell_setting 'monoclinic'
loop_
_space_group_symop_operation_xyz
x,y,z
-x,y,-z
-x,-y,-z
x,-y,z
1/2+x,1/2+y,z
1/2-x,1/2+y,-z
1/2-x,1/2-y,-z
1/2+x,1/2-y,z
loop_
_atom_site_type_symbol
_atom_site_label
_atom_site_fract_x
_atom_site_fract_y
_atom_site_fract_z
Si Si1 0.341369 0.269334 0.145650
Si Si2 0.418606 0.145447 0.974578
Si Si3 0.143334 0.500000 0.150319
Si Si4 0.169421 0.626853 0.717962
Si Si5 0.077243 0.920292 0.527133
Si Si6 0.516216 0.199759 0.587104
Si Si7 0.322204 0.000000 0.959783
Si Si8 0.964200 0.224321 0.689001
O O1 0.382833 0.201947 0.105323
O O2 0.304882 0.243339 0.204214
O O3 0.058309 0.312592 0.219760
O O4 0.606302 0.319906 0.062132
O O5 0.425317 0.070888 0.951101
O O6 0.500000 0.138603 0.000000
O O7 0.101214 0.500000 0.111960
O O8 0.997036 0.564482 0.213960
O O9 0.479617 0.500000 0.061626
O O10 0.321448 0.608098 0.630117
O O11 0.408901 0.654189 0.680392
O O12 0.357550 0.875644 0.454201
O O13 0.000000 0.913077 0.500000
O O14 0.116465 0.000000 0.525378
O O15 0.750000 0.250000 0.500000
O O16 0.495963 0.219937 0.642561
O O17 0.232144 0.213813 0.642460
#
# Coordination Sequence:
#
# PCOD9221659 Si02
#       8
#     8   8   4   8   8   8   4   8
#     4  11  23  42  65 100 130 166 220 273 326 385
#     4  11  24  41  68  96 133 170 213 270 330 395
#     4  11  24  42  67  93 126 176 218 265 329 391
#     4  12  22  43  68  94 129 172 221 273 322 391
#     4  11  24  43  67  95 132 175 221 274 330 393
#     4  12  23  41  67  99 128 175 220 269 329 390
#     4  11  23  44  66  90 133 171 218 261 330 402
#     4  12  24  41  69  96 136 169 225 275 324 391
#
# _framework density 19.200977000000002
#
# number of rings (size 3 to 8) (size 9 to 14) (size 15 to 20)
#    0.000    0.571    5.000    4.071    0.000    1.143 
#    1.286    0.714    0.000    0.000    0.000    0.000 
#    0.000    0.000    0.000    0.000    0.000    0.000 
#
# Total GULP energy -156436.950766 kJ/mol
# GULP energy per Si atom -5587.033956 kJ/mol
# Density = 1.915727 g / cm^3
# Si number density = 19.200977 Si / 1000 Ang^3
#
#
#
# Elastic Constant Matrix: (Units=GPa)
#
#
# Indices 1 2 3 4 5 6 
#
# 1 116.5183 74.7416 54.0260 -0.9603 14.6881 -0.7689
# 2 74.7416 169.6625 68.5397 -0.8113 9.7214 -0.5628
# 3 54.0260 68.5397 106.9366 -1.4896 24.0223 -1.1763
# 4 -0.9603 -0.8113 -1.4896 -87.3124 0.9048 -93.7285
# 5 14.6881 9.7214 24.0223 0.9048 38.9494 0.7310
# 6 -0.7689 -0.5628 -1.1763 -93.7285 0.7310 -40.4701
#
#
#
# Elastic Compliance Matrix: (Units=1/GPa)
#
#
# Indices 1 2 3 4 5 6 
#
# 1 0.013183 -0.004284 -0.003528 -0.000044 -0.001725 -0.000018
# 2 -0.004284 0.009406 -0.004294 0.000044 0.001915 0.000008
# 3 -0.003528 -0.004294 0.015488 -0.000152 -0.007145 -0.000100
# 4 -0.000044 0.000044 -0.000152 0.007710 0.000255 -0.017846
# 5 -0.001725 0.001915 -0.007145 0.000255 0.030244 0.000169
# 6 -0.000018 0.000008 -0.000100 -0.017846 0.000169 0.016628
#
#
# Mechanical properties :
#
#
# Convention : Reuss Voigt Hill
#
# Bulk Modulus (GPa) = 72.12196 87.52576 79.82386
# Shear Modulus (GPa) = 41.15497 -4.71261 18.22118
#
# Velocity S-wave (km/s) = 4.63469 -1.56834 3.08388
# Velocity P-wave (km/s) = 8.14147 6.51179 7.37180
#
# Compressibility (1/GPa) = 0.01386540
#
# Stress axis : x y z
#
# Youngs Moduli (GPa) = 75.85566 106.31008 64.56720
#
# Poissons Ratio (x) = 0.45540 0.22779
# Poissons Ratio (y) = 0.32494 0.27727
# Poissons Ratio (z) = 0.26761 0.45652
#
# Static dielectric constant tensor:
#      x y z
#    x 1.694420 0.000030 -0.007340 
#    y 0.000030 1.668330 -0.000060 
#    z -0.007340 -0.000060 1.668850 
# 
# From -- ./inp_files/373151.got.cif
#   From: 2010.05.17/outbox.cif.g08.bks.cpg/sg12_187_cif.got.tgz:373151.got - 2010.06.03 13:09:07.
