data_PCOD9221719
_publ_section_title
;
Structure prediction by ZEFSAII (Michael W. Deem and Ramdas Pophale) SiO2 
 PCOD9221719
Probable space group: C 2/M
;
_chemical_formula_sum "Si O2"
_cell_formula_units_Z 36
_cell_length_a 8.584989
_cell_length_b 27.019650
_cell_length_c 12.180055
_cell_angle_alpha 90.000000
_cell_angle_beta 37.816705
_cell_angle_gamma 90.000000
_cell_volume 1732.313626
_symmetry_space_group_name_H-M "C 2/M"
_symmetry_group_IT_number 12
_symmetry_cell_setting 'monoclinic'
loop_
_space_group_symop_operation_xyz
x,y,z
-x,y,-z
-x,-y,-z
x,-y,z
1/2+x,1/2+y,z
1/2-x,1/2+y,-z
1/2-x,1/2-y,-z
1/2+x,1/2-y,z
loop_
_atom_site_type_symbol
_atom_site_label
_atom_site_fract_x
_atom_site_fract_y
_atom_site_fract_z
Si Si1 0.771791 0.707273 0.302294
Si Si2 0.000000 0.360982 0.000000
Si Si3 0.715368 0.054499 0.033612
Si Si4 0.691791 0.923721 0.297613
Si Si5 0.234985 0.311917 0.212980
O O1 0.500000 0.692373 0.500000
O O2 0.760561 0.765139 0.278479
O O3 0.816093 0.675614 0.167825
O O4 0.001796 0.697483 0.258816
O O5 0.119591 0.398218 0.021068
O O6 0.020504 0.056997 0.851674
O O7 0.630999 0.000000 0.043053
O O8 0.626550 0.060639 0.209286
O O9 0.500000 0.940193 0.500000
O O10 0.697959 0.864031 0.293231
O O11 0.500000 0.315697 0.000000
#
# Coordination Sequence:
#
# PCOD9221719 Si02
#       5
#     8   4   8   8   8
#     4  12  27  42  68 101 140 181 225 270 334 403
#     4  12  25  44  68  96 140 174 223 276 340 398
#     4  11  25  45  68  97 129 174 227 280 339 395
#     4  11  23  42  70  98 132 171 223 275 331 398
#     4  12  23  44  68 102 138 178 225 272 329 404
#
# _framework density 20.781457
#
# number of rings (size 3 to 8) (size 9 to 14) (size 15 to 20)
#    0.000    0.444    5.556    3.667    6.222    1.778 
#    0.000    0.000    0.000    4.000    0.000    0.000 
#    0.000    0.000    0.000    0.000    0.000    0.000 
#
# Total GULP energy -100671.924318 kJ/mol
# GULP energy per Si atom -5592.884684 kJ/mol
# Density = 2.073416 g / cm^3
# Si number density = 20.781457 Si / 1000 Ang^3
#
#
#
# Elastic Constant Matrix: (Units=GPa)
#
#
# Indices 1 2 3 4 5 6 
#
# 1 66.2541 14.5157 43.7975 0.0000 -5.2039 0.0000
# 2 14.5157 160.0606 32.6315 0.0000 6.4402 0.0000
# 3 43.7975 32.6315 191.2636 0.0000 -0.8725 0.0000
# 4 0.0000 0.0000 0.0000 -38.7470 0.0000 4.9972
# 5 -5.2039 6.4402 -0.8725 0.0000 17.7647 0.0000
# 6 0.0000 0.0000 0.0000 4.9972 0.0000 15.1289
#
#
#
# Elastic Compliance Matrix: (Units=1/GPa)
#
#
# Indices 1 2 3 4 5 6 
#
# 1 0.018418 -0.001078 -0.004008 0.000000 0.005589 0.000000
# 2 -0.001078 0.006640 -0.000899 0.000000 -0.002767 0.000000
# 3 -0.004008 -0.000899 0.006297 0.000000 -0.000539 0.000000
# 4 0.000000 0.000000 0.000000 -0.024754 0.000000 0.008176
# 5 0.005589 -0.002767 -0.000539 0.000000 0.058905 0.000000
# 6 0.000000 0.000000 0.000000 0.008176 0.000000 0.063398
#
#
# Mechanical properties :
#
#
# Convention : Reuss Voigt Hill
#
# Bulk Modulus (GPa) = 51.58477 66.60753 59.09615
# Shear Modulus (GPa) = 33.93606 20.60491 27.27049
#
# Velocity S-wave (km/s) = 4.04542 3.15223 3.62643
# Velocity P-wave (km/s) = 6.83352 6.73571 6.78479
#
# Compressibility (1/GPa) = 0.01938557
#
# Stress axis : x y z
#
# Youngs Moduli (GPa) = 54.29400 150.60390 158.80403
#
# Poissons Ratio (x) = 0.16236 0.63651
# Poissons Ratio (y) = 0.05853 0.14270
# Poissons Ratio (z) = 0.21762 0.13533
#
# Static dielectric constant tensor:
#      x y z
#    x 1.761240 0.000000 0.016570 
#    y 0.000000 1.728820 0.000000 
#    z 0.016570 0.000000 1.737480 
# 
# From -- ./inp_files/123343.got.cif
#   From: 2010.05.17/outbox.cif.g08.bks.cpg/sg12_62_cif.got.tgz:123343.got - 2010.06.03 13:09:07.
