data_PCOD9221712
_publ_section_title
;
Structure prediction by ZEFSAII (Michael W. Deem and Ramdas Pophale) SiO2 
 PCOD9221712
Probable space group: C 2/M
;
_chemical_formula_sum "Si O2"
_cell_formula_units_Z 58
_cell_length_a 16.624667
_cell_length_b 14.639316
_cell_length_c 11.659630
_cell_angle_alpha 90.000000
_cell_angle_beta 79.348889
_cell_angle_gamma 90.000000
_cell_volume 2788.757695
_symmetry_space_group_name_H-M "C 2/M"
_symmetry_group_IT_number 12
_symmetry_cell_setting 'monoclinic'
loop_
_space_group_symop_operation_xyz
x,y,z
-x,y,-z
-x,-y,-z
x,-y,z
1/2+x,1/2+y,z
1/2-x,1/2+y,-z
1/2-x,1/2-y,-z
1/2+x,1/2-y,z
loop_
_atom_site_type_symbol
_atom_site_label
_atom_site_fract_x
_atom_site_fract_y
_atom_site_fract_z
Si Si1 0.405303 0.233419 0.034426
Si Si2 0.613930 0.151537 0.576310
Si Si3 0.794844 0.391014 0.210190
Si Si4 0.000000 0.500000 0.500000
Si Si5 0.469773 0.347888 0.386349
Si Si6 0.867125 0.902373 0.207328
Si Si7 0.871774 0.218309 0.784906
Si Si8 0.678785 0.103810 0.323571
O O1 0.349446 0.150657 0.093179
O O2 0.397142 0.315713 0.128076
O O3 0.500000 0.206066 0.000000
O O4 0.375960 0.271360 0.920157
O O5 0.657368 0.133839 0.685460
O O6 0.542773 0.079692 0.569100
O O7 0.575638 0.251782 0.577971
O O8 0.677683 0.134750 0.455826
O O9 0.783934 0.500000 0.204647
O O10 0.709102 0.336929 0.229887
O O11 0.500000 0.386218 0.500000
O O12 0.407046 0.400965 0.322460
O O13 0.549294 0.330558 0.287549
O O14 0.769640 0.897013 0.249252
O O15 0.887369 0.000000 0.145650
O O16 0.870119 0.320484 0.733302
O O17 0.643081 0.000000 0.331144
#
# Coordination Sequence:
#
# PCOD9221712 Si02
#       8
#     8   8   8   2   8   8   8   8
#     4  12  25  50  72  96 135 182 239 289 345 409
#     4  12  22  42  68 105 142 182 224 279 348 415
#     4  12  27  45  71 104 141 179 227 289 356 419
#     4  12  20  36  68 100 144 178 232 264 334 444
#     4  12  24  42  71 101 138 184 222 281 348 407
#     4  11  26  46  71  99 135 184 236 286 338 413
#     4  12  25  45  70 100 141 182 230 289 348 408
#     4  11  23  42  70 103 137 182 231 286 343 413
#
# _framework density 20.797791
#
# number of rings (size 3 to 8) (size 9 to 14) (size 15 to 20)
#    0.000    0.276    7.586    0.414    1.931    3.586 
#    0.000    0.000    0.000    0.000    0.000    0.000 
#    0.000    0.000    0.000    0.000    0.000    0.000 
#
# Total GULP energy -162007.430750 kJ/mol
# GULP energy per Si atom -5586.463129 kJ/mol
# Density = 2.075045 g / cm^3
# Si number density = 20.797791 Si / 1000 Ang^3
#
#
#
# Elastic Constant Matrix: (Units=GPa)
#
#
# Indices 1 2 3 4 5 6 
#
# 1 52.1300 4.9357 -5.0037 0.0000 10.0840 0.0000
# 2 4.9357 92.9826 6.8089 0.0000 -3.7057 0.0000
# 3 -5.0037 6.8089 87.9914 0.0000 18.6079 0.0000
# 4 0.0000 0.0000 0.0000 -33.8569 0.0000 -6.9547
# 5 10.0840 -3.7057 18.6079 0.0000 45.7719 0.0000
# 6 0.0000 0.0000 0.0000 -6.9547 0.0000 -16.7992
#
#
#
# Elastic Compliance Matrix: (Units=1/GPa)
#
#
# Indices 1 2 3 4 5 6 
#
# 1 0.020665 -0.001506 0.002495 0.000000 -0.005689 0.000000
# 2 -0.001506 0.011000 -0.001308 0.000000 0.001754 0.000000
# 3 0.002495 -0.001308 0.012851 0.000000 -0.005880 0.000000
# 4 0.000000 0.000000 0.000000 -0.032281 0.000000 0.013364
# 5 -0.005689 0.001754 -0.005880 0.000000 0.025633 0.000000
# 6 0.000000 0.000000 0.000000 0.013364 0.000000 -0.065059
#
#
# Mechanical properties :
#
#
# Convention : Reuss Voigt Hill
#
# Bulk Modulus (GPa) = 22.79037 27.39841 25.09439
# Shear Modulus (GPa) = -419.27459 14.11404 -202.58027
#
# Velocity S-wave (km/s) = -14.21384 2.60788 -9.88009
# Velocity P-wave (km/s) = 16.07470 4.71915 10.86567
#
# Compressibility (1/GPa) = 0.04387818
#
# Stress axis : x y z
#
# Youngs Moduli (GPa) = 48.39014 90.90632 77.81314
#
# Poissons Ratio (x) = 0.13694 -0.19413
# Poissons Ratio (y) = 0.07289 0.10177
# Poissons Ratio (z) = -0.12072 0.11889
#
# Static dielectric constant tensor:
#      x y z
#    x 1.606700 0.000000 0.065960 
#    y 0.000000 1.752890 0.000000 
#    z 0.065960 0.000000 1.689340 
# 
# From -- ./inp_files/156034.got.cif
#   From: 2010.05.17/outbox.cif.g08.bks.cpg/sg12_79_cif.got.tgz:156034.got - 2010.06.03 13:09:07.
