data_PCOD9221411
_publ_section_title
;
Structure prediction by ZEFSAII (Michael W. Deem and Ramdas Pophale) SiO2 
 PCOD9221411
Probable space group: C 2/M
;
_chemical_formula_sum "Si O2"
_cell_formula_units_Z 56
_cell_length_a 16.266407
_cell_length_b 8.868677
_cell_length_c 22.637205
_cell_angle_alpha 90.000000
_cell_angle_beta 121.918712
_cell_angle_gamma 90.000000
_cell_volume 2771.903885
_symmetry_space_group_name_H-M "C 2/M"
_symmetry_group_IT_number 12
_symmetry_cell_setting 'monoclinic'
loop_
_space_group_symop_operation_xyz
x,y,z
-x,y,-z
-x,-y,-z
x,-y,z
1/2+x,1/2+y,z
1/2-x,1/2+y,-z
1/2-x,1/2-y,-z
1/2+x,1/2-y,z
loop_
_atom_site_type_symbol
_atom_site_label
_atom_site_fract_x
_atom_site_fract_y
_atom_site_fract_z
Si Si1 0.840512 0.179459 0.068352
Si Si2 0.725032 0.678031 0.354606
Si Si3 0.548381 0.178895 0.348917
Si Si4 0.064359 0.175919 0.583328
Si Si5 0.795629 0.177492 0.787889
Si Si6 0.525850 0.820419 0.078002
Si Si7 0.618300 0.322996 0.780832
O O1 0.837401 0.202144 0.137517
O O2 0.936221 0.260580 0.081599
O O3 0.845133 0.000000 0.059043
O O4 0.750000 0.250000 0.000000
O O5 0.730899 0.500000 0.368974
O O6 0.654434 0.755925 0.374889
O O7 0.832696 0.745744 0.390564
O O8 0.679680 0.697496 0.271649
O O9 0.496305 0.247995 0.386804
O O10 0.477880 0.228918 0.268570
O O11 0.552169 0.000000 0.355444
O O12 0.000000 0.184729 0.500000
O O13 0.080779 0.000000 0.604217
O O14 0.879499 0.236449 0.862392
O O15 0.699019 0.270043 0.765337
O O16 0.777507 0.000000 0.790829
O O17 0.539055 0.000000 0.089463
O O18 0.500000 0.789228 0.000000
O O19 0.596119 0.500000 0.766518
#
# Coordination Sequence:
#
# PCOD9221411 Si02
#       7
#     8   8   8   8   8   8   8
#     4  11  24  40  59  86 119 161 210 265 327 390
#     4  11  24  43  68 100 136 175 223 275 329 396
#     4  12  25  42  68 101 135 177 224 272 332 396
#     4  11  25  46  72 102 137 177 221 273 334 398
#     4  11  23  39  63  94 125 164 214 267 328 390
#     4  11  24  40  58  84 119 162 211 264 325 389
#     4  11  23  40  63  91 127 167 213 270 328 389
#
# _framework density 20.202721
#
# number of rings (size 3 to 8) (size 9 to 14) (size 15 to 20)
#    0.000    0.857    1.429    5.571    0.000   13.714 
#    0.000    0.000    0.000    0.000    0.000    0.000 
#    0.000    0.000    0.000    0.000    0.000    0.000 
#
# Total GULP energy -156676.343783 kJ/mol
# GULP energy per Si atom -5595.583707 kJ/mol
# Density = 2.015674 g / cm^3
# Si number density = 20.202721 Si / 1000 Ang^3
#
#
#
# Elastic Constant Matrix: (Units=GPa)
#
#
# Indices 1 2 3 4 5 6 
#
# 1 143.0536 67.7848 27.7774 0.0000 4.4430 0.0000
# 2 67.7848 134.4915 50.4408 0.0000 -6.6407 0.0000
# 3 27.7774 50.4408 77.1422 0.0000 3.1098 0.0000
# 4 0.0000 0.0000 0.0000 31.5817 0.0000 4.1860
# 5 4.4430 -6.6407 3.1098 0.0000 21.4228 0.0000
# 6 0.0000 0.0000 0.0000 4.1860 0.0000 37.9920
#
#
#
# Elastic Compliance Matrix: (Units=1/GPa)
#
#
# Indices 1 2 3 4 5 6 
#
# 1 0.009433 -0.004908 -0.000048 0.000000 -0.003471 0.000000
# 2 -0.004908 0.012760 -0.006816 0.000000 0.005963 0.000000
# 3 -0.000048 -0.006816 0.017625 0.000000 -0.004662 0.000000
# 4 0.000000 0.000000 0.000000 0.032133 0.000000 -0.003540
# 5 -0.003471 0.005963 -0.004662 0.000000 0.049924 0.000000
# 6 0.000000 0.000000 0.000000 -0.003540 0.000000 0.026711
#
#
# Mechanical properties :
#
#
# Convention : Reuss Voigt Hill
#
# Bulk Modulus (GPa) = 61.44674 71.85481 66.65077
# Shear Modulus (GPa) = 28.16025 32.11160 30.13592
#
# Velocity S-wave (km/s) = 3.73753 3.99114 3.86641
# Velocity P-wave (km/s) = 7.00761 7.54208 7.27975
#
# Compressibility (1/GPa) = 0.01627426
#
# Stress axis : x y z
#
# Youngs Moduli (GPa) = 106.01138 78.37050 56.73682
#
# Poissons Ratio (x) = 0.38463 0.00270
# Poissons Ratio (y) = 0.52028 0.38674
# Poissons Ratio (z) = 0.00505 0.53421
#
# Static dielectric constant tensor:
#      x y z
#    x 1.677350 0.000000 -0.032340 
#    y 0.000000 1.679610 0.000000 
#    z -0.032340 0.000000 1.734500 
# 
# From -- ./inp_files/339080.got.cif
#   From: 2010.05.17/outbox.cif.g08.bks.cpg/sg12_170_cif.got.tgz:339080.got - 2010.06.03 13:09:07.
