data_PCOD9221796
_publ_section_title
;
Structure prediction by ZEFSAII (Michael W. Deem and Ramdas Pophale) SiO2 
 PCOD9221796
Probable space group: C 2/M
;
_chemical_formula_sum "Si O2"
_cell_formula_units_Z 42
_cell_length_a 9.209442
_cell_length_b 14.542506
_cell_length_c 17.786869
_cell_angle_alpha 90.000000
_cell_angle_beta 124.641663
_cell_angle_gamma 90.000000
_cell_volume 1959.863570
_symmetry_space_group_name_H-M "C 2/M"
_symmetry_group_IT_number 12
_symmetry_cell_setting 'monoclinic'
loop_
_space_group_symop_operation_xyz
x,y,z
-x,y,-z
-x,-y,-z
x,-y,z
1/2+x,1/2+y,z
1/2-x,1/2+y,-z
1/2-x,1/2-y,-z
1/2+x,1/2-y,z
loop_
_atom_site_type_symbol
_atom_site_label
_atom_site_fract_x
_atom_site_fract_y
_atom_site_fract_z
Si Si1 0.500000 0.500000 0.500000
Si Si2 0.983583 0.500000 0.083179
Si Si3 0.210530 0.343680 0.225097
Si Si4 0.604340 0.852413 0.598154
Si Si5 0.077296 0.000000 0.940702
Si Si6 0.050475 0.853444 0.218278
Si Si7 0.239763 0.656138 0.404238
O O1 0.358677 0.582604 0.482807
O O2 0.077445 0.411752 0.145280
O O3 0.777175 0.500000 0.026393
O O4 0.000000 0.500000 0.000000
O O5 0.391491 0.340959 0.231069
O O6 0.239542 0.380455 0.318246
O O7 0.122333 0.243927 0.208830
O O8 0.500000 0.900379 0.500000
O O9 0.677623 0.757640 0.581343
O O10 0.455063 0.835909 0.617938
O O11 0.777889 0.893848 0.688177
O O12 0.021346 0.914520 0.871337
O O13 0.000000 0.000000 0.000000
#
# Coordination Sequence:
#
# PCOD9221796 Si02
#       7
#     2   4   8   8   4   8   8
#     4  12  26  36  64  96 136 164 242 268 346 386
#     4  12  25  49  70 101 138 180 227 280 363 410
#     4  11  24  45  73  98 143 180 226 288 343 423
#     4  11  23  43  72  95 138 183 231 275 332 411
#     4  12  30  47  74 100 142 179 230 300 339 427
#     4  11  25  46  71 107 136 185 229 285 353 403
#     4  11  24  42  68  98 133 184 227 280 337 403
#
# _framework density 21.430063000000001
#
# number of rings (size 3 to 8) (size 9 to 14) (size 15 to 20)
#    0.000    0.762    2.857    5.714    8.000    2.286 
#    0.000    0.952    0.000    0.000    0.000    0.000 
#    0.000    0.000    0.000    0.000    0.000    0.000 
#
# Total GULP energy -117039.002365 kJ/mol
# GULP energy per Si atom -5573.285827 kJ/mol
# Density = 2.138129 g / cm^3
# Si number density = 21.430063 Si / 1000 Ang^3
#
#
#
# Elastic Constant Matrix: (Units=GPa)
#
#
# Indices 1 2 3 4 5 6 
#
# 1 245.9726 39.8742 72.8107 0.0000 13.8973 0.0000
# 2 39.8742 115.2270 34.7670 0.0000 14.4846 0.0000
# 3 72.8107 34.7670 138.4426 0.0000 11.6067 0.0000
# 4 0.0000 0.0000 0.0000 64.3362 0.0000 -4.5039
# 5 13.8973 14.4846 11.6067 0.0000 50.8528 0.0000
# 6 0.0000 0.0000 0.0000 -4.5039 0.0000 21.6759
#
#
#
# Elastic Compliance Matrix: (Units=1/GPa)
#
#
# Indices 1 2 3 4 5 6 
#
# 1 0.004934 -0.000940 -0.002312 0.000000 -0.000553 0.000000
# 2 -0.000940 0.009812 -0.001791 0.000000 -0.002129 0.000000
# 3 -0.002312 -0.001791 0.008965 0.000000 -0.000904 0.000000
# 4 0.000000 0.000000 0.000000 0.015773 0.000000 0.003277
# 5 -0.000553 -0.002129 -0.000904 0.000000 0.020628 0.000000
# 6 0.000000 0.000000 0.000000 0.003277 0.000000 0.046815
#
#
# Mechanical properties :
#
#
# Convention : Reuss Voigt Hill
#
# Bulk Modulus (GPa) = 73.40336 88.28287 80.84311
# Shear Modulus (GPa) = 41.13369 50.85233 45.99301
#
# Velocity S-wave (km/s) = 4.38589 4.87657 4.63773
# Velocity P-wave (km/s) = 7.74435 8.54360 8.15378
#
# Compressibility (1/GPa) = 0.01362335
#
# Stress axis : x y z
#
# Youngs Moduli (GPa) = 202.69246 101.91700 111.54611
#
# Poissons Ratio (x) = 0.09581 0.25793
# Poissons Ratio (y) = 0.19055 0.19979
# Poissons Ratio (z) = 0.46868 0.18255
#
# Static dielectric constant tensor:
#      x y z
#    x 1.731410 0.000000 -0.004550 
#    y 0.000000 1.849950 0.000000 
#    z -0.004550 0.000000 1.806670 
# 
# From -- ./inp_files/255905.got.cif
#   From: 2010.05.17/outbox.cif.g08.bks.cpg/sg12_128_cif.got.tgz:255905.got - 2010.06.03 13:09:07.
