data_PCOD9221263
_publ_section_title
;
Structure prediction by ZEFSAII (Michael W. Deem and Ramdas Pophale) SiO2 
 PCOD9221263
Probable space group: C 2/M
;
_chemical_formula_sum "Si O2"
_cell_formula_units_Z 48
_cell_length_a 22.813084
_cell_length_b 11.542545
_cell_length_c 14.920570
_cell_angle_alpha 90.000000
_cell_angle_beta 40.653916
_cell_angle_gamma 90.000000
_cell_volume 2559.632913
_symmetry_space_group_name_H-M "C 2/M"
_symmetry_group_IT_number 12
_symmetry_cell_setting 'monoclinic'
loop_
_space_group_symop_operation_xyz
x,y,z
-x,y,-z
-x,-y,-z
x,-y,z
1/2+x,1/2+y,z
1/2-x,1/2+y,-z
1/2-x,1/2-y,-z
1/2+x,1/2-y,z
loop_
_atom_site_type_symbol
_atom_site_label
_atom_site_fract_x
_atom_site_fract_y
_atom_site_fract_z
Si Si1 0.360564 0.366236 0.500477
Si Si2 0.238248 0.798549 0.743874
Si Si3 0.408292 0.635109 0.956938
Si Si4 0.901331 0.374321 0.658613
Si Si5 0.391173 0.638064 0.267779
Si Si6 0.928412 0.132400 0.719453
O O1 0.340194 0.500000 0.514097
O O2 0.288082 0.314509 0.650702
O O3 0.360558 0.313133 0.399948
O O4 0.463094 0.356578 0.416471
O O5 0.322660 0.875465 0.676225
O O6 0.178317 0.841728 0.730535
O O7 0.170626 0.793050 0.905822
O O8 0.396461 0.500000 0.999750
O O9 0.507267 0.678381 0.870787
O O10 0.407902 0.635333 0.849614
O O11 0.895288 0.500000 0.715238
O O12 0.889218 0.250793 0.723117
O O13 0.000000 0.370779 0.500000
O O14 0.402587 0.500000 0.266646
O O15 0.904179 0.000000 0.715649
#
# Coordination Sequence:
#
# PCOD9221263 Si02
#       6
#     8   8   8   8   8   8
#     4   9  19  35  55  80 107 139 186 234 270 322
#     4  12  20  32  55  83 110 145 178 222 284 332
#     4   9  19  35  58  84 107 135 183 236 272 320
#     4  11  23  36  52  83 120 147 179 227 276 329
#     4   9  18  34  56  81 107 136 178 230 280 326
#     4   9  19  40  61  78 107 150 191 228 272 320
#
# _framework density 18.752690000000001
#
# number of rings (size 3 to 8) (size 9 to 14) (size 15 to 20)
#    0.000    2.167    1.667    4.500    0.000    3.000 
#    0.000    0.833    0.000    2.000    0.000    0.000 
#    0.000    0.000    0.000    0.000    0.000    0.000 
#
# Total GULP energy -133644.941284 kJ/mol
# GULP energy per Si atom -5568.539220 kJ/mol
# Density = 1.871001 g / cm^3
# Si number density = 18.752690 Si / 1000 Ang^3
#
#
#
# Elastic Constant Matrix: (Units=GPa)
#
#
# Indices 1 2 3 4 5 6 
#
# 1 75.0918 37.5347 24.4832 0.0000 -14.0781 0.0000
# 2 37.5347 94.9298 39.2135 0.0000 3.8509 0.0000
# 3 24.4832 39.2135 105.1923 0.0000 -16.9056 0.0000
# 4 0.0000 0.0000 0.0000 42.2190 0.0000 -2.5072
# 5 -14.0781 3.8509 -16.9056 0.0000 17.0034 0.0000
# 6 0.0000 0.0000 0.0000 -2.5072 0.0000 20.1727
#
#
#
# Elastic Compliance Matrix: (Units=1/GPa)
#
#
# Indices 1 2 3 4 5 6 
#
# 1 0.022303 -0.010867 0.002646 0.000000 0.023558 0.000000
# 2 -0.010867 0.018976 -0.007952 0.000000 -0.021201 0.000000
# 3 0.002646 -0.007952 0.014873 0.000000 0.018779 0.000000
# 4 0.000000 0.000000 0.000000 0.023862 0.000000 0.002966
# 5 0.023558 -0.021201 0.018779 0.000000 0.101789 0.000000
# 6 0.000000 0.000000 0.000000 0.002966 0.000000 0.049941
#
#
# Mechanical properties :
#
#
# Convention : Reuss Voigt Hill
#
# Bulk Modulus (GPa) = 42.00651 53.07520 47.54086
# Shear Modulus (GPa) = 18.38080 27.47785 22.92933
#
# Velocity S-wave (km/s) = 3.13416 3.83204 3.50054
# Velocity P-wave (km/s) = 5.96206 6.92413 6.46103
#
# Compressibility (1/GPa) = 0.02380583
#
# Stress axis : x y z
#
# Youngs Moduli (GPa) = 44.83756 52.69945 67.23721
#
# Poissons Ratio (x) = 0.57269 -0.17792
# Poissons Ratio (y) = 0.48725 0.53464
# Poissons Ratio (z) = -0.11864 0.41905
#
# Static dielectric constant tensor:
#      x y z
#    x 1.689910 0.000000 0.020430 
#    y 0.000000 1.678530 0.000000 
#    z 0.020430 0.000000 1.655890 
# 
# From -- ./inp_files/232793.got.cif
#   From: 2010.05.17/outbox.cif.g08.bks.cpg/sg12_117_cif.got.tgz:232793.got - 2010.06.03 13:09:07.
