data_PCOD9221023
_publ_section_title
;
Structure prediction by ZEFSAII (Michael W. Deem and Ramdas Pophale) SiO2 
 PCOD9221023
Probable space group: C 2/M
;
_chemical_formula_sum "Si O2"
_cell_formula_units_Z 56
_cell_length_a 12.452993
_cell_length_b 26.268396
_cell_length_c 8.391595
_cell_angle_alpha 90.000000
_cell_angle_beta 68.998124
_cell_angle_gamma 90.000000
_cell_volume 2562.701913
_symmetry_space_group_name_H-M "C 2/M"
_symmetry_group_IT_number 12
_symmetry_cell_setting 'monoclinic'
loop_
_space_group_symop_operation_xyz
x,y,z
-x,y,-z
-x,-y,-z
x,-y,z
1/2+x,1/2+y,z
1/2-x,1/2+y,-z
1/2-x,1/2-y,-z
1/2+x,1/2-y,z
loop_
_atom_site_type_symbol
_atom_site_label
_atom_site_fract_x
_atom_site_fract_y
_atom_site_fract_z
Si Si1 0.447470 0.054299 0.852064
Si Si2 0.900929 0.059208 0.758479
Si Si3 0.104703 0.390733 0.559004
Si Si4 0.102751 0.190896 0.814091
Si Si5 0.253584 0.135797 0.974402
Si Si6 0.635426 0.400223 0.580560
Si Si7 0.115732 0.308498 0.832274
O O1 0.552735 0.060557 0.676602
O O2 0.364563 0.101937 0.878102
O O3 0.388333 0.000000 0.860277
O O4 0.500000 0.056148 0.000000
O O5 0.869709 0.085702 0.604515
O O6 0.038586 0.063043 0.705510
O O7 0.865480 0.000000 0.775884
O O8 0.839705 0.094099 0.921568
O O9 0.232673 0.404476 0.433708
O O10 0.118259 0.346585 0.683099
O O11 0.000000 0.375172 0.500000
O O12 0.212024 0.169084 0.850204
O O13 0.092071 0.155661 0.662957
O O14 0.119224 0.250375 0.773616
O O15 0.000000 0.185475 0.000000
O O16 0.282855 0.173957 0.103538
O O17 0.000000 0.314059 0.000000
#
# Coordination Sequence:
#
# PCOD9221023 Si02
#       7
#     8   8   8   8   8   8   8
#     4  11  22  40  69  99 130 176 222 269 331 396
#     4  11  24  44  72  97 131 186 221 266 340 398
#     4  12  24  43  66  99 144 172 217 279 332 399
#     4  11  25  43  67  96 133 171 225 276 335 385
#     4  12  20  45  70  99 132 170 223 285 318 402
#     4  11  23  44  63  96 138 171 220 274 320 402
#     4  11  23  45  68  98 130 180 218 270 337 400
#
# _framework density 21.851935999999998
#
# number of rings (size 3 to 8) (size 9 to 14) (size 15 to 20)
#    0.000    0.714    5.714    2.571    0.000    3.143 
#    2.571    6.429    0.000    0.000    0.000    0.000 
#    0.000    0.000    0.000    0.000    0.000    0.000 
#
# Total GULP energy -156388.467715 kJ/mol
# GULP energy per Si atom -5585.302418 kJ/mol
# Density = 2.180220 g / cm^3
# Si number density = 21.851936 Si / 1000 Ang^3
#
#
#
# Elastic Constant Matrix: (Units=GPa)
#
#
# Indices 1 2 3 4 5 6 
#
# 1 91.4627 12.3227 10.7833 0.0000 -4.6305 0.0000
# 2 12.3227 125.6330 5.0559 0.0000 11.4667 0.0000
# 3 10.7833 5.0559 34.4971 0.0000 -1.4055 0.0000
# 4 0.0000 0.0000 0.0000 203.7039 0.0000 30.7939
# 5 -4.6305 11.4667 -1.4055 0.0000 41.2024 0.0000
# 6 0.0000 0.0000 0.0000 30.7939 0.0000 26.7577
#
#
#
# Elastic Compliance Matrix: (Units=1/GPa)
#
#
# Indices 1 2 3 4 5 6 
#
# 1 0.011561 -0.001135 -0.003387 0.000000 0.001500 0.000000
# 2 -0.001135 0.008336 -0.000968 0.000000 -0.002481 0.000000
# 3 -0.003387 -0.000968 0.030226 0.000000 0.000920 0.000000
# 4 0.000000 0.000000 0.000000 0.005943 0.000000 -0.006839
# 5 0.001500 -0.002481 0.000920 0.000000 0.025161 0.000000
# 6 0.000000 0.000000 0.000000 -0.006839 0.000000 0.045244
#
#
# Mechanical properties :
#
#
# Convention : Reuss Voigt Hill
#
# Bulk Modulus (GPa) = 25.54602 34.21296 29.87949
# Shear Modulus (GPa) = 33.22301 69.22820 51.22561
#
# Velocity S-wave (km/s) = 3.90342 5.63466 4.84696
# Velocity P-wave (km/s) = 5.65964 7.61729 6.71024
#
# Compressibility (1/GPa) = 0.03914504
#
# Stress axis : x y z
#
# Youngs Moduli (GPa) = 86.49415 119.95670 33.08418
#
# Poissons Ratio (x) = 0.13610 0.11204
# Poissons Ratio (y) = 0.09813 0.03203
# Poissons Ratio (z) = 0.29292 0.11614
#
# Static dielectric constant tensor:
#      x y z
#    x 1.836680 0.000000 -0.026320 
#    y 0.000000 1.751190 0.000000 
#    z -0.026320 0.000000 1.858690 
# 
# From -- ./inp_files/53158.got.cif
#   From: 2010.05.17/outbox.cif.g08.bks.cpg/sg12_27_cif.got.tgz:53158.got - 2010.06.03 13:09:07.
