data_PCOD9221269
_publ_section_title
;
Structure prediction by ZEFSAII (Michael W. Deem and Ramdas Pophale) SiO2 
 PCOD9221269
Probable space group: C 2/M
;
_chemical_formula_sum "Si O2"
_cell_formula_units_Z 48
_cell_length_a 28.238095
_cell_length_b 8.899391
_cell_length_c 17.761663
_cell_angle_alpha 90.000000
_cell_angle_beta 34.090748
_cell_angle_gamma 90.000000
_cell_volume 2501.837006
_symmetry_space_group_name_H-M "C 2/M"
_symmetry_group_IT_number 12
_symmetry_cell_setting 'monoclinic'
loop_
_space_group_symop_operation_xyz
x,y,z
-x,y,-z
-x,-y,-z
x,-y,z
1/2+x,1/2+y,z
1/2-x,1/2+y,-z
1/2-x,1/2-y,-z
1/2+x,1/2-y,z
loop_
_atom_site_type_symbol
_atom_site_label
_atom_site_fract_x
_atom_site_fract_y
_atom_site_fract_z
Si Si1 0.637631 0.320683 0.010910
Si Si2 0.131072 0.674096 0.172143
Si Si3 0.764551 0.678843 0.708369
Si Si4 0.600381 0.677444 0.368706
Si Si5 0.206553 0.821148 0.484311
Si Si6 0.476225 0.825880 0.273728
O O1 0.631880 0.500000 0.026607
O O2 0.671866 0.251661 0.044751
O O3 0.544237 0.248729 0.127458
O O4 0.695521 0.285317 0.863454
O O5 0.156648 0.500000 0.146187
O O6 0.136884 0.761993 0.241843
O O7 0.031664 0.677261 0.277562
O O8 0.766245 0.500000 0.694729
O O9 0.852975 0.734534 0.626473
O O10 0.749938 0.760683 0.648950
O O11 0.500000 0.701638 0.500000
O O12 0.616422 0.500000 0.355700
O O13 0.250000 0.750000 0.500000
O O14 0.109692 0.764701 0.608804
O O15 0.209790 0.000000 0.483167
O O16 0.459660 0.000000 0.277272
#
# Coordination Sequence:
#
# PCOD9221269 Si02
#       6
#     8   8   8   8   8   8
#     4   9  19  37  61  88 121 161 200 244 297 354
#     4   9  19  34  57  84 118 160 199 241 292 349
#     4  11  24  41  62  89 123 157 200 253 302 355
#     4  11  23  36  55  85 121 162 207 251 296 351
#     4  12  25  42  66  91 120 155 197 248 302 361
#     4   9  19  37  62  89 120 157 198 242 294 354
#
# _framework density 19.185903
#
# number of rings (size 3 to 8) (size 9 to 14) (size 15 to 20)
#    1.000    0.833    0.000    4.500    0.000    7.333 
#    0.000    0.833    0.000    5.000    0.000    0.000 
#    0.000    0.000    0.000    0.000    0.000    0.000 
#
# Total GULP energy -133975.996147 kJ/mol
# GULP energy per Si atom -5582.333173 kJ/mol
# Density = 1.914223 g / cm^3
# Si number density = 19.185903 Si / 1000 Ang^3
#
#
#
# Elastic Constant Matrix: (Units=GPa)
#
#
# Indices 1 2 3 4 5 6 
#
# 1 78.6784 36.3277 33.9468 -0.0004 26.2692 -0.0006
# 2 36.3277 103.0205 58.9997 0.0037 19.9404 -0.0013
# 3 33.9468 58.9997 99.4405 0.0030 21.9403 -0.0010
# 4 -0.0004 0.0037 0.0030 32.2896 -0.0007 2.3407
# 5 26.2692 19.9404 21.9403 -0.0007 24.3422 0.0010
# 6 -0.0006 -0.0013 -0.0010 2.3407 0.0010 30.7505
#
#
#
# Elastic Compliance Matrix: (Units=1/GPa)
#
#
# Indices 1 2 3 4 5 6 
#
# 1 0.020998 -0.003049 -0.001137 0.000000 -0.019138 0.000001
# 2 -0.003049 0.015697 -0.007691 -0.000001 -0.002636 0.000001
# 3 -0.001137 -0.007691 0.016660 -0.000001 -0.007489 0.000001
# 4 0.000000 -0.000001 -0.000001 0.031142 0.000002 -0.002371
# 5 -0.019138 -0.002636 -0.007489 0.000002 0.070644 -0.000003
# 6 0.000001 0.000001 0.000001 -0.002371 -0.000003 0.032700
#
#
# Mechanical properties :
#
#
# Convention : Reuss Voigt Hill
#
# Bulk Modulus (GPa) = 33.78182 59.96529 46.87356
# Shear Modulus (GPa) = 22.57745 27.60082 25.08914
#
# Velocity S-wave (km/s) = 3.43413 3.79700 3.62012
# Velocity P-wave (km/s) = 5.77670 7.10955 6.47750
#
# Compressibility (1/GPa) = 0.02960172
#
# Stress axis : x y z
#
# Youngs Moduli (GPa) = 47.62325 63.70803 60.02540
#
# Poissons Ratio (x) = 0.19426 0.06822
# Poissons Ratio (y) = 0.14522 0.46163
# Poissons Ratio (z) = 0.05412 0.48995
#
# Static dielectric constant tensor:
#      x y z
#    x 1.665950 0.000000 -0.020470 
#    y 0.000000 1.638580 0.000000 
#    z -0.020470 0.000000 1.694320 
# 
# From -- ./inp_files/295350.got.cif
#   From: 2010.05.17/outbox.cif.g08.bks.cpg/sg12_148_cif.got.tgz:295350.got - 2010.06.03 13:09:07.
