data_PCOD9221926
_publ_section_title
;
Structure prediction by ZEFSAII (Michael W. Deem and Ramdas Pophale) SiO2 
 PCOD9221926
Probable space group: C 2/M
;
_chemical_formula_sum "Si O2"
_cell_formula_units_Z 40
_cell_length_a 18.276552
_cell_length_b 8.789627
_cell_length_c 26.549254
_cell_angle_alpha 90.000000
_cell_angle_beta 30.585086
_cell_angle_gamma 90.000000
_cell_volume 2170.095993
_symmetry_space_group_name_H-M "C 2/M"
_symmetry_group_IT_number 12
_symmetry_cell_setting 'monoclinic'
loop_
_space_group_symop_operation_xyz
x,y,z
-x,y,-z
-x,-y,-z
x,-y,z
1/2+x,1/2+y,z
1/2-x,1/2+y,-z
1/2-x,1/2-y,-z
1/2+x,1/2-y,z
loop_
_atom_site_type_symbol
_atom_site_label
_atom_site_fract_x
_atom_site_fract_y
_atom_site_fract_z
Si Si1 0.831414 0.818386 0.597550
Si Si2 0.641367 0.182523 0.216803
Si Si3 0.825124 0.819157 0.406258
Si Si4 0.586484 0.315851 0.999889
Si Si5 0.816960 0.182564 0.216699
O O1 0.758208 0.739257 0.593393
O O2 0.752952 0.765158 0.694810
O O3 0.000000 0.778096 0.500000
O O4 0.819798 0.000000 0.599019
O O5 0.489572 0.264052 0.305944
O O6 0.750938 0.234386 0.107451
O O7 0.722098 0.208212 0.222409
O O8 0.620652 0.000000 0.224595
O O9 0.750000 0.750000 0.500000
O O10 0.819132 0.000000 0.412593
O O11 0.591074 0.500000 0.999831
O O12 0.500000 0.278620 0.000000
O O13 0.480899 0.265819 0.107152
O O14 0.818094 0.000000 0.224597
#
# Coordination Sequence:
#
# PCOD9221926 Si02
#       5
#     8   8   8   8   8
#     4  11  24  40  57  79 108 141 180 226 274 323
#     4   9  17  33  58  85 114 146 180 220 266 316
#     4  12  25  40  58  80 108 141 180 223 270 325
#     4   7  12  26  51  82 112 143 179 217 259 312
#     4   9  17  32  57  86 113 144 182 221 265 318
#
# _framework density 18.432364
#
# number of rings (size 3 to 8) (size 9 to 14) (size 15 to 20)
#    0.000    2.400    0.000    6.000    0.000    5.600 
#    0.000    2.000    0.000    3.600    0.000    0.000 
#    0.000    0.000    0.000    0.000    0.000    0.000 
#
# Total GULP energy -111554.723621 kJ/mol
# GULP energy per Si atom -5577.736181 kJ/mol
# Density = 1.839041 g / cm^3
# Si number density = 18.432364 Si / 1000 Ang^3
#
#
#
# Elastic Constant Matrix: (Units=GPa)
#
#
# Indices 1 2 3 4 5 6 
#
# 1 63.5611 61.8876 69.7719 0.0000 -1.3117 0.0001
# 2 61.8876 65.7214 82.6602 0.0000 -4.3768 0.0001
# 3 69.7719 82.6602 224.9187 0.0000 0.7065 0.0001
# 4 0.0000 0.0000 0.0000 8.7430 0.0000 13.5098
# 5 -1.3117 -4.3768 0.7065 0.0000 28.8294 0.0000
# 6 0.0001 0.0001 0.0001 13.5098 0.0000 11.9050
#
#
#
# Elastic Compliance Matrix: (Units=1/GPa)
#
#
# Indices 1 2 3 4 5 6 
#
# 1 0.228451 -0.237711 0.016576 -0.000004 -0.026100 0.000004
# 2 -0.237711 0.276251 -0.027885 0.000004 0.031807 -0.000004
# 3 0.016576 -0.027885 0.009564 0.000000 -0.003714 0.000000
# 4 -0.000004 0.000004 0.000000 -0.151794 0.000001 0.172256
# 5 -0.026100 0.031807 -0.003714 0.000001 0.038419 -0.000001
# 6 0.000004 -0.000004 0.000000 0.172256 -0.000001 -0.111478
#
#
# Mechanical properties :
#
#
# Convention : Reuss Voigt Hill
#
# Bulk Modulus (GPa) = 61.63296 86.98230 74.30763
# Shear Modulus (GPa) = 6.30628 19.22091 12.76360
#
# Velocity S-wave (km/s) = 1.85168 3.23271 2.63431
# Velocity P-wave (km/s) = 6.17103 7.82473 7.04656
#
# Compressibility (1/GPa) = 0.01622508
#
# Stress axis : x y z
#
# Youngs Moduli (GPa) = 4.37731 3.61990 104.56108
#
# Poissons Ratio (x) = 0.86049 -1.73320
# Poissons Ratio (y) = 1.04053 2.91569
# Poissons Ratio (z) = -0.07256 0.10094
#
# Static dielectric constant tensor:
#      x y z
#    x 1.607320 0.000000 -0.002450 
#    y 0.000000 1.617060 0.000000 
#    z -0.002450 0.000000 1.661890 
# 
# From -- ./inp_files/151961.got.cif
#   From: 2010.05.17/outbox.cif.g08.bks.cpg/sg12_76_cif.got.tgz:151961.got - 2010.06.03 13:09:07.
