data_PCOD9221626
_publ_section_title
;
Structure prediction by ZEFSAII (Michael W. Deem and Ramdas Pophale) SiO2 
 PCOD9221626
Probable space group: C 2/M
;
_chemical_formula_sum "Si O2"
_cell_formula_units_Z 56
_cell_length_a 24.574419
_cell_length_b 19.402873
_cell_length_c 5.573473
_cell_angle_alpha 90.000000
_cell_angle_beta 72.254527
_cell_angle_gamma 90.000000
_cell_volume 2531.067080
_symmetry_space_group_name_H-M "C 2/M"
_symmetry_group_IT_number 12
_symmetry_cell_setting 'monoclinic'
loop_
_space_group_symop_operation_xyz
x,y,z
-x,y,-z
-x,-y,-z
x,-y,z
1/2+x,1/2+y,z
1/2-x,1/2+y,-z
1/2-x,1/2-y,-z
1/2+x,1/2-y,z
loop_
_atom_site_type_symbol
_atom_site_label
_atom_site_fract_x
_atom_site_fract_y
_atom_site_fract_z
Si Si1 0.751872 0.000000 0.322973
Si Si2 0.058112 0.252251 0.338391
Si Si3 0.968390 0.893998 0.794898
Si Si4 0.675899 0.000000 0.922535
Si Si5 0.840840 0.110162 0.031615
Si Si6 0.735365 0.308311 0.209188
Si Si7 0.634506 0.732729 0.643543
Si Si8 0.864159 0.352435 0.063368
O O1 0.715520 0.000000 0.622362
O O2 0.795725 0.935306 0.243068
O O3 0.712424 0.000000 0.128204
O O4 0.036694 0.190237 0.197126
O O5 0.089675 0.209635 0.506108
O O6 0.000000 0.288019 0.500000
O O7 0.104100 0.307387 0.182407
O O8 0.000000 0.912175 0.500000
O O9 0.902781 0.920735 0.889430
O O10 0.000000 0.914481 0.000000
O O11 0.634708 0.933315 0.969289
O O12 0.857135 0.179963 0.151443
O O13 0.805652 0.133250 0.845633
O O14 0.697326 0.268888 0.450904
O O15 0.796199 0.340480 0.179439
O O16 0.750000 0.250000 0.000000
O O17 0.613988 0.809502 0.737490
#
# Coordination Sequence:
#
# PCOD9221626 Si02
#       8
#     4   8   8   4   8   8   8   8
#     4  12  30  48  70  99 146 195 228 284 344 435
#     4  11  24  40  68 104 136 177 233 289 354 403
#     4  11  23  41  69 104 141 179 231 290 343 405
#     4  12  30  48  69  98 147 190 230 278 358 425
#     4  12  24  42  66 101 141 183 238 281 352 405
#     4  12  21  36  62 103 130 170 226 290 352 405
#     4  12  22  39  69 100 139 177 231 296 346 417
#     4  12  25  42  66 101 138 185 228 290 347 424
#
# _framework density 22.125056000000001
#
# number of rings (size 3 to 8) (size 9 to 14) (size 15 to 20)
#    0.000    0.286    7.143    3.000    4.000    0.000 
#    0.000    1.071    0.000    0.857    0.000    0.500 
#    0.000    0.000    0.000    0.000    0.000    0.000 
#
# Total GULP energy -156116.501163 kJ/mol
# GULP energy per Si atom -5575.589327 kJ/mol
# Density = 2.207470 g / cm^3
# Si number density = 22.125056 Si / 1000 Ang^3
#
#
#
# Elastic Constant Matrix: (Units=GPa)
#
#
# Indices 1 2 3 4 5 6 
#
# 1 103.3456 6.5546 38.4812 0.0000 -5.9192 0.0000
# 2 6.5546 113.8553 12.1318 0.0000 -3.1777 0.0000
# 3 38.4812 12.1318 113.5771 0.0000 -10.7605 0.0000
# 4 0.0000 0.0000 0.0000 19.0709 0.0000 -8.4077
# 5 -5.9192 -3.1777 -10.7605 0.0000 37.8459 0.0000
# 6 0.0000 0.0000 0.0000 -8.4077 0.0000 5.9331
#
#
#
# Elastic Compliance Matrix: (Units=1/GPa)
#
#
# Indices 1 2 3 4 5 6 
#
# 1 0.011096 -0.000229 -0.003671 0.000000 0.000672 0.000000
# 2 -0.000229 0.008898 -0.000828 0.000000 0.000476 0.000000
# 3 -0.003671 -0.000828 0.010355 0.000000 0.002300 0.000000
# 4 0.000000 0.000000 0.000000 0.139730 0.000000 0.198008
# 5 0.000672 0.000476 0.002300 0.000000 0.027222 0.000000
# 6 0.000000 0.000000 0.000000 0.198008 0.000000 0.449136
#
#
# Mechanical properties :
#
#
# Convention : Reuss Voigt Hill
#
# Bulk Modulus (GPa) = 47.86319 49.45700 48.66009
# Shear Modulus (GPa) = 7.54310 30.81070 19.17690
#
# Velocity S-wave (km/s) = 1.84843 3.73576 2.94726
# Velocity P-wave (km/s) = 5.12207 6.40389 5.79851
#
# Compressibility (1/GPa) = 0.02089288
#
# Stress axis : x y z
#
# Youngs Moduli (GPa) = 90.11955 112.38811 96.57289
#
# Poissons Ratio (x) = 0.02572 0.35456
# Poissons Ratio (y) = 0.02062 0.07994
# Poissons Ratio (z) = 0.33087 0.09303
#
# Static dielectric constant tensor:
#      x y z
#    x 1.677990 0.000000 0.234460 
#    y 0.000000 1.896600 0.000000 
#    z 0.234460 0.000000 1.554230 
# 
# From -- ./inp_files/25630.got.cif
#   From: 2010.05.17/outbox.cif.g08.bks.cpg/sg12_13_cif.got.tgz:25630.got - 2010.06.03 13:09:07.
