data_PCOD9221029
_publ_section_title
;
Structure prediction by ZEFSAII (Michael W. Deem and Ramdas Pophale) SiO2 
 PCOD9221029
Probable space group: C 2/M
;
_chemical_formula_sum "Si O2"
_cell_formula_units_Z 40
_cell_length_a 13.385409
_cell_length_b 25.276631
_cell_length_c 8.575869
_cell_angle_alpha 90.000000
_cell_angle_beta 139.362222
_cell_angle_gamma 90.000000
_cell_volume 1889.701385
_symmetry_space_group_name_H-M "C 2/M"
_symmetry_group_IT_number 12
_symmetry_cell_setting 'monoclinic'
loop_
_space_group_symop_operation_xyz
x,y,z
-x,y,-z
-x,-y,-z
x,-y,z
1/2+x,1/2+y,z
1/2-x,1/2+y,-z
1/2-x,1/2-y,-z
1/2+x,1/2-y,z
loop_
_atom_site_type_symbol
_atom_site_label
_atom_site_fract_x
_atom_site_fract_y
_atom_site_fract_z
Si Si1 0.187089 0.194136 0.372940
Si Si2 0.647442 0.399891 0.760314
Si Si3 0.410289 0.500000 0.097412
Si Si4 0.732528 0.000000 0.585943
Si Si5 0.820253 0.802708 0.001905
Si Si6 0.151589 0.594231 0.278665
O O1 0.250000 0.250000 0.500000
O O2 0.222896 0.190209 0.230592
O O3 0.272163 0.146749 0.561705
O O4 0.006446 0.194905 0.204355
O O5 0.500000 0.375557 0.500000
O O6 0.601226 0.445893 0.821749
O O7 0.740165 0.426784 0.731090
O O8 0.728171 0.352677 0.949480
O O9 0.585994 0.500000 0.245094
O O10 0.262997 0.500000 0.806462
O O11 0.649361 0.050807 0.412593
O O12 0.750000 0.750000 0.000000
O O13 0.000000 0.605961 0.000000
#
# Coordination Sequence:
#
# PCOD9221029 Si02
#       6
#     8   8   4   4   8   8
#     4  11  25  44  66  94 134 173 221 273 332 396
#     4  12  22  42  68  99 130 170 227 272 322 397
#     4  11  22  40  74 100 128 174 223 276 329 392
#     4  11  22  43  68 101 134 171 220 274 333 395
#     4  11  25  43  68  97 128 172 224 280 328 385
#     4  12  26  43  66  98 139 176 216 273 337 395
#
# _framework density 21.167366999999999
#
# number of rings (size 3 to 8) (size 9 to 14) (size 15 to 20)
#    0.000    0.600    4.000    3.600    5.600    3.200 
#    0.000    4.000    0.000    0.000    0.000    0.000 
#    0.000    0.000    0.000    0.000    0.000    0.000 
#
# Total GULP energy -111629.563588 kJ/mol
# GULP energy per Si atom -5581.478179 kJ/mol
# Density = 2.111919 g / cm^3
# Si number density = 21.167367 Si / 1000 Ang^3
#
#
#
# Elastic Constant Matrix: (Units=GPa)
#
#
# Indices 1 2 3 4 5 6 
#
# 1 41.0645 -0.9552 23.7054 0.0000 -16.2474 0.0000
# 2 -0.9552 141.8683 54.8072 0.0000 -13.6450 0.0000
# 3 23.7054 54.8072 153.6155 0.0000 -19.1904 0.0000
# 4 0.0000 0.0000 0.0000 31.4551 0.0000 -6.9628
# 5 -16.2474 -13.6450 -19.1904 0.0000 27.2911 0.0000
# 6 0.0000 0.0000 0.0000 -6.9628 0.0000 27.0512
#
#
#
# Elastic Compliance Matrix: (Units=1/GPa)
#
#
# Indices 1 2 3 4 5 6 
#
# 1 0.034598 0.003746 -0.004241 0.000000 0.019488 0.000000
# 2 0.003746 0.008707 -0.003138 0.000000 0.004377 0.000000
# 3 -0.004241 -0.003138 0.008521 0.000000 0.001898 0.000000
# 4 0.000000 0.000000 0.000000 0.033712 0.000000 0.008677
# 5 0.019488 0.004377 0.001898 0.000000 0.051767 0.000000
# 6 0.000000 0.000000 0.000000 0.008677 0.000000 0.039200
#
#
# Mechanical properties :
#
#
# Convention : Reuss Voigt Hill
#
# Bulk Modulus (GPa) = 22.44173 54.62923 38.53548
# Shear Modulus (GPa) = 25.17312 34.42554 29.79933
#
# Velocity S-wave (km/s) = 3.45228 4.03718 3.75613
# Velocity P-wave (km/s) = 5.14937 6.89899 6.08737
#
# Compressibility (1/GPa) = 0.04455985
#
# Stress axis : x y z
#
# Youngs Moduli (GPa) = 28.90360 114.84754 117.35967
#
# Poissons Ratio (x) = -0.43018 0.49770
# Poissons Ratio (y) = -0.10826 0.36825
# Poissons Ratio (z) = 0.12258 0.36037
#
# Static dielectric constant tensor:
#      x y z
#    x 1.918740 0.000000 0.085090 
#    y 0.000000 1.694830 0.000000 
#    z 0.085090 0.000000 1.839400 
# 
# From -- ./inp_files/65618.got.cif
#   From: 2010.05.17/outbox.cif.g08.bks.cpg/sg12_33_cif.got.tgz:65618.got - 2010.06.03 13:09:07.
