data_PCOD9221038
_publ_section_title
;
Structure prediction by ZEFSAII (Michael W. Deem and Ramdas Pophale) SiO2 
 PCOD9221038
Probable space group: C 2/M
;
_chemical_formula_sum "Si O2"
_cell_formula_units_Z 48
_cell_length_a 14.649925
_cell_length_b 22.799340
_cell_length_c 10.459396
_cell_angle_alpha 90.000000
_cell_angle_beta 45.156037
_cell_angle_gamma 90.000000
_cell_volume 2477.015986
_symmetry_space_group_name_H-M "C 2/M"
_symmetry_group_IT_number 12
_symmetry_cell_setting 'monoclinic'
loop_
_space_group_symop_operation_xyz
x,y,z
-x,y,-z
-x,-y,-z
x,-y,z
1/2+x,1/2+y,z
1/2-x,1/2+y,-z
1/2-x,1/2-y,-z
1/2+x,1/2-y,z
loop_
_atom_site_type_symbol
_atom_site_label
_atom_site_fract_x
_atom_site_fract_y
_atom_site_fract_z
Si Si1 0.837515 0.500000 0.278737
Si Si2 0.502708 0.673449 0.700230
Si Si3 0.250309 0.628820 0.667728
Si Si4 0.259725 0.877895 0.016916
Si Si5 0.127480 0.252410 0.788559
Si Si6 0.622811 0.787896 0.297770
Si Si7 0.123373 0.500000 0.068704
O O1 0.775306 0.563995 0.362066
O O2 0.969952 0.500000 0.225866
O O3 0.854306 0.500000 0.107474
O O4 0.601973 0.643499 0.506463
O O5 0.392315 0.630033 0.858872
O O6 0.588452 0.704617 0.722838
O O7 0.425491 0.726866 0.713319
O O8 0.222799 0.630312 0.847245
O O9 0.165836 0.683154 0.697638
O O10 0.334779 0.830539 0.858197
O O11 0.313556 0.942117 0.936297
O O12 0.251691 0.227988 0.741979
O O13 0.000000 0.259684 0.000000
O O14 0.500000 0.810661 0.500000
#
# Coordination Sequence:
#
# PCOD9221038 Si02
#       7
#     4   8   8   8   8   8   4
#     4   9  22  37  59  91 125 167 211 251 317 380
#     4  12  23  39  64  96 129 167 207 260 323 373
#     4  11  23  39  61  94 131 162 205 262 313 379
#     4  11  22  41  63  89 129 163 210 259 312 376
#     4  12  24  39  64  95 130 168 208 261 320 372
#     4  12  24  41  62  95 129 167 211 261 315 378
#     4   9  22  39  62  88 120 172 209 260 311 370
#
# _framework density 19.378156000000001
#
# number of rings (size 3 to 8) (size 9 to 14) (size 15 to 20)
#    0.000    0.833    5.000    2.500    7.000    0.667 
#    0.000    2.917    0.000    3.000    0.000    0.000 
#    0.000    0.000    0.000    0.000    0.000    0.000 
#
# Total GULP energy -134058.859275 kJ/mol
# GULP energy per Si atom -5585.785803 kJ/mol
# Density = 1.933405 g / cm^3
# Si number density = 19.378156 Si / 1000 Ang^3
#
#
#
# Elastic Constant Matrix: (Units=GPa)
#
#
# Indices 1 2 3 4 5 6 
#
# 1 108.9303 60.6931 38.9857 0.0000 -30.0167 0.0000
# 2 60.6931 159.2999 64.9374 0.0000 -19.2506 0.0000
# 3 38.9857 64.9374 132.7591 0.0000 -26.0273 0.0000
# 4 0.0000 0.0000 0.0000 19.9689 0.0000 -3.9992
# 5 -30.0167 -19.2506 -26.0273 0.0000 23.2170 0.0000
# 6 0.0000 0.0000 0.0000 -3.9992 0.0000 26.8943
#
#
#
# Elastic Compliance Matrix: (Units=1/GPa)
#
#
# Indices 1 2 3 4 5 6 
#
# 1 0.016435 -0.004407 0.000998 0.000000 0.018713 0.000000
# 2 -0.004407 0.009170 -0.003611 0.000000 -0.002143 0.000000
# 3 0.000998 -0.003611 0.011114 0.000000 0.010756 0.000000
# 4 0.000000 0.000000 0.000000 0.051615 0.000000 0.007675
# 5 0.018713 -0.002143 0.010756 0.000000 0.077547 0.000000
# 6 0.000000 0.000000 0.000000 0.007675 0.000000 0.038324
#
#
# Mechanical properties :
#
#
# Convention : Reuss Voigt Hill
#
# Bulk Modulus (GPa) = 44.09431 81.13574 62.61503
# Shear Modulus (GPa) = 22.14301 29.77425 25.95863
#
# Velocity S-wave (km/s) = 3.38402 3.92405 3.66400
# Velocity P-wave (km/s) = 6.17032 7.90516 7.09099
#
# Compressibility (1/GPa) = 0.02267866
#
# Stress axis : x y z
#
# Youngs Moduli (GPa) = 60.84524 109.05469 89.97355
#
# Poissons Ratio (x) = 0.48063 -0.08981
# Poissons Ratio (y) = 0.26816 0.32491
# Poissons Ratio (z) = -0.06073 0.39382
#
# Static dielectric constant tensor:
#      x y z
#    x 1.699770 0.000000 0.014260 
#    y 0.000000 1.678330 0.000000 
#    z 0.014260 0.000000 1.719080 
# 
# From -- ./inp_files/147951.got.cif
#   From: 2010.05.17/outbox.cif.g08.bks.cpg/sg12_74_cif.got.tgz:147951.got - 2010.06.03 13:09:07.
