data_PCOD9221227
_publ_section_title
;
Structure prediction by ZEFSAII (Michael W. Deem and Ramdas Pophale) SiO2 
 PCOD9221227
Probable space group: C 2/M
;
_chemical_formula_sum "Si O2"
_cell_formula_units_Z 26
_cell_length_a 8.289721
_cell_length_b 32.844532
_cell_length_c 5.062904
_cell_angle_alpha 90.000000
_cell_angle_beta 58.513091
_cell_angle_gamma 90.000000
_cell_volume 1175.517944
_symmetry_space_group_name_H-M "C 2/M"
_symmetry_group_IT_number 12
_symmetry_cell_setting 'monoclinic'
loop_
_space_group_symop_operation_xyz
x,y,z
-x,y,-z
-x,-y,-z
x,-y,z
1/2+x,1/2+y,z
1/2-x,1/2+y,-z
1/2-x,1/2-y,-z
1/2+x,1/2-y,z
loop_
_atom_site_type_symbol
_atom_site_label
_atom_site_fract_x
_atom_site_fract_y
_atom_site_fract_z
Si Si1 0.634262 0.208951 0.636739
Si Si2 0.000000 0.500000 0.500000
Si Si3 0.706814 0.569556 0.874266
Si Si4 0.714745 0.877179 0.706458
O O1 0.500000 0.199769 0.500000
O O2 0.750000 0.250000 0.500000
O O3 0.761147 0.169432 0.595848
O O4 0.500000 0.215763 0.000000
O O5 0.867838 0.535508 0.757191
O O6 0.765262 0.597027 0.575268
O O7 0.500000 0.550723 0.000000
O O8 0.682148 0.598994 0.147052
O O9 0.500000 0.875936 0.000000
#
# Coordination Sequence:
#
# PCOD9221227 Si02
#       4
#     8   2   8   8
#     4  11  24  42  69 103 142 188 233 289 350 415
#     4  12  26  50  72 104 148 178 238 302 364 404
#     4  12  26  44  73 104 135 187 237 289 354 426
#     4  11  22  46  68  97 141 190 229 287 362 416
#
# _framework density 22.117912
#
# number of rings (size 3 to 8) (size 9 to 14) (size 15 to 20)
#    0.000    0.615    3.077    6.000    0.000    6.154 
#    0.000    3.077    0.000    0.000    0.000    0.000 
#    0.000    0.000    0.000    0.000    0.000    0.000 
#
# Total GULP energy -72428.948675 kJ/mol
# GULP energy per Si atom -5571.457590 kJ/mol
# Density = 2.206757 g / cm^3
# Si number density = 22.117912 Si / 1000 Ang^3
#
#
#
# Elastic Constant Matrix: (Units=GPa)
#
#
# Indices 1 2 3 4 5 6 
#
# 1 76.2651 44.4684 19.9163 0.0000 13.3702 0.0000
# 2 44.4684 203.2303 75.6043 0.0000 8.5683 0.0000
# 3 19.9163 75.6043 132.7995 0.0000 36.3719 0.0000
# 4 0.0000 0.0000 0.0000 -205.3616 0.0000 5.0734
# 5 13.3702 8.5683 36.3719 0.0000 42.3691 0.0000
# 6 0.0000 0.0000 0.0000 5.0734 0.0000 -6.1333
#
#
#
# Elastic Compliance Matrix: (Units=1/GPa)
#
#
# Indices 1 2 3 4 5 6 
#
# 1 0.015880 -0.003683 0.001155 0.000000 -0.005258 0.000000
# 2 -0.003683 0.007279 -0.004585 0.000000 0.003626 0.000000
# 3 0.001155 -0.004585 0.012829 0.000000 -0.010451 0.000000
# 4 0.000000 0.000000 0.000000 -0.004971 0.000000 -0.004112
# 5 -0.005258 0.003626 -0.010451 0.000000 0.033500 0.000000
# 6 0.000000 0.000000 0.000000 -0.004112 0.000000 -0.166447
#
#
# Mechanical properties :
#
#
# Convention : Reuss Voigt Hill
#
# Bulk Modulus (GPa) = 45.94884 76.91921 61.43402
# Shear Modulus (GPa) = -62.14975 -15.67142 -38.91059
#
# Velocity S-wave (km/s) = -5.30663 -2.66473 -4.19887
# Velocity P-wave (km/s) = 4.08992 5.03832 2.08053
#
# Compressibility (1/GPa) = 0.02176334
#
# Stress axis : x y z
#
# Youngs Moduli (GPa) = 62.97423 137.38034 77.94572
#
# Poissons Ratio (x) = 0.50592 -0.09004
# Poissons Ratio (y) = 0.23191 0.35737
# Poissons Ratio (z) = -0.07274 0.62987
#
# Static dielectric constant tensor:
#      x y z
#    x 1.896950 0.000000 -0.012350 
#    y 0.000000 1.836750 0.000000 
#    z -0.012350 0.000000 1.753360 
# 
# From -- ./inp_files/3372.got.cif
#   From: 2010.05.17/outbox.cif.g08.bks.cpg/sg12_2_cif.got.tgz:3372.got - 2010.06.03 13:09:07.
