data_PCOD9221190
_publ_section_title
;
Structure prediction by ZEFSAII (Michael W. Deem and Ramdas Pophale) SiO2 
 PCOD9221190
Probable space group: C 2/M
;
_chemical_formula_sum "Si O2"
_cell_formula_units_Z 40
_cell_length_a 13.471135
_cell_length_b 14.337737
_cell_length_c 17.505641
_cell_angle_alpha 90.000000
_cell_angle_beta 32.922930
_cell_angle_gamma 90.000000
_cell_volume 1837.683412
_symmetry_space_group_name_H-M "C 2/M"
_symmetry_group_IT_number 12
_symmetry_cell_setting 'monoclinic'
loop_
_space_group_symop_operation_xyz
x,y,z
-x,y,-z
-x,-y,-z
x,-y,z
1/2+x,1/2+y,z
1/2-x,1/2+y,-z
1/2-x,1/2-y,-z
1/2+x,1/2-y,z
loop_
_atom_site_type_symbol
_atom_site_label
_atom_site_fract_x
_atom_site_fract_y
_atom_site_fract_z
Si Si1 0.081279 0.397183 0.303264
Si Si2 0.196007 0.236958 0.947111
Si Si3 0.787503 0.109297 0.765804
Si Si4 0.182064 0.217422 0.744529
Si Si5 0.679700 0.347730 0.575910
O O1 0.162928 0.500000 0.248263
O O2 0.162076 0.334535 0.182775
O O3 0.147656 0.340731 0.334287
O O4 0.864126 0.405158 0.446822
O O5 0.206186 0.332664 0.891059
O O6 0.250000 0.250000 0.000000
O O7 0.989340 0.200525 0.088786
O O8 0.732278 0.173216 0.727765
O O9 0.004882 0.116235 0.642701
O O10 0.735486 0.000000 0.794653
O O11 0.133536 0.176357 0.693579
O O12 0.750000 0.250000 0.500000
#
# Coordination Sequence:
#
# PCOD9221190 Si02
#       5
#     8   8   8   8   8
#     4  11  24  40  65  98 129 168 219 268 325 393
#     4  11  22  44  66  94 133 175 214 271 332 387
#     4  11  24  42  70 101 132 174 224 271 327 396
#     4  11  24  42  69  95 133 174 216 272 333 384
#     4  12  22  44  69  92 136 175 213 270 331 389
#
# _framework density 21.766535000000001
#
# number of rings (size 3 to 8) (size 9 to 14) (size 15 to 20)
#    0.000    0.800    6.000    3.600    0.000    6.400 
#    0.000    5.000    0.000    0.000    0.000    0.000 
#    0.000    0.000    0.000    0.000    0.000    0.000 
#
# Total GULP energy -111600.822356 kJ/mol
# GULP energy per Si atom -5580.041118 kJ/mol
# Density = 2.171699 g / cm^3
# Si number density = 21.766535 Si / 1000 Ang^3
#
#
#
# Elastic Constant Matrix: (Units=GPa)
#
#
# Indices 1 2 3 4 5 6 
#
# 1 33.6236 -2.8381 10.4540 -0.0009 -4.3293 0.0003
# 2 -2.8381 161.3244 19.6632 -0.0016 10.3478 0.0006
# 3 10.4540 19.6632 123.4682 -0.0027 -12.8462 0.0011
# 4 -0.0009 -0.0016 -0.0027 8.5352 0.0008 -12.0350
# 5 -4.3293 10.3478 -12.8462 0.0008 38.6118 -0.0003
# 6 0.0003 0.0006 0.0011 -12.0350 -0.0003 -2.1240
#
#
#
# Elastic Compliance Matrix: (Units=1/GPa)
#
#
# Indices 1 2 3 4 5 6 
#
# 1 0.030883 0.000687 -0.002468 0.000001 0.002457 -0.000001
# 2 0.000687 0.006506 -0.001313 0.000000 -0.002103 -0.000001
# 3 -0.002468 -0.001313 0.008831 0.000001 0.003013 -0.000001
# 4 0.000001 0.000000 0.000001 0.013033 -0.000001 -0.073848
# 5 0.002457 -0.002103 0.003013 -0.000001 0.027741 0.000001
# 6 -0.000001 -0.000001 -0.000001 -0.073848 0.000001 -0.052373
#
#
# Mechanical properties :
#
#
# Convention : Reuss Voigt Hill
#
# Bulk Modulus (GPa) = 24.98160 41.44159 33.21160
# Shear Modulus (GPa) = 92.33073 28.41375 60.37224
#
# Velocity S-wave (km/s) = 6.52003 3.61693 5.27224
# Velocity P-wave (km/s) = 8.25730 6.04346 7.23555
#
# Compressibility (1/GPa) = 0.04002946
#
# Stress axis : x y z
#
# Youngs Moduli (GPa) = 32.38043 153.71066 113.23905
#
# Poissons Ratio (x) = -0.10553 0.27953
# Poissons Ratio (y) = -0.02223 0.14869
# Poissons Ratio (z) = 0.07993 0.20183
#
# Static dielectric constant tensor:
#      x y z
#    x 2.128790 0.000000 -0.013320 
#    y 0.000000 1.800880 0.000000 
#    z -0.013320 0.000000 1.845900 
# 
# From -- ./inp_files/270516.got.cif
#   From: 2010.05.17/outbox.cif.g08.bks.cpg/sg12_136_cif.got.tgz:270516.got - 2010.06.03 13:09:07.
