data_PCOD9221281
_publ_section_title
;
Structure prediction by ZEFSAII (Michael W. Deem and Ramdas Pophale) SiO2 
 PCOD9221281
Probable space group: C 2/M
;
_chemical_formula_sum "Si O2"
_cell_formula_units_Z 48
_cell_length_a 18.846962
_cell_length_b 9.101110
_cell_length_c 19.298264
_cell_angle_alpha 90.000000
_cell_angle_beta 118.505759
_cell_angle_gamma 90.000000
_cell_volume 2908.899805
_symmetry_space_group_name_H-M "C 2/M"
_symmetry_group_IT_number 12
_symmetry_cell_setting 'monoclinic'
loop_
_space_group_symop_operation_xyz
x,y,z
-x,y,-z
-x,-y,-z
x,-y,z
1/2+x,1/2+y,z
1/2-x,1/2+y,-z
1/2-x,1/2-y,-z
1/2+x,1/2-y,z
loop_
_atom_site_type_symbol
_atom_site_label
_atom_site_fract_x
_atom_site_fract_y
_atom_site_fract_z
Si Si1 0.508334 0.325127 0.868585
Si Si2 0.953204 0.826347 0.268896
Si Si3 0.466207 0.826490 0.410708
Si Si4 0.172086 0.326535 0.996688
Si Si5 0.151139 0.672415 0.151281
Si Si6 0.690999 0.827690 0.737250
O O1 0.511412 0.500000 0.882407
O O2 0.503330 0.300607 0.783347
O O3 0.590757 0.250378 0.932077
O O4 0.431931 0.253993 0.870417
O O5 0.996648 0.761153 0.357329
O O6 0.866281 0.744404 0.230331
O O7 0.939950 0.000000 0.270930
O O8 0.500000 0.776227 0.500000
O O9 0.368816 0.811853 0.356883
O O10 0.484564 0.000000 0.411527
O O11 0.171417 0.500000 0.979596
O O12 0.250000 0.250000 0.000000
O O13 0.172172 0.311741 0.079950
O O14 0.143277 0.500000 0.163096
O O15 0.225174 0.744455 0.227289
O O16 0.703421 0.000000 0.756210
#
# Coordination Sequence:
#
# PCOD9221281 Si02
#       6
#     8   8   8   8   8   8
#     4  11  23  37  54  77 107 142 179 219 263 313
#     4   9  18  32  51  78 107 134 172 216 258 306
#     4   8  16  31  53  81 108 135 171 214 260 311
#     4  11  24  39  56  78 105 138 179 224 265 308
#     4  11  23  37  53  76 107 140 178 222 263 310
#     4   9  18  32  53  78 105 137 173 213 260 311
#
# _framework density 16.501083999999999
#
# number of rings (size 3 to 8) (size 9 to 14) (size 15 to 20)
#    1.000    1.167    0.000    3.500    0.000   11.667 
#    0.000    0.000    0.000    1.000    0.000    0.000 
#    0.000    0.000    0.000    0.000    0.000    0.000 
#
# Total GULP energy -133688.597018 kJ/mol
# GULP energy per Si atom -5570.358209 kJ/mol
# Density = 1.646353 g / cm^3
# Si number density = 16.501084 Si / 1000 Ang^3
#
#
#
# Elastic Constant Matrix: (Units=GPa)
#
#
# Indices 1 2 3 4 5 6 
#
# 1 109.9997 67.9082 35.3299 0.0000 13.0550 0.0000
# 2 67.9082 112.5925 63.1460 0.0000 2.4438 0.0000
# 3 35.3299 63.1460 79.8872 0.0000 2.4039 0.0000
# 4 0.0000 0.0000 0.0000 25.5762 0.0000 1.7322
# 5 13.0550 2.4438 2.4039 0.0000 10.2218 0.0000
# 6 0.0000 0.0000 0.0000 1.7322 0.0000 29.8152
#
#
#
# Elastic Compliance Matrix: (Units=1/GPa)
#
#
# Indices 1 2 3 4 5 6 
#
# 1 0.018017 -0.011313 0.001597 0.000000 -0.020681 0.000000
# 2 -0.011313 0.023065 -0.013594 0.000000 0.012131 0.000000
# 3 0.001597 -0.013594 0.022681 0.000000 -0.004123 0.000000
# 4 0.000000 0.000000 0.000000 0.039253 0.000000 -0.002281
# 5 -0.020681 0.012131 -0.004123 0.000000 0.122313 0.000000
# 6 0.000000 0.000000 0.000000 -0.002281 0.000000 0.033672
#
#
# Mechanical properties :
#
#
# Convention : Reuss Voigt Hill
#
# Bulk Modulus (GPa) = 58.33388 70.58306 64.45847
# Shear Modulus (GPa) = 16.05985 22.19567 19.12776
#
# Velocity S-wave (km/s) = 3.12310 3.67154 3.40837
# Velocity P-wave (km/s) = 6.95940 7.80008 7.39170
#
# Compressibility (1/GPa) = 0.01714270
#
# Stress axis : x y z
#
# Youngs Moduli (GPa) = 55.50405 43.35491 44.09074
#
# Poissons Ratio (x) = 0.49048 -0.07041
# Poissons Ratio (y) = 0.62793 0.59936
# Poissons Ratio (z) = -0.08863 0.58935
#
# Static dielectric constant tensor:
#      x y z
#    x 1.529970 0.000000 -0.004450 
#    y 0.000000 1.552730 0.000000 
#    z -0.004450 0.000000 1.569640 
# 
# From -- ./inp_files/313381.got.cif
#   From: 2010.05.17/outbox.cif.g08.bks.cpg/sg12_157_cif.got.tgz:313381.got - 2010.06.03 13:09:07.
