data_PCOD9221062
_publ_section_title
;
Structure prediction by ZEFSAII (Michael W. Deem and Ramdas Pophale) SiO2 
 PCOD9221062
Probable space group: C 2/M
;
_chemical_formula_sum "Si O2"
_cell_formula_units_Z 40
_cell_length_a 9.872028
_cell_length_b 26.292669
_cell_length_c 15.304680
_cell_angle_alpha 90.000000
_cell_angle_beta 24.020340
_cell_angle_gamma 90.000000
_cell_volume 1617.054742
_symmetry_space_group_name_H-M "C 2/M"
_symmetry_group_IT_number 12
_symmetry_cell_setting 'monoclinic'
loop_
_space_group_symop_operation_xyz
x,y,z
-x,y,-z
-x,-y,-z
x,-y,z
1/2+x,1/2+y,z
1/2-x,1/2+y,-z
1/2-x,1/2-y,-z
1/2+x,1/2-y,z
loop_
_atom_site_type_symbol
_atom_site_label
_atom_site_fract_x
_atom_site_fract_y
_atom_site_fract_z
Si Si1 0.201155 0.273729 0.292210
Si Si2 0.644570 0.860304 0.591759
Si Si3 0.806614 0.945359 0.207447
Si Si4 0.165664 0.088086 0.169166
Si Si5 0.411815 0.825142 0.904004
O O1 0.306463 0.214536 0.230510
O O2 0.000000 0.283196 0.500000
O O3 0.951779 0.301207 0.371341
O O4 0.573108 0.298108 0.067884
O O5 0.384579 0.892448 0.687128
O O6 0.565818 0.861906 0.739945
O O7 0.965041 0.891340 0.371414
O O8 0.988404 0.941031 0.193791
O O9 0.620266 0.000000 0.317815
O O10 0.000000 0.946171 0.000000
O O11 0.500000 0.060241 0.000000
O O12 0.273634 0.140960 0.061805
#
# Coordination Sequence:
#
# PCOD9221062 Si02
#       5
#     8   8   8   8   8
#     4  11  22  41  66  97 137 191 238 297 338 407
#     4  12  23  48  75  99 145 192 247 294 348 429
#     4  11  23  48  84 108 135 186 241 294 358 434
#     4  12  27  45  70 109 150 185 233 299 370 415
#     4  11  25  42  65 103 143 185 243 297 349 410
#
# _framework density 24.736328
#
# number of rings (size 3 to 8) (size 9 to 14) (size 15 to 20)
#    0.000    0.600    6.000    1.200    2.800    6.000 
#    0.000    0.000    0.000    2.400    0.000    0.000 
#    0.000    0.000    0.000    0.000    0.000    0.000 
#
# Total GULP energy -111590.519339 kJ/mol
# GULP energy per Si atom -5579.525967 kJ/mol
# Density = 2.468003 g / cm^3
# Si number density = 24.736328 Si / 1000 Ang^3
#
#
#
# Elastic Constant Matrix: (Units=GPa)
#
#
# Indices 1 2 3 4 5 6 
#
# 1 54.4720 19.8581 2.1623 0.0003 -7.0508 0.0016
# 2 19.8581 87.5468 14.5978 0.0000 -13.9967 0.0002
# 3 2.1623 14.5978 105.7185 0.0016 13.9374 -0.0012
# 4 0.0003 0.0000 0.0016 -16.8603 -0.0008 -4.2804
# 5 -7.0508 -13.9967 13.9374 -0.0008 42.3970 -0.0006
# 6 0.0016 0.0002 -0.0012 -4.2804 -0.0006 -21.0011
#
#
#
# Elastic Compliance Matrix: (Units=1/GPa)
#
#
# Indices 1 2 3 4 5 6 
#
# 1 0.020165 -0.004242 -0.000088 0.000000 0.001982 0.000001
# 2 -0.004242 0.013506 -0.002376 -0.000001 0.004534 0.000000
# 3 -0.000088 -0.002376 0.010343 0.000001 -0.004199 -0.000001
# 4 0.000000 -0.000001 0.000001 -0.062547 -0.000002 0.012748
# 5 0.001982 0.004534 -0.004199 -0.000002 0.026793 0.000000
# 6 0.000001 0.000000 -0.000001 0.012748 0.000000 -0.050215
#
#
# Mechanical properties :
#
#
# Convention : Reuss Voigt Hill
#
# Bulk Modulus (GPa) = 32.67913 35.66374 34.17144
# Shear Modulus (GPa) = -272.58131 14.98173 -128.79979
#
# Velocity S-wave (km/s) = -10.50876 2.46368 -7.22372
# Velocity P-wave (km/s) = 11.57608 4.74782 7.46538
#
# Compressibility (1/GPa) = 0.03060057
#
# Stress axis : x y z
#
# Youngs Moduli (GPa) = 49.59172 74.04195 96.68825
#
# Poissons Ratio (x) = 0.31412 0.00850
# Poissons Ratio (y) = 0.21039 0.22972
# Poissons Ratio (z) = 0.00436 0.17592
#
# Static dielectric constant tensor:
#      x y z
#    x 2.055780 0.000000 -0.115910 
#    y 0.000000 1.946830 0.000000 
#    z -0.115910 0.000000 2.063010 
# 
# From -- ./inp_files/266176.got.cif
#   From: 2010.05.17/outbox.cif.g08.bks.cpg/sg12_134_cif.got.tgz:266176.got - 2010.06.03 13:09:07.
