data_PCOD9221899
_publ_section_title
;
Structure prediction by ZEFSAII (Michael W. Deem and Ramdas Pophale) SiO2 
 PCOD9221899
Probable space group: C 2/M
;
_chemical_formula_sum "Si O2"
_cell_formula_units_Z 20
_cell_length_a 11.300590
_cell_length_b 13.931705
_cell_length_c 5.139022
_cell_angle_alpha 90.000000
_cell_angle_beta 91.220032
_cell_angle_gamma 90.000000
_cell_volume 808.886150
_symmetry_space_group_name_H-M "C 2/M"
_symmetry_group_IT_number 12
_symmetry_cell_setting 'monoclinic'
loop_
_space_group_symop_operation_xyz
x,y,z
-x,y,-z
-x,-y,-z
x,-y,z
1/2+x,1/2+y,z
1/2-x,1/2+y,-z
1/2-x,1/2-y,-z
1/2+x,1/2-y,z
loop_
_atom_site_type_symbol
_atom_site_label
_atom_site_fract_x
_atom_site_fract_y
_atom_site_fract_z
Si Si1 0.324267 0.216618 0.250870
Si Si2 0.629996 0.000000 0.631495
Si Si3 0.115116 0.000000 0.327994
Si Si4 0.500000 0.658046 0.000000
O O1 0.250000 0.250000 0.500000
O O2 0.444078 0.277122 0.221054
O O3 0.359576 0.104425 0.235096
O O4 0.250000 0.250000 0.000000
O O5 0.500000 0.000000 0.500000
O O6 0.762620 0.000000 0.505256
O O7 0.098188 0.909601 0.137340
O O8 0.000000 0.000000 0.500000
#
# Coordination Sequence:
#
# PCOD9221899 Si02
#       4
#     8   4   4   4
#     4  12  29  53  81 120 170 223 282 350 428 504
#     4  12  29  49  84 126 172 215 284 353 435 498
#     4  11  23  50  84 114 163 223 295 339 420 518
#     4  11  26  47  82 116 164 227 286 345 422 510
#
# _framework density 24.725358
#
# number of rings (size 3 to 8) (size 9 to 14) (size 15 to 20)
#    0.000    0.400    4.000    2.400    5.600    4.000 
#    0.000    0.000    0.000    0.000    0.000    0.000 
#    0.000    0.000    0.000    0.000    0.000    0.000 
#
# Total GULP energy -55887.882053 kJ/mol
# GULP energy per Si atom -5588.788205 kJ/mol
# Density = 2.466908 g / cm^3
# Si number density = 24.725358 Si / 1000 Ang^3
#
#
#
# Elastic Constant Matrix: (Units=GPa)
#
#
# Indices 1 2 3 4 5 6 
#
# 1 203.1329 73.5938 60.2836 0.0000 15.2224 0.0000
# 2 73.5938 271.4505 70.0961 0.0000 2.1901 0.0000
# 3 60.2836 70.0961 147.5547 0.0000 -4.3088 0.0000
# 4 0.0000 0.0000 0.0000 28.0754 0.0000 -4.3420
# 5 15.2224 2.1901 -4.3088 0.0000 58.8838 0.0000
# 6 0.0000 0.0000 0.0000 -4.3420 0.0000 42.3514
#
#
#
# Elastic Compliance Matrix: (Units=1/GPa)
#
#
# Indices 1 2 3 4 5 6 
#
# 1 0.006040 -0.001111 -0.001989 0.000000 -0.001666 0.000000
# 2 -0.001111 0.004409 -0.001640 0.000000 0.000003 0.000000
# 3 -0.001989 -0.001640 0.008404 0.000000 0.001190 0.000000
# 4 0.000000 0.000000 0.000000 0.036192 0.000000 0.003711
# 5 -0.001666 0.000003 0.001190 0.000000 0.017500 0.000000
# 6 0.000000 0.000000 0.000000 0.003711 0.000000 0.023992
#
#
# Mechanical properties :
#
#
# Convention : Reuss Voigt Hill
#
# Bulk Modulus (GPa) = 106.69122 114.45389 110.57255
# Shear Modulus (GPa) = 45.81207 53.73975 49.77591
#
# Velocity S-wave (km/s) = 4.30913 4.66710 4.49168
# Velocity P-wave (km/s) = 8.24635 8.68522 8.46863
#
# Compressibility (1/GPa) = 0.00937284
#
# Stress axis : x y z
#
# Youngs Moduli (GPa) = 165.55485 226.82913 118.99455
#
# Poissons Ratio (x) = 0.25192 0.23666
# Poissons Ratio (y) = 0.18386 0.19521
# Poissons Ratio (z) = 0.32926 0.37211
#
# Static dielectric constant tensor:
#      x y z
#    x 2.422970 0.000000 -0.076430 
#    y 0.000000 1.819400 0.000000 
#    z -0.076430 0.000000 1.988820 
# 
# From -- ./inp_files/4589.got.cif
#   From: 2010.05.17/outbox.cif.g08.bks.cpg/sg12_3_cif.got.tgz:4589.got - 2010.06.03 13:09:07.
