data_PCOD9221039
_publ_section_title
;
Structure prediction by ZEFSAII (Michael W. Deem and Ramdas Pophale) SiO2 
 PCOD9221039
Probable space group: C 2/M
;
_chemical_formula_sum "Si O2"
_cell_formula_units_Z 56
_cell_length_a 19.274283
_cell_length_b 20.265500
_cell_length_c 17.859497
_cell_angle_alpha 90.000000
_cell_angle_beta 22.144393
_cell_angle_gamma 90.000000
_cell_volume 2629.537332
_symmetry_space_group_name_H-M "C 2/M"
_symmetry_group_IT_number 12
_symmetry_cell_setting 'monoclinic'
loop_
_space_group_symop_operation_xyz
x,y,z
-x,y,-z
-x,-y,-z
x,-y,z
1/2+x,1/2+y,z
1/2-x,1/2+y,-z
1/2-x,1/2-y,-z
1/2+x,1/2-y,z
loop_
_atom_site_type_symbol
_atom_site_label
_atom_site_fract_x
_atom_site_fract_y
_atom_site_fract_z
Si Si1 0.045041 0.755102 0.041536
Si Si2 0.994238 0.079140 0.419611
Si Si3 0.583220 0.634748 0.729581
Si Si4 0.746557 0.578014 0.037070
Si Si5 0.547071 0.074080 0.623355
Si Si6 0.463380 0.209478 0.624696
Si Si7 0.263442 0.313980 0.571571
O O1 0.960327 0.825497 0.151907
O O2 0.942029 0.703364 0.198003
O O3 0.260640 0.761515 0.840230
O O4 0.000000 0.741571 0.000000
O O5 0.832214 0.117162 0.538924
O O6 0.000000 0.100833 0.500000
O O7 0.180219 0.096044 0.186996
O O8 0.967741 0.000000 0.444902
O O9 0.395308 0.612782 0.877962
O O10 0.732599 0.578205 0.592928
O O11 0.686762 0.680848 0.565270
O O12 0.710409 0.500000 0.068285
O O13 0.950502 0.586857 0.800617
O O14 0.483269 0.135246 0.636249
O O15 0.491245 0.000000 0.655165
O O16 0.500000 0.208700 0.500000
O O17 0.607702 0.258194 0.519566
#
# Coordination Sequence:
#
# PCOD9221039 Si02
#       7
#     8   8   8   8   8   8   8
#     4  12  24  41  64  93 128 164 205 261 317 377
#     4   9  19  38  63  91 125 165 208 255 313 379
#     4  11  22  41  63  93 124 162 211 263 308 376
#     4   9  19  37  61  89 122 165 206 254 312 363
#     4  11  23  40  65  93 127 170 215 262 312 374
#     4  12  24  43  65  93 132 167 210 263 316 376
#     4  11  24  40  65  96 126 165 211 258 321 370
#
# _framework density 21.296520999999998
#
# number of rings (size 3 to 8) (size 9 to 14) (size 15 to 20)
#    0.000    1.286    4.286    1.286    0.000    3.714 
#    0.000    0.000    0.000    3.429    0.000    0.000 
#    0.000    0.000    0.000    0.000    0.000    0.000 
#
# Total GULP energy -156450.023367 kJ/mol
# GULP energy per Si atom -5587.500835 kJ/mol
# Density = 2.124805 g / cm^3
# Si number density = 21.296521 Si / 1000 Ang^3
#
#
#
# Elastic Constant Matrix: (Units=GPa)
#
#
# Indices 1 2 3 4 5 6 
#
# 1 50.5302 15.3384 6.7546 -0.0058 8.4106 -0.0081
# 2 15.3384 83.7583 20.4483 -0.0152 2.7591 -0.0102
# 3 6.7546 20.4483 107.7895 -0.0162 4.1614 -0.0042
# 4 -0.0058 -0.0152 -0.0162 29.2517 -0.0018 5.0780
# 5 8.4106 2.7591 4.1614 -0.0018 31.9226 0.0086
# 6 -0.0081 -0.0102 -0.0042 5.0780 0.0086 24.7494
#
#
#
# Elastic Compliance Matrix: (Units=1/GPa)
#
#
# Indices 1 2 3 4 5 6 
#
# 1 0.021876 -0.003717 -0.000458 0.000001 -0.005383 0.000007
# 2 -0.003717 0.013170 -0.002271 0.000004 0.000137 0.000003
# 3 -0.000458 -0.002271 0.009774 0.000004 -0.000957 0.000000
# 4 0.000001 0.000004 0.000004 0.035449 0.000003 -0.007273
# 5 -0.005383 0.000137 -0.000957 0.000003 0.032857 -0.000014
# 6 0.000007 0.000003 0.000000 -0.007273 -0.000014 0.041897
#
#
# Mechanical properties :
#
#
# Convention : Reuss Voigt Hill
#
# Bulk Modulus (GPa) = 31.32059 36.35117 33.83588
# Shear Modulus (GPa) = 28.00252 30.48720 29.24486
#
# Velocity S-wave (km/s) = 3.63007 3.78770 3.70972
# Velocity P-wave (km/s) = 5.68408 6.01955 5.85422
#
# Compressibility (1/GPa) = 0.03192788
#
# Stress axis : x y z
#
# Youngs Moduli (GPa) = 45.71318 75.93231 102.31477
#
# Poissons Ratio (x) = 0.28223 0.04685
# Poissons Ratio (y) = 0.16991 0.23233
# Poissons Ratio (z) = 0.02093 0.17242
#
# Static dielectric constant tensor:
#      x y z
#    x 1.751190 -0.000010 -0.005950 
#    y -0.000010 1.782660 0.000010 
#    z -0.005950 0.000010 1.787120 
# 
# From -- ./inp_files/285993.got.cif
#   From: 2010.05.17/outbox.cif.g08.bks.cpg/sg12_143_cif.got.tgz:285993.got - 2010.06.03 13:09:07.
