data_PCOD9221671
_publ_section_title
;
Structure prediction by ZEFSAII (Michael W. Deem and Ramdas Pophale) SiO2 
 PCOD9221671
Probable space group: C 2/M
;
_chemical_formula_sum "Si O2"
_cell_formula_units_Z 36
_cell_length_a 18.759259
_cell_length_b 15.264589
_cell_length_c 8.904488
_cell_angle_alpha 90.000000
_cell_angle_beta 136.899292
_cell_angle_gamma 90.000000
_cell_volume 1742.249041
_symmetry_space_group_name_H-M "C 2/M"
_symmetry_group_IT_number 12
_symmetry_cell_setting 'monoclinic'
loop_
_space_group_symop_operation_xyz
x,y,z
-x,y,-z
-x,-y,-z
x,-y,z
1/2+x,1/2+y,z
1/2-x,1/2+y,-z
1/2-x,1/2-y,-z
1/2+x,1/2-y,z
loop_
_atom_site_type_symbol
_atom_site_label
_atom_site_fract_x
_atom_site_fract_y
_atom_site_fract_z
Si Si1 0.000000 0.348246 0.500000
Si Si2 0.789157 0.896832 0.264439
Si Si3 0.270767 0.902337 0.161598
Si Si4 0.661865 0.264297 0.183407
Si Si5 0.549433 0.288554 0.316104
O O1 0.893357 0.400209 0.310326
O O2 0.976004 0.287214 0.605084
O O3 0.700169 0.832079 0.192973
O O4 0.897055 0.867078 0.508462
O O5 0.769030 0.000000 0.256383
O O6 0.789377 0.879933 0.085523
O O7 0.247560 0.832088 0.254122
O O8 0.240931 0.000000 0.163916
O O9 0.632035 0.266113 0.311718
O O10 0.559123 0.299091 0.938084
#
# Coordination Sequence:
#
# PCOD9221671 Si02
#       5
#     4   8   8   8   8
#     4  12  21  42  67  94 132 172 225 264 333 390
#     4  11  23  42  66  98 131 173 220 270 326 390
#     4  11  24  41  68  98 134 174 222 274 328 390
#     4  11  23  45  65  98 134 176 217 272 334 387
#     4  11  24  40  71  95 130 176 218 272 328 392
#
# _framework density 20.662946999999999
#
# number of rings (size 3 to 8) (size 9 to 14) (size 15 to 20)
#    0.000    0.889    4.444    3.000    0.000    1.778 
#    0.000    8.333    0.000    0.000    0.000    0.000 
#    0.000    0.000    0.000    0.000    0.000    0.000 
#
# Total GULP energy -100513.014033 kJ/mol
# GULP energy per Si atom -5584.056335 kJ/mol
# Density = 2.061592 g / cm^3
# Si number density = 20.662947 Si / 1000 Ang^3
#
#
#
# Elastic Constant Matrix: (Units=GPa)
#
#
# Indices 1 2 3 4 5 6 
#
# 1 118.8099 64.0628 34.8813 0.0000 -8.9330 0.0000
# 2 64.0628 112.0657 28.8319 0.0000 -19.3709 0.0000
# 3 34.8813 28.8319 113.2473 0.0000 -5.0617 0.0000
# 4 0.0000 0.0000 0.0000 25.9647 0.0000 1.5356
# 5 -8.9330 -19.3709 -5.0617 0.0000 40.8966 0.0000
# 6 0.0000 0.0000 0.0000 1.5356 0.0000 -2.9704
#
#
#
# Elastic Compliance Matrix: (Units=1/GPa)
#
#
# Indices 1 2 3 4 5 6 
#
# 1 0.012680 -0.006807 -0.002205 0.000000 -0.000727 0.000000
# 2 -0.006807 0.013997 -0.001244 0.000000 0.004989 0.000000
# 3 -0.002205 -0.001244 0.009833 0.000000 0.000146 0.000000
# 4 0.000000 0.000000 0.000000 0.037371 0.000000 0.019320
# 5 -0.000727 0.004989 0.000146 0.000000 0.026674 0.000000
# 6 0.000000 0.000000 0.000000 0.019320 0.000000 -0.326671
#
#
# Mechanical properties :
#
#
# Convention : Reuss Voigt Hill
#
# Bulk Modulus (GPa) = 62.50926 66.63055 64.56991
# Shear Modulus (GPa) = -24.96607 27.20133 1.11763
#
# Velocity S-wave (km/s) = -3.47976 3.63220 0.73625
# Velocity P-wave (km/s) = 3.76464 7.06448 5.66036
#
# Compressibility (1/GPa) = 0.01599763
#
# Stress axis : x y z
#
# Youngs Moduli (GPa) = 78.86565 71.44439 101.70216
#
# Poissons Ratio (x) = 0.48631 0.22426
# Poissons Ratio (y) = 0.53683 0.12651
# Poissons Ratio (z) = 0.17390 0.08887
#
# Static dielectric constant tensor:
#      x y z
#    x 1.738930 0.000000 0.043970 
#    y 0.000000 1.683420 0.000000 
#    z 0.043970 0.000000 1.819600 
# 
# From -- ./inp_files/58352.got.cif
#   From: 2010.05.17/outbox.cif.g08.bks.cpg/sg12_30_cif.got.tgz:58352.got - 2010.06.03 13:09:07.
