data_PCOD9221395
_publ_section_title
;
Structure prediction by ZEFSAII (Michael W. Deem and Ramdas Pophale) SiO2 
 PCOD9221395
Probable space group: C 2/M
;
_chemical_formula_sum "Si O2"
_cell_formula_units_Z 52
_cell_length_a 16.670885
_cell_length_b 22.522439
_cell_length_c 9.274127
_cell_angle_alpha 90.000000
_cell_angle_beta 136.053079
_cell_angle_gamma 90.000000
_cell_volume 2416.581096
_symmetry_space_group_name_H-M "C 2/M"
_symmetry_group_IT_number 12
_symmetry_cell_setting 'monoclinic'
loop_
_space_group_symop_operation_xyz
x,y,z
-x,y,-z
-x,-y,-z
x,-y,z
1/2+x,1/2+y,z
1/2-x,1/2+y,-z
1/2-x,1/2-y,-z
1/2+x,1/2-y,z
loop_
_atom_site_type_symbol
_atom_site_label
_atom_site_fract_x
_atom_site_fract_y
_atom_site_fract_z
Si Si1 0.869601 0.068213 0.260885
Si Si2 0.326383 0.259026 0.803334
Si Si3 0.610359 0.434754 0.244984
Si Si4 0.000000 0.352460 0.500000
Si Si5 0.005893 0.257093 0.258553
Si Si6 0.744697 0.609360 0.179707
Si Si7 0.635833 0.338736 0.525548
O O1 0.815649 0.120515 0.285141
O O2 0.000000 0.070031 0.500000
O O3 0.831105 0.000000 0.229981
O O4 0.838168 0.086740 0.057063
O O5 0.411495 0.253249 0.775281
O O6 0.293718 0.326022 0.806738
O O7 0.219314 0.217768 0.626001
O O8 0.384499 0.234007 0.023322
O O9 0.592713 0.500000 0.289271
O O10 0.719526 0.433627 0.280869
O O11 0.628267 0.384124 0.383920
O O12 0.500000 0.422617 0.000000
O O13 0.025570 0.310651 0.394076
O O14 0.119823 0.387193 0.683603
O O15 0.013092 0.195836 0.358959
#
# Coordination Sequence:
#
# PCOD9221395 Si02
#       7
#     8   8   8   4   8   8   8
#     4  11  25  42  63  93 129 169 219 279 337 385
#     4  11  23  40  64  95 129 172 220 262 336 387
#     4  11  23  42  69  97 126 172 231 284 330 380
#     4  12  26  40  63 100 143 178 220 254 334 408
#     4  11  23  39  61  96 135 169 206 270 329 400
#     4  12  24  43  66  98 136 178 218 275 326 407
#     4  12  22  38  63  92 131 167 210 266 331 395
#
# _framework density 21.518001999999999
#
# number of rings (size 3 to 8) (size 9 to 14) (size 15 to 20)
#    0.000    0.615    3.077    6.000    3.231    3.692 
#    0.000    1.538    0.000    0.000    0.000    8.615 
#    0.000    0.000    0.000    0.000    0.000    0.000 
#
# Total GULP energy -145031.223737 kJ/mol
# GULP energy per Si atom -5578.123990 kJ/mol
# Density = 2.146903 g / cm^3
# Si number density = 21.518002 Si / 1000 Ang^3
#
#
#
# Elastic Constant Matrix: (Units=GPa)
#
#
# Indices 1 2 3 4 5 6 
#
# 1 53.4875 11.1658 16.7473 0.0000 0.3429 0.0000
# 2 11.1658 109.9547 41.5753 0.0000 -1.7996 0.0000
# 3 16.7473 41.5753 124.7600 0.0000 -9.5977 0.0000
# 4 0.0000 0.0000 0.0000 32.2896 0.0000 -7.1557
# 5 0.3429 -1.7996 -9.5977 0.0000 32.0152 0.0000
# 6 0.0000 0.0000 0.0000 -7.1557 0.0000 21.9251
#
#
#
# Elastic Compliance Matrix: (Units=1/GPa)
#
#
# Indices 1 2 3 4 5 6 
#
# 1 0.019670 -0.001129 -0.002339 0.000000 -0.000975 0.000000
# 2 -0.001129 0.010477 -0.003371 0.000000 -0.000410 0.000000
# 3 -0.002339 -0.003371 0.009663 0.000000 0.002732 0.000000
# 4 0.000000 0.000000 0.000000 0.033384 0.000000 0.010896
# 5 -0.000975 -0.000410 0.002732 0.000000 0.032042 0.000000
# 6 0.000000 0.000000 0.000000 0.010896 0.000000 0.049166
#
#
# Mechanical properties :
#
#
# Convention : Reuss Voigt Hill
#
# Bulk Modulus (GPa) = 38.26815 47.46434 42.86624
# Shear Modulus (GPa) = 28.28174 31.82690 30.05432
#
# Velocity S-wave (km/s) = 3.62930 3.85006 3.74131
# Velocity P-wave (km/s) = 5.94855 6.47069 6.21510
#
# Compressibility (1/GPa) = 0.02613139
#
# Stress axis : x y z
#
# Youngs Moduli (GPa) = 50.83799 95.44355 103.48617
#
# Poissons Ratio (x) = 0.10775 0.24208
# Poissons Ratio (y) = 0.05739 0.34890
# Poissons Ratio (z) = 0.11892 0.32179
#
# Static dielectric constant tensor:
#      x y z
#    x 1.885750 0.000000 0.001590 
#    y 0.000000 1.771790 0.000000 
#    z 0.001590 0.000000 1.801310 
# 
# From -- ./inp_files/78078.got.cif
#   From: 2010.05.17/outbox.cif.g08.bks.cpg/sg12_40_cif.got.tgz:78078.got - 2010.06.03 13:09:07.
