data_PCOD9221552
_publ_section_title
;
Structure prediction by ZEFSAII (Michael W. Deem and Ramdas Pophale) SiO2 
 PCOD9221552
Probable space group: C 2/M
;
_chemical_formula_sum "Si O2"
_cell_formula_units_Z 64
_cell_length_a 15.209337
_cell_length_b 14.700009
_cell_length_c 18.198991
_cell_angle_alpha 90.000000
_cell_angle_beta 131.574442
_cell_angle_gamma 90.000000
_cell_volume 3043.907611
_symmetry_space_group_name_H-M "C 2/M"
_symmetry_group_IT_number 12
_symmetry_cell_setting 'monoclinic'
loop_
_space_group_symop_operation_xyz
x,y,z
-x,y,-z
-x,-y,-z
x,-y,z
1/2+x,1/2+y,z
1/2-x,1/2+y,-z
1/2-x,1/2-y,-z
1/2+x,1/2-y,z
loop_
_atom_site_type_symbol
_atom_site_label
_atom_site_fract_x
_atom_site_fract_y
_atom_site_fract_z
Si Si1 0.533008 0.838854 0.939007
Si Si2 0.308482 0.895412 0.207175
Si Si3 0.791008 0.898117 0.088028
Si Si4 0.678156 0.728280 0.387258
Si Si5 0.112151 0.728655 0.613959
Si Si6 0.953086 0.598185 0.745262
Si Si7 0.040391 0.110726 0.683135
Si Si8 0.086876 0.141540 0.993176
O O1 0.672887 0.844272 0.005896
O O2 0.513816 0.731037 0.929594
O O3 0.500000 0.876243 0.000000
O O4 0.458404 0.885599 0.834892
O O5 0.361574 0.841616 0.305556
O O6 0.412619 0.902665 0.206128
O O7 0.202642 0.844730 0.107348
O O8 0.273692 0.000000 0.206608
O O9 0.866516 0.868529 0.199937
O O10 0.749520 0.000000 0.080432
O O11 0.870581 0.899220 0.059562
O O12 0.750000 0.750000 0.500000
O O13 0.772593 0.720577 0.373733
O O14 0.604955 0.817699 0.326507
O O15 0.585371 0.647995 0.355721
O O16 0.081122 0.826365 0.636262
O O17 0.000000 0.706537 0.500000
O O18 0.899115 0.500000 0.697481
O O19 0.038142 0.000000 0.669409
O O20 0.000000 0.091237 0.000000
#
# Coordination Sequence:
#
# PCOD9221552 Si02
#       8
#     8   8   8   8   8   8   8   8
#     4  11  24  39  63  97 135 183 229 280 340 410
#     4  11  24  43  69 100 136 181 235 288 347 417
#     4  11  23  41  63  92 137 178 219 279 339 408
#     4  12  26  49  74 101 139 182 235 298 366 429
#     4  12  26  49  76 101 139 182 235 299 367 429
#     4  11  24  43  69 100 137 181 233 290 351 419
#     4  11  26  47  74 109 144 187 239 296 361 434
#     4  11  24  39  63  95 135 184 229 280 337 408
#
# _framework density 21.025606
#
# number of rings (size 3 to 8) (size 9 to 14) (size 15 to 20)
#    0.000    0.750    3.750    2.625    7.000    4.000 
#    0.000    0.000    0.000    0.000    0.000    0.000 
#    0.000    0.000    0.000    0.000    0.000    0.000 
#
# Total GULP energy -178608.624481 kJ/mol
# GULP energy per Si atom -5581.519515 kJ/mol
# Density = 2.097775 g / cm^3
# Si number density = 21.025606 Si / 1000 Ang^3
#
#
#
# Elastic Constant Matrix: (Units=GPa)
#
#
# Indices 1 2 3 4 5 6 
#
# 1 90.2825 10.6242 -4.3623 0.0000 -18.5654 0.0000
# 2 10.6242 79.5539 15.9048 0.0000 -6.9627 0.0000
# 3 -4.3623 15.9048 93.2766 0.0000 -19.8372 0.0000
# 4 0.0000 0.0000 0.0000 18.3954 0.0000 32.4431
# 5 -18.5654 -6.9627 -19.8372 0.0000 33.8004 0.0000
# 6 0.0000 0.0000 0.0000 32.4431 0.0000 71.9391
#
#
#
# Elastic Compliance Matrix: (Units=1/GPa)
#
#
# Indices 1 2 3 4 5 6 
#
# 1 0.013128 -0.001548 0.002678 0.000000 0.008464 0.000000
# 2 -0.001548 0.013270 -0.002210 0.000000 0.000586 0.000000
# 3 0.002678 -0.002210 0.013070 0.000000 0.008686 0.000000
# 4 0.000000 0.000000 0.000000 0.265659 0.000000 -0.119807
# 5 0.008464 0.000586 0.008686 0.000000 0.039453 0.000000
# 6 0.000000 0.000000 0.000000 -0.119807 0.000000 0.067931
#
#
# Mechanical properties :
#
#
# Convention : Reuss Voigt Hill
#
# Bulk Modulus (GPa) = 26.80405 34.16072 30.48238
# Shear Modulus (GPa) = 11.70661 40.89007 26.29834
#
# Velocity S-wave (km/s) = 2.36218 4.41474 3.54047
# Velocity P-wave (km/s) = 4.49620 6.50147 5.58949
#
# Compressibility (1/GPa) = 0.03730779
#
# Stress axis : x y z
#
# Youngs Moduli (GPa) = 76.17108 75.35781 76.50939
#
# Poissons Ratio (x) = 0.11664 -0.20488
# Poissons Ratio (y) = 0.11790 0.16912
# Poissons Ratio (z) = -0.20398 0.16658
#
# Static dielectric constant tensor:
#      x y z
#    x 1.817270 0.000000 0.004240 
#    y 0.000000 1.792030 0.000000 
#    z 0.004240 0.000000 1.719050 
# 
# From -- ./inp_files/270695.got.cif
#   From: 2010.05.17/outbox.cif.g08.bks.cpg/sg12_136_cif.got.tgz:270695.got - 2010.06.03 13:09:07.
