data_PCOD9221026
_publ_section_title
;
Structure prediction by ZEFSAII (Michael W. Deem and Ramdas Pophale) SiO2 
 PCOD9221026
Probable space group: C 2/M
;
_chemical_formula_sum "Si O2"
_cell_formula_units_Z 56
_cell_length_a 10.925861
_cell_length_b 14.382442
_cell_length_c 18.347522
_cell_angle_alpha 90.000000
_cell_angle_beta 112.368211
_cell_angle_gamma 90.000000
_cell_volume 2666.204740
_symmetry_space_group_name_H-M "C 2/M"
_symmetry_group_IT_number 12
_symmetry_cell_setting 'monoclinic'
loop_
_space_group_symop_operation_xyz
x,y,z
-x,y,-z
-x,-y,-z
x,-y,z
1/2+x,1/2+y,z
1/2-x,1/2+y,-z
1/2-x,1/2-y,-z
1/2+x,1/2-y,z
loop_
_atom_site_type_symbol
_atom_site_label
_atom_site_fract_x
_atom_site_fract_y
_atom_site_fract_z
Si Si1 0.852522 0.819898 0.445551
Si Si2 0.821988 0.700330 0.082780
Si Si3 0.863988 0.718980 0.831864
Si Si4 0.575992 0.354518 0.269613
Si Si5 0.989979 0.000000 0.871225
Si Si6 0.177979 0.894688 0.717918
Si Si7 0.785135 0.000000 0.960146
Si Si8 0.714849 0.892205 0.560370
O O1 0.804002 0.870138 0.361752
O O2 0.766099 0.860064 0.492587
O O3 0.856756 0.706752 0.435356
O O4 0.000000 0.848870 0.500000
O O5 0.732779 0.733181 0.131451
O O6 0.801575 0.591347 0.066985
O O7 0.979174 0.721124 0.116936
O O8 0.750000 0.750000 0.000000
O O9 0.849584 0.770131 0.751126
O O10 0.803490 0.618978 0.798794
O O11 0.535734 0.415385 0.189785
O O12 0.439580 0.329831 0.278266
O O13 0.669392 0.396793 0.352517
O O14 0.886202 0.000000 0.914293
O O15 0.129792 0.000000 0.945340
O O16 0.128475 0.000000 0.713422
O O17 0.660532 0.000000 0.545084
#
# Coordination Sequence:
#
# PCOD9221026 Si02
#       8
#     8   8   8   8   4   8   4   8
#     4  11  24  41  63  96 137 178 227 280 339 409
#     4  12  27  48  69 101 138 183 226 290 348 417
#     4  12  26  45  70  99 142 177 235 282 348 409
#     4  12  21  41  69 100 131 177 229 287 336 412
#     4  11  22  40  71 103 129 179 235 278 337 425
#     4  12  25  41  67 101 140 180 226 288 349 406
#     4  11  26  42  72  99 139 177 232 279 351 417
#     4  11  23  40  66  94 132 178 228 280 340 406
#
# _framework density 21.003637999999999
#
# number of rings (size 3 to 8) (size 9 to 14) (size 15 to 20)
#    0.000    0.429    7.143    1.714    3.000    0.857 
#    0.000    0.714    0.000    2.571    0.000    0.000 
#    0.000    0.000    0.000    0.000    0.000    0.000 
#
# Total GULP energy -156037.301705 kJ/mol
# GULP energy per Si atom -5572.760775 kJ/mol
# Density = 2.095583 g / cm^3
# Si number density = 21.003638 Si / 1000 Ang^3
#
#
#
# Elastic Constant Matrix: (Units=GPa)
#
#
# Indices 1 2 3 4 5 6 
#
# 1 73.1009 7.1113 40.9829 0.0000 6.4852 0.0000
# 2 7.1113 100.9452 27.2125 0.0000 0.6829 0.0000
# 3 40.9829 27.2125 124.3193 0.0000 3.7925 0.0000
# 4 0.0000 0.0000 0.0000 18.6777 0.0000 10.1317
# 5 6.4852 0.6829 3.7925 0.0000 36.8677 0.0000
# 6 0.0000 0.0000 0.0000 10.1317 0.0000 11.1804
#
#
#
# Elastic Compliance Matrix: (Units=1/GPa)
#
#
# Indices 1 2 3 4 5 6 
#
# 1 0.017004 0.000329 -0.005604 0.000000 -0.002421 0.000000
# 2 0.000329 0.010534 -0.002414 0.000000 -0.000005 0.000000
# 3 -0.005604 -0.002414 0.010421 0.000000 -0.000042 0.000000
# 4 0.000000 0.000000 0.000000 0.105304 0.000000 -0.095426
# 5 -0.002421 -0.000005 -0.000042 0.000000 0.027554 0.000000
# 6 0.000000 0.000000 0.000000 -0.095426 0.000000 0.175918
#
#
# Mechanical properties :
#
#
# Convention : Reuss Voigt Hill
#
# Bulk Modulus (GPa) = 44.28428 49.88656 47.08542
# Shear Modulus (GPa) = 13.52670 28.21574 20.87122
#
# Velocity S-wave (km/s) = 2.54050 3.66918 3.15571
# Velocity P-wave (km/s) = 5.45302 6.46169 5.97867
#
# Compressibility (1/GPa) = 0.02258138
#
# Stress axis : x y z
#
# Youngs Moduli (GPa) = 58.80929 94.93057 95.96158
#
# Poissons Ratio (x) = -0.03124 0.53774
# Poissons Ratio (y) = -0.01936 0.23167
# Poissons Ratio (z) = 0.32955 0.22918
#
# Static dielectric constant tensor:
#      x y z
#    x 1.615240 0.000000 0.037900 
#    y 0.000000 1.831310 0.000000 
#    z 0.037900 0.000000 1.725290 
# 
# From -- ./inp_files/263456.got.cif
#   From: 2010.05.17/outbox.cif.g08.bks.cpg/sg12_132_cif.got.tgz:263456.got - 2010.06.03 13:09:07.
