data_PCOD9221241
_publ_section_title
;
Structure prediction by ZEFSAII (Michael W. Deem and Ramdas Pophale) SiO2 
 PCOD9221241
Probable space group: C 2/M
;
_chemical_formula_sum "Si O2"
_cell_formula_units_Z 32
_cell_length_a 27.837679
_cell_length_b 5.563103
_cell_length_c 8.970578
_cell_angle_alpha 90.000000
_cell_angle_beta 106.321264
_cell_angle_gamma 90.000000
_cell_volume 1333.234447
_symmetry_space_group_name_H-M "C 2/M"
_symmetry_group_IT_number 12
_symmetry_cell_setting 'monoclinic'
loop_
_space_group_symop_operation_xyz
x,y,z
-x,y,-z
-x,-y,-z
x,-y,z
1/2+x,1/2+y,z
1/2-x,1/2+y,-z
1/2-x,1/2-y,-z
1/2+x,1/2-y,z
loop_
_atom_site_type_symbol
_atom_site_label
_atom_site_fract_x
_atom_site_fract_y
_atom_site_fract_z
Si Si1 0.195223 0.248742 0.377731
Si Si2 0.780117 0.500000 0.061087
Si Si3 0.551581 0.000000 0.707576
Si Si4 0.149950 0.500000 0.593880
Si Si5 0.580658 0.500000 0.112306
Si Si6 0.989394 0.000000 0.245651
Si Si7 0.378599 0.000000 0.943744
O O1 0.191660 0.500000 0.289230
O O2 0.250000 0.250000 0.500000
O O3 0.158423 0.278729 0.486987
O O4 0.192181 0.000000 0.291881
O O5 0.803912 0.500000 0.248614
O O6 0.750000 0.750000 0.000000
O O7 0.830382 0.500000 0.007483
O O8 0.521493 0.748744 0.677341
O O9 0.597240 0.000000 0.629783
O O10 0.576784 0.000000 0.893056
O O11 0.544206 0.500000 0.221676
O O12 0.610818 0.751413 0.135177
O O13 0.547838 0.500000 0.931352
#
# Coordination Sequence:
#
# PCOD9221241 Si02
#       7
#     8   4   4   4   4   4   4
#     4   8  15  26  42  61  77  99 141 173 197 252
#     4  11  23  33  42  59  83 111 152 187 207 233
#     4   9  17  24  36  56  79 102 129 158 198 245
#     4   9  20  28  46  55  86 116 143 171 212 236
#     4   9  15  26  42  52  70  96 128 171 206 232
#     4   9  16  24  35  58  76  92 127 167 196 239
#     4   9  17  29  41  52  68 102 139 170 205 236
#
# _framework density 24.00178
#
# number of rings (size 3 to 8) (size 9 to 14) (size 15 to 20)
#    0.750    2.250    0.000    1.500    3.500    5.000 
#    0.000    0.000    0.000    0.000    0.000    0.000 
#    0.000    0.000    0.000    0.000    0.000   87.500 
#
# Total GULP energy -89280.823209 kJ/mol
# GULP energy per Si atom -5580.051451 kJ/mol
# Density = 2.394715 g / cm^3
# Si number density = 24.001780 Si / 1000 Ang^3
#
#
#
# Elastic Constant Matrix: (Units=GPa)
#
#
# Indices 1 2 3 4 5 6 
#
# 1 121.2248 91.1962 9.9753 0.0000 -19.3670 0.0000
# 2 91.1962 251.4687 15.4054 0.0000 -4.8014 0.0000
# 3 9.9753 15.4054 83.2136 0.0000 3.4729 0.0000
# 4 0.0000 0.0000 0.0000 -39.6136 0.0000 -24.8513
# 5 -19.3670 -4.8014 3.4729 0.0000 31.5948 0.0000
# 6 0.0000 0.0000 0.0000 -24.8513 0.0000 38.2854
#
#
#
# Elastic Compliance Matrix: (Units=1/GPa)
#
#
# Indices 1 2 3 4 5 6 
#
# 1 0.012858 -0.004461 -0.001021 0.000000 0.007316 0.000000
# 2 -0.004461 0.005585 -0.000422 0.000000 -0.001839 0.000000
# 3 -0.001021 -0.000422 0.012303 0.000000 -0.002042 0.000000
# 4 0.000000 0.000000 0.000000 -0.017939 0.000000 -0.011644
# 5 0.007316 -0.001839 -0.002042 0.000000 0.036080 0.000000
# 6 0.000000 0.000000 0.000000 -0.011644 0.000000 0.018561
#
#
# Mechanical properties :
#
#
# Convention : Reuss Voigt Hill
#
# Bulk Modulus (GPa) = 52.80432 76.56230 64.68331
# Shear Modulus (GPa) = 58.43244 28.67535 43.55390
#
# Velocity S-wave (km/s) = 4.93942 3.46022 4.26445
# Velocity P-wave (km/s) = 7.38772 6.92329 7.15928
#
# Compressibility (1/GPa) = 0.01893784
#
# Stress axis : x y z
#
# Youngs Moduli (GPa) = 77.77484 179.04843 81.28040
#
# Poissons Ratio (x) = 0.79867 0.08297
# Poissons Ratio (y) = 0.34693 0.03434
# Poissons Ratio (z) = 0.07940 0.07565
#
# Static dielectric constant tensor:
#      x y z
#    x 1.981090 0.000000 0.160300 
#    y 0.000000 1.931080 0.000000 
#    z 0.160300 0.000000 1.975760 
# 
# From -- ./inp_files/236060.got.cif
#   From: 2010.05.17/outbox.cif.g08.bks.cpg/sg12_119_cif.got.tgz:236060.got - 2010.06.03 13:09:07.
