data_PCOD9221774
_publ_section_title
;
Structure prediction by ZEFSAII (Michael W. Deem and Ramdas Pophale) SiO2 
 PCOD9221774
Probable space group: C 2/M
;
_chemical_formula_sum "Si O2"
_cell_formula_units_Z 46
_cell_length_a 23.762503
_cell_length_b 14.668276
_cell_length_c 7.635336
_cell_angle_alpha 90.000000
_cell_angle_beta 45.490503
_cell_angle_gamma 90.000000
_cell_volume 1897.888581
_symmetry_space_group_name_H-M "C 2/M"
_symmetry_group_IT_number 12
_symmetry_cell_setting 'monoclinic'
loop_
_space_group_symop_operation_xyz
x,y,z
-x,y,-z
-x,-y,-z
x,-y,z
1/2+x,1/2+y,z
1/2-x,1/2+y,-z
1/2-x,1/2-y,-z
1/2+x,1/2-y,z
loop_
_atom_site_type_symbol
_atom_site_label
_atom_site_fract_x
_atom_site_fract_y
_atom_site_fract_z
Si Si1 0.237252 0.609095 0.316865
Si Si2 0.441027 0.401717 0.357149
Si Si3 0.624894 0.104762 0.878273
Si Si4 0.000000 0.256282 0.000000
Si Si5 0.882621 0.349531 0.717637
Si Si6 0.397887 0.351239 0.805118
Si Si7 0.000000 0.500000 0.500000
O O1 0.237951 0.500000 0.285891
O O2 0.197728 0.624639 0.591164
O O3 0.182821 0.654650 0.287787
O O4 0.324749 0.645001 0.094911
O O5 0.431627 0.500000 0.287637
O O6 0.443058 0.313000 0.230944
O O7 0.382757 0.398554 0.650594
O O8 0.527362 0.394206 0.260720
O O9 0.597889 0.000000 0.904866
O O10 0.556275 0.177308 0.987880
O O11 0.647230 0.108818 0.033335
O O12 0.912760 0.251072 0.707555
O O13 0.949462 0.419574 0.510607
#
# Coordination Sequence:
#
# PCOD9221774 Si02
#       7
#     8   8   8   4   8   8   2
#     4  11  24  44  66  99 137 183 230 278 350 415
#     4  11  23  43  69  97 128 178 230 288 356 400
#     4  11  25  42  67 101 139 180 227 283 353 413
#     4  12  24  42  64 100 138 170 238 284 348 420
#     4  12  24  42  67 103 138 183 226 284 347 411
#     4  11  23  44  70  96 133 176 233 285 348 417
#     4  12  24  40  70 100 146 172 234 284 334 422
#
# _framework density 24.237462000000001
#
# number of rings (size 3 to 8) (size 9 to 14) (size 15 to 20)
#    0.000    0.696    3.478    5.217    2.435    0.696 
#    3.130    0.000    0.000    0.000    0.000    0.000 
#    0.000    0.000    0.000    0.000    0.000    0.000 
#
# Total GULP energy -128464.540362 kJ/mol
# GULP energy per Si atom -5585.414798 kJ/mol
# Density = 2.418230 g / cm^3
# Si number density = 24.237462 Si / 1000 Ang^3
#
#
#
# Elastic Constant Matrix: (Units=GPa)
#
#
# Indices 1 2 3 4 5 6 
#
# 1 23.5738 -14.5118 11.4360 0.0000 7.9587 0.0000
# 2 -14.5118 159.0233 34.9605 0.0000 6.0638 0.0000
# 3 11.4360 34.9605 103.0007 0.0000 18.5493 0.0000
# 4 0.0000 0.0000 0.0000 22.1963 0.0000 12.1564
# 5 7.9587 6.0638 18.5493 0.0000 34.2134 0.0000
# 6 0.0000 0.0000 0.0000 12.1564 0.0000 20.9741
#
#
#
# Elastic Compliance Matrix: (Units=1/GPa)
#
#
# Indices 1 2 3 4 5 6 
#
# 1 0.052941 0.006601 -0.006306 0.000000 -0.010066 0.000000
# 2 0.006601 0.007619 -0.003102 0.000000 -0.001204 0.000000
# 3 -0.006306 -0.003102 0.012299 0.000000 -0.004652 0.000000
# 4 0.000000 0.000000 0.000000 0.066004 0.000000 -0.038255
# 5 -0.010066 -0.001204 -0.004652 0.000000 0.034305 0.000000
# 6 0.000000 0.000000 0.000000 -0.038255 0.000000 0.069850
#
#
# Mechanical properties :
#
#
# Convention : Reuss Voigt Hill
#
# Bulk Modulus (GPa) = 14.87069 38.81856 26.84463
# Shear Modulus (GPa) = 18.44703 32.39099 25.41901
#
# Velocity S-wave (km/s) = 2.76179 3.65965 3.24195
# Velocity P-wave (km/s) = 4.03964 5.82306 5.01133
#
# Compressibility (1/GPa) = 0.06724635
#
# Stress axis : x y z
#
# Youngs Moduli (GPa) = 18.88892 131.25648 81.30488
#
# Poissons Ratio (x) = -0.86647 0.51268
# Poissons Ratio (y) = -0.12469 0.25221
# Poissons Ratio (z) = 0.11911 0.40716
#
# Static dielectric constant tensor:
#      x y z
#    x 1.916630 0.000000 0.008470 
#    y 0.000000 1.943920 0.000000 
#    z 0.008470 0.000000 2.048040 
# 
# From -- ./inp_files/105004.got.cif
#   From: 2010.05.17/outbox.cif.g08.bks.cpg/sg12_53_cif.got.tgz:105004.got - 2010.06.03 13:09:07.
