data_PCOD9221040
_publ_section_title
;
Structure prediction by ZEFSAII (Michael W. Deem and Ramdas Pophale) SiO2 
 PCOD9221040
Probable space group: C 2/M
;
_chemical_formula_sum "Si O2"
_cell_formula_units_Z 50
_cell_length_a 14.697805
_cell_length_b 31.158359
_cell_length_c 5.175550
_cell_angle_alpha 90.000000
_cell_angle_beta 58.081617
_cell_angle_gamma 90.000000
_cell_volume 2011.824121
_symmetry_space_group_name_H-M "C 2/M"
_symmetry_group_IT_number 12
_symmetry_cell_setting 'monoclinic'
loop_
_space_group_symop_operation_xyz
x,y,z
-x,y,-z
-x,-y,-z
x,-y,z
1/2+x,1/2+y,z
1/2-x,1/2+y,-z
1/2-x,1/2-y,-z
1/2+x,1/2-y,z
loop_
_atom_site_type_symbol
_atom_site_label
_atom_site_fract_x
_atom_site_fract_y
_atom_site_fract_z
Si Si1 0.500000 0.000000 0.500000
Si Si2 0.359277 0.601918 0.812103
Si Si3 0.325736 0.145828 0.702463
Si Si4 0.115740 0.185230 0.960668
Si Si5 0.070118 0.276092 0.151851
Si Si6 0.899475 0.568069 0.333830
Si Si7 0.347401 0.449944 0.347908
O O1 0.414083 0.037501 0.556392
O O2 0.231378 0.611340 0.025513
O O3 0.398101 0.650814 0.788683
O O4 0.378272 0.572003 0.032075
O O5 0.395852 0.578589 0.502851
O O6 0.226405 0.165037 0.680075
O O7 0.373352 0.182857 0.808001
O O8 0.403314 0.118013 0.408046
O O9 0.141408 0.234780 0.976580
O O10 0.000000 0.185313 0.000000
O O11 0.000000 0.259577 0.500000
O O12 0.000000 0.286016 0.000000
O O13 0.780831 0.556048 0.418296
O O14 0.000000 0.556223 0.000000
O O15 0.374393 0.500000 0.318268
#
# Coordination Sequence:
#
# PCOD9221040 Si02
#       7
#     2   8   8   8   8   8   8
#     4  12  26  44  64 106 150 192 250 296 350 456
#     4   9  23  38  67  97 129 181 225 285 348 408
#     4   9  23  46  66 103 142 189 237 295 360 434
#     4   9  21  47  75 102 136 183 250 303 367 433
#     4  11  25  44  70 107 145 189 233 301 369 444
#     4  11  26  39  65 101 144 193 242 287 361 432
#     4  11  22  41  63  95 135 177 227 279 348 423
#
# _framework density 24.853069000000001
#
# number of rings (size 3 to 8) (size 9 to 14) (size 15 to 20)
#    0.960    0.960    0.800    1.200    5.600    5.760 
#    0.000    4.000    0.000    2.880    0.000    0.000 
#    0.000    0.000    0.000    0.000    0.000    0.000 
#
# Total GULP energy -139297.409763 kJ/mol
# GULP energy per Si atom -5571.896391 kJ/mol
# Density = 2.479650 g / cm^3
# Si number density = 24.853069 Si / 1000 Ang^3
#
#
#
# Elastic Constant Matrix: (Units=GPa)
#
#
# Indices 1 2 3 4 5 6 
#
# 1 90.5180 40.9804 4.6962 0.0000 3.0039 0.0000
# 2 40.9804 192.3636 11.8164 0.0000 12.6709 0.0000
# 3 4.6962 11.8164 52.8428 0.0000 -12.4020 0.0000
# 4 0.0000 0.0000 0.0000 72.0567 0.0000 12.6914
# 5 3.0039 12.6709 -12.4020 0.0000 33.8780 0.0000
# 6 0.0000 0.0000 0.0000 12.6914 0.0000 27.2903
#
#
#
# Elastic Compliance Matrix: (Units=1/GPa)
#
#
# Indices 1 2 3 4 5 6 
#
# 1 0.012244 -0.002548 -0.000601 0.000000 -0.000353 0.000000
# 2 -0.002548 0.006024 -0.001746 0.000000 -0.002667 0.000000
# 3 -0.000601 -0.001746 0.021370 0.000000 0.008530 0.000000
# 4 0.000000 0.000000 0.000000 0.015116 0.000000 -0.007030
# 5 -0.000353 -0.002667 0.008530 0.000000 0.033669 0.000000
# 6 0.000000 0.000000 0.000000 -0.007030 0.000000 0.039912
#
#
# Mechanical properties :
#
#
# Convention : Reuss Voigt Hill
#
# Bulk Modulus (GPa) = 33.50468 50.07893 41.79180
# Shear Modulus (GPa) = 33.76644 45.19377 39.48011
#
# Velocity S-wave (km/s) = 3.68998 4.26894 3.98997
# Velocity P-wave (km/s) = 5.62716 6.67025 6.17078
#
# Compressibility (1/GPa) = 0.02984658
#
# Stress axis : x y z
#
# Youngs Moduli (GPa) = 81.67194 165.99455 46.79486
#
# Poissons Ratio (x) = 0.42300 0.02813
# Poissons Ratio (y) = 0.20812 0.08173
# Poissons Ratio (z) = 0.04909 0.28991
#
# Static dielectric constant tensor:
#      x y z
#    x 2.118590 0.000000 -0.020570 
#    y 0.000000 1.953100 0.000000 
#    z -0.020570 0.000000 2.057630 
# 
# From -- ./inp_files/18070.got.cif
#   From: 2010.05.17/outbox.cif.g08.bks.cpg/sg12_10_cif.got.tgz:18070.got - 2010.06.03 13:09:07.
