data_PCOD9221683
_publ_section_title
;
Structure prediction by ZEFSAII (Michael W. Deem and Ramdas Pophale) SiO2 
 PCOD9221683
Probable space group: C 2/M
;
_chemical_formula_sum "Si O2"
_cell_formula_units_Z 42
_cell_length_a 8.643820
_cell_length_b 14.399352
_cell_length_c 17.167806
_cell_angle_alpha 90.000000
_cell_angle_beta 63.817097
_cell_angle_gamma 90.000000
_cell_volume 1917.541279
_symmetry_space_group_name_H-M "C 2/M"
_symmetry_group_IT_number 12
_symmetry_cell_setting 'monoclinic'
loop_
_space_group_symop_operation_xyz
x,y,z
-x,y,-z
-x,-y,-z
x,-y,z
1/2+x,1/2+y,z
1/2-x,1/2+y,-z
1/2-x,1/2-y,-z
1/2+x,1/2-y,z
loop_
_atom_site_type_symbol
_atom_site_label
_atom_site_fract_x
_atom_site_fract_y
_atom_site_fract_z
Si Si1 0.760231 0.856610 0.971009
Si Si2 0.429553 0.174403 0.304065
Si Si3 0.472333 0.320802 0.588888
Si Si4 0.788183 0.000000 0.455313
Si Si5 0.076093 0.395554 0.858088
Si Si6 0.946979 0.500000 0.638684
Si Si7 0.000000 0.000000 0.000000
O O1 0.718528 0.865258 0.888911
O O2 0.923332 0.917373 0.958973
O O3 0.750000 0.750000 0.000000
O O4 0.601025 0.900242 0.054736
O O5 0.477387 0.261505 0.346802
O O6 0.447353 0.175879 0.207294
O O7 0.227655 0.153550 0.362052
O O8 0.546421 0.090888 0.309950
O O9 0.500000 0.267436 0.500000
O O10 0.594981 0.409813 0.558120
O O11 0.623206 0.000000 0.548675
O O12 0.710512 0.000000 0.385816
O O13 0.115496 0.500000 0.819249
#
# Coordination Sequence:
#
# PCOD9221683 Si02
#       7
#     8   8   8   4   8   4   2
#     4  11  24  45  74 105 138 184 231 283 354 426
#     4  12  26  42  69 100 138 177 231 287 345 400
#     4  12  25  45  67  99 135 183 231 285 343 414
#     4  11  24  43  69  93 132 182 237 273 345 418
#     4  11  23  48  67  93 146 181 216 282 350 404
#     4  11  23  42  67  99 128 179 227 288 336 400
#     4  12  20  42  78 110 130 190 242 280 344 440
#
# _framework density 21.903047000000001
#
# number of rings (size 3 to 8) (size 9 to 14) (size 15 to 20)
#    0.000    0.571    4.762    4.286    5.333    0.000 
#    0.000    1.905    0.000    0.000    0.000    0.000 
#    0.000    0.000    0.000    0.000    0.000    0.000 
#
# Total GULP energy -117178.804493 kJ/mol
# GULP energy per Si atom -5579.943071 kJ/mol
# Density = 2.185320 g / cm^3
# Si number density = 21.903047 Si / 1000 Ang^3
#
#
#
# Elastic Constant Matrix: (Units=GPa)
#
#
# Indices 1 2 3 4 5 6 
#
# 1 90.2181 24.7899 27.1369 0.0000 41.6152 0.0000
# 2 24.7899 132.7204 13.7597 0.0000 30.9352 0.0000
# 3 27.1369 13.7597 99.4893 0.0000 46.9100 0.0000
# 4 0.0000 0.0000 0.0000 -4.2513 0.0000 -7.4146
# 5 41.6152 30.9352 46.9100 0.0000 47.7123 0.0000
# 6 0.0000 0.0000 0.0000 -7.4146 0.0000 2.2106
#
#
#
# Elastic Compliance Matrix: (Units=1/GPa)
#
#
# Indices 1 2 3 4 5 6 
#
# 1 0.020012 0.001209 0.005544 0.000000 -0.023689 0.000000
# 2 0.001209 0.009378 0.003239 0.000000 -0.010320 0.000000
# 3 0.005544 0.003239 0.021180 0.000000 -0.027759 0.000000
# 4 0.000000 0.000000 0.000000 -0.034340 0.000000 -0.115179
# 5 -0.023689 -0.010320 -0.027759 0.000000 0.075604 0.000000
# 6 0.000000 0.000000 0.000000 -0.115179 0.000000 0.066040
#
#
# Mechanical properties :
#
#
# Convention : Reuss Voigt Hill
#
# Bulk Modulus (GPa) = 14.17366 50.42233 32.29800
# Shear Modulus (GPa) = 30.97727 26.25039 28.61383
#
# Velocity S-wave (km/s) = 3.76479 3.46566 3.61832
# Velocity P-wave (km/s) = 5.03818 6.25181 5.67752
#
# Compressibility (1/GPa) = 0.07055339
#
# Stress axis : x y z
#
# Youngs Moduli (GPa) = 49.97121 106.62821 47.21446
#
# Poissons Ratio (x) = -0.12891 -0.26175
# Poissons Ratio (y) = -0.06041 -0.15293
# Poissons Ratio (z) = -0.27703 -0.34536
#
# Static dielectric constant tensor:
#      x y z
#    x 1.787280 0.000000 0.003270 
#    y 0.000000 1.833420 0.000000 
#    z 0.003270 0.000000 1.825930 
# 
# From -- ./inp_files/255308.got.cif
#   From: 2010.05.17/outbox.cif.g08.bks.cpg/sg12_128_cif.got.tgz:255308.got - 2010.06.03 13:09:07.
