data_PCOD9221402
_publ_section_title
;
Structure prediction by ZEFSAII (Michael W. Deem and Ramdas Pophale) SiO2 
 PCOD9221402
Probable space group: C 2/M
;
_chemical_formula_sum "Si O2"
_cell_formula_units_Z 48
_cell_length_a 17.659084
_cell_length_b 17.952836
_cell_length_c 14.896922
_cell_angle_alpha 90.000000
_cell_angle_beta 150.600302
_cell_angle_gamma 90.000000
_cell_volume 2318.409086
_symmetry_space_group_name_H-M "C 2/M"
_symmetry_group_IT_number 12
_symmetry_cell_setting 'monoclinic'
loop_
_space_group_symop_operation_xyz
x,y,z
-x,y,-z
-x,-y,-z
x,-y,z
1/2+x,1/2+y,z
1/2-x,1/2+y,-z
1/2-x,1/2-y,-z
1/2+x,1/2-y,z
loop_
_atom_site_type_symbol
_atom_site_label
_atom_site_fract_x
_atom_site_fract_y
_atom_site_fract_z
Si Si1 0.424182 0.200570 0.830102
Si Si2 0.940492 0.128149 0.843970
Si Si3 0.948024 0.204184 0.549747
Si Si4 0.431697 0.156042 0.204721
Si Si5 0.395952 0.413603 0.166448
Si Si6 0.898679 0.416136 0.475998
O O1 0.486748 0.285355 0.886036
O O2 0.238571 0.203315 0.640265
O O3 0.483401 0.160563 0.802431
O O4 0.500000 0.170177 0.000000
O O5 0.756869 0.125699 0.661571
O O6 0.004552 0.088584 0.822519
O O7 0.000000 0.096929 0.000000
O O8 0.000000 0.210576 0.500000
O O9 0.020363 0.271229 0.685990
O O10 0.009471 0.127783 0.657680
O O11 0.495657 0.087536 0.328299
O O12 0.252917 0.138614 0.005115
O O13 0.357691 0.500000 0.147040
O O14 0.856220 0.500000 0.406388
O O15 0.000000 0.383716 0.500000
#
# Coordination Sequence:
#
# PCOD9221402 Si02
#       6
#     8   8   8   8   8   8
#     4  11  24  42  68 102 132 167 221 279 334 388
#     4  11  23  39  64  95 134 173 218 274 332 393
#     4  12  25  43  72 101 131 174 222 278 328 390
#     4  12  23  43  68  97 129 175 222 273 326 392
#     4  12  27  44  66  98 136 179 222 272 334 397
#     4  11  23  39  62  96 137 176 216 268 331 397
#
# _framework density 20.703852000000001
#
# number of rings (size 3 to 8) (size 9 to 14) (size 15 to 20)
#    0.000    0.500    3.333    5.500    4.667    3.000 
#    0.000    0.833    0.000    3.500    0.000    0.000 
#    0.000    0.000    0.000    0.000    0.000    0.000 
#
# Total GULP energy -134126.270509 kJ/mol
# GULP energy per Si atom -5588.594605 kJ/mol
# Density = 2.065673 g / cm^3
# Si number density = 20.703852 Si / 1000 Ang^3
#
#
#
# Elastic Constant Matrix: (Units=GPa)
#
#
# Indices 1 2 3 4 5 6 
#
# 1 179.5273 43.6760 62.0598 0.0000 -6.9290 0.0000
# 2 43.6760 73.2633 37.2168 0.0000 -6.9409 0.0000
# 3 62.0598 37.2168 134.3548 0.0000 -3.0017 0.0000
# 4 0.0000 0.0000 0.0000 -3.2086 0.0000 55.0931
# 5 -6.9290 -6.9409 -3.0017 0.0000 40.2300 0.0000
# 6 0.0000 0.0000 0.0000 55.0931 0.0000 -68.2601
#
#
#
# Elastic Compliance Matrix: (Units=1/GPa)
#
#
# Indices 1 2 3 4 5 6 
#
# 1 0.007169 -0.002964 -0.002478 0.000000 0.000538 0.000000
# 2 -0.002964 0.017348 -0.003387 0.000000 0.002230 0.000000
# 3 -0.002478 -0.003387 0.009519 0.000000 -0.000301 0.000000
# 4 0.000000 0.000000 0.000000 0.024238 0.000000 0.019563
# 5 0.000538 0.002230 -0.000301 0.000000 0.025312 0.000000
# 6 0.000000 0.000000 0.000000 0.019563 0.000000 0.001139
#
#
# Mechanical properties :
#
#
# Convention : Reuss Voigt Hill
#
# Bulk Modulus (GPa) = 61.05605 74.78340 67.91973
# Shear Modulus (GPa) = 46.36420 10.03179 28.19800
#
# Velocity S-wave (km/s) = 4.73736 2.20361 3.69449
# Velocity P-wave (km/s) = 7.71218 6.53249 7.14672
#
# Compressibility (1/GPa) = 0.01637839
#
# Stress axis : x y z
#
# Youngs Moduli (GPa) = 139.49549 57.64415 105.05160
#
# Poissons Ratio (x) = 0.17084 0.26035
# Poissons Ratio (y) = 0.41342 0.35577
# Poissons Ratio (z) = 0.34571 0.19522
#
# Static dielectric constant tensor:
#      x y z
#    x 1.614720 0.000000 -0.188410 
#    y 0.000000 1.754290 0.000000 
#    z -0.188410 0.000000 1.399370 
# 
# From -- ./inp_files/112953.got.cif
#   From: 2010.05.17/outbox.cif.g08.bks.cpg/sg12_57_cif.got.tgz:112953.got - 2010.06.03 13:09:07.
