data_PCOD9221363
_publ_section_title
;
Structure prediction by ZEFSAII (Michael W. Deem and Ramdas Pophale) SiO2 
 PCOD9221363
Probable space group: C 2/M
;
_chemical_formula_sum "Si O2"
_cell_formula_units_Z 56
_cell_length_a 14.800391
_cell_length_b 8.241276
_cell_length_c 30.252786
_cell_angle_alpha 90.000000
_cell_angle_beta 126.466472
_cell_angle_gamma 90.000000
_cell_volume 2967.561190
_symmetry_space_group_name_H-M "C 2/M"
_symmetry_group_IT_number 12
_symmetry_cell_setting 'monoclinic'
loop_
_space_group_symop_operation_xyz
x,y,z
-x,y,-z
-x,-y,-z
x,-y,z
1/2+x,1/2+y,z
1/2-x,1/2+y,-z
1/2-x,1/2-y,-z
1/2+x,1/2-y,z
loop_
_atom_site_type_symbol
_atom_site_label
_atom_site_fract_x
_atom_site_fract_y
_atom_site_fract_z
Si Si1 0.215758 0.189191 0.441361
Si Si2 0.906243 0.189759 0.437369
Si Si3 0.084624 0.303824 0.062638
Si Si4 0.466553 0.809316 0.360938
Si Si5 0.205637 0.303973 0.764346
Si Si6 0.166819 0.304070 0.853422
Si Si7 0.546080 0.195714 0.151697
O O1 0.250000 0.250000 0.500000
O O2 0.287949 0.286402 0.426699
O O3 0.084532 0.217370 0.395540
O O4 0.243837 0.000000 0.446126
O O5 0.914529 0.284786 0.394249
O O6 0.000000 0.245762 0.500000
O O7 0.928164 0.000000 0.434641
O O8 0.083492 0.500000 0.062487
O O9 0.212622 0.248743 0.092547
O O10 0.046733 0.248247 0.100659
O O11 0.000000 0.247119 0.000000
O O12 0.380500 0.750382 0.298457
O O13 0.488660 0.000000 0.359996
O O14 0.207119 0.500000 0.764673
O O15 0.167065 0.249574 0.802161
O O16 0.332919 0.245706 0.793997
O O17 0.163370 0.500000 0.852249
O O18 0.060192 0.245422 0.850729
O O19 0.541273 0.000000 0.149792
#
# Coordination Sequence:
#
# PCOD9221363 Si02
#       7
#     8   8   8   8   8   8   8
#     4  12  24  39  60  85 113 146 182 223 274 332
#     4  11  23  39  60  84 110 143 182 223 272 329
#     4   9  18  32  49  75 111 145 181 226 272 319
#     4  11  23  39  59  84 114 146 182 228 281 339
#     4   9  20  37  55  78 107 138 176 224 273 320
#     4   9  18  34  54  76 105 141 181 224 268 319
#     4   9  18  33  54  77 104 144 185 223 271 323
#
# _framework density 18.870716000000002
#
# number of rings (size 3 to 8) (size 9 to 14) (size 15 to 20)
#    0.000    2.000    1.429    2.143    0.000    4.286 
#    0.000    1.429    0.000    0.000    0.000    0.000 
#    0.000    0.000    0.000    0.000    0.000    0.000 
#
# Total GULP energy -156332.915124 kJ/mol
# GULP energy per Si atom -5583.318397 kJ/mol
# Density = 1.882776 g / cm^3
# Si number density = 18.870716 Si / 1000 Ang^3
#
#
#
# Elastic Constant Matrix: (Units=GPa)
#
#
# Indices 1 2 3 4 5 6 
#
# 1 151.0023 -2.1287 69.0571 0.0000 17.0823 0.0000
# 2 -2.1287 18.4970 11.0143 0.0000 -0.1207 0.0000
# 3 69.0571 11.0143 163.9654 0.0000 17.4202 0.0000
# 4 0.0000 0.0000 0.0000 24.0968 0.0000 7.7619
# 5 17.0823 -0.1207 17.4202 0.0000 14.7261 0.0000
# 6 0.0000 0.0000 0.0000 7.7619 0.0000 22.7065
#
#
#
# Elastic Compliance Matrix: (Units=1/GPa)
#
#
# Indices 1 2 3 4 5 6 
#
# 1 0.008878 0.002916 -0.003252 0.000000 -0.006427 0.000000
# 2 0.002916 0.057687 -0.005483 0.000000 0.003576 0.000000
# 3 -0.003252 -0.005483 0.008510 0.000000 -0.006340 0.000000
# 4 0.000000 0.000000 0.000000 0.046634 0.000000 -0.015941
# 5 -0.006427 0.003576 -0.006340 0.000000 0.082892 0.000000
# 6 0.000000 0.000000 0.000000 -0.015941 0.000000 0.049490
#
#
# Mechanical properties :
#
#
# Convention : Reuss Voigt Hill
#
# Bulk Modulus (GPa) = 15.76369 54.37223 35.06796
# Shear Modulus (GPa) = 17.42923 29.34068 23.38495
#
# Velocity S-wave (km/s) = 3.04240 3.94741 3.52407
# Velocity P-wave (km/s) = 4.55118 7.04639 5.93148
#
# Compressibility (1/GPa) = 0.06343692
#
# Stress axis : x y z
#
# Youngs Moduli (GPa) = 112.63908 17.33498 117.50269
#
# Poissons Ratio (x) = -0.05055 0.38213
# Poissons Ratio (y) = -0.32849 0.64430
# Poissons Ratio (z) = 0.36632 0.09505
#
# Static dielectric constant tensor:
#      x y z
#    x 1.633740 0.000000 -0.007510 
#    y 0.000000 1.651940 0.000000 
#    z -0.007510 0.000000 1.634980 
# 
# From -- ./inp_files/375121.got.cif
#   From: 2010.05.17/outbox.cif.g08.bks.cpg/sg12_188_cif.got.tgz:375121.got - 2010.06.03 13:09:07.
