data_PCOD9221357
_publ_section_title
;
Structure prediction by ZEFSAII (Michael W. Deem and Ramdas Pophale) SiO2 
 PCOD9221357
Probable space group: C 2/M
;
_chemical_formula_sum "Si O2"
_cell_formula_units_Z 44
_cell_length_a 11.122682
_cell_length_b 28.903787
_cell_length_c 11.845936
_cell_angle_alpha 90.000000
_cell_angle_beta 143.926461
_cell_angle_gamma 90.000000
_cell_volume 2242.428060
_symmetry_space_group_name_H-M "C 2/M"
_symmetry_group_IT_number 12
_symmetry_cell_setting 'monoclinic'
loop_
_space_group_symop_operation_xyz
x,y,z
-x,y,-z
-x,-y,-z
x,-y,z
1/2+x,1/2+y,z
1/2-x,1/2+y,-z
1/2-x,1/2-y,-z
1/2+x,1/2-y,z
loop_
_atom_site_type_symbol
_atom_site_label
_atom_site_fract_x
_atom_site_fract_y
_atom_site_fract_z
Si Si1 0.000000 0.683210 0.000000
Si Si2 0.495506 0.250081 0.196218
Si Si3 0.642382 0.813274 0.501665
Si Si4 0.742967 0.900320 0.436415
Si Si5 0.236814 0.500000 0.424027
Si Si6 0.222958 0.101195 0.809886
Si Si7 0.770259 0.000000 0.181953
O O1 0.835888 0.647974 0.930576
O O2 0.922407 0.716501 0.841580
O O3 0.547978 0.228375 0.357009
O O4 0.627735 0.297155 0.290288
O O5 0.250000 0.250000 0.000000
O O6 0.500000 0.821448 0.500000
O O7 0.640239 0.857769 0.419555
O O8 0.740424 0.898762 0.298174
O O9 0.982932 0.896700 0.647882
O O10 0.661091 0.950763 0.410355
O O11 0.211049 0.500000 0.269073
O O12 0.482520 0.500000 0.630107
O O13 0.293436 0.050862 0.910567
#
# Coordination Sequence:
#
# PCOD9221357 Si02
#       7
#     4   8   8   8   4   8   4
#     4  12  20  33  52  80 104 135 180 230 278 326
#     4  11  24  40  56  79 109 146 189 232 277 326
#     4  11  23  39  58  81 111 148 185 227 278 331
#     4   9  16  33  51  79 104 142 179 221 271 326
#     4   7  12  24  51  72 105 135 175 219 263 321
#     4   9  17  28  53  77 110 137 176 222 275 327
#     4   7  12  25  42  78 107 138 164 214 280 325
#
# _framework density 19.621587999999999
#
# number of rings (size 3 to 8) (size 9 to 14) (size 15 to 20)
#    0.000    2.364    1.818    4.364    0.000    1.818 
#    0.000    0.455    0.000    0.000    0.000    0.000 
#    0.000    8.000    0.000    0.000    0.000    0.091 
#
# Total GULP energy -122592.751306 kJ/mol
# GULP energy per Si atom -5572.397787 kJ/mol
# Density = 1.957693 g / cm^3
# Si number density = 19.621588 Si / 1000 Ang^3
#
#
#
# Elastic Constant Matrix: (Units=GPa)
#
#
# Indices 1 2 3 4 5 6 
#
# 1 63.1977 22.1324 2.3762 0.0000 1.1147 0.0000
# 2 22.1324 107.6740 -2.3668 0.0000 -3.4297 0.0000
# 3 2.3762 -2.3668 46.5596 0.0000 14.6106 0.0000
# 4 0.0000 0.0000 0.0000 23.1053 0.0000 -1.1928
# 5 1.1147 -3.4297 14.6106 0.0000 23.6576 0.0000
# 6 0.0000 0.0000 0.0000 -1.1928 0.0000 10.5740
#
#
#
# Elastic Compliance Matrix: (Units=1/GPa)
#
#
# Indices 1 2 3 4 5 6 
#
# 1 0.017115 -0.003562 -0.000793 0.000000 -0.000833 0.000000
# 2 -0.003562 0.010072 0.000227 0.000000 0.001488 0.000000
# 3 -0.000793 0.000227 0.026678 0.000000 -0.016406 0.000000
# 4 0.000000 0.000000 0.000000 0.043534 0.000000 0.004911
# 5 -0.000833 0.001488 -0.016406 0.000000 0.052657 0.000000
# 6 0.000000 0.000000 0.000000 0.004911 0.000000 0.095125
#
#
# Mechanical properties :
#
#
# Convention : Reuss Voigt Hill
#
# Bulk Modulus (GPa) = 21.92564 29.07942 25.50253
# Shear Modulus (GPa) = 18.61225 24.48669 21.54947
#
# Velocity S-wave (km/s) = 3.08321 3.53646 3.31759
# Velocity P-wave (km/s) = 4.88604 5.61495 5.26313
#
# Compressibility (1/GPa) = 0.04560869
#
# Stress axis : x y z
#
# Youngs Moduli (GPa) = 58.42721 99.28668 37.48392
#
# Poissons Ratio (x) = 0.35366 0.02973
# Poissons Ratio (y) = 0.20812 -0.00850
# Poissons Ratio (z) = 0.04634 -0.02253
#
# Static dielectric constant tensor:
#      x y z
#    x 1.653360 0.000000 0.042160 
#    y 0.000000 1.759570 0.000000 
#    z 0.042160 0.000000 1.753370 
# 
# From -- ./inp_files/137098.got.cif
#   From: 2010.05.17/outbox.cif.g08.bks.cpg/sg12_69_cif.got.tgz:137098.got - 2010.06.03 13:09:07.
