data_PCOD9221845
_publ_section_title
;
Structure prediction by ZEFSAII (Michael W. Deem and Ramdas Pophale) SiO2 
 PCOD9221845
Probable space group: C 2/M
;
_chemical_formula_sum "Si O2"
_cell_formula_units_Z 56
_cell_length_a 9.702062
_cell_length_b 14.673558
_cell_length_c 22.997720
_cell_angle_alpha 90.000000
_cell_angle_beta 62.399359
_cell_angle_gamma 90.000000
_cell_volume 2901.450865
_symmetry_space_group_name_H-M "C 2/M"
_symmetry_group_IT_number 12
_symmetry_cell_setting 'monoclinic'
loop_
_space_group_symop_operation_xyz
x,y,z
-x,y,-z
-x,-y,-z
x,-y,z
1/2+x,1/2+y,z
1/2-x,1/2+y,-z
1/2-x,1/2-y,-z
1/2+x,1/2-y,z
loop_
_atom_site_type_symbol
_atom_site_label
_atom_site_fract_x
_atom_site_fract_y
_atom_site_fract_z
Si Si1 0.949352 0.758723 0.744503
Si Si2 0.854725 0.894561 0.370689
Si Si3 0.145782 0.388764 0.510637
Si Si4 0.905000 0.190101 0.959026
Si Si5 0.472911 0.000000 0.105336
Si Si6 0.894683 0.693665 0.170188
Si Si7 0.950180 0.604682 0.652401
Si Si8 0.255141 0.500000 0.960965
O O1 0.789581 0.796720 0.801939
O O2 0.918630 0.669506 0.712044
O O3 0.023685 0.832218 0.686340
O O4 0.063013 0.729466 0.774075
O O5 0.801083 0.862134 0.445633
O O6 0.697312 0.893821 0.362385
O O7 0.906729 0.000000 0.364153
O O8 0.144185 0.500000 0.509409
O O9 0.000000 0.357298 0.500000
O O10 0.101188 0.364542 0.585145
O O11 0.854929 0.091661 0.945281
O O12 0.014213 0.243406 0.893038
O O13 0.750000 0.250000 0.000000
O O14 0.000000 0.179972 0.000000
O O15 0.450047 0.909219 0.147458
O O16 0.346189 0.000000 0.078005
O O17 0.636934 0.000000 0.039133
O O18 0.973208 0.500000 0.665865
#
# Coordination Sequence:
#
# PCOD9221845 Si02
#       8
#     8   8   8   8   4   8   8   4
#     4  12  24  41  57  90 126 169 203 247 301 373
#     4   9  18  36  59  86 118 159 209 255 301 362
#     4   7  12  27  56  85 109 151 206 259 304 347
#     4  12  24  46  71  98 129 159 210 264 304 363
#     4  11  24  44  70  94 128 161 201 245 322 376
#     4  12  27  43  63  92 126 167 202 245 306 373
#     4   9  18  36  59  83 120 160 207 258 304 357
#     4  11  23  44  74 102 120 160 201 262 316 356
#
# _framework density 19.300688999999998
#
# number of rings (size 3 to 8) (size 9 to 14) (size 15 to 20)
#    0.000    1.714    2.857    4.500    2.000    0.571 
#    2.571    0.000    0.000    0.000    0.000    3.000 
#    0.000    0.000    0.000    0.000    0.000    0.000 
#
# Total GULP energy -156312.878455 kJ/mol
# GULP energy per Si atom -5582.602802 kJ/mol
# Density = 1.925676 g / cm^3
# Si number density = 19.300689 Si / 1000 Ang^3
#
#
#
# Elastic Constant Matrix: (Units=GPa)
#
#
# Indices 1 2 3 4 5 6 
#
# 1 33.7198 5.3203 -0.0514 0.0000 -15.2958 0.0000
# 2 5.3203 109.4776 39.4734 0.0000 -23.9973 0.0000
# 3 -0.0514 39.4734 87.8716 0.0000 -25.6125 0.0000
# 4 0.0000 0.0000 0.0000 34.5278 0.0000 -6.0441
# 5 -15.2958 -23.9973 -25.6125 0.0000 24.5035 0.0000
# 6 0.0000 0.0000 0.0000 -6.0441 0.0000 -4.9944
#
#
#
# Elastic Compliance Matrix: (Units=1/GPa)
#
#
# Indices 1 2 3 4 5 6 
#
# 1 0.051171 0.003645 0.012575 0.000000 0.048656 0.000000
# 2 0.003645 0.012368 -0.001956 0.000000 0.012343 0.000000
# 3 0.012575 -0.001956 0.020128 0.000000 0.026973 0.000000
# 4 0.000000 0.000000 0.000000 0.023899 0.000000 -0.028922
# 5 0.048656 0.012343 0.026973 0.000000 0.111465 0.000000
# 6 0.000000 0.000000 0.000000 -0.028922 0.000000 -0.165224
#
#
# Mechanical properties :
#
#
# Convention : Reuss Voigt Hill
#
# Bulk Modulus (GPa) = 8.91311 35.61705 22.26508
# Shear Modulus (GPa) = 79.76998 23.22915 51.49956
#
# Velocity S-wave (km/s) = 6.43582 3.47297 5.17114
# Velocity P-wave (km/s) = 7.73657 5.88013 6.87133
#
# Compressibility (1/GPa) = 0.11219427
#
# Stress axis : x y z
#
# Youngs Moduli (GPa) = 19.54214 80.85369 49.68111
#
# Poissons Ratio (x) = -0.29467 -0.62473
# Poissons Ratio (y) = -0.07122 0.09718
# Poissons Ratio (z) = -0.24574 0.15816
#
# Static dielectric constant tensor:
#      x y z
#    x 1.661090 0.000000 -0.007920 
#    y 0.000000 1.657660 0.000000 
#    z -0.007920 0.000000 1.683770 
# 
# From -- ./inp_files/332888.got.cif
#   From: 2010.05.17/outbox.cif.g08.bks.cpg/sg12_167_cif.got.tgz:332888.got - 2010.06.03 13:09:07.
