data_PCOD9221529
_publ_section_title
;
Structure prediction by ZEFSAII (Michael W. Deem and Ramdas Pophale) SiO2 
 PCOD9221529
Probable space group: C 2/M
;
_chemical_formula_sum "Si O2"
_cell_formula_units_Z 56
_cell_length_a 9.588135
_cell_length_b 29.550314
_cell_length_c 10.580708
_cell_angle_alpha 90.000000
_cell_angle_beta 63.267099
_cell_angle_gamma 90.000000
_cell_volume 2677.426092
_symmetry_space_group_name_H-M "C 2/M"
_symmetry_group_IT_number 12
_symmetry_cell_setting 'monoclinic'
loop_
_space_group_symop_operation_xyz
x,y,z
-x,y,-z
-x,-y,-z
x,-y,z
1/2+x,1/2+y,z
1/2-x,1/2+y,-z
1/2-x,1/2-y,-z
1/2+x,1/2-y,z
loop_
_atom_site_type_symbol
_atom_site_label
_atom_site_fract_x
_atom_site_fract_y
_atom_site_fract_z
Si Si1 0.901586 0.162605 0.168687
Si Si2 0.312895 0.050718 0.055153
Si Si3 0.330168 0.237934 0.101449
Si Si4 0.777997 0.410191 0.337264
Si Si5 0.661183 0.500000 0.510284
Si Si6 0.847883 0.500000 0.654025
Si Si7 0.639359 0.904540 0.211719
Si Si8 0.909067 0.824794 0.652054
O O1 0.858269 0.215044 0.162934
O O2 0.747653 0.131565 0.235680
O O3 0.990616 0.159809 0.266254
O O4 0.000000 0.150653 0.000000
O O5 0.247349 0.068136 0.212514
O O6 0.257445 0.000000 0.047026
O O7 0.500000 0.047668 0.000000
O O8 0.290701 0.087196 0.955888
O O9 0.225110 0.205460 0.228907
O O10 0.500000 0.217427 0.000000
O O11 0.250000 0.250000 0.000000
O O12 0.746846 0.453032 0.439210
O O13 0.666074 0.367613 0.389593
O O14 0.956150 0.393345 0.277041
O O15 0.500000 0.500000 0.500000
O O16 0.679993 0.500000 0.652510
O O17 0.857501 0.454295 0.729008
O O18 0.000000 0.500000 0.500000
O O19 0.000000 0.800159 0.500000
#
# Coordination Sequence:
#
# PCOD9221529 Si02
#       8
#     8   8   8   8   4   4   8   8
#     4  11  25  47  71 104 142 179 232 296 357 434
#     4   9  17  33  58  91 122 163 228 290 329 385
#     4  11  24  50  82 104 137 190 236 286 361 442
#     4  11  23  41  67  95 134 186 230 282 353 422
#     4  12  26  43  63  88 133 193 236 273 349 421
#     4  12  24  43  64  89 135 187 241 285 338 422
#     4  11  23  40  68  96 133 178 238 295 340 410
#     4  12  28  46  71 109 150 179 232 298 362 430
#
# _framework density 20.915609
#
# number of rings (size 3 to 8) (size 9 to 14) (size 15 to 20)
#    0.000    1.000    5.714    1.286    6.000    1.143 
#    0.000    1.071    0.000    0.000    0.000    0.000 
#    0.000    0.000    0.000    0.000    0.000    0.000 
#
# Total GULP energy -156343.342664 kJ/mol
# GULP energy per Si atom -5583.690809 kJ/mol
# Density = 2.086800 g / cm^3
# Si number density = 20.915609 Si / 1000 Ang^3
#
#
#
# Elastic Constant Matrix: (Units=GPa)
#
#
# Indices 1 2 3 4 5 6 
#
# 1 127.4308 34.0967 33.2679 0.0000 -1.3528 0.0000
# 2 34.0967 77.5267 22.6392 0.0000 -15.8546 0.0000
# 3 33.2679 22.6392 86.9275 0.0000 -3.5476 0.0000
# 4 0.0000 0.0000 0.0000 -6.1984 0.0000 -3.7915
# 5 -1.3528 -15.8546 -3.5476 0.0000 29.2874 0.0000
# 6 0.0000 0.0000 0.0000 -3.7915 0.0000 26.4109
#
#
#
# Elastic Compliance Matrix: (Units=1/GPa)
#
#
# Indices 1 2 3 4 5 6 
#
# 1 0.009561 -0.003801 -0.002749 0.000000 -0.001949 0.000000
# 2 -0.003801 0.017141 -0.002651 0.000000 0.008782 0.000000
# 3 -0.002749 -0.002651 0.013248 0.000000 0.000043 0.000000
# 4 0.000000 0.000000 0.000000 -0.148309 0.000000 -0.021291
# 5 -0.001949 0.008782 0.000043 0.000000 0.038814 0.000000
# 6 0.000000 0.000000 0.000000 -0.021291 0.000000 0.034807
#
#
# Mechanical properties :
#
#
# Convention : Reuss Voigt Hill
#
# Bulk Modulus (GPa) = 46.40720 52.43249 49.41985
# Shear Modulus (GPa) = -546.19033 23.35875 -261.41579
#
# Velocity S-wave (km/s) = -16.17736 3.34550 -11.19184
# Velocity P-wave (km/s) = 18.07503 6.32820 11.97206
#
# Compressibility (1/GPa) = 0.02154838
#
# Stress axis : x y z
#
# Youngs Moduli (GPa) = 104.58750 58.34088 75.48308
#
# Poissons Ratio (x) = 0.22175 0.20749
# Poissons Ratio (y) = 0.39754 0.20010
# Poissons Ratio (z) = 0.28749 0.15466
#
# Static dielectric constant tensor:
#      x y z
#    x 1.766760 0.000000 -0.013770 
#    y 0.000000 1.812810 0.000000 
#    z -0.013770 0.000000 1.779440 
# 
# From -- ./inp_files/125687.got.cif
#   From: 2010.05.17/outbox.cif.g08.bks.cpg/sg12_63_cif.got.tgz:125687.got - 2010.06.03 13:09:07.
