data_PCOD9221703
_publ_section_title
;
Structure prediction by ZEFSAII (Michael W. Deem and Ramdas Pophale) SiO2 
 PCOD9221703
Probable space group: C 2/M
;
_chemical_formula_sum "Si O2"
_cell_formula_units_Z 40
_cell_length_a 9.504852
_cell_length_b 17.131456
_cell_length_c 10.927654
_cell_angle_alpha 90.000000
_cell_angle_beta 90.326249
_cell_angle_gamma 90.000000
_cell_volume 1779.342405
_symmetry_space_group_name_H-M "C 2/M"
_symmetry_group_IT_number 12
_symmetry_cell_setting 'monoclinic'
loop_
_space_group_symop_operation_xyz
x,y,z
-x,y,-z
-x,-y,-z
x,-y,z
1/2+x,1/2+y,z
1/2-x,1/2+y,-z
1/2-x,1/2-y,-z
1/2+x,1/2-y,z
loop_
_atom_site_type_symbol
_atom_site_label
_atom_site_fract_x
_atom_site_fract_y
_atom_site_fract_z
Si Si1 0.086403 0.410703 0.877046
Si Si2 0.953020 0.086264 0.139281
Si Si3 0.331404 0.589076 0.516591
Si Si4 0.683992 0.313089 0.250633
Si Si5 0.682511 0.872717 0.260738
O O1 0.139345 0.500000 0.886091
O O2 0.208783 0.350025 0.846954
O O3 0.971864 0.404353 0.767850
O O4 0.000000 0.391929 0.000000
O O5 0.787649 0.095560 0.156984
O O6 0.031549 0.152830 0.214856
O O7 0.993748 0.000000 0.186435
O O8 0.000000 0.091571 0.000000
O O9 0.500000 0.599044 0.500000
O O10 0.307707 0.500000 0.558144
O O11 0.280361 0.650079 0.617627
O O12 0.250376 0.601494 0.389048
O O13 0.682221 0.220693 0.253432
#
# Coordination Sequence:
#
# PCOD9221703 Si02
#       5
#     8   8   8   8   8
#     4  11  25  44  65  94 135 175 211 259 322 389
#     4  11  23  42  69  96 127 177 231 265 308 387
#     4  11  23  43  71  95 124 169 223 273 318 383
#     4  12  25  42  66  99 133 167 214 272 329 382
#     4  12  25  42  66  99 133 167 214 272 329 382
#
# _framework density 22.480215000000001
#
# number of rings (size 3 to 8) (size 9 to 14) (size 15 to 20)
#    0.000    0.600    2.000    6.600    0.000    8.800 
#    0.000    2.000    0.000    0.000    0.000    0.000 
#    0.000    0.000    0.000    0.000    0.000    0.000 
#
# Total GULP energy -112061.726426 kJ/mol
# GULP energy per Si atom -5603.086321 kJ/mol
# Density = 2.242905 g / cm^3
# Si number density = 22.480215 Si / 1000 Ang^3
#
#
#
# Elastic Constant Matrix: (Units=GPa)
#
#
# Indices 1 2 3 4 5 6 
#
# 1 48.9670 -2.7957 -13.7022 0.0000 8.6554 0.0000
# 2 -2.7957 131.3269 18.9526 0.0000 -13.0908 0.0000
# 3 -13.7022 18.9526 59.0915 0.0000 1.5221 0.0000
# 4 0.0000 0.0000 0.0000 12.8840 0.0000 11.2190
# 5 8.6554 -13.0908 1.5221 0.0000 39.6786 0.0000
# 6 0.0000 0.0000 0.0000 11.2190 0.0000 72.7935
#
#
#
# Elastic Compliance Matrix: (Units=1/GPa)
#
#
# Indices 1 2 3 4 5 6 
#
# 1 0.022957 -0.000892 0.005751 0.000000 -0.005523 0.000000
# 2 -0.000892 0.008327 -0.002956 0.000000 0.003055 0.000000
# 3 0.005751 -0.002956 0.019281 0.000000 -0.002970 0.000000
# 4 0.000000 0.000000 0.000000 0.089646 0.000000 -0.013816
# 5 -0.005523 0.003055 -0.002970 0.000000 0.027529 0.000000
# 6 0.000000 0.000000 0.000000 -0.013816 0.000000 0.015867
#
#
# Mechanical properties :
#
#
# Convention : Reuss Voigt Hill
#
# Bulk Modulus (GPa) = 18.39198 27.14386 22.76792
# Shear Modulus (GPa) = 25.26225 40.86662 33.06443
#
# Velocity S-wave (km/s) = 3.35588 4.26830 3.83929
# Velocity P-wave (km/s) = 4.81820 6.03257 5.45926
#
# Compressibility (1/GPa) = 0.05437153
#
# Stress axis : x y z
#
# Youngs Moduli (GPa) = 43.56049 120.09482 51.86406
#
# Poissons Ratio (x) = 0.10710 -0.29829
# Poissons Ratio (y) = 0.03885 0.15332
# Poissons Ratio (z) = -0.25054 0.35502
#
# Static dielectric constant tensor:
#      x y z
#    x 1.813960 0.000000 0.005060 
#    y 0.000000 1.752680 0.000000 
#    z 0.005060 0.000000 1.847840 
# 
# From -- ./inp_files/119149.got.cif
#   From: 2010.05.17/outbox.cif.g08.bks.cpg/sg12_60_cif.got.tgz:119149.got - 2010.06.03 13:09:07.
