data_PCOD9221643
_publ_section_title
;
Structure prediction by ZEFSAII (Michael W. Deem and Ramdas Pophale) SiO2 
 PCOD9221643
Probable space group: C 2/M
;
_chemical_formula_sum "Si O2"
_cell_formula_units_Z 28
_cell_length_a 21.150392
_cell_length_b 7.297160
_cell_length_c 25.620645
_cell_angle_alpha 90.000000
_cell_angle_beta 164.064236
_cell_angle_gamma 90.000000
_cell_volume 1085.672403
_symmetry_space_group_name_H-M "C 2/M"
_symmetry_group_IT_number 12
_symmetry_cell_setting 'monoclinic'
loop_
_space_group_symop_operation_xyz
x,y,z
-x,y,-z
-x,-y,-z
x,-y,z
1/2+x,1/2+y,z
1/2-x,1/2+y,-z
1/2-x,1/2-y,-z
1/2+x,1/2-y,z
loop_
_atom_site_type_symbol
_atom_site_label
_atom_site_fract_x
_atom_site_fract_y
_atom_site_fract_z
Si Si1 0.840836 0.714520 0.630184
Si Si2 0.933975 0.000000 0.130621
Si Si3 0.485410 0.221498 0.075818
Si Si4 0.864655 0.779609 0.295192
O O1 0.897103 0.500000 0.681894
O O2 0.750000 0.750000 0.500000
O O3 0.048369 0.842373 0.809288
O O4 0.627381 0.779058 0.497301
O O5 0.959726 0.840621 0.106184
O O6 0.721990 0.271842 0.232877
O O7 0.489740 0.000000 0.087534
O O8 0.283885 0.267377 0.874005
O O9 0.875218 0.000000 0.303542
#
# Coordination Sequence:
#
# PCOD9221643 Si02
#       4
#     8   4   8   8
#     4  11  23  42  60  81 116 163 205 234 286 350
#     4  12  24  36  62  91 124 149 194 249 294 346
#     4   9  19  39  62  94 119 146 192 244 304 343
#     4   8  18  38  66  86 120 158 188 241 292 354
#
# _framework density 25.790469000000002
#
# number of rings (size 3 to 8) (size 9 to 14) (size 15 to 20)
#    0.000    2.286    1.429    2.571    0.000    6.857 
#    0.000    5.714    0.000    0.000    0.000    0.000 
#    0.000    0.000    0.000    0.000    0.000    0.000 
#
# Total GULP energy -77995.421127 kJ/mol
# GULP energy per Si atom -5571.101509 kJ/mol
# Density = 2.573177 g / cm^3
# Si number density = 25.790469 Si / 1000 Ang^3
#
#
#
# Elastic Constant Matrix: (Units=GPa)
#
#
# Indices 1 2 3 4 5 6 
#
# 1 112.8178 56.1965 52.7206 -0.0166 -14.2531 -0.0063
# 2 56.1965 198.1814 43.5566 -0.0167 -10.0522 -0.0115
# 3 52.7206 43.5566 68.8766 -0.0366 19.2281 -0.0194
# 4 -0.0166 -0.0167 -0.0366 0.7926 0.0024 -35.3790
# 5 -14.2531 -10.0522 19.2281 0.0024 48.7150 -0.0004
# 6 -0.0063 -0.0115 -0.0194 -35.3790 -0.0004 31.9615
#
#
#
# Elastic Compliance Matrix: (Units=1/GPa)
#
#
# Indices 1 2 3 4 5 6 
#
# 1 0.018976 -0.000955 -0.017325 0.000016 0.012194 0.000011
# 2 -0.000955 0.006327 -0.003998 0.000002 0.002604 0.000002
# 3 -0.017325 -0.003998 0.035911 -0.000042 -0.020068 -0.000029
# 4 0.000016 0.000002 -0.000042 -0.026062 0.000023 -0.028849
# 5 0.012194 0.002604 -0.020068 0.000023 0.032554 0.000017
# 6 0.000011 0.000002 -0.000029 -0.028849 0.000017 -0.000646
#
#
# Mechanical properties :
#
#
# Convention : Reuss Voigt Hill
#
# Bulk Modulus (GPa) = 60.02828 76.09148 68.05988
# Shear Modulus (GPa) = 42.67418 31.45397 37.06407
#
# Velocity S-wave (km/s) = 4.07215 3.49606 3.79505
# Velocity P-wave (km/s) = 6.74061 6.77232 6.75648
#
# Compressibility (1/GPa) = 0.01665881
#
# Stress axis : x y z
#
# Youngs Moduli (GPa) = 52.69776 158.04635 27.84696
#
# Poissons Ratio (x) = 0.15087 0.48246
# Poissons Ratio (y) = 0.05031 0.11132
# Poissons Ratio (z) = 0.91301 0.63180
#
# Static dielectric constant tensor:
#      x y z
#    x 2.022170 0.000020 0.113720 
#    y 0.000020 2.273770 -0.000060 
#    z 0.113720 -0.000060 2.186610 
# 
# From -- ./inp_files/81475.got.cif
#   From: 2010.05.17/outbox.cif.g08.bks.cpg/sg12_41_cif.got.tgz:81475.got - 2010.06.03 13:09:07.
