data_PCOD9221998
_publ_section_title
;
Structure prediction by ZEFSAII (Michael W. Deem and Ramdas Pophale) SiO2 
 PCOD9221998
Probable space group: C 2/M
;
_chemical_formula_sum "Si O2"
_cell_formula_units_Z 58
_cell_length_a 26.944948
_cell_length_b 14.953183
_cell_length_c 20.393581
_cell_angle_alpha 90.000000
_cell_angle_beta 20.414697
_cell_angle_gamma 90.000000
_cell_volume 2866.133922
_symmetry_space_group_name_H-M "C 2/M"
_symmetry_group_IT_number 12
_symmetry_cell_setting 'monoclinic'
loop_
_space_group_symop_operation_xyz
x,y,z
-x,y,-z
-x,-y,-z
x,-y,z
1/2+x,1/2+y,z
1/2-x,1/2+y,-z
1/2-x,1/2-y,-z
1/2+x,1/2-y,z
loop_
_atom_site_type_symbol
_atom_site_label
_atom_site_fract_x
_atom_site_fract_y
_atom_site_fract_z
Si Si1 0.120919 0.190915 0.687141
Si Si2 0.958439 0.105179 0.350458
Si Si3 0.838557 0.101208 0.227069
Si Si4 0.103570 0.331413 0.287206
Si Si5 0.787713 0.394450 0.982704
Si Si6 0.327083 0.726286 0.619412
Si Si7 0.660618 0.210823 0.949549
Si Si8 0.000000 0.500000 0.500000
O O1 0.250000 0.250000 0.500000
O O2 0.057091 0.136992 0.704872
O O3 0.162323 0.124835 0.694853
O O4 0.999405 0.257680 0.864167
O O5 0.851043 0.163018 0.527624
O O6 0.928981 0.000000 0.392495
O O7 0.120274 0.120087 0.174929
O O8 0.750285 0.180195 0.302460
O O9 0.783755 0.000000 0.282112
O O10 0.000000 0.104194 0.000000
O O11 0.125899 0.345716 0.182002
O O12 0.249112 0.297183 0.138844
O O13 0.056503 0.421853 0.379606
O O14 0.984116 0.256583 0.446264
O O15 0.814941 0.500000 0.945541
O O16 0.828121 0.356409 0.003544
O O17 0.238322 0.680305 0.787136
#
# Coordination Sequence:
#
# PCOD9221998 Si02
#       8
#     8   8   8   8   8   8   8   2
#     4  12  24  44  69  94 129 173 224 274 332 395
#     4  11  24  43  69  95 130 177 223 271 328 395
#     4  11  25  44  68  96 130 174 219 270 333 396
#     4  12  23  41  62  99 135 169 211 273 341 404
#     4  11  24  41  65  97 132 174 221 269 326 397
#     4  12  24  42  67  95 136 172 219 277 328 396
#     4  12  24  42  67  93 134 175 215 276 337 388
#     4  12  24  36  64 104 136 174 204 264 352 418
#
# _framework density 20.236318000000001
#
# number of rings (size 3 to 8) (size 9 to 14) (size 15 to 20)
#    0.000    0.414    7.586    1.655    0.966    0.552 
#    1.241    2.069    0.000    1.241    0.000    0.000 
#    0.000    0.000    0.000    0.000    0.000    0.000 
#
# Total GULP energy -161974.632794 kJ/mol
# GULP energy per Si atom -5585.332165 kJ/mol
# Density = 2.019026 g / cm^3
# Si number density = 20.236318 Si / 1000 Ang^3
#
#
#
# Elastic Constant Matrix: (Units=GPa)
#
#
# Indices 1 2 3 4 5 6 
#
# 1 62.4767 2.4416 10.0062 -0.0002 26.9047 0.0001
# 2 2.4416 66.4546 18.9481 -0.0002 7.7709 0.0001
# 3 10.0062 18.9481 95.0432 -0.0003 20.3697 0.0002
# 4 -0.0002 -0.0002 -0.0003 22.1195 0.0002 7.5158
# 5 26.9047 7.7709 20.3697 0.0002 40.6220 -0.0002
# 6 0.0001 0.0001 0.0002 7.5158 -0.0002 35.4316
#
#
#
# Elastic Compliance Matrix: (Units=1/GPa)
#
#
# Indices 1 2 3 4 5 6 
#
# 1 0.022500 0.000754 0.000791 0.000000 -0.015443 0.000000
# 2 0.000754 0.016077 -0.002822 0.000000 -0.002160 0.000000
# 3 0.000791 -0.002822 0.012322 0.000000 -0.006162 0.000000
# 4 0.000000 0.000000 0.000000 0.048720 -0.000001 -0.010335
# 5 -0.015443 -0.002160 -0.006162 -0.000001 0.038349 0.000000
# 6 0.000000 0.000000 0.000000 -0.010335 0.000000 0.030416
#
#
# Mechanical properties :
#
#
# Convention : Reuss Voigt Hill
#
# Bulk Modulus (GPa) = 20.68496 31.86292 26.27394
# Shear Modulus (GPa) = 26.73039 32.47320 29.60179
#
# Velocity S-wave (km/s) = 3.63838 4.01022 3.82881
# Velocity P-wave (km/s) = 5.28150 6.10099 5.70598
#
# Compressibility (1/GPa) = 0.04834429
#
# Stress axis : x y z
#
# Youngs Moduli (GPa) = 44.44418 62.19961 81.15854
#
# Poissons Ratio (x) = -0.04688 -0.06417
# Poissons Ratio (y) = -0.03350 0.22900
# Poissons Ratio (z) = -0.03514 0.17551
#
# Static dielectric constant tensor:
#      x y z
#    x 1.735170 0.000000 0.000300 
#    y 0.000000 1.678570 0.000000 
#    z 0.000300 0.000000 1.739890 
# 
# From -- ./inp_files/328393.got.cif
#   From: 2010.05.17/outbox.cif.g08.bks.cpg/sg12_165_cif.got.tgz:328393.got - 2010.06.03 13:09:07.
