data_PCOD9221679
_publ_section_title
;
Structure prediction by ZEFSAII (Michael W. Deem and Ramdas Pophale) SiO2 
 PCOD9221679
Probable space group: C 2/M
;
_chemical_formula_sum "Si O2"
_cell_formula_units_Z 48
_cell_length_a 25.122771
_cell_length_b 8.603407
_cell_length_c 14.251815
_cell_angle_alpha 90.000000
_cell_angle_beta 138.614761
_cell_angle_gamma 90.000000
_cell_volume 2036.514732
_symmetry_space_group_name_H-M "C 2/M"
_symmetry_group_IT_number 12
_symmetry_cell_setting 'monoclinic'
loop_
_space_group_symop_operation_xyz
x,y,z
-x,y,-z
-x,-y,-z
x,-y,z
1/2+x,1/2+y,z
1/2-x,1/2+y,-z
1/2-x,1/2-y,-z
1/2+x,1/2-y,z
loop_
_atom_site_type_symbol
_atom_site_label
_atom_site_fract_x
_atom_site_fract_y
_atom_site_fract_z
Si Si1 0.087123 0.818189 0.733219
Si Si2 0.904017 0.817982 0.480037
Si Si3 0.657765 0.820962 0.999947
Si Si4 0.168319 0.680637 0.349244
Si Si5 0.001222 0.182426 0.888742
Si Si6 0.761071 0.823009 0.728710
O O1 0.096494 0.804737 0.634068
O O2 0.145963 0.720710 0.875779
O O3 0.993779 0.776163 0.630397
O O4 0.097254 0.000000 0.770319
O O5 0.831298 0.712215 0.417872
O O6 0.889058 0.000000 0.483299
O O7 0.571656 0.780903 0.934001
O O8 0.679959 0.000000 0.041213
O O9 0.720859 0.715327 0.139549
O O10 0.160494 0.500000 0.360418
O O11 0.250000 0.750000 0.500000
O O12 0.086746 0.770866 0.265358
O O13 0.183879 0.708337 0.259105
O O14 0.016709 0.000000 0.891672
O O15 0.000000 0.205699 0.000000
O O16 0.782789 0.000000 0.735311
#
# Coordination Sequence:
#
# PCOD9221679 Si02
#       6
#     8   8   8   8   8   8
#     4   9  20  41  67  93 124 161 205 254 312 376
#     4   9  20  41  67  93 123 162 205 255 313 373
#     4  12  25  40  63  93 126 165 211 257 308 372
#     4  12  26  44  66  93 127 165 209 256 307 367
#     4  11  23  42  67  92 125 165 206 255 310 367
#     4  12  25  42  63  91 127 165 208 259 312 367
#
# _framework density 23.569680999999999
#
# number of rings (size 3 to 8) (size 9 to 14) (size 15 to 20)
#    0.000    1.167    1.667    6.000    2.333    2.667 
#    0.000    1.667    0.000    0.000    0.000    0.000 
#    0.000    0.000    0.000    0.000    0.000    0.000 
#
# Total GULP energy -134445.441908 kJ/mol
# GULP energy per Si atom -5601.893413 kJ/mol
# Density = 2.351604 g / cm^3
# Si number density = 23.569681 Si / 1000 Ang^3
#
#
#
# Elastic Constant Matrix: (Units=GPa)
#
#
# Indices 1 2 3 4 5 6 
#
# 1 44.5924 2.1864 -3.1044 0.0000 6.1965 0.0000
# 2 2.1864 56.2247 10.5938 0.0000 -2.5363 0.0000
# 3 -3.1044 10.5938 101.1994 0.0000 2.7896 0.0000
# 4 0.0000 0.0000 0.0000 35.7853 0.0000 -2.5272
# 5 6.1965 -2.5363 2.7896 0.0000 42.3940 0.0000
# 6 0.0000 0.0000 0.0000 -2.5272 0.0000 26.0316
#
#
#
# Elastic Compliance Matrix: (Units=1/GPa)
#
#
# Indices 1 2 3 4 5 6 
#
# 1 0.023037 -0.001229 0.000932 0.000000 -0.003502 0.000000
# 2 -0.001229 0.018272 -0.001989 0.000000 0.001404 0.000000
# 3 0.000932 -0.001989 0.010144 0.000000 -0.000923 0.000000
# 4 0.000000 0.000000 0.000000 0.028137 0.000000 0.002732
# 5 -0.003502 0.001404 -0.000923 0.000000 0.024245 0.000000
# 6 0.000000 0.000000 0.000000 0.002732 0.000000 0.038680
#
#
# Mechanical properties :
#
#
# Convention : Reuss Voigt Hill
#
# Bulk Modulus (GPa) = 21.33137 24.59646 22.96392
# Shear Modulus (GPa) = 30.72866 33.66488 32.19677
#
# Velocity S-wave (km/s) = 3.61465 3.78340 3.69999
# Velocity P-wave (km/s) = 5.14693 5.43542 5.29314
#
# Compressibility (1/GPa) = 0.04687931
#
# Stress axis : x y z
#
# Youngs Moduli (GPa) = 43.40816 54.72945 98.58303
#
# Poissons Ratio (x) = 0.06729 -0.09187
# Poissons Ratio (y) = 0.05337 0.19610
# Poissons Ratio (z) = -0.04045 0.10886
#
# Static dielectric constant tensor:
#      x y z
#    x 1.958600 0.000000 -0.056500 
#    y 0.000000 1.785890 0.000000 
#    z -0.056500 0.000000 1.920320 
# 
# From -- ./inp_files/244918.got.cif
#   From: 2010.05.17/outbox.cif.g08.bks.cpg/sg12_123_cif.got.tgz:244918.got - 2010.06.03 13:09:07.
