data_PCOD9221764
_publ_section_title
;
Structure prediction by ZEFSAII (Michael W. Deem and Ramdas Pophale) SiO2 
 PCOD9221764
Probable space group: C 2/M
;
_chemical_formula_sum "Si O2"
_cell_formula_units_Z 40
_cell_length_a 8.106332
_cell_length_b 17.229856
_cell_length_c 20.976834
_cell_angle_alpha 90.000000
_cell_angle_beta 145.769895
_cell_angle_gamma 90.000000
_cell_volume 1648.095231
_symmetry_space_group_name_H-M "C 2/M"
_symmetry_group_IT_number 12
_symmetry_cell_setting 'monoclinic'
loop_
_space_group_symop_operation_xyz
x,y,z
-x,y,-z
-x,-y,-z
x,-y,z
1/2+x,1/2+y,z
1/2-x,1/2+y,-z
1/2-x,1/2-y,-z
1/2+x,1/2-y,z
loop_
_atom_site_type_symbol
_atom_site_label
_atom_site_fract_x
_atom_site_fract_y
_atom_site_fract_z
Si Si1 0.563228 0.859773 0.829846
Si Si2 0.335052 0.409220 0.043166
Si Si3 0.432559 0.680054 0.767582
Si Si4 0.562600 0.413757 0.359186
Si Si5 0.218994 0.332518 0.454836
O O1 0.523209 0.769435 0.800979
O O2 0.843382 0.897093 0.885485
O O3 0.266875 0.904780 0.719188
O O4 0.621274 0.868135 0.924355
O O5 0.264977 0.500000 0.024802
O O6 0.361432 0.369692 0.120277
O O7 0.427856 0.649087 0.693992
O O8 0.092308 0.668845 0.679645
O O9 0.608121 0.500000 0.348459
O O10 0.772714 0.394650 0.485331
O O11 0.500000 0.343007 0.500000
O O12 0.250000 0.250000 0.500000
#
# Coordination Sequence:
#
# PCOD9221764 Si02
#       5
#     8   8   8   8   8
#     4  11  23  43  68  98 135 185 236 283 345 413
#     4  11  24  44  68  98 140 183 233 289 348 408
#     4  12  25  43  71 102 138 184 233 284 347 414
#     4  12  26  44  71 106 143 181 232 292 346 405
#     4  12  26  46  73 102 140 183 230 282 346 418
#
# _framework density 24.270441000000002
#
# number of rings (size 3 to 8) (size 9 to 14) (size 15 to 20)
#    0.000    0.400    2.000    7.800    0.000    5.200 
#    0.000    2.000    0.000    0.000    0.000    0.000 
#    0.000    0.000    0.000    0.000    0.000    0.000 
#
# Total GULP energy -112188.739651 kJ/mol
# GULP energy per Si atom -5609.436983 kJ/mol
# Density = 2.421520 g / cm^3
# Si number density = 24.270441 Si / 1000 Ang^3
#
#
#
# Elastic Constant Matrix: (Units=GPa)
#
#
# Indices 1 2 3 4 5 6 
#
# 1 98.9615 24.0905 6.9884 0.0004 -10.1811 -0.0009
# 2 24.0905 171.7061 39.9416 -0.0005 -22.2283 -0.0045
# 3 6.9884 39.9416 114.8771 -0.0050 -16.7611 -0.0207
# 4 0.0004 -0.0005 -0.0050 34.0394 -0.0014 12.2602
# 5 -10.1811 -22.2283 -16.7611 -0.0014 47.0278 -0.0057
# 6 -0.0009 -0.0045 -0.0207 12.2602 -0.0057 78.8276
#
#
#
# Elastic Compliance Matrix: (Units=1/GPa)
#
#
# Indices 1 2 3 4 5 6 
#
# 1 0.010588 -0.001276 0.000048 0.000000 0.001706 0.000000
# 2 -0.001276 0.006742 -0.001943 0.000000 0.002218 0.000000
# 3 0.000048 -0.001943 0.009752 0.000001 0.002568 0.000003
# 4 0.000000 0.000000 0.000001 0.031121 0.000000 -0.004840
# 5 0.001706 0.002218 0.002568 0.000000 0.023597 0.000002
# 6 0.000000 0.000000 0.000003 -0.004840 0.000002 0.013439
#
#
# Mechanical properties :
#
#
# Convention : Reuss Voigt Hill
#
# Bulk Modulus (GPa) = 48.21286 58.62063 53.41674
# Shear Modulus (GPa) = 46.08593 52.94723 49.51658
#
# Velocity S-wave (km/s) = 4.36231 4.67578 4.52176
# Velocity P-wave (km/s) = 6.72911 7.30452 7.02271
#
# Compressibility (1/GPa) = 0.02074136
#
# Stress axis : x y z
#
# Youngs Moduli (GPa) = 94.44971 148.32420 102.54092
#
# Poissons Ratio (x) = 0.18924 -0.00497
# Poissons Ratio (y) = 0.12050 0.19923
# Poissons Ratio (z) = -0.00458 0.28818
#
# Static dielectric constant tensor:
#      x y z
#    x 1.996290 0.000000 0.033180 
#    y 0.000000 1.834800 0.000000 
#    z 0.033180 0.000000 1.950800 
# 
# From -- ./inp_files/333477.got.cif
#   From: 2010.05.17/outbox.cif.g08.bks.cpg/sg12_167_cif.got.tgz:333477.got - 2010.06.03 13:09:07.
