data_PCOD9221539
_publ_section_title
;
Structure prediction by ZEFSAII (Michael W. Deem and Ramdas Pophale) SiO2 
 PCOD9221539
Probable space group: C 2/M
;
_chemical_formula_sum "Si O2"
_cell_formula_units_Z 50
_cell_length_a 10.416566
_cell_length_b 29.257465
_cell_length_c 8.607909
_cell_angle_alpha 90.000000
_cell_angle_beta 60.498890
_cell_angle_gamma 90.000000
_cell_volume 2283.236754
_symmetry_space_group_name_H-M "C 2/M"
_symmetry_group_IT_number 12
_symmetry_cell_setting 'monoclinic'
loop_
_space_group_symop_operation_xyz
x,y,z
-x,y,-z
-x,-y,-z
x,-y,z
1/2+x,1/2+y,z
1/2-x,1/2+y,-z
1/2-x,1/2-y,-z
1/2+x,1/2-y,z
loop_
_atom_site_type_symbol
_atom_site_label
_atom_site_fract_x
_atom_site_fract_y
_atom_site_fract_z
Si Si1 0.024736 0.208135 0.165973
Si Si2 0.060881 0.551075 0.142440
Si Si3 0.500000 0.500000 0.500000
Si Si4 0.744641 0.869723 0.929601
Si Si5 0.269474 0.830980 0.563557
Si Si6 0.562160 0.193579 0.225874
Si Si7 0.755750 0.080618 0.591593
O O1 0.113038 0.160716 0.120183
O O2 0.098519 0.252943 0.194180
O O3 0.872349 0.200819 0.346550
O O4 0.000000 0.218638 0.000000
O O5 0.111446 0.500000 0.148536
O O6 0.913853 0.563548 0.325008
O O7 0.193531 0.587205 0.065584
O O8 0.000000 0.551418 0.000000
O O9 0.373987 0.540240 0.536529
O O10 0.759310 0.890410 0.749905
O O11 0.616374 0.833316 0.043020
O O12 0.347446 0.827182 0.683734
O O13 0.391481 0.815292 0.366024
O O14 0.218251 0.882335 0.557419
#
# Coordination Sequence:
#
# PCOD9221539 Si02
#       7
#     8   8   2   8   8   8   8
#     4  12  26  42  67  99 139 185 233 287 342 411
#     4   9  18  37  65  97 126 169 226 278 334 407
#     4  12  24  44  70 116 140 174 234 294 346 422
#     4  11  23  42  69 102 133 182 233 279 341 416
#     4  11  25  45  64  99 140 185 223 294 348 404
#     4  11  25  44  69  95 139 187 238 277 344 417
#     4  11  23  40  73  98 138 178 226 288 349 400
#
# _framework density 21.898736
#
# number of rings (size 3 to 8) (size 9 to 14) (size 15 to 20)
#    0.000    1.120    4.000    1.920    3.360    2.560 
#    0.000    0.000    1.760    3.360    0.000    0.000 
#    0.000    0.000    0.000    0.000    0.000    0.000 
#
# Total GULP energy -139408.761665 kJ/mol
# GULP energy per Si atom -5576.350467 kJ/mol
# Density = 2.184889 g / cm^3
# Si number density = 21.898736 Si / 1000 Ang^3
#
#
#
# Elastic Constant Matrix: (Units=GPa)
#
#
# Indices 1 2 3 4 5 6 
#
# 1 60.7433 55.3109 45.2433 0.0000 -10.6463 0.0000
# 2 55.3109 185.2053 43.4289 0.0000 -1.9536 0.0000
# 3 45.2433 43.4289 58.4359 0.0000 -18.0898 0.0000
# 4 0.0000 0.0000 0.0000 3.3784 0.0000 -9.5666
# 5 -10.6463 -1.9536 -18.0898 0.0000 26.2518 0.0000
# 6 0.0000 0.0000 0.0000 -9.5666 0.0000 36.1792
#
#
#
# Elastic Compliance Matrix: (Units=1/GPa)
#
#
# Indices 1 2 3 4 5 6 
#
# 1 0.044469 -0.006014 -0.031164 0.000000 -0.003888 0.000000
# 2 -0.006014 0.007638 -0.002033 0.000000 -0.003271 0.000000
# 3 -0.031164 -0.002033 0.049311 0.000000 0.021190 0.000000
# 4 0.000000 0.000000 0.000000 1.178134 0.000000 0.311524
# 5 -0.003888 -0.003271 0.021190 0.000000 0.050874 0.000000
# 6 0.000000 0.000000 0.000000 0.311524 0.000000 0.110014
#
#
# Mechanical properties :
#
#
# Convention : Reuss Voigt Hill
#
# Bulk Modulus (GPa) = 43.48304 65.81675 54.64989
# Shear Modulus (GPa) = 3.27541 23.85531 13.56536
#
# Velocity S-wave (km/s) = 1.22432 3.30411 2.49159
# Velocity P-wave (km/s) = 4.67954 6.68404 5.76951
#
# Compressibility (1/GPa) = 0.02299747
#
# Stress axis : x y z
#
# Youngs Moduli (GPa) = 22.48761 130.93179 20.27931
#
# Poissons Ratio (x) = 0.78741 0.63198
# Poissons Ratio (y) = 0.13524 0.04122
# Poissons Ratio (z) = 0.70080 0.26613
#
# Static dielectric constant tensor:
#      x y z
#    x 1.823540 0.000000 -0.015510 
#    y 0.000000 1.795160 0.000000 
#    z -0.015510 0.000000 1.849880 
# 
# From -- ./inp_files/53089.got.cif
#   From: 2010.05.17/outbox.cif.g08.bks.cpg/sg12_27_cif.got.tgz:53089.got - 2010.06.03 13:09:07.
