data_PCOD9221393
_publ_section_title
;
Structure prediction by ZEFSAII (Michael W. Deem and Ramdas Pophale) SiO2 
 PCOD9221393
Probable space group: C 2/M
;
_chemical_formula_sum "Si O2"
_cell_formula_units_Z 32
_cell_length_a 13.617299
_cell_length_b 21.552853
_cell_length_c 8.532151
_cell_angle_alpha 90.000000
_cell_angle_beta 145.990639
_cell_angle_gamma 90.000000
_cell_volume 1400.622509
_symmetry_space_group_name_H-M "C 2/M"
_symmetry_group_IT_number 12
_symmetry_cell_setting 'monoclinic'
loop_
_space_group_symop_operation_xyz
x,y,z
-x,y,-z
-x,-y,-z
x,-y,z
1/2+x,1/2+y,z
1/2-x,1/2+y,-z
1/2-x,1/2-y,-z
1/2+x,1/2-y,z
loop_
_atom_site_type_symbol
_atom_site_label
_atom_site_fract_x
_atom_site_fract_y
_atom_site_fract_z
Si Si1 0.118424 0.932453 0.500000
Si Si2 0.588722 0.140882 0.968472
Si Si3 0.666385 0.788610 0.532595
Si Si4 0.105322 0.183684 0.861427
O O1 0.000000 0.936638 0.500000
O O2 0.029968 0.873932 0.295708
O O3 0.112253 0.000000 0.413140
O O4 0.315243 0.916343 0.818296
O O5 0.424473 0.145459 0.633411
O O6 0.500000 0.175861 0.000000
O O7 0.752496 0.166463 0.084165
O O8 0.750000 0.750000 0.500000
O O9 0.502540 0.742505 0.341627
O O10 0.797150 0.800244 0.848027
#
# Coordination Sequence:
#
# PCOD9221393 Si02
#       4
#     8   8   8   8
#     4   9  20  41  65  88 121 166 212 260 316 371
#     4  11  23  39  61  92 125 165 209 252 309 375
#     4  12  24  40  63  93 127 161 205 260 321 381
#     4  11  23  40  62  91 128 165 206 258 316 376
#
# _framework density 22.846983999999999
#
# number of rings (size 3 to 8) (size 9 to 14) (size 15 to 20)
#    0.000    1.250    0.000    6.750    0.000    6.500 
#    0.000    1.250    0.000   13.500    0.000    0.000 
#    0.000    0.000    0.000    0.000    0.000    0.000 
#
# Total GULP energy -89153.669721 kJ/mol
# GULP energy per Si atom -5572.104358 kJ/mol
# Density = 2.279498 g / cm^3
# Si number density = 22.846984 Si / 1000 Ang^3
#
#
#
# Elastic Constant Matrix: (Units=GPa)
#
#
# Indices 1 2 3 4 5 6 
#
# 1 106.4363 -2.2489 30.4535 0.0000 12.1226 0.0000
# 2 -2.2489 137.4088 81.3233 0.0000 -4.0486 0.0000
# 3 30.4535 81.3233 192.9789 0.0000 -17.5089 0.0000
# 4 0.0000 0.0000 0.0000 29.3060 0.0000 -2.5960
# 5 12.1226 -4.0486 -17.5089 0.0000 37.5663 0.0000
# 6 0.0000 0.0000 0.0000 -2.5960 0.0000 6.7103
#
#
#
# Elastic Compliance Matrix: (Units=1/GPa)
#
#
# Indices 1 2 3 4 5 6 
#
# 1 0.010772 0.001724 -0.002845 0.000000 -0.004616 0.000000
# 2 0.001724 0.010001 -0.004635 0.000000 -0.001639 0.000000
# 3 -0.002845 -0.004635 0.007959 0.000000 0.004128 0.000000
# 4 0.000000 0.000000 0.000000 0.035334 0.000000 0.013669
# 5 -0.004616 -0.001639 0.004128 0.000000 0.029857 0.000000
# 6 0.000000 0.000000 0.000000 0.013669 0.000000 0.154314
#
#
# Mechanical properties :
#
#
# Convention : Reuss Voigt Hill
#
# Bulk Modulus (GPa) = 58.07685 72.87554 65.47620
# Shear Modulus (GPa) = 18.83331 36.53624 27.68478
#
# Velocity S-wave (km/s) = 2.87422 4.00330 3.48479
# Velocity P-wave (km/s) = 6.04069 7.30308 6.70168
#
# Compressibility (1/GPa) = 0.01721856
#
# Stress axis : x y z
#
# Youngs Moduli (GPa) = 92.83689 99.99228 125.64727
#
# Poissons Ratio (x) = -0.17241 0.35750
# Poissons Ratio (y) = -0.16007 0.58240
# Poissons Ratio (z) = 0.26415 0.46349
#
# Static dielectric constant tensor:
#      x y z
#    x 2.010360 0.000000 0.047760 
#    y 0.000000 1.923510 0.000000 
#    z 0.047760 0.000000 1.909190 
# 
# From -- ./inp_files/65655.got.cif
#   From: 2010.05.17/outbox.cif.g08.bks.cpg/sg12_33_cif.got.tgz:65655.got - 2010.06.03 13:09:07.
