data_PCOD9221398
_publ_section_title
;
Structure prediction by ZEFSAII (Michael W. Deem and Ramdas Pophale) SiO2 
 PCOD9221398
Probable space group: C 2/M
;
_chemical_formula_sum "Si O2"
_cell_formula_units_Z 64
_cell_length_a 29.903720
_cell_length_b 8.471640
_cell_length_c 12.045307
_cell_angle_alpha 90.000000
_cell_angle_beta 86.495381
_cell_angle_gamma 90.000000
_cell_volume 3045.773735
_symmetry_space_group_name_H-M "C 2/M"
_symmetry_group_IT_number 12
_symmetry_cell_setting 'monoclinic'
loop_
_space_group_symop_operation_xyz
x,y,z
-x,y,-z
-x,-y,-z
x,-y,z
1/2+x,1/2+y,z
1/2-x,1/2+y,-z
1/2-x,1/2-y,-z
1/2+x,1/2-y,z
loop_
_atom_site_type_symbol
_atom_site_label
_atom_site_fract_x
_atom_site_fract_y
_atom_site_fract_z
Si Si1 0.331927 0.316768 0.170964
Si Si2 0.078502 0.188664 0.716636
Si Si3 0.338351 0.181196 0.938667
Si Si4 0.393938 0.810841 0.517391
Si Si5 0.265358 0.317140 0.808521
Si Si6 0.291486 0.189669 0.566956
Si Si7 0.590166 0.685872 0.240254
Si Si8 0.996259 0.687847 0.870697
O O1 0.320938 0.500000 0.192947
O O2 0.372437 0.268857 0.243815
O O3 0.287249 0.215838 0.191939
O O4 0.347551 0.291136 0.042239
O O5 0.078331 0.240091 0.588787
O O6 0.041401 0.272055 0.797484
O O7 0.073074 0.000000 0.727119
O O8 0.288743 0.213472 0.899756
O O9 0.371671 0.223149 0.834157
O O10 0.343583 0.000000 0.971300
O O11 0.340864 0.770167 0.513273
O O12 0.409897 0.745926 0.633500
O O13 0.397605 0.000000 0.516248
O O14 0.274121 0.500000 0.830673
O O15 0.286600 0.267534 0.688203
O O16 0.250000 0.250000 0.500000
O O17 0.288754 0.000000 0.577544
O O18 0.599669 0.500000 0.237048
O O19 0.543931 0.723051 0.184800
O O20 0.987506 0.500000 0.867735
O O21 0.000000 0.732979 0.000000
#
# Coordination Sequence:
#
# PCOD9221398 Si02
#       8
#     8   8   8   8   8   8   8   8
#     4  11  24  42  64  93 131 173 219 273 333 393
#     4  11  25  44  68  98 133 171 217 270 326 391
#     4  12  24  41  64  93 131 172 220 272 330 395
#     4  11  24  43  67  95 132 175 221 271 328 391
#     4  12  24  39  61  91 128 171 221 273 330 393
#     4  11  23  39  62  91 128 174 224 277 329 390
#     4  12  25  43  70 100 133 173 220 273 332 394
#     4  11  25  46  73 103 135 172 216 268 329 395
#
# _framework density 21.012723000000001
#
# number of rings (size 3 to 8) (size 9 to 14) (size 15 to 20)
#    0.000    0.625    1.250    7.125    0.000    9.000 
#    0.000    2.500    0.000    0.000    0.000    0.000 
#    0.000    0.000    0.000    0.000    0.000    0.000 
#
# Total GULP energy -179207.501023 kJ/mol
# GULP energy per Si atom -5600.234407 kJ/mol
# Density = 2.096490 g / cm^3
# Si number density = 21.012723 Si / 1000 Ang^3
#
#
#
# Elastic Constant Matrix: (Units=GPa)
#
#
# Indices 1 2 3 4 5 6 
#
# 1 70.7406 13.4098 32.4888 0.0000 2.2513 0.0000
# 2 13.4098 43.8674 -10.1531 0.0000 -1.7418 0.0000
# 3 32.4888 -10.1531 90.9935 0.0000 -16.9912 0.0000
# 4 0.0000 0.0000 0.0000 25.6733 0.0000 -2.6785
# 5 2.2513 -1.7418 -16.9912 0.0000 34.0653 0.0000
# 6 0.0000 0.0000 0.0000 -2.6785 0.0000 34.0378
#
#
#
# Elastic Compliance Matrix: (Units=1/GPa)
#
#
# Indices 1 2 3 4 5 6 
#
# 1 0.020313 -0.008649 -0.009429 0.000000 -0.006488 0.000000
# 2 -0.008649 0.027320 0.007172 0.000000 0.005546 0.000000
# 3 -0.009429 0.007172 0.016917 0.000000 0.009428 0.000000
# 4 0.000000 0.000000 0.000000 0.039273 0.000000 0.003091
# 5 -0.006488 0.005546 0.009428 0.000000 0.034770 0.000000
# 6 0.000000 0.000000 0.000000 0.003091 0.000000 0.029622
#
#
# Mechanical properties :
#
#
# Convention : Reuss Voigt Hill
#
# Bulk Modulus (GPa) = 23.39862 30.78805 27.09334
# Shear Modulus (GPa) = 24.47687 30.07900 27.27794
#
# Velocity S-wave (km/s) = 3.41671 3.78758 3.60691
# Velocity P-wave (km/s) = 5.16960 5.81477 5.50165
#
# Compressibility (1/GPa) = 0.04273756
#
# Stress axis : x y z
#
# Youngs Moduli (GPa) = 49.23028 36.60290 59.11152
#
# Poissons Ratio (x) = 0.31659 0.55737
# Poissons Ratio (y) = 0.42581 -0.42396
# Poissons Ratio (z) = 0.46420 -0.26252
#
# Static dielectric constant tensor:
#      x y z
#    x 1.765480 0.000000 -0.006900 
#    y 0.000000 1.706320 0.000000 
#    z -0.006900 0.000000 1.740360 
# 
# From -- ./inp_files/187499.got.cif
#   From: 2010.05.17/outbox.cif.g08.bks.cpg/sg12_94_cif.got.tgz:187499.got - 2010.06.03 13:09:07.
