data_PCOD9221098
_publ_section_title
;
Structure prediction by ZEFSAII (Michael W. Deem and Ramdas Pophale) SiO2 
 PCOD9221098
Probable space group: C 2/M
;
_chemical_formula_sum "Si O2"
_cell_formula_units_Z 56
_cell_length_a 17.057443
_cell_length_b 24.002725
_cell_length_c 9.487997
_cell_angle_alpha 90.000000
_cell_angle_beta 141.466416
_cell_angle_gamma 90.000000
_cell_volume 2420.017019
_symmetry_space_group_name_H-M "C 2/M"
_symmetry_group_IT_number 12
_symmetry_cell_setting 'monoclinic'
loop_
_space_group_symop_operation_xyz
x,y,z
-x,y,-z
-x,-y,-z
x,-y,z
1/2+x,1/2+y,z
1/2-x,1/2+y,-z
1/2-x,1/2-y,-z
1/2+x,1/2-y,z
loop_
_atom_site_type_symbol
_atom_site_label
_atom_site_fract_x
_atom_site_fract_y
_atom_site_fract_z
Si Si1 0.146156 0.442048 0.660190
Si Si2 0.175381 0.932606 0.549479
Si Si3 0.216542 0.698821 0.851616
Si Si4 0.515850 0.346482 0.853468
Si Si5 0.097384 0.611382 0.320202
Si Si6 0.825989 0.400495 0.020032
Si Si7 0.872460 0.266002 0.582716
O O1 0.178093 0.500000 0.631997
O O2 0.156625 0.395240 0.559360
O O3 0.211301 0.438872 0.901304
O O4 0.000000 0.442017 0.500000
O O5 0.057579 0.898872 0.318088
O O6 0.299929 0.917400 0.633219
O O7 0.159508 0.000000 0.536525
O O8 0.213770 0.904109 0.752130
O O9 0.142164 0.656626 0.850480
O O10 0.154868 0.721823 0.620999
O O11 0.250000 0.750000 0.000000
O O12 0.339964 0.663048 0.985022
O O13 0.456690 0.288363 0.716907
O O14 0.500000 0.350134 0.000000
O O15 0.081574 0.677271 0.276566
O O16 0.958501 0.584255 0.130926
O O17 0.750000 0.250000 0.500000
#
# Coordination Sequence:
#
# PCOD9221098 Si02
#       7
#     8   8   8   8   8   8   8
#     4   9  18  35  60  93 137 183 226 282 348 415
#     4  12  27  47  72 104 146 200 255 305 360 431
#     4  12  26  45  71 107 144 187 236 297 370 447
#     4  12  27  49  75 105 147 192 245 302 369 443
#     4  11  22  41  71 106 147 190 243 299 364 439
#     4  11  24  41  68 107 147 186 242 304 367 426
#     4  12  23  44  72 104 142 184 233 300 371 445
#
# _framework density 23.140332999999998
#
# number of rings (size 3 to 8) (size 9 to 14) (size 15 to 20)
#    0.000    0.714    4.286    3.000    0.000    7.143 
#    0.000    2.143    0.000    0.000    0.000    0.000 
#    0.000    0.000    0.000    0.000    0.000    0.000 
#
# Total GULP energy -156324.841338 kJ/mol
# GULP energy per Si atom -5583.030048 kJ/mol
# Density = 2.308766 g / cm^3
# Si number density = 23.140333 Si / 1000 Ang^3
#
#
#
# Elastic Constant Matrix: (Units=GPa)
#
#
# Indices 1 2 3 4 5 6 
#
# 1 75.8192 3.6284 32.6067 0.0000 -2.2115 0.0000
# 2 3.6284 123.7592 37.9661 0.0000 -9.1802 0.0000
# 3 32.6067 37.9661 146.0714 0.0000 -26.3627 0.0000
# 4 0.0000 0.0000 0.0000 14.0135 0.0000 -10.6838
# 5 -2.2115 -9.1802 -26.3627 0.0000 42.5511 0.0000
# 6 0.0000 0.0000 0.0000 -10.6838 0.0000 24.0880
#
#
#
# Elastic Compliance Matrix: (Units=1/GPa)
#
#
# Indices 1 2 3 4 5 6 
#
# 1 0.014707 0.000597 -0.003690 0.000000 -0.001393 0.000000
# 2 0.000597 0.008816 -0.002337 0.000000 0.000485 0.000000
# 3 -0.003690 -0.002337 0.009178 0.000000 0.004990 0.000000
# 4 0.000000 0.000000 0.000000 0.107819 0.000000 0.047821
# 5 -0.001393 0.000485 0.004990 0.000000 0.026625 0.000000
# 6 0.000000 0.000000 0.000000 0.047821 0.000000 0.062725
#
#
# Mechanical properties :
#
#
# Convention : Reuss Voigt Hill
#
# Bulk Modulus (GPa) = 45.78447 54.89469 50.33958
# Shear Modulus (GPa) = 20.16068 34.22711 27.19389
#
# Velocity S-wave (km/s) = 2.95487 3.85009 3.43180
# Velocity P-wave (km/s) = 5.60983 6.59836 6.12407
#
# Compressibility (1/GPa) = 0.02184147
#
# Stress axis : x y z
#
# Youngs Moduli (GPa) = 67.99590 113.43477 108.96095
#
# Poissons Ratio (x) = -0.06776 0.40201
# Poissons Ratio (y) = -0.04062 0.25466
# Poissons Ratio (z) = 0.25087 0.26511
#
# Static dielectric constant tensor:
#      x y z
#    x 2.001570 0.000000 -0.023400 
#    y 0.000000 2.337120 0.000000 
#    z -0.023400 0.000000 1.951010 
# 
# From -- ./inp_files/80092.got.cif
#   From: 2010.05.17/outbox.cif.g08.bks.cpg/sg12_41_cif.got.tgz:80092.got - 2010.06.03 13:09:07.
