data_PCOD9221992
_publ_section_title
;
Structure prediction by ZEFSAII (Michael W. Deem and Ramdas Pophale) SiO2 
 PCOD9221992
Probable space group: C 2/M
;
_chemical_formula_sum "Si O2"
_cell_formula_units_Z 56
_cell_length_a 31.413941
_cell_length_b 15.829747
_cell_length_c 10.923748
_cell_angle_alpha 90.000000
_cell_angle_beta 31.030325
_cell_angle_gamma 90.000000
_cell_volume 2800.204361
_symmetry_space_group_name_H-M "C 2/M"
_symmetry_group_IT_number 12
_symmetry_cell_setting 'monoclinic'
loop_
_space_group_symop_operation_xyz
x,y,z
-x,y,-z
-x,-y,-z
x,-y,z
1/2+x,1/2+y,z
1/2-x,1/2+y,-z
1/2-x,1/2-y,-z
1/2+x,1/2-y,z
loop_
_atom_site_type_symbol
_atom_site_label
_atom_site_fract_x
_atom_site_fract_y
_atom_site_fract_z
Si Si1 0.135694 0.595825 0.370338
Si Si2 0.091365 0.257982 0.977935
Si Si3 0.694651 0.597420 0.161924
Si Si4 0.648912 0.165555 0.590232
Si Si5 0.694015 0.592434 0.666916
Si Si6 0.056146 0.240217 0.479834
Si Si7 0.752421 0.666189 0.275293
O O1 0.113440 0.500000 0.391545
O O2 0.109656 0.617515 0.573034
O O3 0.099159 0.668306 0.374486
O O4 0.235243 0.603193 0.115199
O O5 0.003728 0.243050 0.255081
O O6 0.093815 0.306188 0.841688
O O7 0.132609 0.167241 0.852454
O O8 0.155220 0.306064 0.912345
O O9 0.665874 0.500000 0.238569
O O10 0.622962 0.665626 0.320720
O O11 0.740923 0.622752 0.173648
O O12 0.722096 0.108523 0.465133
O O13 0.694676 0.250064 0.426332
O O14 0.660140 0.500000 0.774091
O O15 0.718796 0.605377 0.464645
O O16 0.000000 0.228410 0.500000
#
# Coordination Sequence:
#
# PCOD9221992 Si02
#       7
#     8   8   8   8   8   8   8
#     4  11  24  42  66  91 118 162 214 255 296 358
#     4   9  21  37  60  91 124 166 197 244 310 373
#     4  11  24  41  65  92 120 161 212 254 296 365
#     4   9  18  36  61  88 120 156 205 248 295 355
#     4   9  17  31  58  92 123 156 201 253 299 356
#     4  12  26  42  62  87 129 165 198 253 319 362
#     4   9  17  37  62  86 118 159 208 243 293 359
#
# _framework density 19.998539999999998
#
# number of rings (size 3 to 8) (size 9 to 14) (size 15 to 20)
#    0.000    2.000    1.429    3.857    4.000    1.714 
#    0.000    5.000    0.000    2.571    0.000    0.000 
#    0.000    0.000    0.000    0.000    0.000    0.000 
#
# Total GULP energy -156375.429284 kJ/mol
# GULP energy per Si atom -5584.836760 kJ/mol
# Density = 1.995302 g / cm^3
# Si number density = 19.998540 Si / 1000 Ang^3
#
#
#
# Elastic Constant Matrix: (Units=GPa)
#
#
# Indices 1 2 3 4 5 6 
#
# 1 85.6985 50.1245 15.6883 0.0000 4.5479 0.0000
# 2 50.1245 149.5450 42.9219 0.0000 -6.3897 0.0000
# 3 15.6883 42.9219 68.1563 0.0000 6.6231 0.0000
# 4 0.0000 0.0000 0.0000 18.8860 0.0000 6.6105
# 5 4.5479 -6.3897 6.6231 0.0000 22.5395 0.0000
# 6 0.0000 0.0000 0.0000 6.6105 0.0000 -3.8732
#
#
#
# Elastic Compliance Matrix: (Units=1/GPa)
#
#
# Indices 1 2 3 4 5 6 
#
# 1 0.014957 -0.005312 0.000352 0.000000 -0.004627 0.000000
# 2 -0.005312 0.010403 -0.005887 0.000000 0.005751 0.000000
# 3 0.000352 -0.005887 0.019011 0.000000 -0.007326 0.000000
# 4 0.000000 0.000000 0.000000 0.033148 0.000000 0.056573
# 5 -0.004627 0.005751 -0.007326 0.000000 0.049083 0.000000
# 6 0.000000 0.000000 0.000000 0.056573 0.000000 -0.161629
#
#
# Mechanical properties :
#
#
# Convention : Reuss Voigt Hill
#
# Bulk Modulus (GPa) = 44.09974 57.87435 50.98705
# Shear Modulus (GPa) = -865.96649 20.48812 -422.73918
#
# Velocity S-wave (km/s) = -20.83158 3.20422 -14.55486
# Velocity P-wave (km/s) = 23.59040 6.53387 16.02834
#
# Compressibility (1/GPa) = 0.02267587
#
# Stress axis : x y z
#
# Youngs Moduli (GPa) = 66.85886 96.12654 52.60201
#
# Poissons Ratio (x) = 0.51063 -0.01852
# Poissons Ratio (y) = 0.35516 0.30969
# Poissons Ratio (z) = -0.02355 0.56594
#
# Static dielectric constant tensor:
#      x y z
#    x 1.720990 0.000000 0.012600 
#    y 0.000000 1.690640 0.000000 
#    z 0.012600 0.000000 1.707400 
# 
# From -- ./inp_files/189617.got.cif
#   From: 2010.05.17/outbox.cif.g08.bks.cpg/sg12_95_cif.got.tgz:189617.got - 2010.06.03 13:09:07.
