data_PCOD9221688
_publ_section_title
;
Structure prediction by ZEFSAII (Michael W. Deem and Ramdas Pophale) SiO2 
 PCOD9221688
Probable space group: C 2/M
;
_chemical_formula_sum "Si O2"
_cell_formula_units_Z 64
_cell_length_a 14.815176
_cell_length_b 17.970206
_cell_length_c 21.906771
_cell_angle_alpha 90.000000
_cell_angle_beta 148.207413
_cell_angle_gamma 90.000000
_cell_volume 3072.711508
_symmetry_space_group_name_H-M "C 2/M"
_symmetry_group_IT_number 12
_symmetry_cell_setting 'monoclinic'
loop_
_space_group_symop_operation_xyz
x,y,z
-x,y,-z
-x,-y,-z
x,-y,z
1/2+x,1/2+y,z
1/2-x,1/2+y,-z
1/2-x,1/2-y,-z
1/2+x,1/2-y,z
loop_
_atom_site_type_symbol
_atom_site_label
_atom_site_fract_x
_atom_site_fract_y
_atom_site_fract_z
Si Si1 0.916284 0.080878 0.386307
Si Si2 0.065925 0.314732 0.850979
Si Si3 0.351651 0.633299 0.863182
Si Si4 0.693537 0.415627 0.438975
Si Si5 0.811463 0.696705 0.809023
Si Si6 0.400456 0.343304 0.196509
Si Si7 0.865961 0.081244 0.056185
Si Si8 0.484820 0.086011 0.695074
O O1 0.809521 0.153357 0.307818
O O2 0.000000 0.085965 0.500000
O O3 0.067805 0.078370 0.424489
O O4 0.822635 0.000000 0.327625
O O5 0.084723 0.233406 0.832619
O O6 0.959324 0.363857 0.740610
O O7 0.991574 0.313072 0.877122
O O8 0.247837 0.354994 0.960184
O O9 0.294945 0.715461 0.809811
O O10 0.443751 0.592398 0.860115
O O11 0.183955 0.592863 0.791590
O O12 0.500000 0.638474 0.000000
O O13 0.715393 0.500000 0.426199
O O14 0.585432 0.362396 0.332490
O O15 0.871121 0.389225 0.571360
O O16 0.748338 0.662986 0.837650
O O17 0.361753 0.407603 0.125990
O O18 0.800807 0.000000 0.000778
O O19 0.439812 0.000000 0.681290
#
# Coordination Sequence:
#
# PCOD9221688 Si02
#       8
#     8   8   8   8   8   8   8   8
#     4   9  18  37  63  92 131 173 214 267 324 383
#     4  12  24  40  67  97 130 169 220 276 321 383
#     4  12  24  43  69  94 132 176 217 273 327 384
#     4   9  20  39  64  92 130 174 215 263 325 393
#     4  11  24  40  65  98 131 169 217 266 328 395
#     4  11  23  44  66  93 135 176 212 261 332 397
#     4  12  26  44  68  97 131 175 223 269 331 390
#     4  11  23  42  68 101 131 167 224 281 325 380
#
# _framework density 20.828507999999999
#
# number of rings (size 3 to 8) (size 9 to 14) (size 15 to 20)
#    0.000    1.125    3.750    2.250    1.750    3.500 
#    2.250    1.250    0.000    2.250    0.000    0.000 
#    0.000    0.000    0.000    0.000    0.000    0.000 
#
# Total GULP energy -178584.754577 kJ/mol
# GULP energy per Si atom -5580.773581 kJ/mol
# Density = 2.078110 g / cm^3
# Si number density = 20.828508 Si / 1000 Ang^3
#
#
#
# Elastic Constant Matrix: (Units=GPa)
#
#
# Indices 1 2 3 4 5 6 
#
# 1 113.0863 20.8381 20.7363 0.0002 2.8221 0.0006
# 2 20.8381 88.7344 37.8719 -0.0003 -8.9789 -0.0024
# 3 20.7363 37.8719 88.4602 -0.0024 -6.4612 -0.0107
# 4 0.0002 -0.0003 -0.0024 10.7253 -0.0002 -0.5592
# 5 2.8221 -8.9789 -6.4612 -0.0002 27.9488 -0.0009
# 6 0.0006 -0.0024 -0.0107 -0.5592 -0.0009 1.3431
#
#
#
# Elastic Compliance Matrix: (Units=1/GPa)
#
#
# Indices 1 2 3 4 5 6 
#
# 1 0.009507 -0.001730 -0.001626 -0.000002 -0.001892 -0.000022
# 2 -0.001730 0.014376 -0.005492 -0.000002 0.003524 -0.000015
# 3 -0.001626 -0.005492 0.014159 0.000009 0.001673 0.000108
# 4 -0.000002 -0.000002 0.000009 0.095306 0.000004 0.039684
# 5 -0.001892 0.003524 0.001673 0.000004 0.037489 0.000047
# 6 -0.000022 -0.000015 0.000108 0.039684 0.000047 0.761064
#
#
# Mechanical properties :
#
#
# Convention : Reuss Voigt Hill
#
# Bulk Modulus (GPa) = 49.14869 49.90816 49.52842
# Shear Modulus (GPa) = 5.22804 22.05910 13.64357
#
# Velocity S-wave (km/s) = 1.58603 3.25788 2.56216
# Velocity P-wave (km/s) = 5.19635 6.17780 5.70821
#
# Compressibility (1/GPa) = 0.02034642
#
# Stress axis : x y z
#
# Youngs Moduli (GPa) = 105.18614 69.55855 70.62567
#
# Poissons Ratio (x) = 0.12033 0.11484
# Poissons Ratio (y) = 0.18197 0.38787
# Poissons Ratio (z) = 0.17104 0.38201
#
# Static dielectric constant tensor:
#      x y z
#    x 1.771060 0.000000 -0.008000 
#    y 0.000000 1.740160 0.000000 
#    z -0.008000 0.000000 1.823800 
# 
# From -- ./inp_files/340858.got.cif
#   From: 2010.05.17/outbox.cif.g08.bks.cpg/sg12_171_cif.got.tgz:340858.got - 2010.06.03 13:09:07.
