data_PCOD9221678
_publ_section_title
;
Structure prediction by ZEFSAII (Michael W. Deem and Ramdas Pophale) SiO2 
 PCOD9221678
Probable space group: C 2/M
;
_chemical_formula_sum "Si O2"
_cell_formula_units_Z 48
_cell_length_a 25.822841
_cell_length_b 18.640796
_cell_length_c 5.162673
_cell_angle_alpha 90.000000
_cell_angle_beta 62.723445
_cell_angle_gamma 90.000000
_cell_volume 2208.764944
_symmetry_space_group_name_H-M "C 2/M"
_symmetry_group_IT_number 12
_symmetry_cell_setting 'monoclinic'
loop_
_space_group_symop_operation_xyz
x,y,z
-x,y,-z
-x,-y,-z
x,-y,z
1/2+x,1/2+y,z
1/2-x,1/2+y,-z
1/2-x,1/2-y,-z
1/2+x,1/2-y,z
loop_
_atom_site_type_symbol
_atom_site_label
_atom_site_fract_x
_atom_site_fract_y
_atom_site_fract_z
Si Si1 0.537352 0.378590 0.672062
Si Si2 0.061177 0.287907 0.754987
Si Si3 0.785625 0.804300 0.235599
Si Si4 0.274197 0.080331 0.958257
Si Si5 0.158363 0.922351 0.569518
Si Si6 0.364481 0.186446 0.903873
O O1 0.500000 0.388075 0.500000
O O2 0.548282 0.294122 0.700117
O O3 0.600648 0.413968 0.531128
O O4 0.500000 0.406484 0.000000
O O5 0.089950 0.320998 0.433478
O O6 0.104905 0.295065 0.895916
O O7 0.000000 0.318378 0.000000
O O8 0.750000 0.750000 0.500000
O O9 0.740465 0.861959 0.228072
O O10 0.833856 0.854177 0.263600
O O11 0.820203 0.753578 0.955263
O O12 0.326243 0.114791 0.002573
O O13 0.286559 0.000000 0.837165
O O14 0.215760 0.078586 0.262427
O O15 0.156411 0.000000 0.711715
#
# Coordination Sequence:
#
# PCOD9221678 Si02
#       6
#     8   8   8   8   8   8
#     4  11  24  42  64  94 134 180 232 282 333 397
#     4  11  23  42  67 104 132 173 230 293 344 406
#     4  12  23  42  67 104 139 183 237 288 344 420
#     4  11  26  43  66 102 142 182 224 286 359 422
#     4  11  25  43  65  97 142 188 230 284 348 413
#     4  12  23  41  72 100 138 177 230 286 345 410
#
# _framework density 21.731603
#
# number of rings (size 3 to 8) (size 9 to 14) (size 15 to 20)
#    0.000    0.667    3.333    5.500    2.333    0.667 
#    0.000    0.000    0.000    3.000    0.000    0.000 
#    0.000    0.000    0.000    0.000    0.000    0.000 
#
# Total GULP energy -134281.948527 kJ/mol
# GULP energy per Si atom -5595.081189 kJ/mol
# Density = 2.168214 g / cm^3
# Si number density = 21.731603 Si / 1000 Ang^3
#
#
#
# Elastic Constant Matrix: (Units=GPa)
#
#
# Indices 1 2 3 4 5 6 
#
# 1 114.3086 53.8999 33.4296 0.0000 5.8969 0.0000
# 2 53.8999 128.1575 24.9586 0.0000 2.5266 0.0000
# 3 33.4296 24.9586 101.1829 0.0000 -5.7470 0.0000
# 4 0.0000 0.0000 0.0000 14.0025 0.0000 9.4472
# 5 5.8969 2.5266 -5.7470 0.0000 41.5921 0.0000
# 6 0.0000 0.0000 0.0000 9.4472 0.0000 -5.3283
#
#
#
# Elastic Compliance Matrix: (Units=1/GPa)
#
#
# Indices 1 2 3 4 5 6 
#
# 1 0.011736 -0.004333 -0.002911 0.000000 -0.001803 0.000000
# 2 -0.004333 0.009822 -0.000998 0.000000 -0.000120 0.000000
# 3 -0.002911 -0.000998 0.011206 0.000000 0.002022 0.000000
# 4 0.000000 0.000000 0.000000 0.032518 0.000000 0.057655
# 5 -0.001803 -0.000120 0.002022 0.000000 0.024585 0.000000
# 6 0.000000 0.000000 0.000000 0.057655 0.000000 -0.085454
#
#
# Mechanical properties :
#
#
# Convention : Reuss Voigt Hill
#
# Bulk Modulus (GPa) = 61.42733 63.13614 62.28174
# Shear Modulus (GPa) = 189.94660 25.47731 107.71196
#
# Velocity S-wave (km/s) = 9.35924 3.42769 7.04786
# Velocity P-wave (km/s) = 12.04665 6.69187 9.74430
#
# Compressibility (1/GPa) = 0.01627940
#
# Stress axis : x y z
#
# Youngs Moduli (GPa) = 85.20894 101.81095 89.23952
#
# Poissons Ratio (x) = 0.44119 0.25977
# Poissons Ratio (y) = 0.36924 0.08906
# Poissons Ratio (z) = 0.24803 0.10160
#
# Static dielectric constant tensor:
#      x y z
#    x 1.841320 0.000000 0.012760 
#    y 0.000000 1.801330 0.000000 
#    z 0.012760 0.000000 1.848210 
# 
# From -- ./inp_files/28438.got.cif
#   From: 2010.05.17/outbox.cif.g08.bks.cpg/sg12_15_cif.got.tgz:28438.got - 2010.06.03 13:09:07.
