data_PCOD9221934
_publ_section_title
;
Structure prediction by ZEFSAII (Michael W. Deem and Ramdas Pophale) SiO2 
 PCOD9221934
Probable space group: C 2/M
;
_chemical_formula_sum "Si O2"
_cell_formula_units_Z 32
_cell_length_a 20.820790
_cell_length_b 8.942062
_cell_length_c 12.424892
_cell_angle_alpha 90.000000
_cell_angle_beta 127.919104
_cell_angle_gamma 90.000000
_cell_volume 1824.895583
_symmetry_space_group_name_H-M "C 2/M"
_symmetry_group_IT_number 12
_symmetry_cell_setting 'monoclinic'
loop_
_space_group_symop_operation_xyz
x,y,z
-x,y,-z
-x,-y,-z
x,-y,z
1/2+x,1/2+y,z
1/2-x,1/2+y,-z
1/2-x,1/2-y,-z
1/2+x,1/2-y,z
loop_
_atom_site_type_symbol
_atom_site_label
_atom_site_fract_x
_atom_site_fract_y
_atom_site_fract_z
Si Si1 0.634417 0.678373 0.651395
Si Si2 0.014802 0.178238 0.338575
Si Si3 0.279650 0.677968 0.918396
Si Si4 0.955073 0.677652 0.065667
O O1 0.651083 0.500000 0.670049
O O2 0.590931 0.715496 0.493801
O O3 0.566309 0.706568 0.673458
O O4 0.714636 0.769093 0.762549
O O5 0.007968 0.267446 0.221543
O O6 0.016869 0.000000 0.319808
O O7 0.280764 0.500000 0.930111
O O8 0.250000 0.750000 0.000000
O O9 0.369036 0.738497 0.984142
O O10 0.941273 0.500000 0.059067
O O11 0.000000 0.710024 0.000000
#
# Coordination Sequence:
#
# PCOD9221934 Si02
#       4
#     8   8   8   8
#     4   9  18  34  57  87 117 145 184 236 287 331
#     4   9  18  34  58  85 115 150 186 231 285 338
#     4  12  23  36  58  87 116 149 192 237 282 335
#     4  11  24  40  58  83 117 154 192 236 284 336
#
# _framework density 17.535250000000001
#
# number of rings (size 3 to 8) (size 9 to 14) (size 15 to 20)
#    0.000    1.750    2.500    4.500    0.000    3.000 
#    0.000    3.750    0.000    0.000    0.000    0.000 
#    0.000    0.000    0.000    0.000    0.000    0.000 
#
# Total GULP energy -89372.045908 kJ/mol
# GULP energy per Si atom -5585.752869 kJ/mol
# Density = 1.749534 g / cm^3
# Si number density = 17.535250 Si / 1000 Ang^3
#
#
#
# Elastic Constant Matrix: (Units=GPa)
#
#
# Indices 1 2 3 4 5 6 
#
# 1 88.2282 74.3753 71.6202 0.0000 -3.9971 0.0000
# 2 74.3753 100.3817 84.5265 0.0000 -6.2361 0.0000
# 3 71.6202 84.5265 149.6818 0.0000 -6.3054 0.0000
# 4 0.0000 0.0000 0.0000 36.1305 0.0000 1.7488
# 5 -3.9971 -6.2361 -6.3054 0.0000 24.5869 0.0000
# 6 0.0000 0.0000 0.0000 1.7488 0.0000 24.8011
#
#
#
# Elastic Compliance Matrix: (Units=1/GPa)
#
#
# Indices 1 2 3 4 5 6 
#
# 1 0.031183 -0.020145 -0.003585 0.000000 -0.000959 0.000000
# 2 -0.020145 0.032115 -0.008382 0.000000 0.002721 0.000000
# 3 -0.003585 -0.008382 0.013157 0.000000 0.000666 0.000000
# 4 0.000000 0.000000 0.000000 0.027772 0.000000 -0.001958
# 5 -0.000959 0.002721 0.000666 0.000000 0.041377 0.000000
# 6 0.000000 0.000000 0.000000 -0.001958 0.000000 0.040459
#
#
# Mechanical properties :
#
#
# Convention : Reuss Voigt Hill
#
# Bulk Modulus (GPa) = 81.75467 88.81507 85.28487
# Shear Modulus (GPa) = 19.65681 24.28834 21.97258
#
# Velocity S-wave (km/s) = 3.35175 3.72575 3.54369
# Velocity P-wave (km/s) = 7.85514 8.32272 8.09231
#
# Compressibility (1/GPa) = 0.01223172
#
# Stress axis : x y z
#
# Youngs Moduli (GPa) = 32.06876 31.13793 76.00290
#
# Poissons Ratio (x) = 0.62729 0.27245
# Poissons Ratio (y) = 0.64604 0.63705
# Poissons Ratio (z) = 0.11496 0.26099
#
# Static dielectric constant tensor:
#      x y z
#    x 1.564360 0.000000 0.001720 
#    y 0.000000 1.580820 0.000000 
#    z 0.001720 0.000000 1.609350 
# 
# From -- ./inp_files/151058.got.cif
#   From: 2010.05.17/outbox.cif.g08.bks.cpg/sg12_76_cif.got.tgz:151058.got - 2010.06.03 13:09:07.
