data_PCOD9221935
_publ_section_title
;
Structure prediction by ZEFSAII (Michael W. Deem and Ramdas Pophale) SiO2 
 PCOD9221935
Probable space group: C 2/M
;
_chemical_formula_sum "Si O2"
_cell_formula_units_Z 48
_cell_length_a 27.552828
_cell_length_b 9.411444
_cell_length_c 11.059478
_cell_angle_alpha 90.000000
_cell_angle_beta 58.030336
_cell_angle_gamma 90.000000
_cell_volume 2432.882619
_symmetry_space_group_name_H-M "C 2/M"
_symmetry_group_IT_number 12
_symmetry_cell_setting 'monoclinic'
loop_
_space_group_symop_operation_xyz
x,y,z
-x,y,-z
-x,-y,-z
x,-y,z
1/2+x,1/2+y,z
1/2-x,1/2+y,-z
1/2-x,1/2-y,-z
1/2+x,1/2-y,z
loop_
_atom_site_type_symbol
_atom_site_label
_atom_site_fract_x
_atom_site_fract_y
_atom_site_fract_z
Si Si1 0.222385 0.831158 0.422368
Si Si2 0.393145 0.667753 0.298026
Si Si3 0.020214 0.667196 0.669579
Si Si4 0.314892 0.665726 0.176789
Si Si5 0.409469 0.168146 0.671766
Si Si6 0.808907 0.165092 0.910846
O O1 0.250000 0.750000 0.500000
O O2 0.155084 0.809523 0.533773
O O3 0.257545 0.759225 0.268174
O O4 0.232835 0.000000 0.411510
O O5 0.404162 0.500000 0.275937
O O6 0.449863 0.748676 0.262271
O O7 0.362337 0.711291 0.212864
O O8 0.020161 0.500000 0.696946
O O9 0.058810 0.686983 0.497946
O O10 0.956437 0.707305 0.712111
O O11 0.300778 0.500000 0.223553
O O12 0.334740 0.671855 0.012921
O O13 0.353405 0.261103 0.762873
O O14 0.396137 0.000000 0.701396
O O15 0.799306 0.000000 0.892298
O O16 0.750000 0.250000 0.000000
#
# Coordination Sequence:
#
# PCOD9221935 Si02
#       6
#     8   8   8   8   8   8
#     4   9  17  29  47  74 108 143 179 222 268 318
#     4   9  18  32  52  80 110 139 180 229 274 324
#     4   9  19  36  60  84 110 144 183 228 279 329
#     4   9  20  37  52  74 110 148 184 225 274 330
#     4   9  20  40  59  81 112 146 185 229 275 329
#     4  11  24  40  59  82 111 149 189 228 277 336
#
# _framework density 19.729683000000001
#
# number of rings (size 3 to 8) (size 9 to 14) (size 15 to 20)
#    0.000    2.667    0.000    3.000    2.333    6.000 
#    0.000    2.500    0.000    5.000    0.000    0.000 
#    0.000    0.000    0.000    0.000    0.000    0.000 
#
# Total GULP energy -133854.438460 kJ/mol
# GULP energy per Si atom -5577.268269 kJ/mol
# Density = 1.968478 g / cm^3
# Si number density = 19.729683 Si / 1000 Ang^3
#
#
#
# Elastic Constant Matrix: (Units=GPa)
#
#
# Indices 1 2 3 4 5 6 
#
# 1 107.3220 48.1091 2.5495 0.0000 -1.3445 0.0000
# 2 48.1091 62.7118 20.2038 0.0000 -15.5170 0.0000
# 3 2.5495 20.2038 36.3030 0.0000 -5.5238 0.0000
# 4 0.0000 0.0000 0.0000 22.4932 0.0000 -1.6063
# 5 -1.3445 -15.5170 -5.5238 0.0000 27.7794 0.0000
# 6 0.0000 0.0000 0.0000 -1.6063 0.0000 30.7108
#
#
#
# Elastic Compliance Matrix: (Units=1/GPa)
#
#
# Indices 1 2 3 4 5 6 
#
# 1 0.016576 -0.016768 0.007079 0.000000 -0.007156 0.000000
# 2 -0.016768 0.038833 -0.017796 0.000000 0.017341 0.000000
# 3 0.007079 -0.017796 0.036600 0.000000 -0.002320 0.000000
# 4 0.000000 0.000000 0.000000 0.044625 0.000000 0.002334
# 5 -0.007156 0.017341 -0.002320 0.000000 0.044877 0.000000
# 6 0.000000 0.000000 0.000000 0.002334 0.000000 0.032684
#
#
# Mechanical properties :
#
#
# Convention : Reuss Voigt Hill
#
# Bulk Modulus (GPa) = 26.99793 38.67350 32.83571
# Shear Modulus (GPa) = 17.76130 25.22832 21.49481
#
# Velocity S-wave (km/s) = 3.00364 3.57977 3.30429
# Velocity P-wave (km/s) = 5.07373 6.06057 5.58898
#
# Compressibility (1/GPa) = 0.03703988
#
# Stress axis : x y z
#
# Youngs Moduli (GPa) = 60.32659 25.75103 27.32267
#
# Poissons Ratio (x) = 0.43179 -0.19341
# Poissons Ratio (y) = 1.01155 0.48623
# Poissons Ratio (z) = -0.42704 0.45826
#
# Static dielectric constant tensor:
#      x y z
#    x 1.713530 0.000000 0.036880 
#    y 0.000000 1.662330 0.000000 
#    z 0.036880 0.000000 1.725570 
# 
# From -- ./inp_files/179726.got.cif
#   From: 2010.05.17/outbox.cif.g08.bks.cpg/sg12_90_cif.got.tgz:179726.got - 2010.06.03 13:09:07.
