data_PCOD9221621
_publ_section_title
;
Structure prediction by ZEFSAII (Michael W. Deem and Ramdas Pophale) SiO2 
 PCOD9221621
Probable space group: C 2/M
;
_chemical_formula_sum "Si O2"
_cell_formula_units_Z 64
_cell_length_a 14.820908
_cell_length_b 8.442718
_cell_length_c 25.182775
_cell_angle_alpha 90.000000
_cell_angle_beta 82.685603
_cell_angle_gamma 90.000000
_cell_volume 3125.447035
_symmetry_space_group_name_H-M "C 2/M"
_symmetry_group_IT_number 12
_symmetry_cell_setting 'monoclinic'
loop_
_space_group_symop_operation_xyz
x,y,z
-x,y,-z
-x,-y,-z
x,-y,z
1/2+x,1/2+y,z
1/2-x,1/2+y,-z
1/2-x,1/2-y,-z
1/2+x,1/2-y,z
loop_
_atom_site_type_symbol
_atom_site_label
_atom_site_fract_x
_atom_site_fract_y
_atom_site_fract_z
Si Si1 0.467041 0.813490 0.061696
Si Si2 0.608129 0.316482 0.131868
Si Si3 0.274170 0.314941 0.056489
Si Si4 0.240660 0.809694 0.317612
Si Si5 0.189962 0.192141 0.435861
Si Si6 0.110501 0.813657 0.546035
Si Si7 0.442110 0.809943 0.340780
Si Si8 0.899564 0.688569 0.750179
O O1 0.520821 0.718338 0.102142
O O2 0.360620 0.779061 0.071646
O O3 0.486184 0.000000 0.066909
O O4 0.500000 0.767506 0.000000
O O5 0.633598 0.500000 0.125688
O O6 0.688752 0.212713 0.100867
O O7 0.591738 0.270174 0.193770
O O8 0.296244 0.500000 0.050815
O O9 0.250000 0.250000 0.000000
O O10 0.180097 0.772170 0.374562
O O11 0.343707 0.760357 0.324314
O O12 0.196172 0.728497 0.270432
O O13 0.240192 0.000000 0.310488
O O14 0.112105 0.238218 0.483967
O O15 0.284593 0.275498 0.445300
O O16 0.202658 0.000000 0.439328
O O17 0.052970 0.740251 0.598042
O O18 0.092565 0.000000 0.548006
O O19 0.522578 0.753777 0.296616
O O20 0.442526 0.000000 0.340290
O O21 0.908869 0.500000 0.756110
#
# Coordination Sequence:
#
# PCOD9221621 Si02
#       8
#     8   8   8   8   8   8   8   8
#     4  11  23  41  68  99 133 169 203 245 299 357
#     4  12  26  44  66  93 127 167 209 256 306 360
#     4  12  24  41  67  99 133 168 206 248 298 356
#     4   9  18  36  59  81 110 152 198 243 299 364
#     4   8  15  28  47  75 112 149 184 232 298 361
#     4   9  15  25  48  80 109 142 189 241 290 351
#     4   9  20  38  58  79 112 156 193 239 303 363
#     4  11  24  42  61  84 117 155 202 254 303 357
#
# _framework density 20.477069
#
# number of rings (size 3 to 8) (size 9 to 14) (size 15 to 20)
#    0.000    1.875    1.250    4.125    0.000    5.000 
#    0.000    4.375    0.000    3.750    0.000    0.000 
#    0.000    0.000    0.000    0.000    0.000    0.000 
#
# Total GULP energy -178749.847207 kJ/mol
# GULP energy per Si atom -5585.932725 kJ/mol
# Density = 2.043046 g / cm^3
# Si number density = 20.477069 Si / 1000 Ang^3
#
#
#
# Elastic Constant Matrix: (Units=GPa)
#
#
# Indices 1 2 3 4 5 6 
#
# 1 64.7007 -10.2502 22.0276 0.0000 -1.3113 0.0000
# 2 -10.2502 30.3097 13.7100 0.0000 4.0865 0.0000
# 3 22.0276 13.7100 104.0059 0.0000 3.0268 0.0000
# 4 0.0000 0.0000 0.0000 31.8498 0.0000 -0.6749
# 5 -1.3113 4.0865 3.0268 0.0000 32.0524 0.0000
# 6 0.0000 0.0000 0.0000 -0.6749 0.0000 21.3778
#
#
#
# Elastic Compliance Matrix: (Units=1/GPa)
#
#
# Indices 1 2 3 4 5 6 
#
# 1 0.018531 0.008533 -0.005054 0.000000 0.000147 0.000000
# 2 0.008533 0.039545 -0.006902 0.000000 -0.004041 0.000000
# 3 -0.005054 -0.006902 0.011607 0.000000 -0.000423 0.000000
# 4 0.000000 0.000000 0.000000 0.031418 0.000000 0.000992
# 5 0.000147 -0.004041 -0.000423 0.000000 0.031760 0.000000
# 6 0.000000 0.000000 0.000000 0.000992 0.000000 0.046809
#
#
# Mechanical properties :
#
#
# Convention : Reuss Voigt Hill
#
# Bulk Modulus (GPa) = 15.91406 27.77678 21.84542
# Shear Modulus (GPa) = 24.10059 28.62459 26.36259
#
# Velocity S-wave (km/s) = 3.43440 3.74289 3.59196
# Velocity P-wave (km/s) = 4.84926 5.68095 5.28150
#
# Compressibility (1/GPa) = 0.06283750
#
# Stress axis : x y z
#
# Youngs Moduli (GPa) = 53.96295 25.28737 86.15197
#
# Poissons Ratio (x) = -0.21578 0.43540
# Poissons Ratio (y) = -0.46047 0.59466
# Poissons Ratio (z) = 0.27272 0.17455
#
# Static dielectric constant tensor:
#      x y z
#    x 1.734310 0.000000 -0.017420 
#    y 0.000000 1.702510 0.000000 
#    z -0.017420 0.000000 1.721380 
# 
# From -- ./inp_files/338901.got.cif
#   From: 2010.05.17/outbox.cif.g08.bks.cpg/sg12_170_cif.got.tgz:338901.got - 2010.06.03 13:09:07.
