data_PCOD9221234
_publ_section_title
;
Structure prediction by ZEFSAII (Michael W. Deem and Ramdas Pophale) SiO2 
 PCOD9221234
Probable space group: C 2/M
;
_chemical_formula_sum "Si O2"
_cell_formula_units_Z 48
_cell_length_a 14.563095
_cell_length_b 20.889185
_cell_length_c 11.107822
_cell_angle_alpha 90.000000
_cell_angle_beta 139.891064
_cell_angle_gamma 90.000000
_cell_volume 2176.976523
_symmetry_space_group_name_H-M "C 2/M"
_symmetry_group_IT_number 12
_symmetry_cell_setting 'monoclinic'
loop_
_space_group_symop_operation_xyz
x,y,z
-x,y,-z
-x,-y,-z
x,-y,z
1/2+x,1/2+y,z
1/2-x,1/2+y,-z
1/2-x,1/2-y,-z
1/2+x,1/2-y,z
loop_
_atom_site_type_symbol
_atom_site_label
_atom_site_fract_x
_atom_site_fract_y
_atom_site_fract_z
Si Si1 0.021309 0.612475 0.652773
Si Si2 0.301068 0.066890 0.599843
Si Si3 0.276845 0.781230 0.395623
Si Si4 0.573189 0.396951 0.193337
Si Si5 0.328807 0.652911 0.328248
Si Si6 0.207755 0.078251 0.948794
O O1 0.957633 0.576617 0.705259
O O2 0.922894 0.676586 0.548480
O O3 0.000000 0.582091 0.500000
O O4 0.187833 0.610916 0.848386
O O5 0.206876 0.067086 0.384438
O O6 0.241851 0.121412 0.625104
O O7 0.285507 0.000000 0.650092
O O8 0.250000 0.750000 0.500000
O O9 0.142171 0.827499 0.237879
O O10 0.293396 0.727794 0.309290
O O11 0.500000 0.422475 0.000000
O O12 0.451581 0.402684 0.171443
O O13 0.500000 0.645671 0.500000
O O14 0.268677 0.614262 0.154095
O O15 0.219984 0.000000 0.957572
#
# Coordination Sequence:
#
# PCOD9221234 Si02
#       6
#     8   8   8   8   8   8
#     4  11  25  45  70 103 142 192 238 296 359 420
#     4  11  23  43  69  95 138 187 233 288 356 425
#     4  11  22  47  71  95 143 185 244 289 357 426
#     4  11  24  41  67 103 135 185 239 295 351 416
#     4  12  24  45  72 105 141 191 232 305 362 424
#     4  12  26  44  72 113 146 185 245 297 369 436
#
# _framework density 22.048928
#
# number of rings (size 3 to 8) (size 9 to 14) (size 15 to 20)
#    0.000    0.667    5.000    4.000    0.000    6.667 
#    0.000    5.000    0.000    0.000    0.000    0.000 
#    0.000    0.000    0.000    0.000    0.000    0.000 
#
# Total GULP energy -133948.782852 kJ/mol
# GULP energy per Si atom -5581.199285 kJ/mol
# Density = 2.199874 g / cm^3
# Si number density = 22.048928 Si / 1000 Ang^3
#
#
#
# Elastic Constant Matrix: (Units=GPa)
#
#
# Indices 1 2 3 4 5 6 
#
# 1 84.3946 31.0695 5.3912 0.0000 -2.4718 0.0000
# 2 31.0695 142.2895 24.1470 0.0000 0.7568 0.0000
# 3 5.3912 24.1470 75.3389 0.0000 -4.3613 0.0000
# 4 0.0000 0.0000 0.0000 -25.7318 0.0000 -19.1354
# 5 -2.4718 0.7568 -4.3613 0.0000 41.0633 0.0000
# 6 0.0000 0.0000 0.0000 -19.1354 0.0000 -5.3719
#
#
#
# Elastic Compliance Matrix: (Units=1/GPa)
#
#
# Indices 1 2 3 4 5 6 
#
# 1 0.012913 -0.002829 0.000031 0.000000 0.000833 0.000000
# 2 -0.002829 0.008058 -0.002414 0.000000 -0.000575 0.000000
# 3 0.000031 -0.002414 0.014134 0.000000 0.001548 0.000000
# 4 0.000000 0.000000 0.000000 0.023568 0.000000 -0.083951
# 5 0.000833 -0.000575 0.001548 0.000000 0.024578 0.000000
# 6 0.000000 0.000000 0.000000 -0.083951 0.000000 0.112891
#
#
# Mechanical properties :
#
#
# Convention : Reuss Voigt Hill
#
# Bulk Modulus (GPa) = 40.51558 47.02650 43.77104
# Shear Modulus (GPa) = 23.27813 18.08626 20.68219
#
# Velocity S-wave (km/s) = 3.25275 2.86716 3.06602
# Velocity P-wave (km/s) = 5.70284 5.68642 5.69464
#
# Compressibility (1/GPa) = 0.02468186
#
# Stress axis : x y z
#
# Youngs Moduli (GPa) = 77.44065 124.09436 70.74976
#
# Poissons Ratio (x) = 0.35110 -0.00219
# Poissons Ratio (y) = 0.21910 0.17076
# Poissons Ratio (z) = -0.00240 0.29952
#
# Static dielectric constant tensor:
#      x y z
#    x 1.834630 0.000000 -0.030180 
#    y 0.000000 1.860090 0.000000 
#    z -0.030180 0.000000 1.761320 
# 
# From -- ./inp_files/148033.got.cif
#   From: 2010.05.17/outbox.cif.g08.bks.cpg/sg12_75_cif.got.tgz:148033.got - 2010.06.03 13:09:07.
