data_PCOD9221613
_publ_section_title
;
Structure prediction by ZEFSAII (Michael W. Deem and Ramdas Pophale) SiO2 
 PCOD9221613
Probable space group: C 2/M
;
_chemical_formula_sum "Si O2"
_cell_formula_units_Z 40
_cell_length_a 28.082805
_cell_length_b 16.091968
_cell_length_c 8.823583
_cell_angle_alpha 90.000000
_cell_angle_beta 153.345984
_cell_angle_gamma 90.000000
_cell_volume 1788.774886
_symmetry_space_group_name_H-M "C 2/M"
_symmetry_group_IT_number 12
_symmetry_cell_setting 'monoclinic'
loop_
_space_group_symop_operation_xyz
x,y,z
-x,y,-z
-x,-y,-z
x,-y,z
1/2+x,1/2+y,z
1/2-x,1/2+y,-z
1/2-x,1/2-y,-z
1/2+x,1/2-y,z
loop_
_atom_site_type_symbol
_atom_site_label
_atom_site_fract_x
_atom_site_fract_y
_atom_site_fract_z
Si Si1 0.889079 0.371587 0.769915
Si Si2 0.381961 0.088276 0.101634
Si Si3 0.343345 0.593759 0.968053
Si Si4 0.361225 0.746511 0.232858
Si Si5 0.049993 0.804083 0.989052
O O1 0.784654 0.405641 0.393314
O O2 0.886714 0.403883 0.934645
O O3 0.000000 0.389975 0.000000
O O4 0.877304 0.271744 0.747044
O O5 0.500000 0.080478 0.500000
O O6 0.351265 0.175400 0.090623
O O7 0.325224 0.000000 0.978996
O O8 0.380509 0.500000 0.097696
O O9 0.376682 0.661035 0.186592
O O10 0.386924 0.630794 0.933503
O O11 0.459410 0.743545 0.630623
O O12 0.250000 0.750000 0.000000
O O13 0.000000 0.841446 0.000000
#
# Coordination Sequence:
#
# PCOD9221613 Si02
#       5
#     8   8   8   8   8
#     4  11  23  45  71 102 137 179 228 292 350 407
#     4  11  23  41  67  98 137 178 225 286 348 406
#     4  12  27  45  71 103 142 187 230 280 346 418
#     4  12  25  46  70 100 141 182 234 285 341 412
#     4  11  24  45  73  99 135 186 231 286 347 407
#
# _framework density 22.361674000000001
#
# number of rings (size 3 to 8) (size 9 to 14) (size 15 to 20)
#    0.000    0.600    4.000    4.200    2.800    4.400 
#    0.000    0.000    0.000    0.600    0.000    0.000 
#    0.000    0.000    0.000    0.000    0.000    0.000 
#
# Total GULP energy -111793.544861 kJ/mol
# GULP energy per Si atom -5589.677243 kJ/mol
# Density = 2.231078 g / cm^3
# Si number density = 22.361674 Si / 1000 Ang^3
#
#
#
# Elastic Constant Matrix: (Units=GPa)
#
#
# Indices 1 2 3 4 5 6 
#
# 1 113.0935 65.1032 15.4575 0.0000 8.4219 0.0000
# 2 65.1032 190.5563 11.9458 0.0000 7.9506 0.0000
# 3 15.4575 11.9458 70.1448 0.0000 4.1646 0.0000
# 4 0.0000 0.0000 0.0000 26.6472 0.0000 -0.0383
# 5 8.4219 7.9506 4.1646 0.0000 37.3873 0.0000
# 6 0.0000 0.0000 0.0000 -0.0383 0.0000 -1.4132
#
#
#
# Elastic Compliance Matrix: (Units=1/GPa)
#
#
# Indices 1 2 3 4 5 6 
#
# 1 0.011328 -0.003693 -0.001774 0.000000 -0.001569 0.000000
# 2 -0.003693 0.006549 -0.000270 0.000000 -0.000531 0.000000
# 3 -0.001774 -0.000270 0.014764 0.000000 -0.001187 0.000000
# 4 0.000000 0.000000 0.000000 0.037526 0.000000 -0.001017
# 5 -0.001569 -0.000531 -0.001187 0.000000 0.027346 0.000000
# 6 0.000000 0.000000 0.000000 -0.001017 0.000000 -0.707566
#
#
# Mechanical properties :
#
#
# Convention : Reuss Voigt Hill
#
# Bulk Modulus (GPa) = 47.24720 62.08972 54.66846
# Shear Modulus (GPa) = -8.45273 31.27680 11.41204
#
# Velocity S-wave (km/s) = -1.94633 3.74395 2.26152
# Velocity P-wave (km/s) = 4.01542 6.82026 5.59641
#
# Compressibility (1/GPa) = 0.02116527
#
# Stress axis : x y z
#
# Youngs Moduli (GPa) = 88.27936 152.70218 67.73399
#
# Poissons Ratio (x) = 0.56399 0.12017
# Poissons Ratio (y) = 0.32605 0.01828
# Poissons Ratio (z) = 0.15662 0.04121
#
# Static dielectric constant tensor:
#      x y z
#    x 1.794700 0.000000 0.001390 
#    y 0.000000 1.949320 0.000000 
#    z 0.001390 0.000000 1.857230 
# 
# From -- ./inp_files/105878.got.cif
#   From: 2010.05.17/outbox.cif.g08.bks.cpg/sg12_53_cif.got.tgz:105878.got - 2010.06.03 13:09:07.
