data_PCOD9221382
_publ_section_title
;
Structure prediction by ZEFSAII (Michael W. Deem and Ramdas Pophale) SiO2 
 PCOD9221382
Probable space group: C 2/M
;
_chemical_formula_sum "Si O2"
_cell_formula_units_Z 34
_cell_length_a 19.620803
_cell_length_b 7.349796
_cell_length_c 9.843027
_cell_angle_alpha 90.000000
_cell_angle_beta 58.859150
_cell_angle_gamma 90.000000
_cell_volume 1214.907051
_symmetry_space_group_name_H-M "C 2/M"
_symmetry_group_IT_number 12
_symmetry_cell_setting 'monoclinic'
loop_
_space_group_symop_operation_xyz
x,y,z
-x,y,-z
-x,-y,-z
x,-y,z
1/2+x,1/2+y,z
1/2-x,1/2+y,-z
1/2-x,1/2-y,-z
1/2+x,1/2-y,z
loop_
_atom_site_type_symbol
_atom_site_label
_atom_site_fract_x
_atom_site_fract_y
_atom_site_fract_z
Si Si1 0.709767 0.204036 0.710739
Si Si2 0.881732 0.219657 0.624479
Si Si3 0.840981 0.215449 0.952110
Si Si4 0.557824 0.785075 0.721236
Si Si5 0.000000 0.000000 0.000000
O O1 0.794184 0.288263 0.664686
O O2 0.648190 0.283196 0.667398
O O3 0.726829 0.000000 0.647596
O O4 0.657322 0.198515 0.902204
O O5 0.890802 0.283283 0.771326
O O6 0.942247 0.261968 0.441699
O O7 0.877505 0.000000 0.641267
O O8 0.850631 0.000000 0.963151
O O9 0.750000 0.250000 0.000000
O O10 0.505583 0.659131 0.872886
O O11 0.550475 0.000000 0.759546
#
# Coordination Sequence:
#
# PCOD9221382 Si02
#       5
#     8   8   8   8   2
#     4   9  19  33  54  87 121 146 185 232 287 349
#     4   9  17  33  54  86 122 150 181 232 288 346
#     4   9  17  28  49  80 120 155 180 216 284 352
#     4  11  23  39  61  84 108 152 198 241 287 341
#     4  12  26  44  60  76 120 152 206 244 292 322
#
# _framework density 27.985679999999999
#
# number of rings (size 3 to 8) (size 9 to 14) (size 15 to 20)
#    0.000    2.353    1.176    3.176    1.647    4.706 
#    0.000    0.000    0.000    2.824    0.000    4.941 
#    0.000    0.000    0.000    0.000    0.000    0.000 
#
# Total GULP energy -94877.692198 kJ/mol
# GULP energy per Si atom -5581.040718 kJ/mol
# Density = 2.792198 g / cm^3
# Si number density = 27.985680 Si / 1000 Ang^3
#
#
#
# Elastic Constant Matrix: (Units=GPa)
#
#
# Indices 1 2 3 4 5 6 
#
# 1 60.3841 1.3533 51.4777 0.0000 -10.8286 0.0000
# 2 1.3533 189.1032 47.1603 0.0000 -2.5821 0.0000
# 3 51.4777 47.1603 289.2335 0.0000 21.6066 0.0000
# 4 0.0000 0.0000 0.0000 37.5832 0.0000 -5.2337
# 5 -10.8286 -2.5821 21.6066 0.0000 59.2781 0.0000
# 6 0.0000 0.0000 0.0000 -5.2337 0.0000 9.9521
#
#
#
# Elastic Compliance Matrix: (Units=1/GPa)
#
#
# Indices 1 2 3 4 5 6 
#
# 1 0.021241 0.001010 -0.004357 0.000000 0.005512 0.000000
# 2 0.001010 0.005580 -0.001153 0.000000 0.000848 0.000000
# 3 -0.004357 -0.001153 0.004610 0.000000 -0.002526 0.000000
# 4 0.000000 0.000000 0.000000 0.028710 0.000000 0.015098
# 5 0.005512 0.000848 -0.002526 0.000000 0.018834 0.000000
# 6 0.000000 0.000000 0.000000 0.015098 0.000000 0.108421
#
#
# Mechanical properties :
#
#
# Convention : Reuss Voigt Hill
#
# Bulk Modulus (GPa) = 44.58230 82.07814 63.33022
# Shear Modulus (GPa) = 24.52510 50.61132 37.56821
#
# Velocity S-wave (km/s) = 2.96352 4.25723 3.66786
# Velocity P-wave (km/s) = 5.26070 7.31831 6.37309
#
# Compressibility (1/GPa) = 0.02243043
#
# Stress axis : x y z
#
# Youngs Moduli (GPa) = 47.07932 179.21201 216.94108
#
# Poissons Ratio (x) = -0.18097 0.94518
# Poissons Ratio (y) = -0.04754 0.25011
# Poissons Ratio (z) = 0.20512 0.20661
#
# Static dielectric constant tensor:
#      x y z
#    x 2.329780 0.000000 -0.087270 
#    y 0.000000 1.913100 0.000000 
#    z -0.087270 0.000000 2.219980 
# 
# From -- ./inp_files/92417.got.cif
#   From: 2010.05.17/outbox.cif.g08.bks.cpg/sg12_47_cif.got.tgz:92417.got - 2010.06.03 13:09:07.
