data_PCOD9221799
_publ_section_title
;
Structure prediction by ZEFSAII (Michael W. Deem and Ramdas Pophale) SiO2 
 PCOD9221799
Probable space group: C 2/M
;
_chemical_formula_sum "Si O2"
_cell_formula_units_Z 32
_cell_length_a 9.563530
_cell_length_b 24.371844
_cell_length_c 7.577327
_cell_angle_alpha 90.000000
_cell_angle_beta 132.850583
_cell_angle_gamma 90.000000
_cell_volume 1294.802358
_symmetry_space_group_name_H-M "C 2/M"
_symmetry_group_IT_number 12
_symmetry_cell_setting 'monoclinic'
loop_
_space_group_symop_operation_xyz
x,y,z
-x,y,-z
-x,-y,-z
x,-y,z
1/2+x,1/2+y,z
1/2-x,1/2+y,-z
1/2-x,1/2-y,-z
1/2+x,1/2-y,z
loop_
_atom_site_type_symbol
_atom_site_label
_atom_site_fract_x
_atom_site_fract_y
_atom_site_fract_z
Si Si1 0.461561 0.764208 0.755234
Si Si2 0.464421 0.110630 0.266629
Si Si3 0.827644 0.940241 0.491828
Si Si4 0.435101 0.349781 0.140411
O O1 0.250000 0.750000 0.500000
O O2 0.504812 0.823699 0.714068
O O3 0.584241 0.710928 0.794336
O O4 0.500000 0.771183 0.000000
O O5 0.500000 0.092407 0.500000
O O6 0.607669 0.075411 0.268801
O O7 0.245344 0.109926 0.016159
O O8 0.000000 0.943824 0.500000
O O9 0.889785 0.884749 0.640419
O O10 0.828201 0.000000 0.583214
O O11 0.500000 0.336880 0.000000
#
# Coordination Sequence:
#
# PCOD9221799 Si02
#       4
#     8   8   8   8
#     4  11  23  43  73 111 154 194 237 299 373 445
#     4  12  24  45  72 106 145 189 244 299 371 445
#     4  11  27  48  70 100 141 189 250 310 366 431
#     4  11  23  44  69 106 144 186 237 300 365 441
#
# _framework density 24.714195
#
# number of rings (size 3 to 8) (size 9 to 14) (size 15 to 20)
#    0.000    0.750    5.000    2.250    3.500    3.000 
#    0.000    2.500    0.000    0.000    0.000    0.000 
#    0.000    0.000    0.000    0.000    0.000    0.000 
#
# Total GULP energy -89181.858455 kJ/mol
# GULP energy per Si atom -5573.866153 kJ/mol
# Density = 2.465794 g / cm^3
# Si number density = 24.714195 Si / 1000 Ang^3
#
#
#
# Elastic Constant Matrix: (Units=GPa)
#
#
# Indices 1 2 3 4 5 6 
#
# 1 95.8317 9.9136 31.8469 0.0000 20.3980 0.0000
# 2 9.9136 115.9827 -3.7386 0.0000 -5.6057 0.0000
# 3 31.8469 -3.7386 106.2978 0.0000 10.4125 0.0000
# 4 0.0000 0.0000 0.0000 -7.1590 0.0000 13.7841
# 5 20.3980 -5.6057 10.4125 0.0000 44.8562 0.0000
# 6 0.0000 0.0000 0.0000 13.7841 0.0000 53.6058
#
#
#
# Elastic Compliance Matrix: (Units=1/GPa)
#
#
# Indices 1 2 3 4 5 6 
#
# 1 0.012822 -0.001458 -0.003381 0.000000 -0.005228 0.000000
# 2 -0.001458 0.008844 0.000588 0.000000 0.001632 0.000000
# 3 -0.003381 0.000588 0.010523 0.000000 -0.000832 0.000000
# 4 0.000000 0.000000 0.000000 -0.093428 0.000000 0.024024
# 5 -0.005228 0.001632 -0.000832 0.000000 0.025068 0.000000
# 6 0.000000 0.000000 0.000000 0.024024 0.000000 0.012477
#
#
# Mechanical properties :
#
#
# Convention : Reuss Voigt Hill
#
# Bulk Modulus (GPa) = 42.21490 43.79511 43.00500
# Shear Modulus (GPa) = -685.20331 36.93329 -324.13501
#
# Velocity S-wave (km/s) = -16.66892 3.86996 -11.46465
# Velocity P-wave (km/s) = 18.79766 6.14230 12.56233
#
# Compressibility (1/GPa) = 0.02368832
#
# Stress axis : x y z
#
# Youngs Moduli (GPa) = 77.99088 113.06622 95.03418
#
# Poissons Ratio (x) = 0.16481 0.32127
# Poissons Ratio (y) = 0.11368 -0.05587
# Poissons Ratio (z) = 0.26366 -0.06648
#
# Static dielectric constant tensor:
#      x y z
#    x 1.983520 0.000000 0.001710 
#    y 0.000000 2.027760 0.000000 
#    z 0.001710 0.000000 2.009010 
# 
# From -- ./inp_files/50267.got.cif
#   From: 2010.05.17/outbox.cif.g08.bks.cpg/sg12_26_cif.got.tgz:50267.got - 2010.06.03 13:09:07.
