data_PCOD9221849
_publ_section_title
;
Structure prediction by ZEFSAII (Michael W. Deem and Ramdas Pophale) SiO2 
 PCOD9221849
Probable space group: C 2/M
;
_chemical_formula_sum "Si O2"
_cell_formula_units_Z 48
_cell_length_a 10.008939
_cell_length_b 14.697294
_cell_length_c 17.903564
_cell_angle_alpha 90.000000
_cell_angle_beta 98.313652
_cell_angle_gamma 90.000000
_cell_volume 2606.015088
_symmetry_space_group_name_H-M "C 2/M"
_symmetry_group_IT_number 12
_symmetry_cell_setting 'monoclinic'
loop_
_space_group_symop_operation_xyz
x,y,z
-x,y,-z
-x,-y,-z
x,-y,z
1/2+x,1/2+y,z
1/2-x,1/2+y,-z
1/2-x,1/2-y,-z
1/2+x,1/2-y,z
loop_
_atom_site_type_symbol
_atom_site_label
_atom_site_fract_x
_atom_site_fract_y
_atom_site_fract_z
Si Si1 0.430351 0.695169 0.696996
Si Si2 0.168371 0.394800 0.093519
Si Si3 0.128050 0.308927 0.455435
Si Si4 0.536525 0.500000 0.377157
Si Si5 0.705158 0.757210 0.796071
Si Si6 0.775210 0.000000 0.461486
Si Si7 0.343082 0.105593 0.074951
O O1 0.415343 0.759374 0.623781
O O2 0.449907 0.591855 0.670026
O O3 0.557911 0.730506 0.754474
O O4 0.297343 0.706607 0.736398
O O5 0.207748 0.500000 0.106279
O O6 0.230914 0.331968 0.161225
O O7 0.006064 0.390307 0.085308
O O8 0.206929 0.366853 0.011867
O O9 0.250000 0.250000 0.500000
O O10 0.185403 0.409806 0.447123
O O11 0.000000 0.310696 0.500000
O O12 0.393503 0.500000 0.409145
O O13 0.650256 0.500000 0.451687
O O14 0.702903 0.831603 0.861574
O O15 0.305391 0.000000 0.083499
#
# Coordination Sequence:
#
# PCOD9221849 Si02
#       7
#     8   8   8   4   8   4   8
#     4  12  27  41  64  93 131 167 203 262 322 380
#     4   9  19  39  65  91 119 170 214 254 303 373
#     4  12  24  46  69  96 126 167 222 262 313 379
#     4  11  24  44  66  96 125 169 203 264 334 371
#     4  12  23  42  59  96 130 167 204 260 320 375
#     4  11  23  44  74  92 122 165 220 268 308 382
#     4   9  19  39  65  88 124 166 216 256 302 370
#
# _framework density 18.418927
#
# number of rings (size 3 to 8) (size 9 to 14) (size 15 to 20)
#    0.000    1.167    3.333    4.750    2.333    0.000 
#    3.000    0.000    0.000    2.000    0.000    0.000 
#    0.000    0.000    0.000    0.000    0.000    0.000 
#
# Total GULP energy -134127.365100 kJ/mol
# GULP energy per Si atom -5588.640212 kJ/mol
# Density = 1.837700 g / cm^3
# Si number density = 18.418927 Si / 1000 Ang^3
#
#
#
# Elastic Constant Matrix: (Units=GPa)
#
#
# Indices 1 2 3 4 5 6 
#
# 1 43.5506 22.2438 -2.5031 0.0000 -11.6244 0.0000
# 2 22.2438 122.1367 39.2655 0.0000 -15.3700 0.0000
# 3 -2.5031 39.2655 68.6770 0.0000 -19.2170 0.0000
# 4 0.0000 0.0000 0.0000-1901.4334 0.0000 2045.5271
# 5 -11.6244 -15.3700 -19.2170 0.0000 36.2185 0.0000
# 6 0.0000 0.0000 0.0000 2045.5271 0.0000-2134.9634
#
#
#
# Elastic Compliance Matrix: (Units=1/GPa)
#
#
# Indices 1 2 3 4 5 6 
#
# 1 0.029689 -0.006570 0.007897 0.000000 0.010931 0.000000
# 2 -0.006570 0.011549 -0.007118 0.000000 -0.000984 0.000000
# 3 0.007897 -0.007118 0.022057 0.000000 0.011217 0.000000
# 4 0.000000 0.000000 0.000000 0.017122 0.000000 0.016405
# 5 0.010931 -0.000984 0.011217 0.000000 0.036652 0.000000
# 6 0.000000 0.000000 0.000000 0.016405 0.000000 0.015249
#
#
# Mechanical properties :
#
#
# Convention : Reuss Voigt Hill
#
# Bulk Modulus (GPa) = 19.33750 39.15295 29.24523
# Shear Modulus (GPa) = 31.02935 -788.34512 -378.65788
#
# Velocity S-wave (km/s) = 4.10890 -20.71080 -14.35365
# Velocity P-wave (km/s) = 5.74736 23.46515 16.08697
#
# Compressibility (1/GPa) = 0.05171299
#
# Stress axis : x y z
#
# Youngs Moduli (GPa) = 33.68236 86.59121 45.33701
#
# Poissons Ratio (x) = 0.56894 -0.35804
# Poissons Ratio (y) = 0.22131 0.32270
# Poissons Ratio (z) = -0.26600 0.61633
#
# Static dielectric constant tensor:
#      x y z
#    x 1.611890 0.000000 -0.002810 
#    y 0.000000 1.614770 0.000000 
#    z -0.002810 0.000000 1.623750 
# 
# From -- ./inp_files/255815.got.cif
#   From: 2010.05.17/outbox.cif.g08.bks.cpg/sg12_128_cif.got.tgz:255815.got - 2010.06.03 13:09:07.
