data_PCOD9221953
_publ_section_title
;
Structure prediction by ZEFSAII (Michael W. Deem and Ramdas Pophale) SiO2 
 PCOD9221953
Probable space group: C 2/M
;
_chemical_formula_sum "Si O2"
_cell_formula_units_Z 56
_cell_length_a 23.330525
_cell_length_b 19.964861
_cell_length_c 6.161822
_cell_angle_alpha 90.000000
_cell_angle_beta 86.040170
_cell_angle_gamma 90.000000
_cell_volume 2863.267509
_symmetry_space_group_name_H-M "C 2/M"
_symmetry_group_IT_number 12
_symmetry_cell_setting 'monoclinic'
loop_
_space_group_symop_operation_xyz
x,y,z
-x,y,-z
-x,-y,-z
x,-y,z
1/2+x,1/2+y,z
1/2-x,1/2+y,-z
1/2-x,1/2-y,-z
1/2+x,1/2-y,z
loop_
_atom_site_type_symbol
_atom_site_label
_atom_site_fract_x
_atom_site_fract_y
_atom_site_fract_z
Si Si1 0.259263 0.319668 0.117238
Si Si2 0.972238 0.783489 0.255633
Si Si3 0.145575 0.177006 0.554181
Si Si4 0.151270 0.577247 0.648375
Si Si5 0.060850 0.354136 0.935821
Si Si6 0.283895 0.579443 0.743811
Si Si7 0.866436 0.315483 0.694171
O O1 0.302001 0.305843 0.301410
O O2 0.195226 0.338095 0.199409
O O3 0.250000 0.250000 0.000000
O O4 0.285492 0.378090 0.963779
O O5 0.913891 0.826875 0.299086
O O6 0.952875 0.706014 0.229095
O O7 0.000000 0.789361 0.500000
O O8 0.000000 0.798901 0.000000
O O9 0.167512 0.111489 0.422264
O O10 0.139472 0.240812 0.397329
O O11 0.146777 0.500000 0.588813
O O12 0.111408 0.594834 0.863623
O O13 0.218879 0.592054 0.669731
O O14 0.123826 0.627338 0.483647
O O15 0.084623 0.315772 0.140100
O O16 0.000000 0.388013 0.000000
O O17 0.290191 0.500000 0.770149
#
# Coordination Sequence:
#
# PCOD9221953 Si02
#       7
#     8   8   8   8   8   8   8
#     4  12  22  35  65  99 126 167 218 277 343 403
#     4  11  25  43  69 104 139 174 224 290 345 402
#     4  12  23  39  70  95 130 168 221 278 343 418
#     4  11  24  41  59  88 131 177 222 278 341 398
#     4  11  24  40  63  88 129 178 229 279 331 394
#     4  11  25  42  63  98 136 173 220 278 346 417
#     4  12  22  39  63  96 129 170 226 288 337 391
#
# _framework density 19.558073
#
# number of rings (size 3 to 8) (size 9 to 14) (size 15 to 20)
#    0.000    0.571    5.714    3.857    2.000    2.000 
#    0.000    0.714    0.000    0.857    0.000    0.000 
#    0.000    0.000    0.000    0.000    0.000    0.000 
#
# Total GULP energy -156037.523718 kJ/mol
# GULP energy per Si atom -5572.768704 kJ/mol
# Density = 1.951356 g / cm^3
# Si number density = 19.558073 Si / 1000 Ang^3
#
#
#
# Elastic Constant Matrix: (Units=GPa)
#
#
# Indices 1 2 3 4 5 6 
#
# 1 93.7717 21.9868 20.8756 0.0000 -17.2180 0.0000
# 2 21.9868 87.1512 26.5381 0.0000 -8.2873 0.0000
# 3 20.8756 26.5381 57.9093 0.0000 -6.3282 0.0000
# 4 0.0000 0.0000 0.0000 16.9362 0.0000 -9.1980
# 5 -17.2180 -8.2873 -6.3282 0.0000 47.8779 0.0000
# 6 0.0000 0.0000 0.0000 -9.1980 0.0000 12.3344
#
#
#
# Elastic Compliance Matrix: (Units=1/GPa)
#
#
# Indices 1 2 3 4 5 6 
#
# 1 0.012504 -0.001801 -0.003272 0.000000 0.003752 0.000000
# 2 -0.001801 0.013705 -0.005523 0.000000 0.000994 0.000000
# 3 -0.003272 -0.005523 0.021050 0.000000 0.000650 0.000000
# 4 0.000000 0.000000 0.000000 0.099235 0.000000 0.074001
# 5 0.003752 0.000994 0.000650 0.000000 0.022494 0.000000
# 6 0.000000 0.000000 0.000000 0.074001 0.000000 0.136258
#
#
# Mechanical properties :
#
#
# Convention : Reuss Voigt Hill
#
# Bulk Modulus (GPa) = 38.36282 41.95924 40.16103
# Shear Modulus (GPa) = 14.91974 26.72514 20.82244
#
# Velocity S-wave (km/s) = 2.76496 3.70056 3.26643
# Velocity P-wave (km/s) = 5.46358 6.30548 5.89957
#
# Compressibility (1/GPa) = 0.02606691
#
# Stress axis : x y z
#
# Youngs Moduli (GPa) = 79.97455 72.96614 47.50666
#
# Poissons Ratio (x) = 0.13144 0.15544
# Poissons Ratio (y) = 0.14407 0.26236
# Poissons Ratio (z) = 0.26167 0.40296
#
# Static dielectric constant tensor:
#      x y z
#    x 1.710800 0.000000 -0.044740 
#    y 0.000000 1.627890 0.000000 
#    z -0.044740 0.000000 1.790220 
# 
# From -- ./inp_files/25421.got.cif
#   From: 2010.05.17/outbox.cif.g08.bks.cpg/sg12_13_cif.got.tgz:25421.got - 2010.06.03 13:09:07.
