data_PCOD9221185
_publ_section_title
;
Structure prediction by ZEFSAII (Michael W. Deem and Ramdas Pophale) SiO2 
 PCOD9221185
Probable space group: C 2/M
;
_chemical_formula_sum "Si O2"
_cell_formula_units_Z 40
_cell_length_a 17.348057
_cell_length_b 10.215275
_cell_length_c 11.979447
_cell_angle_alpha 90.000000
_cell_angle_beta 109.850478
_cell_angle_gamma 90.000000
_cell_volume 1996.798880
_symmetry_space_group_name_H-M "C 2/M"
_symmetry_group_IT_number 12
_symmetry_cell_setting 'monoclinic'
loop_
_space_group_symop_operation_xyz
x,y,z
-x,y,-z
-x,-y,-z
x,-y,z
1/2+x,1/2+y,z
1/2-x,1/2+y,-z
1/2-x,1/2-y,-z
1/2+x,1/2-y,z
loop_
_atom_site_type_symbol
_atom_site_label
_atom_site_fract_x
_atom_site_fract_y
_atom_site_fract_z
Si Si1 0.552233 0.500000 0.356731
Si Si2 0.344481 0.237535 0.077053
Si Si3 0.598087 0.000000 0.046505
Si Si4 0.671745 0.775218 0.670949
Si Si5 0.254380 0.500000 0.574128
Si Si6 0.500000 0.280946 0.500000
Si Si7 0.050824 0.000000 0.911131
Si Si8 0.767424 0.500000 0.689831
O O1 0.649758 0.500000 0.407659
O O2 0.517082 0.374886 0.403592
O O3 0.518120 0.500000 0.217072
O O4 0.345823 0.198749 0.207866
O O5 0.392785 0.372270 0.078622
O O6 0.250000 0.250000 0.000000
O O7 0.378716 0.127204 0.012951
O O8 0.653934 0.000000 0.187706
O O9 0.500000 0.000000 0.000000
O O10 0.732054 0.874544 0.637968
O O11 0.584692 0.790254 0.566138
O O12 0.711207 0.629292 0.682989
O O13 0.210322 0.500000 0.431151
O O14 0.000000 0.000000 0.000000
#
# Coordination Sequence:
#
# PCOD9221185 Si02
#       8
#     4   8   4   8   4   4   4   4
#     4  11  23  43  70 101 135 182 231 278 336 417
#     4  12  25  46  70  99 138 185 231 278 343 410
#     4  12  28  46  70 101 143 185 225 287 353 401
#     4  12  25  46  73 104 138 183 229 286 342 416
#     4  12  28  42  74 108 138 175 232 286 350 410
#     4  11  22  43  74  98 134 186 228 270 354 406
#     4  12  27  44  71 107 137 176 241 293 325 407
#     4  12  24  47  69  99 142 183 226 279 347 413
#
# _framework density 20.032062
#
# number of rings (size 3 to 8) (size 9 to 14) (size 15 to 20)
#    0.000    0.200    6.000    3.600    2.800    3.600 
#    0.000    0.000    0.000    0.000    0.000    0.000 
#    0.000    0.000    0.000    0.000    0.000    0.000 
#
# Total GULP energy -111837.366532 kJ/mol
# GULP energy per Si atom -5591.868327 kJ/mol
# Density = 1.998647 g / cm^3
# Si number density = 20.032062 Si / 1000 Ang^3
#
#
#
# Elastic Constant Matrix: (Units=GPa)
#
#
# Indices 1 2 3 4 5 6 
#
# 1 112.1199 35.1600 36.5993 0.0000 -5.7135 0.0000
# 2 35.1600 100.3858 33.7117 0.0000 -7.5905 0.0000
# 3 36.5993 33.7117 157.1721 0.0000 -13.9240 0.0000
# 4 0.0000 0.0000 0.0000 -131.3360 0.0000 257.6652
# 5 -5.7135 -7.5905 -13.9240 0.0000 42.3468 0.0000
# 6 0.0000 0.0000 0.0000 257.6652 0.0000 -291.2253
#
#
#
# Elastic Compliance Matrix: (Units=1/GPa)
#
#
# Indices 1 2 3 4 5 6 
#
# 1 0.010465 -0.003054 -0.001756 0.000000 0.000287 0.000000
# 2 -0.003054 0.011686 -0.001696 0.000000 0.001125 0.000000
# 3 -0.001756 -0.001696 0.007300 0.000000 0.001859 0.000000
# 4 0.000000 0.000000 0.000000 0.010348 0.000000 0.009156
# 5 0.000287 0.001125 0.001859 0.000000 0.024466 0.000000
# 6 0.000000 0.000000 0.000000 0.009156 0.000000 0.004667
#
#
# Mechanical properties :
#
#
# Convention : Reuss Voigt Hill
#
# Bulk Modulus (GPa) = 60.83247 64.51333 62.67290
# Shear Modulus (GPa) = 57.19368 -58.42912 -0.61772
#
# Velocity S-wave (km/s) = 5.34912 -5.40658 -0.55591
# Velocity P-wave (km/s) = 8.28156 2.58841 5.56257
#
# Compressibility (1/GPa) = 0.01643859
#
# Stress axis : x y z
#
# Youngs Moduli (GPa) = 95.56028 85.57521 136.98868
#
# Poissons Ratio (x) = 0.26132 0.24061
# Poissons Ratio (y) = 0.29181 0.23229
# Poissons Ratio (z) = 0.16784 0.14511
#
# Static dielectric constant tensor:
#      x y z
#    x 1.652100 0.000000 0.029670 
#    y 0.000000 1.695870 0.000000 
#    z 0.029670 0.000000 1.693160 
# 
# From -- ./inp_files/141192.got.cif
#   From: 2010.05.17/outbox.cif.g08.bks.cpg/sg12_71_cif.got.tgz:141192.got - 2010.06.03 13:09:07.
