data_PCOD9221989
_publ_section_title
;
Structure prediction by ZEFSAII (Michael W. Deem and Ramdas Pophale) SiO2 
 PCOD9221989
Probable space group: C 2/M
;
_chemical_formula_sum "Si O2"
_cell_formula_units_Z 40
_cell_length_a 31.560005
_cell_length_b 8.880614
_cell_length_c 24.287483
_cell_angle_alpha 90.000000
_cell_angle_beta 15.802279
_cell_angle_gamma 90.000000
_cell_volume 1853.701259
_symmetry_space_group_name_H-M "C 2/M"
_symmetry_group_IT_number 12
_symmetry_cell_setting 'monoclinic'
loop_
_space_group_symop_operation_xyz
x,y,z
-x,y,-z
-x,-y,-z
x,-y,z
1/2+x,1/2+y,z
1/2-x,1/2+y,-z
1/2-x,1/2-y,-z
1/2+x,1/2-y,z
loop_
_atom_site_type_symbol
_atom_site_label
_atom_site_fract_x
_atom_site_fract_y
_atom_site_fract_z
Si Si1 0.016270 0.325394 0.890534
Si Si2 0.686047 0.178438 0.024212
Si Si3 0.234757 0.174293 0.329685
Si Si4 0.916784 0.824196 0.300640
Si Si5 0.452650 0.821728 0.622167
O O1 0.026040 0.500000 0.858711
O O2 0.173375 0.291919 0.728728
O O3 0.997908 0.211547 0.863706
O O4 0.870838 0.317423 0.113575
O O5 0.803865 0.229719 0.828777
O O6 0.680919 0.000000 0.034621
O O7 0.750000 0.250000 0.000000
O O8 0.517043 0.244303 0.222025
O O9 0.094411 0.277895 0.485570
O O10 0.180904 0.000000 0.399741
O O11 0.750000 0.750000 0.500000
O O12 0.904489 0.000000 0.326796
O O13 0.500000 0.785322 0.500000
O O14 0.420479 0.000000 0.665737
#
# Coordination Sequence:
#
# PCOD9221989 Si02
#       5
#     8   8   8   8   8
#     4   9  19  38  62  92 129 167 215 270 326 387
#     4  12  27  48  72  99 135 178 225 281 341 405
#     4   9  19  36  62  93 127 169 214 267 326 388
#     4  12  26  44  67  95 130 174 221 272 328 392
#     4  11  24  41  64  96 135 176 222 275 332 397
#
# _framework density 21.578451000000001
#
# number of rings (size 3 to 8) (size 9 to 14) (size 15 to 20)
#    0.000    1.400    0.000    6.600    2.800    6.400 
#    0.000    2.000    0.000    0.000    0.000    0.000 
#    0.000    0.000    0.000    0.000    0.000    0.000 
#
# Total GULP energy -111964.953458 kJ/mol
# GULP energy per Si atom -5598.247673 kJ/mol
# Density = 2.152934 g / cm^3
# Si number density = 21.578451 Si / 1000 Ang^3
#
#
#
# Elastic Constant Matrix: (Units=GPa)
#
#
# Indices 1 2 3 4 5 6 
#
# 1 100.4919 66.1346 34.8790 0.0002 -22.3785 -0.0001
# 2 66.1346 160.5986 58.6241 -0.0010 -19.5513 -0.0001
# 3 34.8790 58.6241 88.7473 -0.0003 -27.9827 -0.0001
# 4 0.0002 -0.0010 -0.0003 35.6129 -0.0003 -1.5875
# 5 -22.3785 -19.5513 -27.9827 -0.0003 39.2511 0.0000
# 6 -0.0001 -0.0001 -0.0001 -1.5875 0.0000 38.3169
#
#
#
# Elastic Compliance Matrix: (Units=1/GPa)
#
#
# Indices 1 2 3 4 5 6 
#
# 1 0.014801 -0.005187 -0.000703 0.000000 0.005354 0.000000
# 2 -0.005187 0.010025 -0.005085 0.000000 -0.001588 0.000000
# 3 -0.000703 -0.005085 0.018031 0.000000 0.009921 0.000000
# 4 0.000000 0.000000 0.000000 0.028132 0.000000 0.001165
# 5 0.005354 -0.001588 0.009921 0.000000 0.034811 0.000000
# 6 0.000000 0.000000 0.000000 0.001165 0.000000 0.026146
#
#
# Mechanical properties :
#
#
# Convention : Reuss Voigt Hill
#
# Bulk Modulus (GPa) = 47.82623 74.34591 61.08607
# Shear Modulus (GPa) = 31.08208 35.31619 33.19913
#
# Velocity S-wave (km/s) = 3.79941 4.04993 3.92667
# Velocity P-wave (km/s) = 6.43889 7.50985 6.99490
#
# Compressibility (1/GPa) = 0.02090903
#
# Stress axis : x y z
#
# Youngs Moduli (GPa) = 67.56519 99.74724 55.45910
#
# Poissons Ratio (x) = 0.51735 0.03896
# Poissons Ratio (y) = 0.35043 0.28200
# Poissons Ratio (z) = 0.04747 0.50721
#
# Static dielectric constant tensor:
#      x y z
#    x 1.799970 0.000000 0.028910 
#    y 0.000000 1.721870 0.000000 
#    z 0.028910 0.000000 1.833360 
# 
# From -- ./inp_files/352952.got.cif
#   From: 2010.05.17/outbox.cif.g08.bks.cpg/sg12_177_cif.got.tgz:352952.got - 2010.06.03 13:09:07.
