data_PCOD9221668
_publ_section_title
;
Structure prediction by ZEFSAII (Michael W. Deem and Ramdas Pophale) SiO2 
 PCOD9221668
Probable space group: C 2/M
;
_chemical_formula_sum "Si O2"
_cell_formula_units_Z 56
_cell_length_a 20.408690
_cell_length_b 15.105187
_cell_length_c 7.747657
_cell_angle_alpha 90.000000
_cell_angle_beta 106.706090
_cell_angle_gamma 90.000000
_cell_volume 2287.614293
_symmetry_space_group_name_H-M "C 2/M"
_symmetry_group_IT_number 12
_symmetry_cell_setting 'monoclinic'
loop_
_space_group_symop_operation_xyz
x,y,z
-x,y,-z
-x,-y,-z
x,-y,z
1/2+x,1/2+y,z
1/2-x,1/2+y,-z
1/2-x,1/2-y,-z
1/2+x,1/2-y,z
loop_
_atom_site_type_symbol
_atom_site_label
_atom_site_fract_x
_atom_site_fract_y
_atom_site_fract_z
Si Si1 0.696105 0.337989 0.240446
Si Si2 0.658547 0.898835 0.743841
Si Si3 0.835881 0.902838 0.432201
Si Si4 0.546162 0.903912 0.207095
Si Si5 0.036681 0.743753 0.686190
Si Si6 0.807945 0.366284 0.836808
Si Si7 0.092023 0.099014 0.882306
O O1 0.773095 0.375852 0.312021
O O2 0.661504 0.338170 0.403049
O O3 0.699844 0.239442 0.169981
O O4 0.650840 0.392745 0.070127
O O5 0.603349 0.818273 0.697605
O O6 0.634940 0.000000 0.686805
O O7 0.683677 0.898325 0.961703
O O8 0.758610 0.902752 0.305405
O O9 0.877645 0.887681 0.288578
O O10 0.854566 0.000000 0.514497
O O11 0.520177 0.827390 0.306800
O O12 0.624014 0.892386 0.212322
O O13 0.534835 0.000000 0.277827
O O14 0.500000 0.899982 0.000000
O O15 0.046996 0.812368 0.851398
O O16 0.000000 0.793301 0.500000
O O17 0.061710 0.000000 0.868967
#
# Coordination Sequence:
#
# PCOD9221668 Si02
#       7
#     8   8   8   8   8   8   8
#     4  12  24  43  72 106 142 182 228 287 356 420
#     4  12  23  42  69 102 144 187 228 284 355 421
#     4  11  24  40  67 106 139 176 228 284 351 424
#     4  11  23  42  66  95 134 185 235 280 336 408
#     4  12  28  45  67  97 137 185 241 289 341 408
#     4  12  23  41  68  99 144 183 229 284 350 415
#     4  11  24  48  75 101 140 182 229 294 358 415
#
# _framework density 24.479652000000002
#
# number of rings (size 3 to 8) (size 9 to 14) (size 15 to 20)
#    0.000    0.429    4.286    4.714    4.000    1.429 
#    0.000    0.000    0.000    1.286    0.000    0.000 
#    0.000    0.000    0.000    0.000    0.000    0.000 
#
# Total GULP energy -156753.317028 kJ/mol
# GULP energy per Si atom -5598.332751 kJ/mol
# Density = 2.442394 g / cm^3
# Si number density = 24.479652 Si / 1000 Ang^3
#
#
#
# Elastic Constant Matrix: (Units=GPa)
#
#
# Indices 1 2 3 4 5 6 
#
# 1 46.4539 -1.7156 12.7563 0.0000 -1.6617 0.0000
# 2 -1.7156 133.9049 9.3298 0.0000 10.7947 0.0000
# 3 12.7563 9.3298 104.4037 0.0000 7.2361 0.0000
# 4 0.0000 0.0000 0.0000 22.7836 0.0000 -3.2511
# 5 -1.6617 10.7947 7.2361 0.0000 29.2005 0.0000
# 6 0.0000 0.0000 0.0000 -3.2511 0.0000 34.0515
#
#
#
# Elastic Compliance Matrix: (Units=1/GPa)
#
#
# Indices 1 2 3 4 5 6 
#
# 1 0.022401 0.000338 -0.002897 0.000000 0.001868 0.000000
# 2 0.000338 0.007728 -0.000545 0.000000 -0.002703 0.000000
# 3 -0.002897 -0.000545 0.010153 0.000000 -0.002479 0.000000
# 4 0.000000 0.000000 0.000000 0.044497 0.000000 0.004248
# 5 0.001868 -0.002703 -0.002479 0.000000 0.035966 0.000000
# 6 0.000000 0.000000 0.000000 0.004248 0.000000 0.029773
#
#
# Mechanical properties :
#
#
# Convention : Reuss Voigt Hill
#
# Bulk Modulus (GPa) = 29.34606 36.16706 32.75656
# Shear Modulus (GPa) = 29.74716 34.83326 32.29021
#
# Velocity S-wave (km/s) = 3.48972 3.77629 3.63583
# Velocity P-wave (km/s) = 5.31522 5.81552 5.57099
#
# Compressibility (1/GPa) = 0.03407612
#
# Stress axis : x y z
#
# Youngs Moduli (GPa) = 44.63991 129.39715 98.49647
#
# Poissons Ratio (x) = -0.04377 0.28532
# Poissons Ratio (y) = -0.01510 0.05364
# Poissons Ratio (z) = 0.12931 0.07047
#
# Static dielectric constant tensor:
#      x y z
#    x 1.981490 0.000000 -0.019820 
#    y 0.000000 2.069530 0.000000 
#    z -0.019820 0.000000 1.949820 
# 
# From -- ./inp_files/96464.got.cif
#   From: 2010.05.17/outbox.cif.g08.bks.cpg/sg12_49_cif.got.tgz:96464.got - 2010.06.03 13:09:07.
