data_PCOD9221083
_publ_section_title
;
Structure prediction by ZEFSAII (Michael W. Deem and Ramdas Pophale) SiO2 
 PCOD9221083
Probable space group: C 2/M
;
_chemical_formula_sum "Si O2"
_cell_formula_units_Z 42
_cell_length_a 5.178108
_cell_length_b 23.906786
_cell_length_c 16.993032
_cell_angle_alpha 90.000000
_cell_angle_beta 127.759382
_cell_angle_gamma 90.000000
_cell_volume 1663.083726
_symmetry_space_group_name_H-M "C 2/M"
_symmetry_group_IT_number 12
_symmetry_cell_setting 'monoclinic'
loop_
_space_group_symop_operation_xyz
x,y,z
-x,y,-z
-x,-y,-z
x,-y,z
1/2+x,1/2+y,z
1/2-x,1/2+y,-z
1/2-x,1/2-y,-z
1/2+x,1/2-y,z
loop_
_atom_site_type_symbol
_atom_site_label
_atom_site_fract_x
_atom_site_fract_y
_atom_site_fract_z
Si Si1 0.324246 0.380900 0.683065
Si Si2 0.500000 0.000000 0.000000
Si Si3 0.113879 0.276898 0.378756
Si Si4 0.229607 0.782856 0.139946
Si Si5 0.659942 0.617058 0.907535
Si Si6 0.200560 0.938502 0.618139
O O1 0.060621 0.331896 0.619242
O O2 0.580554 0.371067 0.801144
O O3 0.535722 0.395879 0.647218
O O4 0.078322 0.428453 0.668906
O O5 0.220065 0.050979 0.935482
O O6 0.981940 0.229580 0.415212
O O7 0.943565 0.277072 0.259975
O O8 0.918897 0.746563 0.106266
O O9 0.133672 0.847579 0.108430
O O10 0.000000 0.642184 0.000000
O O11 0.000000 0.936204 0.500000
O O12 0.159514 0.000000 0.646133
#
# Coordination Sequence:
#
# PCOD9221083 Si02
#       6
#     8   2   8   8   8   8
#     4  11  22  41  68  92 124 170 204 252 319 372
#     4   8  20  40  56  86 138 170 212 252 284 386
#     4   9  17  32  57  89 122 155 198 248 304 368
#     4   9  18  34  58  85 117 156 208 262 301 347
#     4   9  21  37  63  91 132 170 211 247 307 370
#     4  11  25  42  66  94 121 156 212 270 315 362
#
# _framework density 25.254290999999998
#
# number of rings (size 3 to 8) (size 9 to 14) (size 15 to 20)
#    0.571    1.714    0.000    2.286    2.667    6.857 
#    0.000    2.857    0.000   17.143    0.000    0.000 
#    0.000    0.000    0.000    0.000    0.000    0.000 
#
# Total GULP energy -117021.460544 kJ/mol
# GULP energy per Si atom -5572.450502 kJ/mol
# Density = 2.519681 g / cm^3
# Si number density = 25.254291 Si / 1000 Ang^3
#
#
#
# Elastic Constant Matrix: (Units=GPa)
#
#
# Indices 1 2 3 4 5 6 
#
# 1 118.8293 22.0946 42.3987 0.0000 21.4748 0.0000
# 2 22.0946 126.1402 5.3237 0.0000 13.2980 0.0000
# 3 42.3987 5.3237 80.1885 0.0000 16.4610 0.0000
# 4 0.0000 0.0000 0.0000 46.1295 0.0000 -4.3512
# 5 21.4748 13.2980 16.4610 0.0000 35.5602 0.0000
# 6 0.0000 0.0000 0.0000 -4.3512 0.0000 18.9833
#
#
#
# Elastic Compliance Matrix: (Units=1/GPa)
#
#
# Indices 1 2 3 4 5 6 
#
# 1 0.011158 -0.001329 -0.005006 0.000000 -0.003924 0.000000
# 2 -0.001329 0.008412 0.000691 0.000000 -0.002663 0.000000
# 3 -0.005006 0.000691 0.016027 0.000000 -0.004654 0.000000
# 4 0.000000 0.000000 0.000000 0.022157 0.000000 0.005079
# 5 -0.003924 -0.002663 -0.004654 0.000000 0.033641 0.000000
# 6 0.000000 0.000000 0.000000 0.005079 0.000000 0.053842
#
#
# Mechanical properties :
#
#
# Convention : Reuss Voigt Hill
#
# Bulk Modulus (GPa) = 41.13794 51.64354 46.39074
# Shear Modulus (GPa) = 30.37143 37.15733 33.76438
#
# Velocity S-wave (km/s) = 3.47165 3.83995 3.66043
# Velocity P-wave (km/s) = 5.69163 6.33673 6.02282
#
# Compressibility (1/GPa) = 0.02430846
#
# Stress axis : x y z
#
# Youngs Moduli (GPa) = 89.62306 118.87626 62.39497
#
# Poissons Ratio (x) = 0.15804 0.31234
# Poissons Ratio (y) = 0.11915 -0.04312
# Poissons Ratio (z) = 0.44864 -0.08215
#
# Static dielectric constant tensor:
#      x y z
#    x 1.960800 0.000000 0.034790 
#    y 0.000000 2.132650 0.000000 
#    z 0.034790 0.000000 2.151920 
# 
# From -- ./inp_files/298047.got.cif
#   From: 2010.05.17/outbox.cif.g08.bks.cpg/sg12_150_cif.got.tgz:298047.got - 2010.06.03 13:09:07.
