data_PCOD9221627
_publ_section_title
;
Structure prediction by ZEFSAII (Michael W. Deem and Ramdas Pophale) SiO2 
 PCOD9221627
Probable space group: C 2/M
;
_chemical_formula_sum "Si O2"
_cell_formula_units_Z 48
_cell_length_a 14.667832
_cell_length_b 13.418443
_cell_length_c 28.647240
_cell_angle_alpha 90.000000
_cell_angle_beta 160.808292
_cell_angle_gamma 90.000000
_cell_volume 1853.489543
_symmetry_space_group_name_H-M "C 2/M"
_symmetry_group_IT_number 12
_symmetry_cell_setting 'monoclinic'
loop_
_space_group_symop_operation_xyz
x,y,z
-x,y,-z
-x,-y,-z
x,-y,z
1/2+x,1/2+y,z
1/2-x,1/2+y,-z
1/2-x,1/2-y,-z
1/2+x,1/2-y,z
loop_
_atom_site_type_symbol
_atom_site_label
_atom_site_fract_x
_atom_site_fract_y
_atom_site_fract_z
Si Si1 0.885915 0.612482 0.216922
Si Si2 0.180908 0.382034 0.208684
Si Si3 0.698396 0.326579 0.836728
Si Si4 0.374228 0.703419 0.513064
Si Si5 0.800271 0.612841 0.345930
Si Si6 0.949028 0.884021 0.087342
O O1 0.900340 0.500000 0.203878
O O2 0.853998 0.712642 0.171573
O O3 0.614962 0.617503 0.119240
O O4 0.158004 0.636309 0.379852
O O5 0.186365 0.500000 0.202492
O O6 0.294403 0.331910 0.215942
O O7 0.367316 0.361028 0.343922
O O8 0.864794 0.346573 0.063146
O O9 0.451115 0.388404 0.739253
O O10 0.000000 0.359998 0.000000
O O11 0.250000 0.750000 0.500000
O O12 0.476797 0.802160 0.536244
O O13 0.914204 0.500000 0.396063
O O14 0.658671 0.649870 0.229038
O O15 0.915618 0.000000 0.083489
#
# Coordination Sequence:
#
# PCOD9221627 Si02
#       6
#     8   8   8   8   8   8
#     4  11  25  48  70  96 136 179 228 285 335 392
#     4  11  23  41  69 105 138 174 226 282 335 399
#     4  12  25  41  69 102 139 182 223 270 339 413
#     4  12  24  44  69 100 130 179 230 276 335 399
#     4  11  24  42  67 100 141 177 219 278 339 399
#     4   9  19  38  69  98 126 172 221 276 336 383
#
# _framework density 25.897099000000001
#
# number of rings (size 3 to 8) (size 9 to 14) (size 15 to 20)
#    0.000    1.000    5.000    1.000    2.333    3.667 
#    0.000    3.333    0.000    0.000    0.000    0.000 
#    0.000    0.000    0.000    0.000    0.000    0.000 
#
# Total GULP energy -134448.789610 kJ/mol
# GULP energy per Si atom -5602.032900 kJ/mol
# Density = 2.583816 g / cm^3
# Si number density = 25.897099 Si / 1000 Ang^3
#
#
#
# Elastic Constant Matrix: (Units=GPa)
#
#
# Indices 1 2 3 4 5 6 
#
# 1 57.4264 9.9121 20.4612 -0.0089 8.5728 0.0073
# 2 9.9121 160.3787 14.7352 -0.0111 12.2981 0.0044
# 3 20.4612 14.7352 97.0377 -0.0874 1.9017 0.0366
# 4 -0.0089 -0.0111 -0.0874 15.0346 0.0126 9.0530
# 5 8.5728 12.2981 1.9017 0.0126 36.2982 -0.0023
# 6 0.0073 0.0044 0.0366 9.0530 -0.0023 24.9888
#
#
#
# Elastic Compliance Matrix: (Units=1/GPa)
#
#
# Indices 1 2 3 4 5 6 
#
# 1 0.019546 -0.000520 -0.003960 -0.000010 -0.004233 0.000004
# 2 -0.000520 0.006500 -0.000838 0.000002 -0.002036 -0.000001
# 3 -0.003960 -0.000838 0.011255 0.000091 0.000629 -0.000048
# 4 -0.000010 0.000002 0.000091 0.085072 -0.000034 -0.030820
# 5 -0.004233 -0.002036 0.000629 -0.000034 0.029206 0.000016
# 6 0.000004 -0.000001 -0.000048 -0.030820 0.000016 0.051184
#
#
# Mechanical properties :
#
#
# Convention : Reuss Voigt Hill
#
# Bulk Modulus (GPa) = 37.49834 45.00663 41.25249
# Shear Modulus (GPa) = 22.49350 33.24660 27.87005
#
# Velocity S-wave (km/s) = 2.95035 3.58690 3.28408
# Velocity P-wave (km/s) = 5.11051 5.87973 5.50856
#
# Compressibility (1/GPa) = 0.02666784
#
# Stress axis : x y z
#
# Youngs Moduli (GPa) = 51.16146 153.83607 88.84825
#
# Poissons Ratio (x) = 0.07994 0.35180
# Poissons Ratio (y) = 0.02659 0.07442
# Poissons Ratio (z) = 0.20258 0.12886
#
# Static dielectric constant tensor:
#      x y z
#    x 2.036860 0.000000 -0.022270 
#    y 0.000000 2.020790 -0.000010 
#    z -0.022270 -0.000010 2.063220 
# 
# From -- ./inp_files/376625.got.cif
#   From: 2010.05.17/outbox.cif.g08.bks.cpg/sg12_189_cif.got.tgz:376625.got - 2010.06.03 13:09:07.
