data_PCOD9221271
_publ_section_title
;
Structure prediction by ZEFSAII (Michael W. Deem and Ramdas Pophale) SiO2 
 PCOD9221271
Probable space group: C 2/M
;
_chemical_formula_sum "Si O2"
_cell_formula_units_Z 58
_cell_length_a 19.089404
_cell_length_b 14.689621
_cell_length_c 11.508055
_cell_angle_alpha 90.000000
_cell_angle_beta 83.316789
_cell_angle_gamma 90.000000
_cell_volume 3205.115587
_symmetry_space_group_name_H-M "C 2/M"
_symmetry_group_IT_number 12
_symmetry_cell_setting 'monoclinic'
loop_
_space_group_symop_operation_xyz
x,y,z
-x,y,-z
-x,-y,-z
x,-y,z
1/2+x,1/2+y,z
1/2-x,1/2+y,-z
1/2-x,1/2-y,-z
1/2+x,1/2-y,z
loop_
_atom_site_type_symbol
_atom_site_label
_atom_site_fract_x
_atom_site_fract_y
_atom_site_fract_z
Si Si1 0.500000 0.000000 0.500000
Si Si2 0.488188 0.172216 0.673678
Si Si3 0.740419 0.395538 0.742553
Si Si4 0.847798 0.744623 0.606199
Si Si5 0.642805 0.243443 0.668360
Si Si6 0.724445 0.146960 0.001826
Si Si7 0.564950 0.890668 0.068652
Si Si8 0.245096 0.896360 0.260484
O O1 0.505337 0.080767 0.599033
O O2 0.430148 0.229372 0.613984
O O3 0.559760 0.225868 0.687779
O O4 0.450191 0.145230 0.800447
O O5 0.735434 0.500000 0.703786
O O6 0.804656 0.341578 0.667308
O O7 0.672603 0.333276 0.726103
O O8 0.754647 0.394794 0.877975
O O9 0.835942 0.750007 0.471104
O O10 0.816753 0.833536 0.675385
O O11 0.684182 0.157220 0.714557
O O12 0.640011 0.143189 0.009254
O O13 0.750000 0.250000 0.000000
O O14 0.756307 0.104157 0.879184
O O15 0.568405 0.000000 0.070385
O O16 0.500000 0.863279 0.000000
O O17 0.243954 0.000000 0.303055
#
# Coordination Sequence:
#
# PCOD9221271 Si02
#       8
#     2   8   8   8   8   8   8   8
#     4  12  24  36  66  88 126 176 192 244 328 368
#     4  12  23  40  59  90 125 159 204 247 307 369
#     4  11  23  39  63  86 121 162 206 251 300 364
#     4  11  23  40  60  89 122 159 202 253 299 366
#     4  11  24  39  59  91 125 160 203 253 298 363
#     4  12  21  40  61  90 123 161 200 252 310 363
#     4  11  23  36  58  90 120 153 198 247 304 364
#     4  11  23  39  62  88 122 158 201 251 309 362
#
# _framework density 18.096071999999999
#
# number of rings (size 3 to 8) (size 9 to 14) (size 15 to 20)
#    0.000    0.690    6.207    3.724    1.931    3.310 
#    0.000    0.690    0.000    1.655    0.000    2.897 
#    0.000    0.000    0.000    0.000    0.000    0.000 
#
# Total GULP energy -161756.809356 kJ/mol
# GULP energy per Si atom -5577.821012 kJ/mol
# Density = 1.805488 g / cm^3
# Si number density = 18.096072 Si / 1000 Ang^3
#
#
#
# Elastic Constant Matrix: (Units=GPa)
#
#
# Indices 1 2 3 4 5 6 
#
# 1 105.5449 51.5249 12.1354 0.0000 9.8786 0.0000
# 2 51.5249 141.3437 22.1966 0.0000 3.3737 0.0000
# 3 12.1354 22.1966 94.7547 0.0000 6.3026 0.0000
# 4 0.0000 0.0000 0.0000 16.4984 0.0000 -13.5083
# 5 9.8786 3.3737 6.3026 0.0000 29.1210 0.0000
# 6 0.0000 0.0000 0.0000 -13.5083 0.0000 -62.7845
#
#
#
# Elastic Compliance Matrix: (Units=1/GPa)
#
#
# Indices 1 2 3 4 5 6 
#
# 1 0.011887 -0.004202 -0.000307 0.000000 -0.003479 0.000000
# 2 -0.004202 0.008837 -0.001581 0.000000 0.000744 0.000000
# 3 -0.000307 -0.001581 0.011104 0.000000 -0.002116 0.000000
# 4 0.000000 0.000000 0.000000 0.051534 0.000000 -0.011088
# 5 -0.003479 0.000744 -0.002116 0.000000 0.035891 0.000000
# 6 0.000000 0.000000 0.000000 -0.011088 0.000000 -0.013542
#
#
# Mechanical properties :
#
#
# Convention : Reuss Voigt Hill
#
# Bulk Modulus (GPa) = 50.89574 57.03970 53.96772
# Shear Modulus (GPa) = 40.17970 13.61943 26.89956
#
# Velocity S-wave (km/s) = 4.71718 2.74636 3.85968
# Velocity P-wave (km/s) = 7.60627 6.45334 7.05340
#
# Compressibility (1/GPa) = 0.01964801
#
# Stress axis : x y z
#
# Youngs Moduli (GPa) = 84.12647 113.15627 90.05720
#
# Poissons Ratio (x) = 0.47548 0.02761
# Poissons Ratio (y) = 0.35350 0.14243
# Poissons Ratio (z) = 0.02580 0.17896
#
# Static dielectric constant tensor:
#      x y z
#    x 1.624080 0.000000 0.009080 
#    y 0.000000 1.606170 0.000000 
#    z 0.009080 0.000000 1.645170 
# 
# From -- ./inp_files/156080.got.cif
#   From: 2010.05.17/outbox.cif.g08.bks.cpg/sg12_79_cif.got.tgz:156080.got - 2010.06.03 13:09:07.
