data_PCOD9221208
_publ_section_title
;
Structure prediction by ZEFSAII (Michael W. Deem and Ramdas Pophale) SiO2 
 PCOD9221208
Probable space group: C 2/M
;
_chemical_formula_sum "Si O2"
_cell_formula_units_Z 36
_cell_length_a 11.987489
_cell_length_b 22.706544
_cell_length_c 5.201698
_cell_angle_alpha 90.000000
_cell_angle_beta 82.094877
_cell_angle_gamma 90.000000
_cell_volume 1402.418504
_symmetry_space_group_name_H-M "C 2/M"
_symmetry_group_IT_number 12
_symmetry_cell_setting 'monoclinic'
loop_
_space_group_symop_operation_xyz
x,y,z
-x,y,-z
-x,-y,-z
x,-y,z
1/2+x,1/2+y,z
1/2-x,1/2+y,-z
1/2-x,1/2-y,-z
1/2+x,1/2-y,z
loop_
_atom_site_type_symbol
_atom_site_label
_atom_site_fract_x
_atom_site_fract_y
_atom_site_fract_z
Si Si1 0.275122 0.000000 0.144833
Si Si2 0.217897 0.837625 0.828169
Si Si3 0.886713 0.275743 0.172308
Si Si4 0.113403 0.399436 0.587805
Si Si5 0.120811 0.000000 0.686918
Si Si6 0.000000 0.900999 0.000000
O O1 0.347460 0.941533 0.191751
O O2 0.181230 0.000000 0.397253
O O3 0.213995 0.000000 0.890346
O O4 0.165267 0.782864 0.683651
O O5 0.283004 0.886073 0.639213
O O6 0.303362 0.805222 0.991034
O O7 0.113183 0.864621 0.018204
O O8 0.916308 0.332801 0.326130
O O9 0.000000 0.255613 0.000000
O O10 0.000000 0.425482 0.500000
O O11 0.042141 0.056264 0.761840
#
# Coordination Sequence:
#
# PCOD9221208 Si02
#       6
#     4   8   8   8   4   4
#     4  12  27  49  73 105 144 190 247 293 363 425
#     4  11  23  44  68 105 139 185 234 291 357 431
#     4  11  23  43  71  99 144 183 235 291 358 424
#     4  12  25  44  68 102 139 186 236 298 352 430
#     4  11  26  48  74 105 148 187 238 304 356 430
#     4  11  22  44  74 102 144 187 242 290 368 419
#
# _framework density 25.669943
#
# number of rings (size 3 to 8) (size 9 to 14) (size 15 to 20)
#    0.000    0.667    5.556    2.333    0.000    1.778 
#    4.000    1.667    0.000    0.000    0.000    0.000 
#    0.000    0.000    0.000    0.000    0.000    0.000 
#
# Total GULP energy -100734.225570 kJ/mol
# GULP energy per Si atom -5596.345865 kJ/mol
# Density = 2.561152 g / cm^3
# Si number density = 25.669943 Si / 1000 Ang^3
#
#
#
# Elastic Constant Matrix: (Units=GPa)
#
#
# Indices 1 2 3 4 5 6 
#
# 1 154.2837 48.4975 29.2809 0.0000 2.4241 0.0000
# 2 48.4975 139.8355 25.3900 0.0000 3.0273 0.0000
# 3 29.2809 25.3900 51.4395 0.0000 7.6561 0.0000
# 4 0.0000 0.0000 0.0000 -3.6568 0.0000 -18.3549
# 5 2.4241 3.0273 7.6561 0.0000 46.0774 0.0000
# 6 0.0000 0.0000 0.0000 -18.3549 0.0000 -54.9684
#
#
#
# Elastic Compliance Matrix: (Units=1/GPa)
#
#
# Indices 1 2 3 4 5 6 
#
# 1 0.007785 -0.002080 -0.003450 0.000000 0.000300 0.000000
# 2 -0.002080 0.008412 -0.002975 0.000000 0.000051 0.000000
# 3 -0.003450 -0.002975 0.023395 0.000000 -0.003510 0.000000
# 4 0.000000 0.000000 0.000000 0.404490 0.000000 -0.135067
# 5 0.000300 0.000051 -0.003510 0.000000 0.022267 0.000000
# 6 0.000000 0.000000 0.000000 -0.135067 0.000000 0.026909
#
#
# Mechanical properties :
#
#
# Convention : Reuss Voigt Hill
#
# Bulk Modulus (GPa) = 44.28369 61.32174 52.80271
# Shear Modulus (GPa) = 9.65631 13.64980 11.65305
#
# Velocity S-wave (km/s) = 1.94162 2.30846 2.13294
# Velocity P-wave (km/s) = 4.72389 5.57187 5.16531
#
# Compressibility (1/GPa) = 0.02258168
#
# Stress axis : x y z
#
# Youngs Moduli (GPa) = 128.44469 118.87931 42.74407
#
# Poissons Ratio (x) = 0.24730 0.14745
# Poissons Ratio (y) = 0.26720 0.12718
# Poissons Ratio (z) = 0.44308 0.35372
#
# Static dielectric constant tensor:
#      x y z
#    x 2.059060 0.000000 -0.001700 
#    y 0.000000 2.080270 0.000000 
#    z -0.001700 0.000000 2.025320 
# 
# From -- ./inp_files/6972.got.cif
#   From: 2010.05.17/outbox.cif.g08.bks.cpg/sg12_4_cif.got.tgz:6972.got - 2010.06.03 13:09:07.
