data_PCOD9221572
_publ_section_title
;
Structure prediction by ZEFSAII (Michael W. Deem and Ramdas Pophale) SiO2 
 PCOD9221572
Probable space group: C 2/M
;
_chemical_formula_sum "Si O2"
_cell_formula_units_Z 44
_cell_length_a 17.559593
_cell_length_b 19.513343
_cell_length_c 5.824970
_cell_angle_alpha 90.000000
_cell_angle_beta 102.935979
_cell_angle_gamma 90.000000
_cell_volume 1945.250331
_symmetry_space_group_name_H-M "C 2/M"
_symmetry_group_IT_number 12
_symmetry_cell_setting 'monoclinic'
loop_
_space_group_symop_operation_xyz
x,y,z
-x,y,-z
-x,-y,-z
x,-y,z
1/2+x,1/2+y,z
1/2-x,1/2+y,-z
1/2-x,1/2-y,-z
1/2+x,1/2-y,z
loop_
_atom_site_type_symbol
_atom_site_label
_atom_site_fract_x
_atom_site_fract_y
_atom_site_fract_z
Si Si1 0.937338 0.237472 0.257545
Si Si2 0.285632 0.077439 0.998061
Si Si3 0.654051 0.425731 0.304248
Si Si4 0.000000 0.880929 0.000000
Si Si5 0.716678 0.693742 0.649568
Si Si6 0.961686 0.395697 0.219860
O O1 0.845440 0.236452 0.246086
O O2 0.960329 0.313272 0.196383
O O3 0.000000 0.223711 0.500000
O O4 0.947875 0.172474 0.104908
O O5 0.275726 0.143420 0.824567
O O6 0.280934 0.000000 0.893050
O O7 0.214982 0.082238 0.134219
O O8 0.371432 0.081659 0.166977
O O9 0.670982 0.500000 0.421208
O O10 0.563840 0.424507 0.173620
O O11 0.666602 0.361909 0.476622
O O12 0.750000 0.750000 0.500000
O O13 0.000000 0.411662 0.500000
O O14 0.000000 0.420360 0.000000
#
# Coordination Sequence:
#
# PCOD9221572 Si02
#       6
#     8   8   8   4   8   8
#     4  11  23  41  65 103 140 182 235 303 359 427
#     4  11  27  48  70 101 145 192 243 305 373 446
#     4  11  25  44  67 101 144 187 236 294 366 443
#     4  12  21  42  68 100 139 188 236 284 361 440
#     4  12  26  42  73 105 137 188 245 304 365 438
#     4  11  27  47  75 109 146 190 250 316 382 439
#
# _framework density 22.619195999999999
#
# number of rings (size 3 to 8) (size 9 to 14) (size 15 to 20)
#    0.000    0.727    4.545    1.909   10.182    2.182 
#    0.000    0.909    0.000    0.000    0.000    0.000 
#    0.000    0.000    0.000    0.000    0.000    0.000 
#
# Total GULP energy -122741.697442 kJ/mol
# GULP energy per Si atom -5579.168066 kJ/mol
# Density = 2.256771 g / cm^3
# Si number density = 22.619196 Si / 1000 Ang^3
#
#
#
# Elastic Constant Matrix: (Units=GPa)
#
#
# Indices 1 2 3 4 5 6 
#
# 1 121.6551 -0.7934 46.4424 0.0000 14.8166 0.0000
# 2 -0.7934 98.9662 35.7582 0.0000 9.2456 0.0000
# 3 46.4424 35.7582 88.8153 0.0000 23.6337 0.0000
# 4 0.0000 0.0000 0.0000 -4.6246 0.0000 15.9100
# 5 14.8166 9.2456 23.6337 0.0000 42.9472 0.0000
# 6 0.0000 0.0000 0.0000 15.9100 0.0000 127.3280
#
#
#
# Elastic Compliance Matrix: (Units=1/GPa)
#
#
# Indices 1 2 3 4 5 6 
#
# 1 0.010785 0.002484 -0.006452 0.000000 -0.000705 0.000000
# 2 0.002484 0.012397 -0.006270 0.000000 -0.000075 0.000000
# 3 -0.006452 -0.006270 0.018986 0.000000 -0.006872 0.000000
# 4 0.000000 0.000000 0.000000 -0.151226 0.000000 0.018896
# 5 -0.000705 -0.000075 -0.006872 0.000000 0.027326 0.000000
# 6 0.000000 0.000000 0.000000 0.018896 0.000000 0.005493
#
#
# Mechanical properties :
#
#
# Convention : Reuss Voigt Hill
#
# Bulk Modulus (GPa) = 46.10055 52.47233 49.28644
# Shear Modulus (GPa) = -103.02379 48.33207 -27.34586
#
# Velocity S-wave (km/s) = -6.75618 4.62754 -3.48079
# Velocity P-wave (km/s) = 6.35892 7.19727 2.38378
#
# Compressibility (1/GPa) = 0.02169171
#
# Stress axis : x y z
#
# Youngs Moduli (GPa) = 92.72064 80.66611 52.67006
#
# Poissons Ratio (x) = -0.20034 0.33982
# Poissons Ratio (y) = -0.23027 0.33023
# Poissons Ratio (z) = 0.59823 0.50575
#
# Static dielectric constant tensor:
#      x y z
#    x 1.764880 0.000000 0.009810 
#    y 0.000000 1.806420 0.000000 
#    z 0.009810 0.000000 1.887750 
# 
# From -- ./inp_files/16160.got.cif
#   From: 2010.05.17/outbox.cif.g08.bks.cpg/sg12_9_cif.got.tgz:16160.got - 2010.06.03 13:09:07.
