data_PCOD9221355
_publ_section_title
;
Structure prediction by ZEFSAII (Michael W. Deem and Ramdas Pophale) SiO2 
 PCOD9221355
Probable space group: C 2/M
;
_chemical_formula_sum "Si O2"
_cell_formula_units_Z 56
_cell_length_a 26.671783
_cell_length_b 18.306322
_cell_length_c 5.209984
_cell_angle_alpha 90.000000
_cell_angle_beta 75.795145
_cell_angle_gamma 90.000000
_cell_volume 2466.059518
_symmetry_space_group_name_H-M "C 2/M"
_symmetry_group_IT_number 12
_symmetry_cell_setting 'monoclinic'
loop_
_space_group_symop_operation_xyz
x,y,z
-x,y,-z
-x,-y,-z
x,-y,z
1/2+x,1/2+y,z
1/2-x,1/2+y,-z
1/2-x,1/2-y,-z
1/2+x,1/2-y,z
loop_
_atom_site_type_symbol
_atom_site_label
_atom_site_fract_x
_atom_site_fract_y
_atom_site_fract_z
Si Si1 0.089724 0.639307 0.027942
Si Si2 0.685590 0.080270 0.689564
Si Si3 0.276646 0.583042 0.943114
Si Si4 0.944004 0.578404 0.446706
Si Si5 0.628402 0.332906 0.333359
Si Si6 0.213684 0.292044 0.335802
Si Si7 0.562996 0.697738 0.922850
O O1 0.145865 0.602517 0.959193
O O2 0.059562 0.590253 0.852538
O O3 0.079284 0.717500 0.920367
O O4 0.076250 0.641938 0.343653
O O5 0.742512 0.081965 0.729544
O O6 0.678778 0.146384 0.508805
O O7 0.675395 0.000000 0.604110
O O8 0.271086 0.500000 0.065216
O O9 0.334539 0.599285 0.782387
O O10 0.252350 0.654092 0.124073
O O11 0.919138 0.500000 0.539785
O O12 0.000000 0.573098 0.500000
O O13 0.671619 0.266020 0.278436
O O14 0.595962 0.333181 0.639489
O O15 0.586880 0.330797 0.158056
O O16 0.250000 0.250000 0.500000
O O17 0.500000 0.690753 0.000000
#
# Coordination Sequence:
#
# PCOD9221355 Si02
#       7
#     8   8   8   8   8   8   8
#     4  12  24  41  60  90 130 175 227 281 346 403
#     4  11  24  40  63 100 144 192 237 281 343 425
#     4  11  26  45  71 106 149 191 237 290 359 444
#     4  11  23  39  57  79 116 171 232 289 342 393
#     4  12  25  46  75 106 144 191 236 299 365 430
#     4  12  23  43  69 107 149 192 239 292 350 436
#     4  12  26  46  72 104 136 180 247 310 368 432
#
# _framework density 22.708292
#
# number of rings (size 3 to 8) (size 9 to 14) (size 15 to 20)
#    0.000    0.429    2.857    6.429    2.000    1.143 
#    0.000    0.000    0.000    2.571    0.000    0.000 
#    0.000    0.000    0.000    0.000    0.000    0.000 
#
# Total GULP energy -156011.368914 kJ/mol
# GULP energy per Si atom -5571.834604 kJ/mol
# Density = 2.265661 g / cm^3
# Si number density = 22.708292 Si / 1000 Ang^3
#
#
#
# Elastic Constant Matrix: (Units=GPa)
#
#
# Indices 1 2 3 4 5 6 
#
# 1 160.8535 20.7906 39.1505 0.0000 15.7346 0.0000
# 2 20.7906 45.6781 30.4047 0.0000 -7.1843 0.0000
# 3 39.1505 30.4047 100.9879 0.0000 7.2858 0.0000
# 4 0.0000 0.0000 0.0000 13.1124 0.0000 -0.1018
# 5 15.7346 -7.1843 7.2858 0.0000 37.0846 0.0000
# 6 0.0000 0.0000 0.0000 -0.1018 0.0000 29.8189
#
#
#
# Elastic Compliance Matrix: (Units=1/GPa)
#
#
# Indices 1 2 3 4 5 6 
#
# 1 0.007317 -0.002641 -0.001806 0.000000 -0.003261 0.000000
# 2 -0.002641 0.030263 -0.008715 0.000000 0.008695 0.000000
# 3 -0.001806 -0.008715 0.013484 0.000000 -0.003571 0.000000
# 4 0.000000 0.000000 0.000000 0.076266 0.000000 0.000260
# 5 -0.003261 0.008695 -0.003571 0.000000 0.030735 0.000000
# 6 0.000000 0.000000 0.000000 0.000260 0.000000 0.033537
#
#
# Mechanical properties :
#
#
# Convention : Reuss Voigt Hill
#
# Bulk Modulus (GPa) = 40.42105 54.24566 47.33336
# Shear Modulus (GPa) = 22.10712 30.48142 26.29427
#
# Velocity S-wave (km/s) = 3.12352 3.66772 3.40651
# Velocity P-wave (km/s) = 5.55403 6.47118 6.03007
#
# Compressibility (1/GPa) = 0.02473958
#
# Stress axis : x y z
#
# Youngs Moduli (GPa) = 136.67178 33.04384 74.16315
#
# Poissons Ratio (x) = 0.08727 0.13395
# Poissons Ratio (y) = 0.36095 0.64632
# Poissons Ratio (z) = 0.24685 0.28797
#
# Static dielectric constant tensor:
#      x y z
#    x 1.891240 0.000000 -0.038370 
#    y 0.000000 1.924720 0.000000 
#    z -0.038370 0.000000 1.915010 
# 
# From -- ./inp_files/28748.got.cif
#   From: 2010.05.17/outbox.cif.g08.bks.cpg/sg12_15_cif.got.tgz:28748.got - 2010.06.03 13:09:07.
