data_PCOD9221341
_publ_section_title
;
Structure prediction by ZEFSAII (Michael W. Deem and Ramdas Pophale) SiO2 
 PCOD9221341
Probable space group: C 2/M
;
_chemical_formula_sum "Si O2"
_cell_formula_units_Z 48
_cell_length_a 11.694438
_cell_length_b 15.298242
_cell_length_c 25.567699
_cell_angle_alpha 90.000000
_cell_angle_beta 29.198013
_cell_angle_gamma 90.000000
_cell_volume 2231.415705
_symmetry_space_group_name_H-M "C 2/M"
_symmetry_group_IT_number 12
_symmetry_cell_setting 'monoclinic'
loop_
_space_group_symop_operation_xyz
x,y,z
-x,y,-z
-x,-y,-z
x,-y,z
1/2+x,1/2+y,z
1/2-x,1/2+y,-z
1/2-x,1/2-y,-z
1/2+x,1/2-y,z
loop_
_atom_site_type_symbol
_atom_site_label
_atom_site_fract_x
_atom_site_fract_y
_atom_site_fract_z
Si Si1 0.265425 0.658748 0.888326
Si Si2 0.428699 0.601411 0.712872
Si Si3 0.735844 0.253773 0.441602
Si Si4 0.611490 0.400833 0.050113
Si Si5 0.501374 0.833957 0.817300
Si Si6 0.918880 0.600162 0.740030
O O1 0.308215 0.608150 0.817823
O O2 0.305191 0.601248 0.923655
O O3 0.452630 0.737240 0.815644
O O4 0.000000 0.693398 0.000000
O O5 0.466071 0.500000 0.684623
O O6 0.658028 0.661122 0.619640
O O7 0.246615 0.647549 0.746372
O O8 0.500000 0.267337 0.500000
O O9 0.750000 0.250000 0.500000
O O10 0.907681 0.333907 0.357812
O O11 0.600627 0.500000 0.034406
O O12 0.348044 0.364895 0.155400
O O13 0.795248 0.350068 0.941398
O O14 0.479858 0.897716 0.776830
O O15 0.924880 0.500000 0.717786
#
# Coordination Sequence:
#
# PCOD9221341 Si02
#       6
#     8   8   8   8   8   8
#     4  12  24  39  67 102 150 194 235 275 345 425
#     4  12  27  47  74 105 144 189 238 293 361 432
#     4  12  29  52  76 102 138 183 250 322 375 429
#     4  11  23  38  64 104 148 189 231 276 337 428
#     4  12  23  41  69 107 148 190 229 277 344 436
#     4  11  24  44  73 105 142 186 234 291 359 431
#
# _framework density 21.511006999999999
#
# number of rings (size 3 to 8) (size 9 to 14) (size 15 to 20)
#    0.000    0.333    3.333    6.000    2.333    3.333 
#    0.000    0.000    0.000    0.000    0.000    0.000 
#    0.000    0.000    0.000    0.000    0.000    0.000 
#
# Total GULP energy -134195.665103 kJ/mol
# GULP energy per Si atom -5591.486046 kJ/mol
# Density = 2.146205 g / cm^3
# Si number density = 21.511007 Si / 1000 Ang^3
#
#
#
# Elastic Constant Matrix: (Units=GPa)
#
#
# Indices 1 2 3 4 5 6 
#
# 1 99.2188 -14.7604 17.0508 -0.0183 2.2505 0.0020
# 2 -14.7604 95.6452 12.3608 -0.0261 -10.9522 0.0044
# 3 17.0508 12.3608 57.3040 -0.0114 -9.0779 -0.0097
# 4 -0.0183 -0.0261 -0.0114 18.5836 -0.0111 5.0903
# 5 2.2505 -10.9522 -9.0779 -0.0111 37.2747 0.0022
# 6 0.0020 0.0044 -0.0097 5.0903 0.0022 26.2195
#
#
#
# Elastic Compliance Matrix: (Units=1/GPa)
#
#
# Indices 1 2 3 4 5 6 
#
# 1 0.011086 0.002101 -0.003911 0.000012 -0.001004 -0.000005
# 2 0.002101 0.011421 -0.002681 0.000020 0.002576 -0.000007
# 3 -0.003911 -0.002681 0.019872 0.000005 0.004288 0.000007
# 4 0.000012 0.000020 0.000005 0.056833 0.000024 -0.011034
# 5 -0.001004 0.002576 0.004288 0.000024 0.028690 -0.000006
# 6 -0.000005 -0.000007 0.000007 -0.011034 -0.000006 0.040282
#
#
# Mechanical properties :
#
#
# Convention : Reuss Voigt Hill
#
# Bulk Modulus (GPa) = 29.94160 31.27449 30.60804
# Shear Modulus (GPa) = 26.55367 32.25001 29.40184
#
# Velocity S-wave (km/s) = 3.51725 3.87619 3.70107
# Velocity P-wave (km/s) = 5.51762 5.88248 5.70297
#
# Compressibility (1/GPa) = 0.03339835
#
# Stress axis : x y z
#
# Youngs Moduli (GPa) = 90.20188 87.55775 50.32183
#
# Poissons Ratio (x) = -0.18399 0.19681
# Poissons Ratio (y) = -0.18954 0.13490
# Poissons Ratio (z) = 0.35279 0.23472
#
# Static dielectric constant tensor:
#      x y z
#    x 1.798260 -0.000010 -0.022250 
#    y -0.000010 1.777380 0.000020 
#    z -0.022250 0.000020 1.776580 
# 
# From -- ./inp_files/358338.got.cif
#   From: 2010.05.17/outbox.cif.g08.bks.cpg/sg12_180_cif.got.tgz:358338.got - 2010.06.03 13:09:07.
