data_PCOD9221513
_publ_section_title
;
Structure prediction by ZEFSAII (Michael W. Deem and Ramdas Pophale) SiO2 
 PCOD9221513
Probable space group: C 2/M
;
_chemical_formula_sum "Si O2"
_cell_formula_units_Z 40
_cell_length_a 12.984782
_cell_length_b 22.047825
_cell_length_c 8.234370
_cell_angle_alpha 90.000000
_cell_angle_beta 47.626229
_cell_angle_gamma 90.000000
_cell_volume 1741.552160
_symmetry_space_group_name_H-M "C 2/M"
_symmetry_group_IT_number 12
_symmetry_cell_setting 'monoclinic'
loop_
_space_group_symop_operation_xyz
x,y,z
-x,y,-z
-x,-y,-z
x,-y,z
1/2+x,1/2+y,z
1/2-x,1/2+y,-z
1/2-x,1/2-y,-z
1/2+x,1/2-y,z
loop_
_atom_site_type_symbol
_atom_site_label
_atom_site_fract_x
_atom_site_fract_y
_atom_site_fract_z
Si Si1 0.301945 0.624653 0.313318
Si Si2 0.048857 0.094543 0.274026
Si Si3 0.155651 0.433887 0.184749
Si Si4 0.616669 0.716527 0.068969
Si Si5 0.540548 0.160399 0.778429
O O1 0.430850 0.589933 0.259858
O O2 0.208465 0.578369 0.310080
O O3 0.347248 0.676818 0.132706
O O4 0.200708 0.652312 0.557822
O O5 0.000000 0.072766 0.500000
O O6 0.199215 0.068671 0.068861
O O7 0.070328 0.167000 0.248696
O O8 0.090718 0.500000 0.232908
O O9 0.056992 0.378836 0.237085
O O10 0.750000 0.750000 0.000000
O O11 0.503087 0.769300 0.176081
O O12 0.500000 0.137145 0.000000
#
# Coordination Sequence:
#
# PCOD9221513 Si02
#       5
#     8   8   8   8   8
#     4  11  25  43  67  98 133 171 218 263 325 393
#     4  11  24  43  68  99 132 170 216 268 325 389
#     4  11  25  46  68  92 127 174 224 272 326 386
#     4  11  23  40  66  99 135 174 210 260 319 394
#     4  12  25  42  68  99 134 172 215 269 325 384
#
# _framework density 22.968019000000002
#
# number of rings (size 3 to 8) (size 9 to 14) (size 15 to 20)
#    0.000    0.800    4.000    5.400    2.800    5.600 
#    0.000    2.000    0.000    0.000    0.000    0.000 
#    0.000    0.000    0.000    0.000    0.000    0.000 
#
# Total GULP energy -111796.901572 kJ/mol
# GULP energy per Si atom -5589.845079 kJ/mol
# Density = 2.291574 g / cm^3
# Si number density = 22.968019 Si / 1000 Ang^3
#
#
#
# Elastic Constant Matrix: (Units=GPa)
#
#
# Indices 1 2 3 4 5 6 
#
# 1 67.1072 7.4654 3.8248 0.0000 2.6330 0.0000
# 2 7.4654 109.6674 0.4892 0.0000 0.4470 0.0000
# 3 3.8248 0.4892 150.5489 0.0000 2.8275 0.0000
# 4 0.0000 0.0000 0.0000 5.5306 0.0000 -2.9622
# 5 2.6330 0.4470 2.8275 0.0000 33.5242 0.0000
# 6 0.0000 0.0000 0.0000 -2.9622 0.0000 4.0773
#
#
#
# Elastic Compliance Matrix: (Units=1/GPa)
#
#
# Indices 1 2 3 4 5 6 
#
# 1 0.015080 -0.001020 -0.000358 0.000000 -0.001141 0.000000
# 2 -0.001020 0.009188 -0.000003 0.000000 -0.000042 0.000000
# 3 -0.000358 -0.000003 0.006661 0.000000 -0.000534 0.000000
# 4 0.000000 0.000000 0.000000 0.295984 0.000000 0.215032
# 5 -0.001141 -0.000042 -0.000534 0.000000 0.029964 0.000000
# 6 0.000000 0.000000 0.000000 0.215032 0.000000 0.401479
#
#
# Mechanical properties :
#
#
# Convention : Reuss Voigt Hill
#
# Bulk Modulus (GPa) = 35.50364 38.98695 37.24530
# Shear Modulus (GPa) = 6.48921 29.66269 18.07595
#
# Velocity S-wave (km/s) = 1.68269 3.59761 2.80840
# Velocity P-wave (km/s) = 4.38938 5.85392 5.17374
#
# Compressibility (1/GPa) = 0.02816612
#
# Stress axis : x y z
#
# Youngs Moduli (GPa) = 66.31211 108.83622 150.11637
#
# Poissons Ratio (x) = 0.11105 0.05380
# Poissons Ratio (y) = 0.06766 0.00047
# Poissons Ratio (z) = 0.02377 0.00034
#
# Static dielectric constant tensor:
#      x y z
#    x 1.973800 0.000000 -0.037880 
#    y 0.000000 1.822230 0.000000 
#    z -0.037880 0.000000 1.912720 
# 
# From -- ./inp_files/50401.got.cif
#   From: 2010.05.17/outbox.cif.g08.bks.cpg/sg12_26_cif.got.tgz:50401.got - 2010.06.03 13:09:07.
