data_PCOD9221982
_publ_section_title
;
Structure prediction by ZEFSAII (Michael W. Deem and Ramdas Pophale) SiO2 
 PCOD9221982
Probable space group: C 2/M
;
_chemical_formula_sum "Si O2"
_cell_formula_units_Z 48
_cell_length_a 24.210409
_cell_length_b 13.098248
_cell_length_c 14.419020
_cell_angle_alpha 90.000000
_cell_angle_beta 149.699455
_cell_angle_gamma 90.000000
_cell_volume 2306.976117
_symmetry_space_group_name_H-M "C 2/M"
_symmetry_group_IT_number 12
_symmetry_cell_setting 'monoclinic'
loop_
_space_group_symop_operation_xyz
x,y,z
-x,y,-z
-x,-y,-z
x,-y,z
1/2+x,1/2+y,z
1/2-x,1/2+y,-z
1/2-x,1/2-y,-z
1/2+x,1/2-y,z
loop_
_atom_site_type_symbol
_atom_site_label
_atom_site_fract_x
_atom_site_fract_y
_atom_site_fract_z
Si Si1 0.782440 0.212906 0.841173
Si Si2 0.909046 0.000000 0.721033
Si Si3 0.888647 0.384557 0.279305
Si Si4 0.194182 0.814885 0.543861
Si Si5 0.156525 0.000000 0.160817
Si Si6 0.412200 0.114651 0.800218
Si Si7 0.016707 0.683577 0.776577
O O1 0.697227 0.192892 0.800312
O O2 0.746455 0.307778 0.723480
O O3 0.788276 0.106523 0.791512
O O4 0.900666 0.237282 0.055148
O O5 0.871397 0.094513 0.602602
O O6 0.849645 0.000000 0.735851
O O7 0.036206 0.000000 0.937191
O O8 0.844427 0.500000 0.222445
O O9 0.921903 0.361917 0.222314
O O10 0.000000 0.379245 0.500000
O O11 0.307163 0.812733 0.648306
O O12 0.098902 0.732542 0.418219
O O13 0.476630 0.108453 0.798315
O O14 0.376879 0.000000 0.777478
O O15 0.500000 0.155939 0.000000
#
# Coordination Sequence:
#
# PCOD9221982 Si02
#       7
#     8   4   8   8   4   8   8
#     4  12  25  45  72 100 139 184 237 287 349 416
#     4  11  26  44  67 102 145 188 233 281 351 421
#     4  11  24  45  69  98 134 180 235 294 351 411
#     4  12  25  42  69  98 140 179 229 283 346 417
#     4  11  26  44  71 101 142 191 234 283 348 423
#     4  11  24  41  63  98 138 176 222 280 349 417
#     4  12  25  42  71  98 136 183 233 288 349 413
#
# _framework density 20.806457000000002
#
# number of rings (size 3 to 8) (size 9 to 14) (size 15 to 20)
#    0.000    0.500    6.667    1.500    4.667    0.000 
#    1.500    0.000    0.000    1.000    0.000    0.000 
#    0.000    0.000    0.000    0.000    0.000    0.000 
#
# Total GULP energy -133829.263908 kJ/mol
# GULP energy per Si atom -5576.219329 kJ/mol
# Density = 2.075910 g / cm^3
# Si number density = 20.806457 Si / 1000 Ang^3
#
#
#
# Elastic Constant Matrix: (Units=GPa)
#
#
# Indices 1 2 3 4 5 6 
#
# 1 137.4278 27.8345 30.2196 0.0000 -3.1681 0.0000
# 2 27.8345 44.7084 28.4091 0.0000 -0.1874 0.0000
# 3 30.2196 28.4091 112.4496 0.0000 6.0386 0.0000
# 4 0.0000 0.0000 0.0000 55.1472 0.0000 5.1643
# 5 -3.1681 -0.1874 6.0386 0.0000 35.9893 0.0000
# 6 0.0000 0.0000 0.0000 5.1643 0.0000 30.1306
#
#
#
# Elastic Compliance Matrix: (Units=1/GPa)
#
#
# Indices 1 2 3 4 5 6 
#
# 1 0.008474 -0.004519 -0.001185 0.000000 0.000921 0.000000
# 2 -0.004519 0.029113 -0.006183 0.000000 0.000791 0.000000
# 3 -0.001185 -0.006183 0.010879 0.000000 -0.001962 0.000000
# 4 0.000000 0.000000 0.000000 0.018429 0.000000 -0.003159
# 5 0.000921 0.000791 -0.001962 0.000000 0.028200 0.000000
# 6 0.000000 0.000000 0.000000 -0.003159 0.000000 0.033730
#
#
# Mechanical properties :
#
#
# Convention : Reuss Voigt Hill
#
# Bulk Modulus (GPa) = 40.49997 51.94582 46.22290
# Shear Modulus (GPa) = 31.08896 38.12826 34.60861
#
# Velocity S-wave (km/s) = 3.86968 4.28544 4.08285
# Velocity P-wave (km/s) = 6.28277 7.03612 6.67009
#
# Compressibility (1/GPa) = 0.02469137
#
# Stress axis : x y z
#
# Youngs Moduli (GPa) = 118.01403 34.34937 91.92186
#
# Poissons Ratio (x) = 0.15521 0.10893
# Poissons Ratio (y) = 0.53325 0.56837
# Poissons Ratio (z) = 0.13986 0.21239
#
# Static dielectric constant tensor:
#      x y z
#    x 1.734010 0.000000 -0.025230 
#    y 0.000000 1.761430 0.000000 
#    z -0.025230 0.000000 1.746030 
# 
# From -- ./inp_files/167677.got.cif
#   From: 2010.05.17/outbox.cif.g08.bks.cpg/sg12_84_cif.got.tgz:167677.got - 2010.06.03 13:09:07.
