data_PCOD9221449
_publ_section_title
;
Structure prediction by ZEFSAII (Michael W. Deem and Ramdas Pophale) SiO2 
 PCOD9221449
Probable space group: C 2/M
;
_chemical_formula_sum "Si O2"
_cell_formula_units_Z 40
_cell_length_a 8.548417
_cell_length_b 13.188845
_cell_length_c 17.392024
_cell_angle_alpha 90.000000
_cell_angle_beta 84.180611
_cell_angle_gamma 90.000000
_cell_volume 1950.736662
_symmetry_space_group_name_H-M "C 2/M"
_symmetry_group_IT_number 12
_symmetry_cell_setting 'monoclinic'
loop_
_space_group_symop_operation_xyz
x,y,z
-x,y,-z
-x,-y,-z
x,-y,z
1/2+x,1/2+y,z
1/2-x,1/2+y,-z
1/2-x,1/2-y,-z
1/2+x,1/2-y,z
loop_
_atom_site_type_symbol
_atom_site_label
_atom_site_fract_x
_atom_site_fract_y
_atom_site_fract_z
Si Si1 0.565539 0.184789 0.923290
Si Si2 0.874060 0.377024 0.646228
Si Si3 0.391933 0.710041 0.441408
Si Si4 0.711883 0.825323 0.179694
Si Si5 0.075670 0.000000 0.873094
Si Si6 0.261222 0.500000 0.969024
O O1 0.424968 0.151455 0.874774
O O2 0.698635 0.229987 0.860907
O O3 0.653385 0.096356 0.963127
O O4 0.500000 0.251679 0.000000
O O5 0.905806 0.500000 0.643569
O O6 0.701730 0.355685 0.616995
O O7 0.863465 0.331966 0.732910
O O8 0.006236 0.305237 0.597934
O O9 0.500000 0.654621 0.500000
O O10 0.250000 0.750000 0.500000
O O11 0.854724 0.904506 0.173405
O O12 0.892621 0.000000 0.896396
O O13 0.155546 0.000000 0.953205
#
# Coordination Sequence:
#
# PCOD9221449 Si02
#       6
#     8   8   8   8   4   4
#     4  12  24  40  61  88 122 173 224 276 323 381
#     4  11  23  43  69  98 135 176 211 264 333 388
#     4   9  21  42  69 101 133 163 211 260 310 397
#     4  12  24  40  62  89 128 168 215 269 330 379
#     4  11  23  40  59  86 123 161 218 280 316 385
#     4  11  24  39  60  87 118 164 231 276 324 385
#
# _framework density 20.505075000000001
#
# number of rings (size 3 to 8) (size 9 to 14) (size 15 to 20)
#    0.000    1.000    3.000    3.900    2.800    4.000 
#    0.000    3.000    0.000    0.000    0.000    0.000 
#    0.000    0.000    0.000    0.000    0.000    0.000 
#
# Total GULP energy -111435.433267 kJ/mol
# GULP energy per Si atom -5571.771663 kJ/mol
# Density = 2.045840 g / cm^3
# Si number density = 20.505075 Si / 1000 Ang^3
#
#
#
# Elastic Constant Matrix: (Units=GPa)
#
#
# Indices 1 2 3 4 5 6 
#
# 1 119.5323 17.7443 47.4366 0.0000 -10.4700 0.0000
# 2 17.7443 73.5023 28.0366 0.0000 -13.1286 0.0000
# 3 47.4366 28.0366 147.8449 0.0000 -9.1408 0.0000
# 4 0.0000 0.0000 0.0000 15.0176 0.0000 -1.7815
# 5 -10.4700 -13.1286 -9.1408 0.0000 44.2143 0.0000
# 6 0.0000 0.0000 0.0000 -1.7815 0.0000 29.7760
#
#
#
# Elastic Compliance Matrix: (Units=1/GPa)
#
#
# Indices 1 2 3 4 5 6 
#
# 1 0.009775 -0.001016 -0.002856 0.000000 0.001422 0.000000
# 2 -0.001016 0.015441 -0.002364 0.000000 0.003855 0.000000
# 3 -0.002856 -0.002364 0.008147 0.000000 0.000306 0.000000
# 4 0.000000 0.000000 0.000000 0.067065 0.000000 0.004012
# 5 0.001422 0.003855 0.000306 0.000000 0.024162 0.000000
# 6 0.000000 0.000000 0.000000 0.004012 0.000000 0.033824
#
#
# Mechanical properties :
#
#
# Convention : Reuss Voigt Hill
#
# Bulk Modulus (GPa) = 47.86662 58.59049 53.22856
# Shear Modulus (GPa) = 28.11387 34.31238 31.21312
#
# Velocity S-wave (km/s) = 3.70681 4.09511 3.90579
# Velocity P-wave (km/s) = 6.45872 7.14112 6.80848
#
# Compressibility (1/GPa) = 0.02089138
#
# Stress axis : x y z
#
# Youngs Moduli (GPa) = 102.30553 64.76426 122.74141
#
# Poissons Ratio (x) = 0.06583 0.35049
# Poissons Ratio (y) = 0.10399 0.29011
# Poissons Ratio (z) = 0.29214 0.15308
#
# Static dielectric constant tensor:
#      x y z
#    x 1.760940 0.000000 -0.016820 
#    y 0.000000 1.706880 0.000000 
#    z -0.016820 0.000000 1.789170 
# 
# From -- ./inp_files/194605.got.cif
#   From: 2010.05.17/outbox.cif.g08.bks.cpg/sg12_98_cif.got.tgz:194605.got - 2010.06.03 13:09:07.
