data_PCOD9221151
_publ_section_title
;
Structure prediction by ZEFSAII (Michael W. Deem and Ramdas Pophale) SiO2 
 PCOD9221151
Probable space group: C 2/M
;
_chemical_formula_sum "Si O2"
_cell_formula_units_Z 48
_cell_length_a 15.430831
_cell_length_b 25.649215
_cell_length_c 9.519579
_cell_angle_alpha 90.000000
_cell_angle_beta 35.461666
_cell_angle_gamma 90.000000
_cell_volume 2185.886077
_symmetry_space_group_name_H-M "C 2/M"
_symmetry_group_IT_number 12
_symmetry_cell_setting 'monoclinic'
loop_
_space_group_symop_operation_xyz
x,y,z
-x,y,-z
-x,-y,-z
x,-y,z
1/2+x,1/2+y,z
1/2-x,1/2+y,-z
1/2-x,1/2-y,-z
1/2+x,1/2-y,z
loop_
_atom_site_type_symbol
_atom_site_label
_atom_site_fract_x
_atom_site_fract_y
_atom_site_fract_z
Si Si1 0.121806 0.443480 0.442080
Si Si2 0.366397 0.631103 0.072619
Si Si3 0.440313 0.091184 0.921550
Si Si4 0.045326 0.287244 0.102043
Si Si5 0.120436 0.061735 0.220712
Si Si6 0.156116 0.268162 0.374363
O O1 0.146825 0.500000 0.345357
O O2 0.276842 0.416141 0.258574
O O3 0.000000 0.416503 0.500000
O O4 0.046830 0.444188 0.689517
O O5 0.247530 0.678139 0.232036
O O6 0.500000 0.646140 0.000000
O O7 0.401739 0.605117 0.873829
O O8 0.500000 0.087958 0.000000
O O9 0.458126 0.151817 0.854523
O O10 0.276890 0.072958 0.092011
O O11 0.221330 0.270510 0.860070
O O12 0.000000 0.280021 0.000000
O O13 0.915667 0.261057 0.372385
O O14 0.000000 0.069633 0.500000
O O15 0.112287 0.000000 0.187439
O O16 0.000000 0.268291 0.500000
#
# Coordination Sequence:
#
# PCOD9221151 Si02
#       6
#     8   8   8   8   8   8
#     4  11  22  42  71  97 133 181 232 287 341 406
#     4  12  26  44  70 101 137 183 234 287 349 418
#     4  11  24  43  68  99 137 181 229 280 342 418
#     4  11  25  44  71 101 144 179 234 286 351 422
#     4  11  26  45  65  98 142 182 228 289 349 414
#     4  12  25  47  72 105 139 183 233 293 352 425
#
# _framework density 21.959060000000001
#
# number of rings (size 3 to 8) (size 9 to 14) (size 15 to 20)
#    0.000    0.667    3.333    4.000    2.333    4.667 
#    0.000    0.000    0.000    0.000    0.000    0.000 
#    0.000    0.000    0.000    0.000    0.000    0.000 
#
# Total GULP energy -133715.670796 kJ/mol
# GULP energy per Si atom -5571.486283 kJ/mol
# Density = 2.190908 g / cm^3
# Si number density = 21.959060 Si / 1000 Ang^3
#
#
#
# Elastic Constant Matrix: (Units=GPa)
#
#
# Indices 1 2 3 4 5 6 
#
# 1 95.6839 28.0054 37.2127 0.0000 -3.0340 0.0000
# 2 28.0054 69.2147 41.0693 0.0000 2.5754 0.0000
# 3 37.2127 41.0693 173.2547 0.0000 8.5275 0.0000
# 4 0.0000 0.0000 0.0000 36.1416 0.0000 -12.9493
# 5 -3.0340 2.5754 8.5275 0.0000 35.1712 0.0000
# 6 0.0000 0.0000 0.0000 -12.9493 0.0000 24.3698
#
#
#
# Elastic Compliance Matrix: (Units=1/GPa)
#
#
# Indices 1 2 3 4 5 6 
#
# 1 0.012381 -0.004010 -0.001797 0.000000 0.001797 0.000000
# 2 -0.004010 0.018114 -0.003391 0.000000 -0.000850 0.000000
# 3 -0.001797 -0.003391 0.007041 0.000000 -0.001614 0.000000
# 4 0.000000 0.000000 0.000000 0.034175 0.000000 0.018160
# 5 0.001797 -0.000850 -0.001614 0.000000 0.029041 0.000000
# 6 0.000000 0.000000 0.000000 0.018160 0.000000 0.050684
#
#
# Mechanical properties :
#
#
# Convention : Reuss Voigt Hill
#
# Bulk Modulus (GPa) = 52.24658 61.19201 56.71930
# Shear Modulus (GPa) = 28.37505 34.59425 31.48465
#
# Velocity S-wave (km/s) = 3.59859 3.97343 3.79065
# Velocity P-wave (km/s) = 6.41177 6.99841 6.71151
#
# Compressibility (1/GPa) = 0.01914001
#
# Stress axis : x y z
#
# Youngs Moduli (GPa) = 80.77122 55.20644 142.02479
#
# Poissons Ratio (x) = 0.22138 0.25523
# Poissons Ratio (y) = 0.32389 0.48156
# Poissons Ratio (z) = 0.14515 0.18719
#
# Static dielectric constant tensor:
#      x y z
#    x 1.751910 0.000000 0.050730 
#    y 0.000000 1.881160 0.000000 
#    z 0.050730 0.000000 1.855660 
# 
# From -- ./inp_files/67355.got.cif
#   From: 2010.05.17/outbox.cif.g08.bks.cpg/sg12_34_cif.got.tgz:67355.got - 2010.06.03 13:09:07.
