data_PCOD9221705
_publ_section_title
;
Structure prediction by ZEFSAII (Michael W. Deem and Ramdas Pophale) SiO2 
 PCOD9221705
Probable space group: C 2/M
;
_chemical_formula_sum "Si O2"
_cell_formula_units_Z 40
_cell_length_a 9.303099
_cell_length_b 16.996164
_cell_length_c 11.101986
_cell_angle_alpha 90.000000
_cell_angle_beta 90.172068
_cell_angle_gamma 90.000000
_cell_volume 1755.404763
_symmetry_space_group_name_H-M "C 2/M"
_symmetry_group_IT_number 12
_symmetry_cell_setting 'monoclinic'
loop_
_space_group_symop_operation_xyz
x,y,z
-x,y,-z
-x,-y,-z
x,-y,z
1/2+x,1/2+y,z
1/2-x,1/2+y,-z
1/2-x,1/2-y,-z
1/2+x,1/2-y,z
loop_
_atom_site_type_symbol
_atom_site_label
_atom_site_fract_x
_atom_site_fract_y
_atom_site_fract_z
Si Si1 0.669085 0.589334 0.266709
Si Si2 0.432041 0.875581 0.128361
Si Si3 0.062005 0.187563 0.867369
Si Si4 0.288774 0.087938 0.748058
Si Si5 0.174793 0.335052 0.504515
O O1 0.620858 0.500000 0.288821
O O2 0.541442 0.648715 0.232819
O O3 0.763602 0.621616 0.377481
O O4 0.775410 0.591271 0.152296
O O5 0.426340 0.781190 0.144023
O O6 0.542536 0.910021 0.224615
O O7 0.500000 0.894308 0.000000
O O8 0.214700 0.147771 0.841194
O O9 0.000000 0.170658 0.000000
O O10 0.271811 0.117930 0.612733
O O11 0.232448 0.000000 0.764879
O O12 0.250000 0.250000 0.500000
O O13 0.000000 0.329445 0.500000
#
# Coordination Sequence:
#
# PCOD9221705 Si02
#       5
#     8   8   8   8   8
#     4  12  26  43  69 102 139 178 223 285 347 400
#     4  11  23  42  69  98 133 181 235 279 332 405
#     4  11  25  46  69 100 141 185 231 279 332 405
#     4  12  26  43  69 102 139 178 223 285 347 400
#     4  12  27  47  74 102 136 180 230 282 338 412
#
# _framework density 22.786767000000001
#
# number of rings (size 3 to 8) (size 9 to 14) (size 15 to 20)
#    0.000    0.400    2.000    6.600    2.800    8.800 
#    0.000    2.000    0.000    0.000    0.000    0.000 
#    0.000    0.000    0.000    0.000    0.000    0.000 
#
# Total GULP energy -112041.171923 kJ/mol
# GULP energy per Si atom -5602.058596 kJ/mol
# Density = 2.273490 g / cm^3
# Si number density = 22.786767 Si / 1000 Ang^3
#
#
#
# Elastic Constant Matrix: (Units=GPa)
#
#
# Indices 1 2 3 4 5 6 
#
# 1 64.3850 0.4827 -10.1364 0.0000 4.3311 0.0000
# 2 0.4827 115.9576 29.9342 0.0000 -0.8383 0.0000
# 3 -10.1364 29.9342 77.1768 0.0000 3.4671 0.0000
# 4 0.0000 0.0000 0.0000 6.1399 0.0000 8.1006
# 5 4.3311 -0.8383 3.4671 0.0000 40.9222 0.0000
# 6 0.0000 0.0000 0.0000 8.1006 0.0000 81.8265
#
#
#
# Elastic Compliance Matrix: (Units=1/GPa)
#
#
# Indices 1 2 3 4 5 6 
#
# 1 0.016056 -0.000719 0.002474 0.000000 -0.001924 0.000000
# 2 -0.000719 0.009626 -0.003855 0.000000 0.000600 0.000000
# 3 0.002474 -0.003855 0.014849 0.000000 -0.001599 0.000000
# 4 0.000000 0.000000 0.000000 0.187337 0.000000 -0.018546
# 5 -0.001924 0.000600 -0.001599 0.000000 0.024788 0.000000
# 6 0.000000 0.000000 0.000000 -0.018546 0.000000 0.014057
#
#
# Mechanical properties :
#
#
# Convention : Reuss Voigt Hill
#
# Bulk Modulus (GPa) = 27.52484 33.12006 30.32245
# Shear Modulus (GPa) = 17.66628 41.59364 29.62996
#
# Velocity S-wave (km/s) = 2.78742 4.27704 3.60990
# Velocity P-wave (km/s) = 4.73974 6.24156 5.54176
#
# Compressibility (1/GPa) = 0.03633082
#
# Stress axis : x y z
#
# Youngs Moduli (GPa) = 62.28241 103.88116 67.34296
#
# Poissons Ratio (x) = 0.07474 -0.16662
# Poissons Ratio (y) = 0.04481 0.25962
# Poissons Ratio (z) = -0.15410 0.40048
#
# Static dielectric constant tensor:
#      x y z
#    x 1.842160 0.000000 -0.006780 
#    y 0.000000 1.802010 0.000000 
#    z -0.006780 0.000000 1.848900 
# 
# From -- ./inp_files/118894.got.cif
#   From: 2010.05.17/outbox.cif.g08.bks.cpg/sg12_60_cif.got.tgz:118894.got - 2010.06.03 13:09:07.
