data_PCOD9221478
_publ_section_title
;
Structure prediction by ZEFSAII (Michael W. Deem and Ramdas Pophale) SiO2 
 PCOD9221478
Probable space group: C 2/M
;
_chemical_formula_sum "Si O2"
_cell_formula_units_Z 58
_cell_length_a 8.925250
_cell_length_b 17.303024
_cell_length_c 21.331637
_cell_angle_alpha 90.000000
_cell_angle_beta 56.052495
_cell_angle_gamma 90.000000
_cell_volume 2732.806761
_symmetry_space_group_name_H-M "C 2/M"
_symmetry_group_IT_number 12
_symmetry_cell_setting 'monoclinic'
loop_
_space_group_symop_operation_xyz
x,y,z
-x,y,-z
-x,-y,-z
x,-y,z
1/2+x,1/2+y,z
1/2-x,1/2+y,-z
1/2-x,1/2-y,-z
1/2+x,1/2-y,z
loop_
_atom_site_type_symbol
_atom_site_label
_atom_site_fract_x
_atom_site_fract_y
_atom_site_fract_z
Si Si1 0.805035 0.209495 0.551798
Si Si2 0.858464 0.409603 0.941152
Si Si3 0.986136 0.415193 0.338048
Si Si4 0.612379 0.679332 0.246512
Si Si5 0.000000 0.500000 0.500000
Si Si6 0.745954 0.130069 0.378621
Si Si7 0.229320 0.910536 0.102207
Si Si8 0.509644 0.839588 0.210649
O O1 0.750000 0.250000 0.500000
O O2 0.658931 0.147720 0.606794
O O3 0.822413 0.282552 0.594020
O O4 0.000000 0.171373 0.500000
O O5 0.817193 0.500000 0.937337
O O6 0.064691 0.408466 0.919345
O O7 0.861408 0.358314 0.878173
O O8 0.736960 0.383018 0.028334
O O9 0.931644 0.500000 0.374781
O O10 0.003734 0.410943 0.259725
O O11 0.173789 0.395990 0.327798
O O12 0.461592 0.639871 0.325766
O O13 0.615459 0.636855 0.178524
O O14 0.567188 0.767268 0.239609
O O15 0.808481 0.674187 0.231723
O O16 0.151586 0.569127 0.447262
O O17 0.173737 0.000000 0.114747
#
# Coordination Sequence:
#
# PCOD9221478 Si02
#       8
#     8   8   8   8   2   8   8   8
#     4  12  25  45  71  95 127 170 213 270 337 396
#     4   8  15  33  58  87 127 172 211 271 326 387
#     4  12  26  46  67 101 131 171 219 273 331 401
#     4  11  24  39  64  97 127 176 222 273 331 396
#     4  12  24  48  72 102 122 172 224 272 332 410
#     4  12  25  46  70  96 131 171 219 270 335 401
#     4   8  16  32  58  90 125 166 220 268 329 385
#     4  11  23  40  63  96 135 174 223 269 333 391
#
# _framework density 21.223600000000001
#
# number of rings (size 3 to 8) (size 9 to 14) (size 15 to 20)
#    0.000    1.379    4.138    2.069    2.897    1.379 
#    0.000    0.000    0.000    2.483    0.000    8.690 
#    0.000    0.000    0.000    0.000    0.000    0.000 
#
# Total GULP energy -161704.496986 kJ/mol
# GULP energy per Si atom -5576.017137 kJ/mol
# Density = 2.117529 g / cm^3
# Si number density = 21.223600 Si / 1000 Ang^3
#
#
#
# Elastic Constant Matrix: (Units=GPa)
#
#
# Indices 1 2 3 4 5 6 
#
# 1 39.9966 5.6476 -3.7134 0.0000 13.2621 0.0000
# 2 5.6476 99.6992 15.1830 0.0000 2.6836 0.0000
# 3 -3.7134 15.1830 57.2334 0.0000 6.5646 0.0000
# 4 0.0000 0.0000 0.0000 37.1658 0.0000 2.3131
# 5 13.2621 2.6836 6.5646 0.0000 24.7618 0.0000
# 6 0.0000 0.0000 0.0000 2.3131 0.0000 9.1222
#
#
#
# Elastic Compliance Matrix: (Units=1/GPa)
#
#
# Indices 1 2 3 4 5 6 
#
# 1 0.031682 -0.002019 0.004654 0.000000 -0.017984 0.000000
# 2 -0.002019 0.010585 -0.003023 0.000000 0.000736 0.000000
# 3 0.004654 -0.003023 0.019415 0.000000 -0.007312 0.000000
# 4 0.000000 0.000000 0.000000 0.027338 0.000000 -0.006932
# 5 -0.017984 0.000736 -0.007312 0.000000 0.051875 0.000000
# 6 0.000000 0.000000 0.000000 -0.006932 0.000000 0.111381
#
#
# Mechanical properties :
#
#
# Convention : Reuss Voigt Hill
#
# Bulk Modulus (GPa) = 16.41903 25.68485 21.05194
# Shear Modulus (GPa) = 18.29115 26.19741 22.24428
#
# Velocity S-wave (km/s) = 2.93888 3.51715 3.24094
# Velocity P-wave (km/s) = 4.38965 5.34996 4.89342
#
# Compressibility (1/GPa) = 0.06090493
#
# Stress axis : x y z
#
# Youngs Moduli (GPa) = 31.56324 94.47159 51.50647
#
# Poissons Ratio (x) = 0.19077 -0.23971
# Poissons Ratio (y) = 0.06374 0.15573
# Poissons Ratio (z) = -0.14690 0.28563
#
# Static dielectric constant tensor:
#      x y z
#    x 1.779300 0.000000 0.059650 
#    y 0.000000 1.780440 0.000000 
#    z 0.059650 0.000000 1.841640 
# 
# From -- ./inp_files/301109.got.cif
#   From: 2010.05.17/outbox.cif.g08.bks.cpg/sg12_151_cif.got.tgz:301109.got - 2010.06.03 13:09:07.
