data_PCOD9221928
_publ_section_title
;
Structure prediction by ZEFSAII (Michael W. Deem and Ramdas Pophale) SiO2 
 PCOD9221928
Probable space group: C 2/M
;
_chemical_formula_sum "Si O2"
_cell_formula_units_Z 48
_cell_length_a 30.455837
_cell_length_b 8.857988
_cell_length_c 19.834614
_cell_angle_alpha 90.000000
_cell_angle_beta 148.913746
_cell_angle_gamma 90.000000
_cell_volume 2762.835070
_symmetry_space_group_name_H-M "C 2/M"
_symmetry_group_IT_number 12
_symmetry_cell_setting 'monoclinic'
loop_
_space_group_symop_operation_xyz
x,y,z
-x,y,-z
-x,-y,-z
x,-y,z
1/2+x,1/2+y,z
1/2-x,1/2+y,-z
1/2-x,1/2-y,-z
1/2+x,1/2-y,z
loop_
_atom_site_type_symbol
_atom_site_label
_atom_site_fract_x
_atom_site_fract_y
_atom_site_fract_z
Si Si1 0.343316 0.182420 0.116636
Si Si2 0.030103 0.319713 0.835046
Si Si3 0.537611 0.679867 0.122613
Si Si4 0.622148 0.180555 0.469925
Si Si5 0.779112 0.320664 0.609166
Si Si6 0.491538 0.183824 0.412292
O O1 0.391806 0.224233 0.110939
O O2 0.406175 0.230492 0.260305
O O3 0.338841 0.000000 0.112160
O O4 0.250000 0.250000 0.000000
O O5 0.034395 0.500000 0.851837
O O6 0.022238 0.235535 0.895207
O O7 0.944387 0.291304 0.678657
O O8 0.548553 0.500000 0.141746
O O9 0.628300 0.759071 0.251160
O O10 0.500000 0.716676 0.000000
O O11 0.708657 0.267569 0.570134
O O12 0.571885 0.225228 0.471430
O O13 0.637854 0.000000 0.492098
O O14 0.781158 0.500000 0.605869
O O15 0.750000 0.250000 0.500000
O O16 0.500000 0.237112 0.500000
O O17 0.489978 0.000000 0.411056
#
# Coordination Sequence:
#
# PCOD9221928 Si02
#       6
#     8   8   8   8   8   8
#     4   9  18  33  54  80 107 140 182 221 265 320
#     4   9  18  34  56  78 106 147 185 221 270 326
#     4  11  24  40  57  81 111 143 184 230 276 327
#     4   9  17  32  56  83 108 140 184 227 265 316
#     4  12  23  36  58  84 111 144 184 226 271 326
#     4   8  15  31  55  80 107 140 178 220 267 314
#
# _framework density 17.373459
#
# number of rings (size 3 to 8) (size 9 to 14) (size 15 to 20)
#    0.000    2.333    1.667    4.000    0.000    2.000 
#    3.000    2.500    0.000    1.000    0.000    0.000 
#    0.000    0.000    0.000    0.000    0.000    0.000 
#
# Total GULP energy -133907.843601 kJ/mol
# GULP energy per Si atom -5579.493483 kJ/mol
# Density = 1.733392 g / cm^3
# Si number density = 17.373459 Si / 1000 Ang^3
#
#
#
# Elastic Constant Matrix: (Units=GPa)
#
#
# Indices 1 2 3 4 5 6 
#
# 1 164.0286 55.5433 98.9843 0.0000 -5.0129 0.0000
# 2 55.5433 50.0908 56.7634 0.0000 -3.7337 0.0000
# 3 98.9843 56.7634 113.8908 0.0000 3.9040 0.0000
# 4 0.0000 0.0000 0.0000 25.6166 0.0000 6.7418
# 5 -5.0129 -3.7337 3.9040 0.0000 35.3448 0.0000
# 6 0.0000 0.0000 0.0000 6.7418 0.0000 28.7121
#
#
#
# Elastic Compliance Matrix: (Units=1/GPa)
#
#
# Indices 1 2 3 4 5 6 
#
# 1 0.013357 -0.003104 -0.010154 0.000000 0.002688 0.000000
# 2 -0.003104 0.048606 -0.021770 0.000000 0.007099 0.000000
# 3 -0.010154 -0.021770 0.028693 0.000000 -0.006909 0.000000
# 4 0.000000 0.000000 0.000000 0.041608 0.000000 -0.009770
# 5 0.002688 0.007099 -0.006909 0.000000 0.030187 0.000000
# 6 0.000000 0.000000 0.000000 -0.009770 0.000000 0.037123
#
#
# Mechanical properties :
#
#
# Convention : Reuss Voigt Hill
#
# Bulk Modulus (GPa) = 48.54846 83.39914 65.97380
# Shear Modulus (GPa) = 18.08338 25.71598 21.89968
#
# Velocity S-wave (km/s) = 3.22974 3.85149 3.55424
# Velocity P-wave (km/s) = 6.47402 8.23934 7.40944
#
# Compressibility (1/GPa) = 0.02059797
#
# Stress axis : x y z
#
# Youngs Moduli (GPa) = 74.86511 20.57379 34.85219
#
# Poissons Ratio (x) = 0.06387 0.35389
# Poissons Ratio (y) = 0.23241 0.75875
# Poissons Ratio (z) = 0.76018 0.44790
#
# Static dielectric constant tensor:
#      x y z
#    x 1.601360 0.000000 -0.005500 
#    y 0.000000 1.579830 0.000000 
#    z -0.005500 0.000000 1.565490 
# 
# From -- ./inp_files/281829.got.cif
#   From: 2010.05.17/outbox.cif.g08.bks.cpg/sg12_141_cif.got.tgz:281829.got - 2010.06.03 13:09:07.
