data_PCOD9221093
_publ_section_title
;
Structure prediction by ZEFSAII (Michael W. Deem and Ramdas Pophale) SiO2 
 PCOD9221093
Probable space group: C 2/M
;
_chemical_formula_sum "Si O2"
_cell_formula_units_Z 56
_cell_length_a 20.897878
_cell_length_b 17.972935
_cell_length_c 20.365262
_cell_angle_alpha 90.000000
_cell_angle_beta 20.331424
_cell_angle_gamma 90.000000
_cell_volume 2657.684932
_symmetry_space_group_name_H-M "C 2/M"
_symmetry_group_IT_number 12
_symmetry_cell_setting 'monoclinic'
loop_
_space_group_symop_operation_xyz
x,y,z
-x,y,-z
-x,-y,-z
x,-y,z
1/2+x,1/2+y,z
1/2-x,1/2+y,-z
1/2-x,1/2-y,-z
1/2+x,1/2-y,z
loop_
_atom_site_type_symbol
_atom_site_label
_atom_site_fract_x
_atom_site_fract_y
_atom_site_fract_z
Si Si1 0.785998 0.583198 0.224337
Si Si2 0.105194 0.200525 0.302610
Si Si3 0.306727 0.826577 0.323800
Si Si4 0.983439 0.633767 0.444338
Si Si5 0.667579 0.823287 0.045398
Si Si6 0.931599 0.177468 0.140811
Si Si7 0.271806 0.415663 0.064866
O O1 0.722670 0.500000 0.268818
O O2 0.664077 0.644716 0.304061
O O3 0.789581 0.598352 0.298587
O O4 0.000000 0.589944 0.000000
O O5 0.905457 0.192705 0.460483
O O6 0.088897 0.285185 0.345123
O O7 0.249179 0.180719 0.107342
O O8 0.446652 0.826299 0.249597
O O9 0.393627 0.764358 0.191151
O O10 0.765048 0.643463 0.649059
O O11 0.000000 0.597603 0.500000
O O12 0.085615 0.592752 0.287145
O O13 0.731899 0.890756 0.029122
O O14 0.750000 0.750000 0.000000
O O15 0.000000 0.165837 0.000000
O O16 0.082998 0.141014 0.042327
O O17 0.338754 0.500000 0.004841
#
# Coordination Sequence:
#
# PCOD9221093 Si02
#       7
#     8   8   8   8   8   8   8
#     4  11  23  40  67 105 144 178 218 277 340 402
#     4  11  23  41  71 103 133 175 228 275 332 403
#     4  11  23  39  72 101 133 176 228 275 335 400
#     4  11  22  41  70 101 130 170 223 277 340 404
#     4  12  24  44  68  93 132 181 227 275 325 402
#     4  11  22  41  71  99 130 171 222 279 342 405
#     4  12  28  46  65  97 137 178 224 283 342 402
#
# _framework density 21.070969999999999
#
# number of rings (size 3 to 8) (size 9 to 14) (size 15 to 20)
#    0.000    0.714    5.714    2.571    0.000    5.143 
#    0.000    0.000    0.000    0.000    0.000    0.000 
#    0.000    0.000    0.000    0.000    0.000    0.000 
#
# Total GULP energy -156311.082699 kJ/mol
# GULP energy per Si atom -5582.538668 kJ/mol
# Density = 2.102301 g / cm^3
# Si number density = 21.070970 Si / 1000 Ang^3
#
#
#
# Elastic Constant Matrix: (Units=GPa)
#
#
# Indices 1 2 3 4 5 6 
#
# 1 78.8937 13.1577 29.2945 0.0064 -24.5561 0.0039
# 2 13.1577 77.5821 14.3644 -0.0122 -11.4762 0.0136
# 3 29.2945 14.3644 117.1006 -0.0265 -20.7032 0.0159
# 4 0.0064 -0.0122 -0.0265 1.2490 0.0201 4.2462
# 5 -24.5561 -11.4762 -20.7032 0.0201 43.0385 -0.0048
# 6 0.0039 0.0136 0.0159 4.2462 -0.0048 17.4585
#
#
#
# Elastic Compliance Matrix: (Units=1/GPa)
#
#
# Indices 1 2 3 4 5 6 
#
# 1 0.016216 -0.001136 -0.002553 -0.001608 0.007722 0.000393
# 2 -0.001136 0.013631 -0.000940 0.000625 0.002534 -0.000161
# 3 -0.002553 -0.000940 0.009828 0.001083 0.003020 -0.000270
# 4 -0.001608 0.000625 0.001083 4.624727 -0.002510 -1.124810
# 5 0.007722 0.002534 0.003020 -0.002510 0.029771 0.000612
# 6 0.000393 -0.000161 -0.000270 -1.124810 0.000612 0.330851
#
#
# Mechanical properties :
#
#
# Convention : Reuss Voigt Hill
#
# Bulk Modulus (GPa) = 32.87380 43.02329 37.94854
# Shear Modulus (GPa) = 0.99119 26.79986 13.89553
#
# Velocity S-wave (km/s) = 0.68661 3.57022 2.57079
# Velocity P-wave (km/s) = 4.03285 6.12028 5.18275
#
# Compressibility (1/GPa) = 0.03041936
#
# Stress axis : x y z
#
# Youngs Moduli (GPa) = 61.66655 73.36118 101.75308
#
# Poissons Ratio (x) = 0.08331 0.25973
# Poissons Ratio (y) = 0.07003 0.09562
# Poissons Ratio (z) = 0.15741 0.06894
#
# Static dielectric constant tensor:
#      x y z
#    x 1.791070 -0.000010 -0.007690 
#    y -0.000010 1.761780 0.000010 
#    z -0.007690 0.000010 1.833770 
# 
# From -- ./inp_files/322626.got.cif
#   From: 2010.05.17/outbox.cif.g08.bks.cpg/sg12_162_cif.got.tgz:322626.got - 2010.06.03 13:09:07.
