data_PCOD9221516
_publ_section_title
;
Structure prediction by ZEFSAII (Michael W. Deem and Ramdas Pophale) SiO2 
 PCOD9221516
Probable space group: C 2/M
;
_chemical_formula_sum "Si O2"
_cell_formula_units_Z 58
_cell_length_a 19.010292
_cell_length_b 17.891372
_cell_length_c 11.601815
_cell_angle_alpha 90.000000
_cell_angle_beta 135.557574
_cell_angle_gamma 90.000000
_cell_volume 2762.966606
_symmetry_space_group_name_H-M "C 2/M"
_symmetry_group_IT_number 12
_symmetry_cell_setting 'monoclinic'
loop_
_space_group_symop_operation_xyz
x,y,z
-x,y,-z
-x,-y,-z
x,-y,z
1/2+x,1/2+y,z
1/2-x,1/2+y,-z
1/2-x,1/2-y,-z
1/2+x,1/2-y,z
loop_
_atom_site_type_symbol
_atom_site_label
_atom_site_fract_x
_atom_site_fract_y
_atom_site_fract_z
Si Si1 0.815597 0.887586 0.258159
Si Si2 0.401945 0.082295 0.043495
Si Si3 0.969068 0.638604 0.591705
Si Si4 0.941106 0.797378 0.250332
Si Si5 0.246521 0.816851 0.400116
Si Si6 0.374714 0.589911 0.570974
Si Si7 0.900062 0.746459 0.949456
Si Si8 0.000000 0.000000 0.500000
O O1 0.853364 0.814207 0.238320
O O2 0.800315 0.888127 0.378178
O O3 0.718504 0.917180 0.078942
O O4 0.915009 0.937301 0.369836
O O5 0.468183 0.096338 0.235022
O O6 0.427285 0.000000 0.025547
O O7 0.410455 0.156628 0.975122
O O8 0.851600 0.644913 0.487655
O O9 0.000000 0.611284 0.500000
O O10 0.002162 0.724750 0.639392
O O11 0.024121 0.862284 0.328166
O O12 0.897338 0.778593 0.074358
O O13 0.250000 0.750000 0.500000
O O14 0.176959 0.881680 0.373619
O O15 0.193568 0.776931 0.230795
O O16 0.394740 0.500000 0.586817
O O17 0.000000 0.772423 0.000000
#
# Coordination Sequence:
#
# PCOD9221516 Si02
#       8
#     8   8   8   8   8   8   8   2
#     4  12  22  38  67 103 143 172 222 292 352 419
#     4  11  26  44  67 101 138 179 236 299 356 410
#     4  11  26  45  70  99 138 197 239 281 344 433
#     4  11  23  40  67 103 139 177 231 290 354 423
#     4  12  24  44  70  99 141 188 234 288 349 418
#     4  12  22  40  69 103 138 178 228 289 362 420
#     4  11  24  45  70 102 138 181 234 293 357 429
#     4  12  20  36  64 104 138 176 216 280 374 396
#
# _framework density 20.991928999999999
#
# number of rings (size 3 to 8) (size 9 to 14) (size 15 to 20)
#    0.000    0.552    5.517    2.483    3.862    2.207 
#    0.000    1.379    0.000    0.000    0.000    0.000 
#    0.000    0.000    0.000    0.000    0.000    0.000 
#
# Total GULP energy -161599.449650 kJ/mol
# GULP energy per Si atom -5572.394816 kJ/mol
# Density = 2.094415 g / cm^3
# Si number density = 20.991929 Si / 1000 Ang^3
#
#
#
# Elastic Constant Matrix: (Units=GPa)
#
#
# Indices 1 2 3 4 5 6 
#
# 1 71.3001 20.1857 40.1941 0.0000 7.0541 0.0000
# 2 20.1857 101.3663 32.3226 0.0000 -1.9372 0.0000
# 3 40.1941 32.3226 146.5584 0.0000 7.6925 0.0000
# 4 0.0000 0.0000 0.0000 87.6671 0.0000 48.4014
# 5 7.0541 -1.9372 7.6925 0.0000 33.2259 0.0000
# 6 0.0000 0.0000 0.0000 48.4014 0.0000 48.9843
#
#
#
# Elastic Compliance Matrix: (Units=1/GPa)
#
#
# Indices 1 2 3 4 5 6 
#
# 1 0.017232 -0.002180 -0.004096 0.000000 -0.002837 0.000000
# 2 -0.002180 0.010933 -0.001894 0.000000 0.001539 0.000000
# 3 -0.004096 -0.001894 0.008427 0.000000 -0.001192 0.000000
# 4 0.000000 0.000000 0.000000 0.025099 0.000000 -0.024801
# 5 -0.002837 0.001539 -0.001192 0.000000 0.031065 0.000000
# 6 0.000000 0.000000 0.000000 -0.024801 0.000000 0.044920
#
#
# Mechanical properties :
#
#
# Convention : Reuss Voigt Hill
#
# Bulk Modulus (GPa) = 49.37871 56.06995 52.72433
# Shear Modulus (GPa) = 31.10085 49.07694 40.08890
#
# Velocity S-wave (km/s) = 3.85328 4.84042 4.37479
# Velocity P-wave (km/s) = 6.58565 7.61629 7.11964
#
# Compressibility (1/GPa) = 0.02025164
#
# Stress axis : x y z
#
# Youngs Moduli (GPa) = 58.03074 91.46933 118.66677
#
# Poissons Ratio (x) = 0.19936 0.48611
# Poissons Ratio (y) = 0.12648 0.22477
# Poissons Ratio (z) = 0.23772 0.17326
#
# Static dielectric constant tensor:
#      x y z
#    x 1.858480 0.000000 -0.004410 
#    y 0.000000 1.770970 0.000000 
#    z -0.004410 0.000000 1.751130 
# 
# From -- ./inp_files/168998.got.cif
#   From: 2010.05.17/outbox.cif.g08.bks.cpg/sg12_85_cif.got.tgz:168998.got - 2010.06.03 13:09:07.
