data_PCOD9221332
_publ_section_title
;
Structure prediction by ZEFSAII (Michael W. Deem and Ramdas Pophale) SiO2 
 PCOD9221332
Probable space group: C 2/M
;
_chemical_formula_sum "Si O2"
_cell_formula_units_Z 56
_cell_length_a 9.249556
_cell_length_b 18.974177
_cell_length_c 24.438950
_cell_angle_alpha 90.000000
_cell_angle_beta 45.541754
_cell_angle_gamma 90.000000
_cell_volume 3061.393935
_symmetry_space_group_name_H-M "C 2/M"
_symmetry_group_IT_number 12
_symmetry_cell_setting 'monoclinic'
loop_
_space_group_symop_operation_xyz
x,y,z
-x,y,-z
-x,-y,-z
x,-y,z
1/2+x,1/2+y,z
1/2-x,1/2+y,-z
1/2-x,1/2-y,-z
1/2+x,1/2-y,z
loop_
_atom_site_type_symbol
_atom_site_label
_atom_site_fract_x
_atom_site_fract_y
_atom_site_fract_z
Si Si1 0.825515 0.333275 0.208041
Si Si2 0.312262 0.188071 0.801174
Si Si3 0.894797 0.817285 0.970673
Si Si4 0.535665 0.916283 0.054781
Si Si5 0.471721 0.917572 0.337032
Si Si6 0.359093 0.914182 0.487036
Si Si7 0.913197 0.917781 0.637036
O O1 0.701567 0.264857 0.222218
O O2 0.684840 0.378349 0.285710
O O3 0.029505 0.314937 0.189528
O O4 0.892397 0.375616 0.135815
O O5 0.386610 0.130418 0.737964
O O6 0.080503 0.174821 0.880023
O O7 0.750000 0.750000 0.000000
O O8 0.758451 0.886696 0.007934
O O9 0.000000 0.804690 0.000000
O O10 0.517422 0.000000 0.067189
O O11 0.500000 0.899677 0.000000
O O12 0.450763 0.891840 0.404725
O O13 0.249068 0.914128 0.368886
O O14 0.535055 0.000000 0.319174
O O15 0.500000 0.893427 0.500000
O O16 0.130192 0.890425 0.559477
O O17 0.353508 0.000000 0.485815
O O18 0.937700 0.000000 0.645369
#
# Coordination Sequence:
#
# PCOD9221332 Si02
#       7
#     8   8   8   8   8   8   8
#     4  11  23  40  59  87 118 154 198 244 292 353
#     4  11  23  38  61  86 114 156 197 241 295 350
#     4  12  22  40  63  87 116 161 200 242 295 353
#     4  11  25  42  61  87 119 154 198 248 298 351
#     4   9  19  36  58  85 115 148 195 242 285 345
#     4   9  17  32  55  86 119 151 186 231 291 349
#     4   9  18  35  60  84 113 154 193 236 288 344
#
# _framework density 18.29232
#
# number of rings (size 3 to 8) (size 9 to 14) (size 15 to 20)
#    0.000    1.714    2.857    1.286    2.000    4.286 
#    0.000    0.714    0.000    0.000    0.000    0.000 
#    0.000    0.000    0.000    0.000    0.000    0.000 
#
# Total GULP energy -156245.317923 kJ/mol
# GULP energy per Si atom -5580.189926 kJ/mol
# Density = 1.825069 g / cm^3
# Si number density = 18.292320 Si / 1000 Ang^3
#
#
#
# Elastic Constant Matrix: (Units=GPa)
#
#
# Indices 1 2 3 4 5 6 
#
# 1 89.0040 51.1234 70.1342 0.0012 13.8314 -0.0013
# 2 51.1234 79.7575 56.4487 -0.0077 10.1614 -0.0009
# 3 70.1342 56.4487 138.4645 -0.0137 10.9825 -0.0046
# 4 0.0012 -0.0077 -0.0137 16.3233 -0.0001 -1.5559
# 5 13.8314 10.1614 10.9825 -0.0001 34.9380 0.0020
# 6 -0.0013 -0.0009 -0.0046 -1.5559 0.0020 25.3648
#
#
#
# Elastic Compliance Matrix: (Units=1/GPa)
#
#
# Indices 1 2 3 4 5 6 
#
# 1 0.023012 -0.008724 -0.007772 -0.000012 -0.004130 -0.000001
# 2 -0.008724 0.021229 -0.004123 0.000007 -0.001425 0.000000
# 3 -0.007772 -0.004123 0.012820 0.000010 0.000246 0.000002
# 4 -0.000012 0.000007 0.000010 0.061622 0.000000 0.003780
# 5 -0.004130 -0.001425 0.000246 0.000000 0.030594 -0.000003
# 6 -0.000001 0.000000 0.000002 0.003780 -0.000003 0.039657
#
#
# Mechanical properties :
#
#
# Convention : Reuss Voigt Hill
#
# Bulk Modulus (GPa) = 63.19431 73.62652 68.41041
# Shear Modulus (GPa) = 21.23616 23.95987 22.59801
#
# Velocity S-wave (km/s) = 3.41094 3.62309 3.51861
# Velocity P-wave (km/s) = 7.08058 7.60524 7.34759
#
# Compressibility (1/GPa) = 0.01582421
#
# Stress axis : x y z
#
# Youngs Moduli (GPa) = 43.45475 47.10440 78.00264
#
# Poissons Ratio (x) = 0.41093 0.60624
# Poissons Ratio (y) = 0.37909 0.32161
# Poissons Ratio (z) = 0.33773 0.19421
#
# Static dielectric constant tensor:
#      x y z
#    x 1.625400 0.000000 0.014290 
#    y 0.000000 1.619420 0.000000 
#    z 0.014290 0.000000 1.637130 
# 
# From -- ./inp_files/333308.got.cif
#   From: 2010.05.17/outbox.cif.g08.bks.cpg/sg12_167_cif.got.tgz:333308.got - 2010.06.03 13:09:07.
