data_PCOD9221140
_publ_section_title
;
Structure prediction by ZEFSAII (Michael W. Deem and Ramdas Pophale) SiO2 
 PCOD9221140
Probable space group: C 2/M
;
_chemical_formula_sum "Si O2"
_cell_formula_units_Z 64
_cell_length_a 12.081422
_cell_length_b 18.022222
_cell_length_c 29.037237
_cell_angle_alpha 90.000000
_cell_angle_beta 29.445595
_cell_angle_gamma 90.000000
_cell_volume 3108.070133
_symmetry_space_group_name_H-M "C 2/M"
_symmetry_group_IT_number 12
_symmetry_cell_setting 'monoclinic'
loop_
_space_group_symop_operation_xyz
x,y,z
-x,y,-z
-x,-y,-z
x,-y,z
1/2+x,1/2+y,z
1/2-x,1/2+y,-z
1/2-x,1/2-y,-z
1/2+x,1/2-y,z
loop_
_atom_site_type_symbol
_atom_site_label
_atom_site_fract_x
_atom_site_fract_y
_atom_site_fract_z
Si Si1 0.654276 0.156580 0.209948
Si Si2 0.195232 0.341151 0.468215
Si Si3 0.994853 0.809040 0.225213
Si Si4 0.930650 0.084211 0.716273
Si Si5 0.541915 0.913390 0.161020
Si Si6 0.816173 0.167053 0.992178
Si Si7 0.759191 0.418246 0.064141
Si Si8 0.493188 0.804692 0.636464
O O1 0.613691 0.237535 0.202848
O O2 0.538452 0.099413 0.217010
O O3 0.554708 0.155276 0.297596
O O4 0.923404 0.149116 0.111031
O O5 0.367806 0.405887 0.392896
O O6 0.345336 0.265638 0.412566
O O7 0.000000 0.336977 0.500000
O O8 0.100175 0.348137 0.554366
O O9 0.752866 0.783779 0.294064
O O10 0.996465 0.866046 0.267114
O O11 0.120067 0.853427 0.139364
O O12 0.695691 0.105817 0.777138
O O13 0.905904 0.000000 0.740970
O O14 0.595020 0.000000 0.132498
O O15 0.727909 0.855779 0.074196
O O16 0.691156 0.107853 0.005231
O O17 0.750000 0.250000 0.000000
O O18 0.650647 0.500000 0.105422
O O19 0.000000 0.422465 0.000000
#
# Coordination Sequence:
#
# PCOD9221140 Si02
#       8
#     8   8   8   8   8   8   8   8
#     4  12  24  41  68  94 132 175 220 274 320 391
#     4  11  22  42  69  99 131 167 214 272 337 404
#     4  12  22  42  65  97 132 167 219 275 330 387
#     4  11  23  42  68  96 130 173 215 270 334 395
#     4  11  26  46  65  93 137 186 227 264 326 400
#     4  12  24  40  65  99 130 174 224 278 321 380
#     4  11  23  39  61  92 132 175 217 269 328 382
#     4  11  23  42  67 100 128 168 216 272 334 388
#
# _framework density 20.591556000000001
#
# number of rings (size 3 to 8) (size 9 to 14) (size 15 to 20)
#    0.000    0.625    3.750    4.875    0.000    4.750 
#    0.000    0.625    0.000    1.500    0.000    0.000 
#    0.000    0.000    0.000    0.000    0.000    0.000 
#
# Total GULP energy -178770.684565 kJ/mol
# GULP energy per Si atom -5586.583893 kJ/mol
# Density = 2.054469 g / cm^3
# Si number density = 20.591556 Si / 1000 Ang^3
#
#
#
# Elastic Constant Matrix: (Units=GPa)
#
#
# Indices 1 2 3 4 5 6 
#
# 1 115.5074 23.8700 47.4360 0.0722 13.0051 0.0936
# 2 23.8700 68.8714 18.8729 0.0675 2.2220 0.1267
# 3 47.4360 18.8729 94.6705 0.2200 7.8753 0.2388
# 4 0.0722 0.0675 0.2200 -12.8517 -0.1170 -46.6029
# 5 13.0051 2.2220 7.8753 -0.1170 43.0059 -0.1371
# 6 0.0936 0.1267 0.2388 -46.6029 -0.1371 -37.2469
#
#
#
# Elastic Compliance Matrix: (Units=1/GPa)
#
#
# Indices 1 2 3 4 5 6 
#
# 1 0.011538 -0.002530 -0.005075 0.000000 -0.002429 -0.000004
# 2 -0.002530 0.015916 -0.001930 0.000026 0.000296 0.000002
# 3 -0.005075 -0.001930 0.013561 0.000016 -0.000849 0.000051
# 4 0.000000 0.000026 0.000016 0.021999 -0.000032 -0.027524
# 5 -0.002429 0.000296 -0.000849 -0.000032 0.024127 -0.000059
# 6 -0.000004 0.000002 0.000051 -0.027524 -0.000059 0.007591
#
#
# Mechanical properties :
#
#
# Convention : Reuss Voigt Hill
#
# Bulk Modulus (GPa) = 45.56752 51.04522 48.30637
# Shear Modulus (GPa) = 41.28281 11.17281 26.22781
#
# Velocity S-wave (km/s) = 4.48240 2.33189 3.57279
# Velocity P-wave (km/s) = 6.99761 5.66511 6.36632
#
# Compressibility (1/GPa) = 0.02194545
#
# Stress axis : x y z
#
# Youngs Moduli (GPa) = 86.67135 62.83017 73.74122
#
# Poissons Ratio (x) = 0.15895 0.37422
# Poissons Ratio (y) = 0.21926 0.14232
# Poissons Ratio (z) = 0.43984 0.12126
#
# Static dielectric constant tensor:
#      x y z
#    x 1.780730 -0.000020 0.067520 
#    y -0.000020 1.720670 -0.000060 
#    z 0.067520 -0.000060 1.837380 
# 
# From -- ./inp_files/374459.got.cif
#   From: 2010.05.17/outbox.cif.g08.bks.cpg/sg12_188_cif.got.tgz:374459.got - 2010.06.03 13:09:07.
