data_PCOD9221490
_publ_section_title
;
Structure prediction by ZEFSAII (Michael W. Deem and Ramdas Pophale) SiO2 
 PCOD9221490
Probable space group: C 2/M
;
_chemical_formula_sum "Si O2"
_cell_formula_units_Z 40
_cell_length_a 18.283287
_cell_length_b 17.417099
_cell_length_c 5.802952
_cell_angle_alpha 90.000000
_cell_angle_beta 105.580083
_cell_angle_gamma 90.000000
_cell_volume 1780.003243
_symmetry_space_group_name_H-M "C 2/M"
_symmetry_group_IT_number 12
_symmetry_cell_setting 'monoclinic'
loop_
_space_group_symop_operation_xyz
x,y,z
-x,y,-z
-x,-y,-z
x,-y,z
1/2+x,1/2+y,z
1/2-x,1/2+y,-z
1/2-x,1/2-y,-z
1/2+x,1/2-y,z
loop_
_atom_site_type_symbol
_atom_site_label
_atom_site_fract_x
_atom_site_fract_y
_atom_site_fract_z
Si Si1 0.966362 0.875413 0.727039
Si Si2 0.571757 0.791901 0.416328
Si Si3 0.194668 0.803605 0.810859
Si Si4 0.306544 0.090574 0.610095
Si Si5 0.675199 0.584068 0.164305
O O1 0.961720 0.782668 0.741090
O O2 0.880609 0.907554 0.665872
O O3 0.000000 0.893038 0.500000
O O4 0.000000 0.905384 0.000000
O O5 0.500000 0.822087 0.500000
O O6 0.638406 0.749130 0.617800
O O7 0.615273 0.861505 0.329495
O O8 0.249807 0.862030 0.724931
O O9 0.250000 0.750000 0.000000
O O10 0.149834 0.853369 0.959533
O O11 0.261143 0.094362 0.326918
O O12 0.314343 0.000000 0.673412
O O13 0.668274 0.500000 0.056421
#
# Coordination Sequence:
#
# PCOD9221490 Si02
#       5
#     8   8   8   8   8
#     4  11  24  43  67 101 141 185 237 286 350 417
#     4  11  23  43  69 101 133 179 229 289 344 414
#     4  12  22  42  72  97 130 181 237 287 339 413
#     4  11  24  42  65  98 135 176 226 284 351 415
#     4  11  23  40  64  94 136 179 224 283 347 413
#
# _framework density 22.471867
#
# number of rings (size 3 to 8) (size 9 to 14) (size 15 to 20)
#    0.000    0.800    4.000    4.800    0.000    1.200 
#    0.000    0.000    0.000    3.000    0.000    0.000 
#    0.000    0.000    0.000    0.000    0.000    0.000 
#
# Total GULP energy -111641.068366 kJ/mol
# GULP energy per Si atom -5582.053418 kJ/mol
# Density = 2.242072 g / cm^3
# Si number density = 22.471867 Si / 1000 Ang^3
#
#
#
# Elastic Constant Matrix: (Units=GPa)
#
#
# Indices 1 2 3 4 5 6 
#
# 1 111.4439 31.7139 14.5843 0.0000 -31.0877 0.0000
# 2 31.7139 121.3741 29.0042 0.0000 -20.2178 0.0000
# 3 14.5843 29.0042 82.6195 0.0000 -6.5056 0.0000
# 4 0.0000 0.0000 0.0000 19.6213 0.0000 11.4565
# 5 -31.0877 -20.2178 -6.5056 0.0000 24.2679 0.0000
# 6 0.0000 0.0000 0.0000 11.4565 0.0000 -3.8064
#
#
#
# Elastic Compliance Matrix: (Units=1/GPa)
#
#
# Indices 1 2 3 4 5 6 
#
# 1 0.014090 -0.000576 -0.000921 0.000000 0.017323 0.000000
# 2 -0.000576 0.010264 -0.002949 0.000000 0.007023 0.000000
# 3 -0.000921 -0.002949 0.013296 0.000000 -0.000072 0.000000
# 4 0.000000 0.000000 0.000000 0.018483 0.000000 0.055631
# 5 0.017323 0.007023 -0.000072 0.000000 0.069229 0.000000
# 6 0.000000 0.000000 0.000000 0.055631 0.000000 -0.095278
#
#
# Mechanical properties :
#
#
# Convention : Reuss Voigt Hill
#
# Bulk Modulus (GPa) = 34.77247 51.78249 43.27748
# Shear Modulus (GPa) = 102.96387 24.02557 63.49472
#
# Velocity S-wave (km/s) = 6.77632 3.27332 5.32133
# Velocity P-wave (km/s) = 8.75968 6.11387 7.55352
#
# Compressibility (1/GPa) = 0.02875838
#
# Stress axis : x y z
#
# Youngs Moduli (GPa) = 70.97363 97.42900 75.21232
#
# Poissons Ratio (x) = 0.05611 0.06927
# Poissons Ratio (y) = 0.04088 0.22177
# Poissons Ratio (z) = 0.06536 0.28728
#
# Static dielectric constant tensor:
#      x y z
#    x 1.891210 0.000000 -0.034890 
#    y 0.000000 1.872720 0.000000 
#    z -0.034890 0.000000 1.909420 
# 
# From -- ./inp_files/15131.got.cif
#   From: 2010.05.17/outbox.cif.g08.bks.cpg/sg12_8_cif.got.tgz:15131.got - 2010.06.03 13:09:07.
