data_PCOD9221373
_publ_section_title
;
Structure prediction by ZEFSAII (Michael W. Deem and Ramdas Pophale) SiO2 
 PCOD9221373
Probable space group: C 2/M
;
_chemical_formula_sum "Si O2"
_cell_formula_units_Z 34
_cell_length_a 16.081893
_cell_length_b 7.438953
_cell_length_c 16.392019
_cell_angle_alpha 90.000000
_cell_angle_beta 45.822544
_cell_angle_gamma 90.000000
_cell_volume 1406.411947
_symmetry_space_group_name_H-M "C 2/M"
_symmetry_group_IT_number 12
_symmetry_cell_setting 'monoclinic'
loop_
_space_group_symop_operation_xyz
x,y,z
-x,y,-z
-x,-y,-z
x,-y,z
1/2+x,1/2+y,z
1/2-x,1/2+y,-z
1/2-x,1/2-y,-z
1/2+x,1/2-y,z
loop_
_atom_site_type_symbol
_atom_site_label
_atom_site_fract_x
_atom_site_fract_y
_atom_site_fract_z
Si Si1 0.179108 0.283047 0.410365
Si Si2 0.880773 0.285472 0.884863
Si Si3 0.500000 0.000000 0.000000
Si Si4 0.031790 0.718221 0.350543
Si Si5 0.397824 0.701028 0.169972
O O1 0.178934 0.500000 0.416884
O O2 0.109905 0.233138 0.375041
O O3 0.310830 0.233047 0.301127
O O4 0.099500 0.218714 0.539692
O O5 0.902034 0.500000 0.878975
O O6 0.911244 0.225075 0.772609
O O7 0.974769 0.196977 0.878901
O O8 0.750000 0.250000 0.000000
O O9 0.407092 0.843119 0.092004
O O10 0.030408 0.500000 0.349396
O O11 0.362253 0.500000 0.167807
#
# Coordination Sequence:
#
# PCOD9221373 Si02
#       5
#     8   8   2   8   8
#     4   8  16  34  62  93 120 160 216 255 311 370
#     4  11  23  39  59  91 131 170 212 260 319 375
#     4  12  26  44  64  92 132 162 212 264 308 380
#     4   8  16  33  60  90 123 165 208 261 308 369
#     4  11  24  42  65  94 125 168 211 258 317 375
#
# _framework density 24.174993000000001
#
# number of rings (size 3 to 8) (size 9 to 14) (size 15 to 20)
#    0.000    2.353    1.176    2.471    3.294    0.941 
#    0.000    0.000    5.176    1.412    0.000    0.000 
#    0.000    0.000    0.000    0.000    0.000    0.000 
#
# Total GULP energy -94731.970448 kJ/mol
# GULP energy per Si atom -5572.468850 kJ/mol
# Density = 2.411997 g / cm^3
# Si number density = 24.174993 Si / 1000 Ang^3
#
#
#
# Elastic Constant Matrix: (Units=GPa)
#
#
# Indices 1 2 3 4 5 6 
#
# 1 29.4949 -1.8914 38.0705 0.0000 -15.6890 0.0000
# 2 -1.8914 117.1267 33.5008 0.0000 3.5540 0.0000
# 3 38.0705 33.5008 237.6867 0.0000 -17.8907 0.0000
# 4 0.0000 0.0000 0.0000 9.8948 0.0000 11.9355
# 5 -15.6890 3.5540 -17.8907 0.0000 42.6649 0.0000
# 6 0.0000 0.0000 0.0000 11.9355 0.0000 -2.2100
#
#
#
# Elastic Compliance Matrix: (Units=1/GPa)
#
#
# Indices 1 2 3 4 5 6 
#
# 1 0.052196 0.002514 -0.007523 0.000000 0.015830 0.000000
# 2 0.002514 0.009089 -0.001726 0.000000 -0.000556 0.000000
# 3 -0.007523 -0.001726 0.005636 0.000000 -0.000259 0.000000
# 4 0.000000 0.000000 0.000000 0.013449 0.000000 0.072634
# 5 0.015830 -0.000556 -0.000259 0.000000 0.029197 0.000000
# 6 0.000000 0.000000 0.000000 0.072634 0.000000 -0.060216
#
#
# Mechanical properties :
#
#
# Convention : Reuss Voigt Hill
#
# Bulk Modulus (GPa) = 18.70844 58.18533 38.44688
# Shear Modulus (GPa) = 62.00620 31.04518 46.52569
#
# Velocity S-wave (km/s) = 5.06997 3.58744 4.39171
# Velocity P-wave (km/s) = 6.48293 6.42497 6.45402
#
# Compressibility (1/GPa) = 0.05345182
#
# Stress axis : x y z
#
# Youngs Moduli (GPa) = 19.15858 110.02553 177.43401
#
# Poissons Ratio (x) = -0.27664 1.33486
# Poissons Ratio (y) = -0.04817 0.30618
# Poissons Ratio (z) = 0.14413 0.18986
#
# Static dielectric constant tensor:
#      x y z
#    x 1.956470 0.000000 0.041740 
#    y 0.000000 1.963940 0.000000 
#    z 0.041740 0.000000 1.984680 
# 
# From -- ./inp_files/273915.got.cif
#   From: 2010.05.17/outbox.cif.g08.bks.cpg/sg12_137_cif.got.tgz:273915.got - 2010.06.03 13:09:07.
