data_PCOD9221226
_publ_section_title
;
Structure prediction by ZEFSAII (Michael W. Deem and Ramdas Pophale) SiO2 
 PCOD9221226
Probable space group: C 2/M
;
_chemical_formula_sum "Si O2"
_cell_formula_units_Z 32
_cell_length_a 14.199912
_cell_length_b 10.417023
_cell_length_c 17.195837
_cell_angle_alpha 90.000000
_cell_angle_beta 147.153849
_cell_angle_gamma 90.000000
_cell_volume 1379.622746
_symmetry_space_group_name_H-M "C 2/M"
_symmetry_group_IT_number 12
_symmetry_cell_setting 'monoclinic'
loop_
_space_group_symop_operation_xyz
x,y,z
-x,y,-z
-x,-y,-z
x,-y,z
1/2+x,1/2+y,z
1/2-x,1/2+y,-z
1/2-x,1/2-y,-z
1/2+x,1/2-y,z
loop_
_atom_site_type_symbol
_atom_site_label
_atom_site_fract_x
_atom_site_fract_y
_atom_site_fract_z
Si Si1 0.553672 0.137485 0.826366
Si Si2 0.427662 0.274342 0.374638
Si Si3 0.764347 0.852034 0.625019
Si Si4 0.825592 0.278188 0.925002
O O1 0.426151 0.258012 0.729696
O O2 0.716563 0.158449 0.882650
O O3 0.467553 0.000000 0.753124
O O4 0.624403 0.143320 0.963751
O O5 0.500000 0.351472 0.500000
O O6 0.307779 0.169174 0.336529
O O7 0.598767 0.202258 0.462042
O O8 0.309397 0.341016 0.229461
O O9 0.800614 0.000000 0.634233
O O10 0.000000 0.247253 0.000000
#
# Coordination Sequence:
#
# PCOD9221226 Si02
#       4
#     8   8   8   8
#     4  11  26  42  65 105 138 168 222 280 334 395
#     4   8  18  39  70  98 124 172 233 272 313 394
#     4   9  19  41  67  95 131 169 220 271 323 392
#     4  11  22  46  66  94 132 185 219 271 328 402
#
# _framework density 23.194745999999999
#
# number of rings (size 3 to 8) (size 9 to 14) (size 15 to 20)
#    1.500    0.500    2.500    1.500    0.000    8.000 
#    0.000    3.750    0.000    0.000    0.000    0.000 
#    0.000    0.000    0.000    0.000    0.000    0.000 
#
# Total GULP energy -89148.504639 kJ/mol
# GULP energy per Si atom -5571.781540 kJ/mol
# Density = 2.314195 g / cm^3
# Si number density = 23.194746 Si / 1000 Ang^3
#
#
#
# Elastic Constant Matrix: (Units=GPa)
#
#
# Indices 1 2 3 4 5 6 
#
# 1 120.3011 31.6468 64.9537 0.0000 4.9780 0.0000
# 2 31.6468 141.3955 58.8197 0.0000 24.0226 0.0000
# 3 64.9537 58.8197 151.4624 -0.0001 -2.4630 0.0000
# 4 0.0000 0.0000 -0.0001 -2.9895 0.0000 0.4349
# 5 4.9780 24.0226 -2.4630 0.0000 37.5650 0.0000
# 6 0.0000 0.0000 0.0000 0.4349 0.0000 -6.5968
#
#
#
# Elastic Compliance Matrix: (Units=1/GPa)
#
#
# Indices 1 2 3 4 5 6 
#
# 1 0.010939 -0.000258 -0.004617 0.000000 -0.001587 0.000000
# 2 -0.000258 0.009817 -0.003807 0.000000 -0.006493 0.000000
# 3 -0.004617 -0.003807 0.010121 0.000000 0.003710 0.000000
# 4 0.000000 0.000000 0.000000 -0.337740 0.000000 -0.022265
# 5 -0.001587 -0.006493 0.003710 0.000000 0.031227 0.000000
# 6 0.000000 0.000000 0.000000 -0.022265 0.000000 -0.153056
#
#
# Mechanical properties :
#
#
# Convention : Reuss Voigt Hill
#
# Bulk Modulus (GPa) = 74.00422 80.44438 77.22430
# Shear Modulus (GPa) = -12.29031 22.77832 5.24400
#
# Velocity S-wave (km/s) = -2.30440 3.13716 1.50525
# Velocity P-wave (km/s) = 4.98944 6.91952 6.03218
#
# Compressibility (1/GPa) = 0.01351274
#
# Stress axis : x y z
#
# Youngs Moduli (GPa) = 91.41905 101.86209 98.80487
#
# Poissons Ratio (x) = 0.02630 0.45613
# Poissons Ratio (y) = 0.02360 0.37618
# Poissons Ratio (z) = 0.42204 0.38782
#
# Static dielectric constant tensor:
#      x y z
#    x 1.916430 0.000000 -0.039750 
#    y 0.000000 1.817330 0.000000 
#    z -0.039750 0.000000 1.936550 
# 
# From -- ./inp_files/269090.got.cif
#   From: 2010.05.17/outbox.cif.g08.bks.cpg/sg12_135_cif.got.tgz:269090.got - 2010.06.03 13:09:07.
