data_PCOD9221352
_publ_section_title
;
Structure prediction by ZEFSAII (Michael W. Deem and Ramdas Pophale) SiO2 
 PCOD9221352
Probable space group: C 2/M
;
_chemical_formula_sum "Si O2"
_cell_formula_units_Z 56
_cell_length_a 14.071371
_cell_length_b 28.743995
_cell_length_c 14.565355
_cell_angle_alpha 90.000000
_cell_angle_beta 30.704509
_cell_angle_gamma 90.000000
_cell_volume 3008.114957
_symmetry_space_group_name_H-M "C 2/M"
_symmetry_group_IT_number 12
_symmetry_cell_setting 'monoclinic'
loop_
_space_group_symop_operation_xyz
x,y,z
-x,y,-z
-x,-y,-z
x,-y,z
1/2+x,1/2+y,z
1/2-x,1/2+y,-z
1/2-x,1/2-y,-z
1/2+x,1/2-y,z
loop_
_atom_site_type_symbol
_atom_site_label
_atom_site_fract_x
_atom_site_fract_y
_atom_site_fract_z
Si Si1 0.678611 0.681632 0.284389
Si Si2 0.407712 0.125331 0.229275
Si Si3 0.151959 0.118404 0.140589
Si Si4 0.145516 0.298331 0.573080
Si Si5 0.086533 0.054661 0.530315
Si Si6 0.732813 0.282362 0.846085
Si Si7 0.428871 0.329492 0.188387
O O1 0.500000 0.683277 0.500000
O O2 0.821779 0.643586 0.204917
O O3 0.619755 0.663885 0.232526
O O4 0.769224 0.732331 0.200926
O O5 0.370478 0.169602 0.325047
O O6 0.279379 0.082954 0.369488
O O7 0.625487 0.113289 0.050367
O O8 0.050646 0.077506 0.280799
O O9 0.055064 0.128506 0.122944
O O10 0.250000 0.250000 0.500000
O O11 0.266868 0.324137 0.396155
O O12 0.938811 0.289092 0.710034
O O13 0.000000 0.060871 0.500000
O O14 0.111400 0.000000 0.525572
O O15 0.677206 0.323369 0.820808
O O16 0.580458 0.287573 0.052929
#
# Coordination Sequence:
#
# PCOD9221352 Si02
#       7
#     8   8   8   8   8   8   8
#     4  12  22  38  57  83 129 169 210 252 300 359
#     4  12  23  39  60  92 124 165 203 251 310 373
#     4  12  23  39  62  88 120 162 206 254 315 370
#     4  12  23  37  59  86 125 169 214 252 298 358
#     4  11  24  45  68  92 121 154 200 261 323 385
#     4  11  25  38  54  88 124 169 219 253 289 348
#     4  11  23  39  56  82 124 163 213 252 298 347
#
# _framework density 18.616309999999999
#
# number of rings (size 3 to 8) (size 9 to 14) (size 15 to 20)
#    0.000    0.429    5.714    4.286    6.000    1.714 
#    0.000    1.429    0.000    0.000    0.000    4.000 
#    0.000    0.000    0.000    0.000    0.000    0.000 
#
# Total GULP energy -156377.626960 kJ/mol
# GULP energy per Si atom -5584.915249 kJ/mol
# Density = 1.857394 g / cm^3
# Si number density = 18.616310 Si / 1000 Ang^3
#
#
#
# Elastic Constant Matrix: (Units=GPa)
#
#
# Indices 1 2 3 4 5 6 
#
# 1 82.6942 38.5197 11.4347 0.0003 -13.7598 -0.0008
# 2 38.5197 106.2804 37.8310 0.0001 -7.1145 -0.0001
# 3 11.4347 37.8310 105.5421 0.0001 -18.2372 -0.0005
# 4 0.0003 0.0001 0.0001 19.3414 -0.0001 3.8168
# 5 -13.7598 -7.1145 -18.2372 -0.0001 31.4387 0.0006
# 6 -0.0008 -0.0001 -0.0005 3.8168 0.0006 20.2798
#
#
#
# Elastic Compliance Matrix: (Units=1/GPa)
#
#
# Indices 1 2 3 4 5 6 
#
# 1 0.015639 -0.005766 0.001478 0.000000 0.006397 0.000001
# 2 -0.005766 0.012912 -0.004373 0.000000 -0.002138 0.000000
# 3 0.001478 -0.004373 0.012029 0.000000 0.006635 0.000000
# 4 0.000000 0.000000 0.000000 0.053697 0.000000 -0.010106
# 5 0.006397 -0.002138 0.006635 0.000000 0.037973 -0.000001
# 6 0.000001 0.000000 0.000000 -0.010106 -0.000001 0.051212
#
#
# Mechanical properties :
#
#
# Convention : Reuss Voigt Hill
#
# Bulk Modulus (GPa) = 42.99714 52.23193 47.61454
# Shear Modulus (GPa) = 23.97668 27.99408 25.98538
#
# Velocity S-wave (km/s) = 3.59268 3.88202 3.74015
# Velocity P-wave (km/s) = 6.35267 6.94344 6.65462
#
# Compressibility (1/GPa) = 0.02325736
#
# Stress axis : x y z
#
# Youngs Moduli (GPa) = 63.94445 77.44570 83.13385
#
# Poissons Ratio (x) = 0.44653 -0.12285
# Poissons Ratio (y) = 0.36869 0.36356
# Poissons Ratio (z) = -0.09449 0.33868
#
# Static dielectric constant tensor:
#      x y z
#    x 1.772860 0.000000 0.040630 
#    y 0.000000 1.621210 0.000000 
#    z 0.040630 0.000000 1.684150 
# 
# From -- ./inp_files/219087.got.cif
#   From: 2010.05.17/outbox.cif.g08.bks.cpg/sg12_110_cif.got.tgz:219087.got - 2010.06.03 13:09:07.
