data_PCOD9221146
_publ_section_title
;
Structure prediction by ZEFSAII (Michael W. Deem and Ramdas Pophale) SiO2 
 PCOD9221146
Probable space group: C 2/M
;
_chemical_formula_sum "Si O2"
_cell_formula_units_Z 32
_cell_length_a 12.564714
_cell_length_b 15.414372
_cell_length_c 9.024140
_cell_angle_alpha 90.000000
_cell_angle_beta 49.602122
_cell_angle_gamma 90.000000
_cell_volume 1331.035720
_symmetry_space_group_name_H-M "C 2/M"
_symmetry_group_IT_number 12
_symmetry_cell_setting 'monoclinic'
loop_
_space_group_symop_operation_xyz
x,y,z
-x,y,-z
-x,-y,-z
x,-y,z
1/2+x,1/2+y,z
1/2-x,1/2+y,-z
1/2-x,1/2-y,-z
1/2+x,1/2-y,z
loop_
_atom_site_type_symbol
_atom_site_label
_atom_site_fract_x
_atom_site_fract_y
_atom_site_fract_z
Si Si1 0.133739 0.852438 0.960380
Si Si2 0.900174 0.403799 0.889455
Si Si3 0.053600 0.101251 0.617839
Si Si4 0.828562 0.323824 0.258060
O O1 0.283019 0.892129 0.869211
O O2 0.061368 0.846029 0.186061
O O3 0.165277 0.767817 0.833381
O O4 0.000000 0.897091 0.000000
O O5 0.958330 0.500000 0.825060
O O6 0.969660 0.338936 0.223848
O O7 0.833369 0.609121 0.113909
O O8 0.000000 0.097456 0.500000
O O9 0.198691 0.153010 0.478173
O O10 0.069144 0.000000 0.652924
#
# Coordination Sequence:
#
# PCOD9221146 Si02
#       4
#     8   8   8   8
#     4  12  26  44  70 109 148 182 235 308 369 412
#     4  11  22  42  70  98 141 194 237 283 356 437
#     4  11  24  43  72 105 142 191 246 290 351 441
#     4  11  23  43  72 101 138 186 246 294 344 426
#
# _framework density 24.041429000000001
#
# number of rings (size 3 to 8) (size 9 to 14) (size 15 to 20)
#    0.000    0.750    5.000    4.500    0.000    3.000 
#    0.000    3.750    0.000    3.000    0.000    0.000 
#    0.000    0.000    0.000    0.000    0.000    0.000 
#
# Total GULP energy -89314.972504 kJ/mol
# GULP energy per Si atom -5582.185781 kJ/mol
# Density = 2.398671 g / cm^3
# Si number density = 24.041429 Si / 1000 Ang^3
#
#
#
# Elastic Constant Matrix: (Units=GPa)
#
#
# Indices 1 2 3 4 5 6 
#
# 1 153.0189 35.8100 26.1132 0.0000 10.5717 0.0000
# 2 35.8100 144.6619 46.2195 0.0000 -5.6627 0.0000
# 3 26.1132 46.2195 57.7092 0.0000 -0.5013 0.0000
# 4 0.0000 0.0000 0.0000 -3.1087 0.0000 -21.2605
# 5 10.5717 -5.6627 -0.5013 0.0000 54.0845 0.0000
# 6 0.0000 0.0000 0.0000 -21.2605 0.0000 6.2250
#
#
#
# Elastic Compliance Matrix: (Units=1/GPa)
#
#
# Indices 1 2 3 4 5 6 
#
# 1 0.007317 -0.001089 -0.002452 0.000000 -0.001567 0.000000
# 2 -0.001089 0.009496 -0.007103 0.000000 0.001141 0.000000
# 3 -0.002452 -0.007103 0.024126 0.000000 -0.000041 0.000000
# 4 0.000000 0.000000 0.000000 -0.013206 0.000000 -0.045105
# 5 -0.001567 0.001141 -0.000041 0.000000 0.018915 0.000000
# 6 0.000000 0.000000 0.000000 -0.045105 0.000000 0.006595
#
#
# Mechanical properties :
#
#
# Convention : Reuss Voigt Hill
#
# Bulk Modulus (GPa) = 50.88800 63.51950 57.20375
# Shear Modulus (GPa) = 61.66623 27.92330 44.79476
#
# Velocity S-wave (km/s) = 5.07008 3.41173 4.32120
# Velocity P-wave (km/s) = 7.44896 6.48059 6.98158
#
# Compressibility (1/GPa) = 0.01965100
#
# Stress axis : x y z
#
# Youngs Moduli (GPa) = 136.67297 105.30390 41.44859
#
# Poissons Ratio (x) = 0.11468 0.10164
# Poissons Ratio (y) = 0.14885 0.29441
# Poissons Ratio (z) = 0.33514 0.74797
#
# Static dielectric constant tensor:
#      x y z
#    x 1.959230 0.000000 0.028190 
#    y 0.000000 1.947190 0.000000 
#    z 0.028190 0.000000 1.983030 
# 
# From -- ./inp_files/57956.got.cif
#   From: 2010.05.17/outbox.cif.g08.bks.cpg/sg12_29_cif.got.tgz:57956.got - 2010.06.03 13:09:07.
