data_PCOD9221469
_publ_section_title
;
Structure prediction by ZEFSAII (Michael W. Deem and Ramdas Pophale) SiO2 
 PCOD9221469
Probable space group: C 2/M
;
_chemical_formula_sum "Si O2"
_cell_formula_units_Z 36
_cell_length_a 10.763533
_cell_length_b 24.898833
_cell_length_c 13.262937
_cell_angle_alpha 90.000000
_cell_angle_beta 149.177226
_cell_angle_gamma 90.000000
_cell_volume 1821.248944
_symmetry_space_group_name_H-M "C 2/M"
_symmetry_group_IT_number 12
_symmetry_cell_setting 'monoclinic'
loop_
_space_group_symop_operation_xyz
x,y,z
-x,y,-z
-x,-y,-z
x,-y,z
1/2+x,1/2+y,z
1/2-x,1/2+y,-z
1/2-x,1/2-y,-z
1/2+x,1/2-y,z
loop_
_atom_site_type_symbol
_atom_site_label
_atom_site_fract_x
_atom_site_fract_y
_atom_site_fract_z
Si Si1 0.194318 0.344461 0.484091
Si Si2 0.500000 0.875944 0.000000
Si Si3 0.183128 0.178568 0.215257
Si Si4 0.008881 0.282241 0.165446
Si Si5 0.993823 0.060409 0.375494
O O1 0.364908 0.333342 0.700317
O O2 0.292784 0.399334 0.507394
O O3 0.931868 0.346495 0.351917
O O4 0.149740 0.299857 0.365809
O O5 0.522552 0.836651 0.919371
O O6 0.261337 0.912376 0.829967
O O7 0.180660 0.243364 0.218770
O O8 0.000000 0.162368 0.000000
O O9 0.750000 0.250000 0.000000
O O10 0.000000 0.057262 0.500000
O O11 0.016860 0.000000 0.349936
#
# Coordination Sequence:
#
# PCOD9221469 Si02
#       5
#     8   4   8   8   8
#     4  11  24  41  65  92 133 175 214 266 322 381
#     4  12  23  40  64  96 130 166 215 268 324 386
#     4  11  23  40  62  98 136 173 211 254 320 401
#     4  12  21  39  63  98 138 173 207 250 316 400
#     4  11  25  45  68  94 122 165 227 284 330 374
#
# _framework density 19.766655
#
# number of rings (size 3 to 8) (size 9 to 14) (size 15 to 20)
#    0.000    0.667    5.556    2.333    0.000    3.556 
#    0.000    2.222    0.000    1.333    0.000    0.000 
#    0.000    0.000    0.000    0.000    0.000    0.000 
#
# Total GULP energy -100373.796547 kJ/mol
# GULP energy per Si atom -5576.322030 kJ/mol
# Density = 1.972167 g / cm^3
# Si number density = 19.766655 Si / 1000 Ang^3
#
#
#
# Elastic Constant Matrix: (Units=GPa)
#
#
# Indices 1 2 3 4 5 6 
#
# 1 81.5572 51.4636 61.7771 0.0000 -4.1456 0.0000
# 2 51.4636 139.6368 66.0897 0.0000 14.6828 0.0000
# 3 61.7771 66.0897 120.5492 0.0000 -10.7253 0.0000
# 4 0.0000 0.0000 0.0000 18.6966 0.0000 -10.4986
# 5 -4.1456 14.6828 -10.7253 0.0000 47.5263 0.0000
# 6 0.0000 0.0000 0.0000 -10.4986 0.0000 8.6296
#
#
#
# Elastic Compliance Matrix: (Units=1/GPa)
#
#
# Indices 1 2 3 4 5 6 
#
# 1 0.021369 -0.003851 -0.008744 0.000000 0.001081 0.000000
# 2 -0.003851 0.011296 -0.004653 0.000000 -0.004876 0.000000
# 3 -0.008744 -0.004653 0.015702 0.000000 0.004218 0.000000
# 4 0.000000 0.000000 0.000000 0.168799 0.000000 0.205357
# 5 0.001081 -0.004876 0.004218 0.000000 0.023593 0.000000
# 6 0.000000 0.000000 0.000000 0.205357 0.000000 0.365712
#
#
# Mechanical properties :
#
#
# Convention : Reuss Voigt Hill
#
# Bulk Modulus (GPa) = 72.08682 77.82268 74.95475
# Shear Modulus (GPa) = 7.74484 25.79802 16.77143
#
# Velocity S-wave (km/s) = 1.98158 3.61658 2.91601
# Velocity P-wave (km/s) = 6.46402 7.54292 7.02422
#
# Compressibility (1/GPa) = 0.01387216
#
# Stress axis : x y z
#
# Youngs Moduli (GPa) = 46.79608 88.52945 63.68457
#
# Poissons Ratio (x) = 0.34093 0.55683
# Poissons Ratio (y) = 0.18021 0.29632
# Poissons Ratio (z) = 0.40916 0.41193
#
# Static dielectric constant tensor:
#      x y z
#    x 1.745550 0.000000 -0.050770 
#    y 0.000000 1.705590 0.000000 
#    z -0.050770 0.000000 1.816650 
# 
# From -- ./inp_files/208491.got.cif
#   From: 2010.05.17/outbox.cif.g08.bks.cpg/sg12_105_cif.got.tgz:208491.got - 2010.06.03 13:09:07.
