data_PCOD9221158
_publ_section_title
;
Structure prediction by ZEFSAII (Michael W. Deem and Ramdas Pophale) SiO2 
 PCOD9221158
Probable space group: C 2/M
;
_chemical_formula_sum "Si O2"
_cell_formula_units_Z 40
_cell_length_a 12.372854
_cell_length_b 20.020829
_cell_length_c 11.079213
_cell_angle_alpha 90.000000
_cell_angle_beta 144.199823
_cell_angle_gamma 90.000000
_cell_volume 1605.414422
_symmetry_space_group_name_H-M "C 2/M"
_symmetry_group_IT_number 12
_symmetry_cell_setting 'monoclinic'
loop_
_space_group_symop_operation_xyz
x,y,z
-x,y,-z
-x,-y,-z
x,-y,z
1/2+x,1/2+y,z
1/2-x,1/2+y,-z
1/2-x,1/2-y,-z
1/2+x,1/2-y,z
loop_
_atom_site_type_symbol
_atom_site_label
_atom_site_fract_x
_atom_site_fract_y
_atom_site_fract_z
Si Si1 0.092407 0.619016 0.198230
Si Si2 0.733367 0.668686 0.000297
Si Si3 0.292606 0.108299 0.312734
Si Si4 0.071918 0.928003 0.337807
Si Si5 0.679797 0.256999 0.578034
O O1 0.258233 0.582342 0.416363
O O2 0.174628 0.691102 0.234992
O O3 0.924868 0.636852 0.133191
O O4 0.000000 0.584327 0.000000
O O5 0.712152 0.634082 0.112496
O O6 0.750000 0.750000 0.000000
O O7 0.562548 0.636010 0.773158
O O8 0.500000 0.077977 0.500000
O O9 0.157189 0.070699 0.280502
O O10 0.315926 0.179198 0.395865
O O11 0.979763 0.000000 0.277615
O O12 0.500000 0.274816 0.500000
O O13 0.750000 0.250000 0.500000
#
# Coordination Sequence:
#
# PCOD9221158 Si02
#       5
#     8   8   8   8   8
#     4  12  27  46  74 110 152 210 268 339 413 493
#     4  12  27  47  78 118 157 206 270 345 422 491
#     4  11  22  44  76 115 153 203 263 341 415 489
#     4  12  29  51  76 111 161 217 277 338 419 512
#     4  11  22  42  76 114 161 201 263 347 425 488
#
# _framework density 24.915683999999999
#
# number of rings (size 3 to 8) (size 9 to 14) (size 15 to 20)
#    0.000    0.400    4.000    4.200    8.400    3.200 
#    0.000    1.000    0.000    0.000    0.000    0.000 
#    0.000    0.000    0.000    0.000    0.000    0.000 
#
# Total GULP energy -111483.935532 kJ/mol
# GULP energy per Si atom -5574.196777 kJ/mol
# Density = 2.485897 g / cm^3
# Si number density = 24.915684 Si / 1000 Ang^3
#
#
#
# Elastic Constant Matrix: (Units=GPa)
#
#
# Indices 1 2 3 4 5 6 
#
# 1 97.4170 44.5594 64.0607 0.0000 1.9927 0.0000
# 2 44.5594 137.1133 50.2584 0.0000 6.8820 0.0000
# 3 64.0607 50.2584 145.5377 0.0000 -8.3792 0.0000
# 4 0.0000 0.0000 0.0000 0.2718 0.0000 6.2598
# 5 1.9927 6.8820 -8.3792 0.0000 46.2526 0.0000
# 6 0.0000 0.0000 0.0000 6.2598 0.0000 10.8999
#
#
#
# Elastic Compliance Matrix: (Units=1/GPa)
#
#
# Indices 1 2 3 4 5 6 
#
# 1 0.015459 -0.002788 -0.005918 0.000000 -0.001323 0.000000
# 2 -0.002788 0.009001 -0.001972 0.000000 -0.001576 0.000000
# 3 -0.005918 -0.001972 0.010296 0.000000 0.002414 0.000000
# 4 0.000000 0.000000 0.000000 -0.300910 0.000000 0.172813
# 5 -0.001323 -0.001576 0.002414 0.000000 0.022349 0.000000
# 6 0.000000 0.000000 0.000000 0.172813 0.000000 -0.007503
#
#
# Mechanical properties :
#
#
# Convention : Reuss Voigt Hill
#
# Bulk Modulus (GPa) = 74.62608 77.53612 76.08110
# Shear Modulus (GPa) = -22.17443 26.23082 2.02819
#
# Velocity S-wave (km/s) = -2.98649 3.24818 0.90321
# Velocity P-wave (km/s) = 4.25727 6.72715 5.62934
#
# Compressibility (1/GPa) = 0.01340014
#
# Stress axis : x y z
#
# Youngs Moduli (GPa) = 64.68641 111.09510 97.12692
#
# Poissons Ratio (x) = 0.30977 0.57479
# Poissons Ratio (y) = 0.18037 0.19152
# Poissons Ratio (z) = 0.38281 0.21906
#
# Static dielectric constant tensor:
#      x y z
#    x 2.247940 0.000000 0.123990 
#    y 0.000000 1.917270 0.000000 
#    z 0.123990 0.000000 1.855600 
# 
# From -- ./inp_files/134186.got.cif
#   From: 2010.05.17/outbox.cif.g08.bks.cpg/sg12_68_cif.got.tgz:134186.got - 2010.06.03 13:09:07.
