data_PCOD9221506
_publ_section_title
;
Structure prediction by ZEFSAII (Michael W. Deem and Ramdas Pophale) SiO2 
 PCOD9221506
Probable space group: C 2/M
;
_chemical_formula_sum "Si O2"
_cell_formula_units_Z 40
_cell_length_a 25.495817
_cell_length_b 8.788017
_cell_length_c 19.446092
_cell_angle_alpha 90.000000
_cell_angle_beta 150.706455
_cell_angle_gamma 90.000000
_cell_volume 2131.833830
_symmetry_space_group_name_H-M "C 2/M"
_symmetry_group_IT_number 12
_symmetry_cell_setting 'monoclinic'
loop_
_space_group_symop_operation_xyz
x,y,z
-x,y,-z
-x,-y,-z
x,-y,z
1/2+x,1/2+y,z
1/2-x,1/2+y,-z
1/2-x,1/2-y,-z
1/2+x,1/2-y,z
loop_
_atom_site_type_symbol
_atom_site_label
_atom_site_fract_x
_atom_site_fract_y
_atom_site_fract_z
Si Si1 0.051320 0.681815 0.354650
Si Si2 0.315776 0.181662 0.139236
Si Si3 0.238465 0.318078 0.335061
Si Si4 0.963663 0.181941 0.815255
Si Si5 0.311477 0.181588 0.880552
O O1 0.062072 0.500000 0.358640
O O2 0.153395 0.747839 0.510754
O O3 0.042372 0.757293 0.269538
O O4 0.941018 0.712138 0.269204
O O5 0.270683 0.254734 0.157056
O O6 0.299529 0.000000 0.122429
O O7 0.250000 0.250000 0.000000
O O8 0.238449 0.500000 0.345262
O O9 0.137122 0.247079 0.258348
O O10 0.226743 0.287201 0.240516
O O11 0.961999 0.000000 0.813775
O O12 0.073662 0.242302 0.974094
O O13 0.322540 0.000000 0.901888
#
# Coordination Sequence:
#
# PCOD9221506 Si02
#       5
#     8   8   8   8   8
#     4  11  24  42  65  93 127 165 208 258 311 371
#     4  11  23  40  66  94 124 163 208 260 310 368
#     4  11  25  43  63  91 129 168 207 257 315 372
#     4  12  24  40  66  94 125 166 211 259 310 372
#     4  11  24  42  65  93 127 166 209 258 312 370
#
# _framework density 18.763189000000001
#
# number of rings (size 3 to 8) (size 9 to 14) (size 15 to 20)
#    0.000    0.800    2.000    5.400    0.000    8.800 
#    0.000    4.000    0.000    0.000    0.000    0.000 
#    0.000    0.000    0.000    0.000    0.000    0.000 
#
# Total GULP energy -111949.116220 kJ/mol
# GULP energy per Si atom -5597.455811 kJ/mol
# Density = 1.872048 g / cm^3
# Si number density = 18.763189 Si / 1000 Ang^3
#
#
#
# Elastic Constant Matrix: (Units=GPa)
#
#
# Indices 1 2 3 4 5 6 
#
# 1 -312.4758 79.7293 640.5440 0.0000 367.7629 0.0000
# 2 79.7293 -72.9639 -585.6093 0.0000 -224.5996 0.0000
# 3 640.5440 -585.6093-2994.0330 0.0000-1275.0249 0.0000
# 4 0.0000 0.0000 0.0000 37.3016 0.0000 0.3623
# 5 367.7629 -224.5996-1275.0249 0.0000 -538.3643 0.0000
# 6 0.0000 0.0000 0.0000 0.3623 0.0000 37.9939
#
#
#
# Elastic Compliance Matrix: (Units=1/GPa)
#
#
# Indices 1 2 3 4 5 6 
#
# 1 0.000805 -0.004884 -0.002991 0.000000 0.009672 0.000000
# 2 -0.004884 0.018724 -0.004690 0.000000 -0.000040 0.000000
# 3 -0.002991 -0.004690 0.002295 0.000000 -0.005522 0.000000
# 4 0.000000 0.000000 0.000000 0.026811 0.000000 -0.000256
# 5 0.009672 -0.000040 -0.005522 0.000000 0.017845 0.000000
# 6 0.000000 0.000000 0.000000 -0.000256 0.000000 0.026322
#
#
# Mechanical properties :
#
#
# Convention : Reuss Voigt Hill
#
# Bulk Modulus (GPa) = -302.40799 -345.57162 -323.98980
# Shear Modulus (GPa) = 42.79643 -326.88953 -142.04655
#
# Velocity S-wave (km/s) = 4.78103 -13.21351 -8.71030
# Velocity P-wave (km/s) = 11.44741 20.42965 16.55920
#
# Compressibility (1/GPa) = -0.00330679
#
# Stress axis : x y z
#
# Youngs Moduli (GPa) = 1242.49700 53.40601 435.71274
#
# Poissons Ratio (x) = 0.26084 1.30343
# Poissons Ratio (y) = 6.06841 2.04352
# Poissons Ratio (z) = 3.71690 0.25048
#
# Static dielectric constant tensor:
#      x y z
#    x 1.619930 0.000000 0.003460 
#    y 0.000000 1.627980 0.000000 
#    z 0.003460 0.000000 1.608960 
# 
# From -- ./inp_files/162722.got.cif
#   From: 2010.05.17/outbox.cif.g08.bks.cpg/sg12_82_cif.got.tgz:162722.got - 2010.06.03 13:09:07.
