data_PCOD9221686
_publ_section_title
;
Structure prediction by ZEFSAII (Michael W. Deem and Ramdas Pophale) SiO2 
 PCOD9221686
Probable space group: C 2/M
;
_chemical_formula_sum "Si O2"
_cell_formula_units_Z 24
_cell_length_a 8.184959
_cell_length_b 26.688372
_cell_length_c 8.746595
_cell_angle_alpha 90.000000
_cell_angle_beta 147.444089
_cell_angle_gamma 90.000000
_cell_volume 1028.155129
_symmetry_space_group_name_H-M "C 2/M"
_symmetry_group_IT_number 12
_symmetry_cell_setting 'monoclinic'
loop_
_space_group_symop_operation_xyz
x,y,z
-x,y,-z
-x,-y,-z
x,-y,z
1/2+x,1/2+y,z
1/2-x,1/2+y,-z
1/2-x,1/2-y,-z
1/2+x,1/2-y,z
loop_
_atom_site_type_symbol
_atom_site_label
_atom_site_fract_x
_atom_site_fract_y
_atom_site_fract_z
Si Si1 0.062074 0.609507 0.870484
Si Si2 0.696480 0.441417 0.352533
Si Si3 0.170723 0.286472 0.294851
O O1 0.391554 0.589108 0.086143
O O2 0.000000 0.612215 0.000000
O O3 0.809756 0.571406 0.610185
O O4 0.013437 0.666746 0.780749
O O5 0.640544 0.500000 0.281847
O O6 0.000000 0.426162 0.500000
O O7 0.500000 0.305576 0.500000
O O8 0.250000 0.250000 0.500000
O O9 0.000000 0.269051 0.000000
#
# Coordination Sequence:
#
# PCOD9221686 Si02
#       3
#     8   8   8
#     4  11  23  42  67  99 135 176 226 283 343 408
#     4  11  24  42  66  99 138 179 226 279 339 412
#     4  11  24  45  72 103 139 180 233 292 350 417
#
# _framework density 23.342780999999999
#
# number of rings (size 3 to 8) (size 9 to 14) (size 15 to 20)
#    0.000    1.000    0.000    8.000    0.000    8.000 
#    0.000    6.667    0.000    0.000    0.000    0.000 
#    0.000    0.000    0.000    0.000    0.000    0.000 
#
# Total GULP energy -67022.068795 kJ/mol
# GULP energy per Si atom -5585.172400 kJ/mol
# Density = 2.328965 g / cm^3
# Si number density = 23.342781 Si / 1000 Ang^3
#
#
#
# Elastic Constant Matrix: (Units=GPa)
#
#
# Indices 1 2 3 4 5 6 
#
# 1 78.2964 74.8813 55.2290 0.0000 25.5215 0.0000
# 2 74.8813 121.9499 88.7276 0.0000 24.9639 0.0000
# 3 55.2290 88.7276 187.6286 0.0000 20.7832 0.0000
# 4 0.0000 0.0000 0.0000 89.0910 0.0000 -31.6631
# 5 25.5215 24.9639 20.7832 0.0000 48.5163 0.0000
# 6 0.0000 0.0000 0.0000 -31.6631 0.0000 61.0615
#
#
#
# Elastic Compliance Matrix: (Units=1/GPa)
#
#
# Indices 1 2 3 4 5 6 
#
# 1 0.033419 -0.018888 -0.000036 0.000000 -0.007845 0.000000
# 2 -0.018888 0.024003 -0.005799 0.000000 0.000069 0.000000
# 3 -0.000036 -0.005799 0.008136 0.000000 -0.000483 0.000000
# 4 0.000000 0.000000 0.000000 0.013760 0.000000 0.007135
# 5 -0.007845 0.000069 -0.000483 0.000000 0.024910 0.000000
# 6 0.000000 0.000000 0.000000 0.007135 0.000000 0.020077
#
#
# Mechanical properties :
#
#
# Convention : Reuss Voigt Hill
#
# Bulk Modulus (GPa) = 62.06486 91.72786 76.89636
# Shear Modulus (GPa) = 27.91415 51.00289 39.45852
#
# Velocity S-wave (km/s) = 3.46184 4.67942 4.11590
# Velocity P-wave (km/s) = 6.52880 8.28114 7.45663
#
# Compressibility (1/GPa) = 0.01611218
#
# Stress axis : x y z
#
# Youngs Moduli (GPa) = 29.92312 41.66186 122.91385
#
# Poissons Ratio (x) = 0.78692 0.00441
# Poissons Ratio (y) = 0.56519 0.71272
# Poissons Ratio (z) = 0.00107 0.24158
#
# Static dielectric constant tensor:
#      x y z
#    x 1.864910 0.000000 -0.047550 
#    y 0.000000 1.896460 0.000000 
#    z -0.047550 0.000000 1.913340 
# 
# From -- ./inp_files/41253.got.cif
#   From: 2010.05.17/outbox.cif.g08.bks.cpg/sg12_21_cif.got.tgz:41253.got - 2010.06.03 13:09:07.
