data_PCOD9221315
_publ_section_title
;
Structure prediction by ZEFSAII (Michael W. Deem and Ramdas Pophale) SiO2 
 PCOD9221315
Probable space group: C 2/M
;
_chemical_formula_sum "Si O2"
_cell_formula_units_Z 34
_cell_length_a 6.932881
_cell_length_b 16.494953
_cell_length_c 14.781856
_cell_angle_alpha 90.000000
_cell_angle_beta 52.526836
_cell_angle_gamma 90.000000
_cell_volume 1341.579641
_symmetry_space_group_name_H-M "C 2/M"
_symmetry_group_IT_number 12
_symmetry_cell_setting 'monoclinic'
loop_
_space_group_symop_operation_xyz
x,y,z
-x,y,-z
-x,-y,-z
x,-y,z
1/2+x,1/2+y,z
1/2-x,1/2+y,-z
1/2-x,1/2-y,-z
1/2+x,1/2-y,z
loop_
_atom_site_type_symbol
_atom_site_label
_atom_site_fract_x
_atom_site_fract_y
_atom_site_fract_z
Si Si1 0.013463 0.595843 0.347159
Si Si2 0.697163 0.856920 0.834801
Si Si3 0.500000 0.000000 0.000000
Si Si4 0.608081 0.404200 0.592532
Si Si5 0.914242 0.172197 0.122852
O O1 0.994481 0.500000 0.331156
O O2 0.201799 0.602517 0.378074
O O3 0.145885 0.643262 0.228880
O O4 0.758033 0.625400 0.462303
O O5 0.576231 0.769371 0.874489
O O6 0.857636 0.866186 0.698356
O O7 0.901202 0.861616 0.855909
O O8 0.526828 0.929681 0.912906
O O9 0.564782 0.500000 0.592031
O O10 0.000000 0.145860 0.000000
#
# Coordination Sequence:
#
# PCOD9221315 Si02
#       5
#     8   8   2   8   8
#     4   8  16  31  54  85 116 150 192 237 291 338
#     4  11  23  40  62  88 117 156 198 240 295 345
#     4  12  24  40  66  86 112 160 200 228 300 364
#     4   8  14  31  57  82 112 151 196 237 276 351
#     4  11  23  38  58  88 124 153 192 248 290 346
#
# _framework density 25.343260000000001
#
# number of rings (size 3 to 8) (size 9 to 14) (size 15 to 20)
#    0.000    2.353    2.353    2.118    1.647    1.412 
#    0.000    0.000    0.000    0.000    0.000    4.941 
#    0.000    0.000    0.000    0.000    0.000    0.000 
#
# Total GULP energy -94952.206113 kJ/mol
# GULP energy per Si atom -5585.423889 kJ/mol
# Density = 2.528558 g / cm^3
# Si number density = 25.343260 Si / 1000 Ang^3
#
#
#
# Elastic Constant Matrix: (Units=GPa)
#
#
# Indices 1 2 3 4 5 6 
#
# 1 81.0615 5.0777 42.9471 0.0000 -7.2925 0.0000
# 2 5.0777 70.0473 68.5521 0.0000 -15.5647 0.0000
# 3 42.9471 68.5521 255.5425 0.0000 2.3412 0.0000
# 4 0.0000 0.0000 0.0000 41.1979 0.0000 -32.6475
# 5 -7.2925 -15.5647 2.3412 0.0000 44.8495 0.0000
# 6 0.0000 0.0000 0.0000 -32.6475 0.0000 -31.1733
#
#
#
# Elastic Compliance Matrix: (Units=1/GPa)
#
#
# Indices 1 2 3 4 5 6 
#
# 1 0.014150 0.002848 -0.003174 0.000000 0.003455 0.000000
# 2 0.002848 0.022403 -0.006567 0.000000 0.008581 0.000000
# 3 -0.003174 -0.006567 0.006237 0.000000 -0.003121 0.000000
# 4 0.000000 0.000000 0.000000 0.013264 0.000000 -0.013892
# 5 0.003455 0.008581 -0.003121 0.000000 0.025999 0.000000
# 6 0.000000 0.000000 0.000000 -0.013892 0.000000 -0.017530
#
#
# Mechanical properties :
#
#
# Convention : Reuss Voigt Hill
#
# Bulk Modulus (GPa) = 34.47745 71.08946 52.78346
# Shear Modulus (GPa) = 56.83213 30.31311 43.57262
#
# Velocity S-wave (km/s) = 4.74064 3.46222 4.15094
# Velocity P-wave (km/s) = 6.60292 6.64034 6.62166
#
# Compressibility (1/GPa) = 0.02900446
#
# Stress axis : x y z
#
# Youngs Moduli (GPa) = 70.67030 44.63627 160.33497
#
# Poissons Ratio (x) = -0.12712 0.50887
# Poissons Ratio (y) = -0.20127 1.05295
# Poissons Ratio (z) = 0.22429 0.29313
#
# Static dielectric constant tensor:
#      x y z
#    x 2.119800 0.000000 0.016990 
#    y 0.000000 1.864750 0.000000 
#    z 0.016990 0.000000 2.011200 
# 
# From -- ./inp_files/175930.got.cif
#   From: 2010.05.17/outbox.cif.g08.bks.cpg/sg12_88_cif.got.tgz:175930.got - 2010.06.03 13:09:07.
