data_PCOD9221950
_publ_section_title
;
Structure prediction by ZEFSAII (Michael W. Deem and Ramdas Pophale) SiO2 
 PCOD9221950
Probable space group: C 2/M
;
_chemical_formula_sum "Si O2"
_cell_formula_units_Z 48
_cell_length_a 14.258811
_cell_length_b 10.783128
_cell_length_c 21.587373
_cell_angle_alpha 90.000000
_cell_angle_beta 140.386628
_cell_angle_gamma 90.000000
_cell_volume 2116.307468
_symmetry_space_group_name_H-M "C 2/M"
_symmetry_group_IT_number 12
_symmetry_cell_setting 'monoclinic'
loop_
_space_group_symop_operation_xyz
x,y,z
-x,y,-z
-x,-y,-z
x,-y,z
1/2+x,1/2+y,z
1/2-x,1/2+y,-z
1/2-x,1/2-y,-z
1/2+x,1/2-y,z
loop_
_atom_site_type_symbol
_atom_site_label
_atom_site_fract_x
_atom_site_fract_y
_atom_site_fract_z
Si Si1 0.745659 0.225325 0.132871
Si Si2 0.970268 0.000000 0.087186
Si Si3 0.866117 0.362424 0.719737
Si Si4 0.550221 0.641896 0.325484
Si Si5 0.028004 0.726804 0.911039
Si Si6 0.461584 0.646217 0.413471
Si Si7 0.754304 0.000000 0.867119
O O1 0.608325 0.214377 0.110146
O O2 0.812567 0.364745 0.175643
O O3 0.879613 0.137475 0.216576
O O4 0.671474 0.210813 0.027142
O O5 0.976250 0.865847 0.120210
O O6 0.107430 0.000000 0.109614
O O7 0.826021 0.000000 0.971365
O O8 0.861621 0.500000 0.688244
O O9 0.874470 0.247169 0.677582
O O10 0.714322 0.345860 0.680630
O O11 0.995536 0.358958 0.836584
O O12 0.608516 0.500000 0.351032
O O13 0.541887 0.689105 0.392418
O O14 0.500000 0.701914 0.500000
O O15 0.498986 0.500000 0.435116
#
# Coordination Sequence:
#
# PCOD9221950 Si02
#       7
#     8   4   8   8   8   8   4
#     4   9  17  32  56  85 121 167 211 252 295 351
#     4   7  12  24  46  78 110 151 202 241 289 344
#     4  11  24  40  61  95 126 160 205 249 304 367
#     4  11  24  40  61  95 126 160 205 249 304 367
#     4   9  17  32  56  85 121 167 211 252 295 351
#     4   9  20  44  72  92 119 158 199 251 314 372
#     4   7  12  24  46  78 110 151 202 241 289 344
#
# _framework density 22.681013
#
# number of rings (size 3 to 8) (size 9 to 14) (size 15 to 20)
#    0.000    2.667    1.667    2.000    2.333    2.000 
#    0.000    2.500    0.000    1.000    0.000    0.000 
#    0.000    0.000    0.000    0.000    0.000    0.000 
#
# Total GULP energy -133882.057198 kJ/mol
# GULP energy per Si atom -5578.419050 kJ/mol
# Density = 2.262939 g / cm^3
# Si number density = 22.681013 Si / 1000 Ang^3
#
#
#
# Elastic Constant Matrix: (Units=GPa)
#
#
# Indices 1 2 3 4 5 6 
#
# 1 89.9342 35.4925 5.3447 0.0000 -24.2383 0.0000
# 2 35.4925 110.5759 2.6895 0.0000 -14.7647 0.0000
# 3 5.3447 2.6895 61.0413 0.0000 -22.3273 0.0000
# 4 0.0000 0.0000 0.0000 8.3714 0.0000 -4.4077
# 5 -24.2383 -14.7647 -22.3273 0.0000 34.1793 0.0000
# 6 0.0000 0.0000 0.0000 -4.4077 0.0000 24.6897
#
#
#
# Elastic Compliance Matrix: (Units=1/GPa)
#
#
# Indices 1 2 3 4 5 6 
#
# 1 0.015374 -0.003495 0.002948 0.000000 0.011318 0.000000
# 2 -0.003495 0.010489 0.000781 0.000000 0.002563 0.000000
# 3 0.002948 0.000781 0.022308 0.000000 0.017000 0.000000
# 4 0.000000 0.000000 0.000000 0.131848 0.000000 0.023538
# 5 0.011318 0.002563 0.017000 0.000000 0.049496 0.000000
# 6 0.000000 0.000000 0.000000 0.023538 0.000000 0.044705
#
#
# Mechanical properties :
#
#
# Convention : Reuss Voigt Hill
#
# Bulk Modulus (GPa) = 20.55993 38.73386 29.64689
# Shear Modulus (GPa) = 17.24351 27.98305 22.61328
#
# Velocity S-wave (km/s) = 2.76028 3.51631 3.16098
# Velocity P-wave (km/s) = 4.38672 5.79661 5.14023
#
# Compressibility (1/GPa) = 0.04863831
#
# Stress axis : x y z
#
# Youngs Moduli (GPa) = 65.04581 95.34171 44.82670
#
# Poissons Ratio (x) = 0.33323 -0.13214
# Poissons Ratio (y) = 0.22734 -0.03502
# Poissons Ratio (z) = -0.19174 -0.07448
#
# Static dielectric constant tensor:
#      x y z
#    x 1.890420 0.000000 -0.002890 
#    y 0.000000 1.870500 0.000000 
#    z -0.002890 0.000000 1.869200 
# 
# From -- ./inp_files/310303.got.cif
#   From: 2010.05.17/outbox.cif.g08.bks.cpg/sg12_156_cif.got.tgz:310303.got - 2010.06.03 13:09:07.
