data_PCOD9221913
_publ_section_title
;
Structure prediction by ZEFSAII (Michael W. Deem and Ramdas Pophale) SiO2 
 PCOD9221913
Probable space group: C 2/M
;
_chemical_formula_sum "Si O2"
_cell_formula_units_Z 48
_cell_length_a 22.884365
_cell_length_b 8.598019
_cell_length_c 19.513095
_cell_angle_alpha 90.000000
_cell_angle_beta 142.015218
_cell_angle_gamma 90.000000
_cell_volume 2362.967356
_symmetry_space_group_name_H-M "C 2/M"
_symmetry_group_IT_number 12
_symmetry_cell_setting 'monoclinic'
loop_
_space_group_symop_operation_xyz
x,y,z
-x,y,-z
-x,-y,-z
x,-y,z
1/2+x,1/2+y,z
1/2-x,1/2+y,-z
1/2-x,1/2-y,-z
1/2+x,1/2-y,z
loop_
_atom_site_type_symbol
_atom_site_label
_atom_site_fract_x
_atom_site_fract_y
_atom_site_fract_z
Si Si1 0.524144 0.812662 0.358497
Si Si2 0.381771 0.310929 0.959902
Si Si3 0.107575 0.823440 0.569570
Si Si4 0.335295 0.185350 0.624223
Si Si5 0.176660 0.312957 0.771574
Si Si6 0.910228 0.812800 0.827348
O O1 0.593920 0.755184 0.483434
O O2 0.568833 0.765370 0.327679
O O3 0.417409 0.755094 0.275968
O O4 0.522267 0.000000 0.359866
O O5 0.382694 0.500000 0.963853
O O6 0.279488 0.256732 0.892288
O O7 0.387254 0.269557 0.884334
O O8 0.480661 0.259065 0.084629
O O9 0.164918 0.732737 0.680838
O O10 0.000000 0.827674 0.500000
O O11 0.142216 0.000000 0.594703
O O12 0.250000 0.250000 0.500000
O O13 0.340828 0.246008 0.706376
O O14 0.329848 0.000000 0.619732
O O15 0.175864 0.500000 0.774811
O O16 0.907088 0.000000 0.820862
#
# Coordination Sequence:
#
# PCOD9221913 Si02
#       6
#     8   8   8   8   8   8
#     4   9  19  34  50  70 101 138 177 214 253 308
#     4   8  16  32  58  83 104 133 172 214 260 310
#     4   9  17  28  44  71 106 136 165 209 260 303
#     4  11  24  39  54  75 104 142 180 217 262 315
#     4   9  16  30  53  77 100 134 176 214 253 305
#     4   9  18  36  57  80 107 136 172 216 258 308
#
# _framework density 20.313441999999998
#
# number of rings (size 3 to 8) (size 9 to 14) (size 15 to 20)
#    0.000    2.833    0.000    2.000    2.333    3.333 
#    0.000    3.333    0.000    0.000    0.000    0.000 
#    0.000    0.000    0.000    0.000    0.000    0.000 
#
# Total GULP energy -133830.381353 kJ/mol
# GULP energy per Si atom -5576.265890 kJ/mol
# Density = 2.026721 g / cm^3
# Si number density = 20.313442 Si / 1000 Ang^3
#
#
#
# Elastic Constant Matrix: (Units=GPa)
#
#
# Indices 1 2 3 4 5 6 
#
# 1 50.3804 11.4684 20.6410 0.0000 9.1744 0.0000
# 2 11.4684 6.8386 9.2889 0.0000 2.6342 0.0000
# 3 20.6410 9.2889 99.9500 0.0000 13.8617 0.0000
# 4 0.0000 0.0000 0.0000 12.9875 0.0000 -1.8838
# 5 9.1744 2.6342 13.8617 0.0000 34.7834 0.0000
# 6 0.0000 0.0000 0.0000 -1.8838 0.0000 14.7791
#
#
#
# Elastic Compliance Matrix: (Units=1/GPa)
#
#
# Indices 1 2 3 4 5 6 
#
# 1 0.032979 -0.051760 -0.001416 0.000000 -0.004214 0.000000
# 2 -0.051760 0.250150 -0.012517 0.000000 -0.000304 0.000000
# 3 -0.001416 -0.012517 0.011937 0.000000 -0.003436 0.000000
# 4 0.000000 0.000000 0.000000 0.078447 0.000000 0.009999
# 5 -0.004214 -0.000304 -0.003436 0.000000 0.031253 0.000000
# 6 0.000000 0.000000 0.000000 0.009999 0.000000 0.068938
#
#
# Mechanical properties :
#
#
# Convention : Reuss Voigt Hill
#
# Bulk Modulus (GPa) = 6.10941 26.66285 16.38613
# Shear Modulus (GPa) = 7.57978 20.22806 13.90392
#
# Velocity S-wave (km/s) = 1.93378 3.15905 2.61907
# Velocity P-wave (km/s) = 2.82845 5.14396 4.15093
#
# Compressibility (1/GPa) = 0.16368179
#
# Stress axis : x y z
#
# Youngs Moduli (GPa) = 30.32235 3.99759 83.77236
#
# Poissons Ratio (x) = 0.20692 0.11860
# Poissons Ratio (y) = 1.56949 1.04854
# Poissons Ratio (z) = 0.04293 0.05004
#
# Static dielectric constant tensor:
#      x y z
#    x 1.780700 0.000000 0.055890 
#    y 0.000000 1.687820 0.000000 
#    z 0.055890 0.000000 1.720760 
# 
# From -- ./inp_files/323866.got.cif
#   From: 2010.05.17/outbox.cif.g08.bks.cpg/sg12_162_cif.got.tgz:323866.got - 2010.06.03 13:09:07.
