data_PCOD9221294
_publ_section_title
;
Structure prediction by ZEFSAII (Michael W. Deem and Ramdas Pophale) SiO2 
 PCOD9221294
Probable space group: C 2/M
;
_chemical_formula_sum "Si O2"
_cell_formula_units_Z 56
_cell_length_a 29.187438
_cell_length_b 8.600305
_cell_length_c 14.567741
_cell_angle_alpha 90.000000
_cell_angle_beta 59.750947
_cell_angle_gamma 90.000000
_cell_volume 3158.910174
_symmetry_space_group_name_H-M "C 2/M"
_symmetry_group_IT_number 12
_symmetry_cell_setting 'monoclinic'
loop_
_space_group_symop_operation_xyz
x,y,z
-x,y,-z
-x,-y,-z
x,-y,z
1/2+x,1/2+y,z
1/2-x,1/2+y,-z
1/2-x,1/2-y,-z
1/2+x,1/2-y,z
loop_
_atom_site_type_symbol
_atom_site_label
_atom_site_fract_x
_atom_site_fract_y
_atom_site_fract_z
Si Si1 0.773101 0.182998 0.742634
Si Si2 0.402252 0.819620 0.930296
Si Si3 0.490680 0.315431 0.116870
Si Si4 0.660824 0.677721 0.849050
Si Si5 0.795776 0.685082 0.521851
Si Si6 0.379584 0.182629 0.288893
Si Si7 0.806677 0.815958 0.907807
O O1 0.720761 0.284298 0.813598
O O2 0.794168 0.233374 0.622263
O O3 0.809564 0.206333 0.794900
O O4 0.758472 0.000000 0.754782
O O5 0.456792 0.724807 0.878665
O O6 0.356571 0.760840 0.907857
O O7 0.413264 0.000000 0.904003
O O8 0.376757 0.790797 0.056065
O O9 0.480620 0.500000 0.126807
O O10 0.440247 0.229909 0.211658
O O11 0.500000 0.269410 0.000000
O O12 0.646665 0.500000 0.884071
O O13 0.653072 0.715052 0.750723
O O14 0.787213 0.500000 0.541944
O O15 0.750000 0.750000 0.500000
O O16 0.852225 0.709269 0.414549
O O17 0.372403 0.000000 0.275038
O O18 0.807054 0.000000 0.926676
O O19 0.750000 0.750000 0.000000
#
# Coordination Sequence:
#
# PCOD9221294 Si02
#       7
#     8   8   8   8   8   8   8
#     4  11  23  38  57  84 118 155 196 238 289 345
#     4  12  24  38  58  84 119 156 193 239 290 346
#     4  11  23  38  59  86 116 153 195 237 288 347
#     4  12  22  33  55  84 118 156 194 236 284 343
#     4  11  23  37  58  85 118 155 195 239 289 346
#     4  11  23  38  57  84 118 155 195 237 288 345
#     4  11  23  38  59  85 117 155 195 239 288 347
#
# _framework density 17.727633000000001
#
# number of rings (size 3 to 8) (size 9 to 14) (size 15 to 20)
#    0.000    0.714    4.286    4.714    0.000    4.000 
#    0.000    0.000    0.000    0.857    0.000    6.000 
#    0.000    0.000    0.000    0.000    0.000    0.000 
#
# Total GULP energy -156448.971459 kJ/mol
# GULP energy per Si atom -5587.463266 kJ/mol
# Density = 1.768728 g / cm^3
# Si number density = 17.727633 Si / 1000 Ang^3
#
#
#
# Elastic Constant Matrix: (Units=GPa)
#
#
# Indices 1 2 3 4 5 6 
#
# 1 80.2675 15.1525 22.3273 0.0000 1.6569 0.0000
# 2 15.1525 55.5781 16.5111 0.0000 5.3326 0.0000
# 3 22.3273 16.5111 78.7005 0.0000 3.6043 0.0000
# 4 0.0000 0.0000 0.0000 28.8988 0.0000 1.2296
# 5 1.6569 5.3326 3.6043 0.0000 29.8350 0.0000
# 6 0.0000 0.0000 0.0000 1.2296 0.0000 24.8201
#
#
#
# Elastic Compliance Matrix: (Units=1/GPa)
#
#
# Indices 1 2 3 4 5 6 
#
# 1 0.013922 -0.002808 -0.003367 0.000000 0.000136 0.000000
# 2 -0.002808 0.020019 -0.003264 0.000000 -0.003028 0.000000
# 3 -0.003367 -0.003264 0.014391 0.000000 -0.000968 0.000000
# 4 0.000000 0.000000 0.000000 0.034677 0.000000 -0.001718
# 5 0.000136 -0.003028 -0.000968 0.000000 0.034168 0.000000
# 6 0.000000 0.000000 0.000000 -0.001718 0.000000 0.040375
#
#
# Mechanical properties :
#
#
# Convention : Reuss Voigt Hill
#
# Bulk Modulus (GPa) = 33.95313 35.83642 34.89477
# Shear Modulus (GPa) = 26.84589 27.41446 27.13017
#
# Velocity S-wave (km/s) = 3.89569 3.93673 3.91626
# Velocity P-wave (km/s) = 6.27929 6.39708 6.33846
#
# Compressibility (1/GPa) = 0.02945237
#
# Stress axis : x y z
#
# Youngs Moduli (GPa) = 71.82776 49.95336 69.48921
#
# Poissons Ratio (x) = 0.14029 0.23395
# Poissons Ratio (y) = 0.20173 0.22684
# Poissons Ratio (z) = 0.24182 0.16307
#
# Static dielectric constant tensor:
#      x y z
#    x 1.607220 0.000000 -0.002300 
#    y 0.000000 1.564750 0.000000 
#    z -0.002300 0.000000 1.608230 
# 
# From -- ./inp_files/243655.got.cif
#   From: 2010.05.17/outbox.cif.g08.bks.cpg/sg12_122_cif.got.tgz:243655.got - 2010.06.03 13:09:07.
