data_PCOD9221090
_publ_section_title
;
Structure prediction by ZEFSAII (Michael W. Deem and Ramdas Pophale) SiO2 
 PCOD9221090
Probable space group: C 2/M
;
_chemical_formula_sum "Si O2"
_cell_formula_units_Z 40
_cell_length_a 15.396546
_cell_length_b 15.068179
_cell_length_c 11.658233
_cell_angle_alpha 90.000000
_cell_angle_beta 130.258845
_cell_angle_gamma 90.000000
_cell_volume 2064.034146
_symmetry_space_group_name_H-M "C 2/M"
_symmetry_group_IT_number 12
_symmetry_cell_setting 'monoclinic'
loop_
_space_group_symop_operation_xyz
x,y,z
-x,y,-z
-x,-y,-z
x,-y,z
1/2+x,1/2+y,z
1/2-x,1/2+y,-z
1/2-x,1/2-y,-z
1/2+x,1/2-y,z
loop_
_atom_site_type_symbol
_atom_site_label
_atom_site_fract_x
_atom_site_fract_y
_atom_site_fract_z
Si Si1 0.757197 0.644447 0.020384
Si Si2 0.024015 0.603792 0.654279
Si Si3 0.364003 0.901693 0.868706
Si Si4 0.362232 0.230029 0.666928
Si Si5 0.501006 0.401259 0.863465
O O1 0.845551 0.620340 0.196691
O O2 0.750000 0.750000 0.000000
O O3 0.807955 0.607612 0.945150
O O4 0.631515 0.608746 0.935940
O O5 0.998088 0.500000 0.653320
O O6 0.000000 0.622311 0.500000
O O7 0.946467 0.666167 0.667290
O O8 0.330176 0.822932 0.755180
O O9 0.337876 0.000000 0.799351
O O10 0.500000 0.895140 0.000000
O O11 0.250000 0.250000 0.500000
O O12 0.427238 0.321109 0.750725
O O13 0.458862 0.500000 0.795914
O O14 0.500000 0.393714 0.000000
#
# Coordination Sequence:
#
# PCOD9221090 Si02
#       5
#     8   8   8   8   8
#     4  12  22  42  72  98 133 171 218 273 329 388
#     4  11  25  43  67  98 132 171 218 270 327 389
#     4  11  22  41  69 100 129 165 221 274 321 385
#     4  12  26  42  66  94 136 177 214 269 330 388
#     4  11  25  44  66  97 132 171 220 271 327 390
#
# _framework density 19.379525000000001
#
# number of rings (size 3 to 8) (size 9 to 14) (size 15 to 20)
#    0.000    0.600    4.000    4.200    5.600    1.600 
#    0.000    0.000    0.000    3.000    0.000    0.000 
#    0.000    0.000    0.000    0.000    0.000    0.000 
#
# Total GULP energy -111907.369644 kJ/mol
# GULP energy per Si atom -5595.368482 kJ/mol
# Density = 1.933542 g / cm^3
# Si number density = 19.379525 Si / 1000 Ang^3
#
#
#
# Elastic Constant Matrix: (Units=GPa)
#
#
# Indices 1 2 3 4 5 6 
#
# 1 116.0059 43.2837 49.5179 0.0000 -1.4709 0.0000
# 2 43.2837 162.0242 72.5932 0.0000 -5.4440 0.0000
# 3 49.5179 72.5932 140.1242 0.0000 2.7012 0.0000
# 4 0.0000 0.0000 0.0000 26.3352 0.0000 -4.5799
# 5 -1.4709 -5.4440 2.7012 0.0000 27.7317 0.0000
# 6 0.0000 0.0000 0.0000 -4.5799 0.0000 76.2568
#
#
#
# Elastic Compliance Matrix: (Units=1/GPa)
#
#
# Indices 1 2 3 4 5 6 
#
# 1 0.010424 -0.001447 -0.002945 0.000000 0.000556 0.000000
# 2 -0.001447 0.008349 -0.003851 0.000000 0.001937 0.000000
# 3 -0.002945 -0.003851 0.010209 0.000000 -0.001907 0.000000
# 4 0.000000 0.000000 0.000000 0.038373 0.000000 0.002305
# 5 0.000556 0.001937 -0.001907 0.000000 0.036655 0.000000
# 6 0.000000 0.000000 0.000000 0.002305 0.000000 0.013252
#
#
# Mechanical properties :
#
#
# Convention : Reuss Voigt Hill
#
# Bulk Modulus (GPa) = 80.02347 83.21598 81.61972
# Shear Modulus (GPa) = 36.25439 42.91539 39.58489
#
# Velocity S-wave (km/s) = 4.32992 4.71092 4.52443
# Velocity P-wave (km/s) = 8.14739 8.52196 8.33678
#
# Compressibility (1/GPa) = 0.01249633
#
# Stress axis : x y z
#
# Youngs Moduli (GPa) = 95.93111 119.77371 97.94957
#
# Poissons Ratio (x) = 0.17326 0.28847
# Poissons Ratio (y) = 0.13877 0.37725
# Poissons Ratio (z) = 0.28252 0.46131
#
# Static dielectric constant tensor:
#      x y z
#    x 1.663820 0.000000 -0.015750 
#    y 0.000000 1.712110 0.000000 
#    z -0.015750 0.000000 1.642390 
# 
# From -- ./inp_files/142502.got.cif
#   From: 2010.05.17/outbox.cif.g08.bks.cpg/sg12_72_cif.got.tgz:142502.got - 2010.06.03 13:09:07.
