data_PCOD9221237
_publ_section_title
;
Structure prediction by ZEFSAII (Michael W. Deem and Ramdas Pophale) SiO2 
 PCOD9221237
Probable space group: C 2/M
;
_chemical_formula_sum "Si O2"
_cell_formula_units_Z 30
_cell_length_a 7.529201
_cell_length_b 21.416998
_cell_length_c 9.215413
_cell_angle_alpha 90.000000
_cell_angle_beta 46.403284
_cell_angle_gamma 90.000000
_cell_volume 1076.186748
_symmetry_space_group_name_H-M "C 2/M"
_symmetry_group_IT_number 12
_symmetry_cell_setting 'monoclinic'
loop_
_space_group_symop_operation_xyz
x,y,z
-x,y,-z
-x,-y,-z
x,-y,z
1/2+x,1/2+y,z
1/2-x,1/2+y,-z
1/2-x,1/2-y,-z
1/2+x,1/2-y,z
loop_
_atom_site_type_symbol
_atom_site_label
_atom_site_fract_x
_atom_site_fract_y
_atom_site_fract_z
Si Si1 0.500000 0.500000 0.500000
Si Si2 0.088937 0.430658 0.263013
Si Si3 0.265406 0.715079 0.840323
Si Si4 0.439789 0.588078 0.800172
Si Si5 0.500000 0.815338 0.500000
O O1 0.415271 0.552983 0.665363
O O2 0.958061 0.500000 0.343087
O O3 0.320119 0.432456 0.244190
O O4 0.959513 0.366729 0.390374
O O5 0.215569 0.423887 0.036519
O O6 0.458360 0.660382 0.748274
O O7 0.322848 0.764476 0.681317
O O8 0.250000 0.750000 0.000000
O O9 0.000000 0.683089 0.000000
#
# Coordination Sequence:
#
# PCOD9221237 Si02
#       5
#     2   8   8   8   4
#     4  12  22  42  74 106 144 196 228 318 384 422
#     4  11  22  47  76 105 148 201 257 302 373 459
#     4  12  27  49  73 112 154 195 253 315 372 451
#     4  11  23  45  74 105 151 194 246 312 375 447
#     4  12  26  44  80 108 144 202 252 304 380 444
#
# _framework density 27.876201999999999
#
# number of rings (size 3 to 8) (size 9 to 14) (size 15 to 20)
#    0.000    0.533    5.333    3.600    0.000    6.400 
#    0.000    0.667    0.000    0.000    0.000    0.000 
#    0.000    0.000    0.000    0.000    0.000    0.000 
#
# Total GULP energy -83674.089235 kJ/mol
# GULP energy per Si atom -5578.272616 kJ/mol
# Density = 2.781275 g / cm^3
# Si number density = 27.876202 Si / 1000 Ang^3
#
#
#
# Elastic Constant Matrix: (Units=GPa)
#
#
# Indices 1 2 3 4 5 6 
#
# 1 40.1308 40.8121 34.8360 0.0000 3.7267 0.0000
# 2 40.8121 281.5727 99.0703 0.0000 7.6603 0.0000
# 3 34.8360 99.0703 290.7913 0.0000 13.9657 0.0000
# 4 0.0000 0.0000 0.0000 77.8015 0.0000 3.7852
# 5 3.7267 7.6603 13.9657 0.0000 37.0639 0.0000
# 6 0.0000 0.0000 0.0000 3.7852 0.0000 61.8386
#
#
#
# Elastic Compliance Matrix: (Units=1/GPa)
#
#
# Indices 1 2 3 4 5 6 
#
# 1 0.030773 -0.003577 -0.002398 0.000000 -0.001451 0.000000
# 2 -0.003577 0.004455 -0.001082 0.000000 -0.000153 0.000000
# 3 -0.002398 -0.001082 0.004147 0.000000 -0.001098 0.000000
# 4 0.000000 0.000000 0.000000 0.012892 0.000000 -0.000789
# 5 -0.001451 -0.000153 -0.001098 0.000000 0.027572 0.000000
# 6 0.000000 0.000000 0.000000 -0.000789 0.000000 0.016219
#
#
# Mechanical properties :
#
#
# Convention : Reuss Voigt Hill
#
# Bulk Modulus (GPa) = 39.58670 106.88130 73.23400
# Shear Modulus (GPa) = 42.16131 64.52590 53.34360
#
# Velocity S-wave (km/s) = 3.89324 4.81638 4.37920
# Velocity P-wave (km/s) = 5.86869 8.32795 7.20403
#
# Compressibility (1/GPa) = 0.02526101
#
# Stress axis : x y z
#
# Youngs Moduli (GPa) = 32.49628 224.47923 241.11017
#
# Poissons Ratio (x) = 0.80297 0.57821
# Poissons Ratio (y) = 0.11624 0.26084
# Poissons Ratio (z) = 0.07793 0.24284
#
# Static dielectric constant tensor:
#      x y z
#    x 3.365110 0.000000 -0.122620 
#    y 0.000000 2.023930 0.000000 
#    z -0.122620 0.000000 2.063500 
# 
# From -- ./inp_files/50305.got.cif
#   From: 2010.05.17/outbox.cif.g08.bks.cpg/sg12_26_cif.got.tgz:50305.got - 2010.06.03 13:09:07.
