data_PCOD9221473
_publ_section_title
;
Structure prediction by ZEFSAII (Michael W. Deem and Ramdas Pophale) SiO2 
 PCOD9221473
Probable space group: C 2/M
;
_chemical_formula_sum "Si O2"
_cell_formula_units_Z 56
_cell_length_a 30.540559
_cell_length_b 7.525323
_cell_length_c 11.523339
_cell_angle_alpha 90.000000
_cell_angle_beta 110.809465
_cell_angle_gamma 90.000000
_cell_volume 2475.619179
_symmetry_space_group_name_H-M "C 2/M"
_symmetry_group_IT_number 12
_symmetry_cell_setting 'monoclinic'
loop_
_space_group_symop_operation_xyz
x,y,z
-x,y,-z
-x,-y,-z
x,-y,z
1/2+x,1/2+y,z
1/2-x,1/2+y,-z
1/2-x,1/2-y,-z
1/2+x,1/2-y,z
loop_
_atom_site_type_symbol
_atom_site_label
_atom_site_fract_x
_atom_site_fract_y
_atom_site_fract_z
Si Si1 0.124157 0.216794 0.568603
Si Si2 0.227203 0.789878 0.105434
Si Si3 0.423107 0.716042 0.254987
Si Si4 0.043373 0.783617 0.118325
Si Si5 0.378694 0.717630 0.974705
Si Si6 0.224347 0.790463 0.598486
Si Si7 0.972927 0.783528 0.632917
O O1 0.119233 0.263449 0.699376
O O2 0.171379 0.284698 0.554728
O O3 0.074609 0.278315 0.471479
O O4 0.124268 0.000000 0.559949
O O5 0.252321 0.747386 0.252831
O O6 0.223437 0.000000 0.102326
O O7 0.250000 0.750000 0.000000
O O8 0.174150 0.716852 0.062766
O O9 0.425512 0.500000 0.255602
O O10 0.410259 0.772637 0.113976
O O11 0.474306 0.775407 0.347378
O O12 0.033994 0.734550 0.240215
O O13 0.043073 0.000000 0.114915
O O14 0.093031 0.727135 0.112839
O O15 0.000000 0.723000 0.000000
O O16 0.377509 0.500000 0.974407
O O17 0.250000 0.750000 0.500000
O O18 0.219812 0.000000 0.591972
O O19 0.973316 0.000000 0.619998
#
# Coordination Sequence:
#
# PCOD9221473 Si02
#       7
#     8   8   8   8   8   8   8
#     4   9  18  29  45  68 102 143 180 223 281 340
#     4  11  23  40  63  89 119 156 199 248 297 349
#     4   9  14  24  40  66 103 140 171 211 275 348
#     4   9  14  22  36  61  98 138 173 213 270 340
#     4   9  17  27  45  71 104 143 179 219 280 343
#     4  11  24  42  61  85 119 158 202 250 297 347
#     4   9  15  22  38  64  99 139 174 209 269 345
#
# _framework density 22.620604
#
# number of rings (size 3 to 8) (size 9 to 14) (size 15 to 20)
#    0.000    2.429    1.429    2.143    2.000    4.000 
#    0.000    0.000    0.000    0.000    0.000    0.000 
#    0.000   36.571    0.000    0.000    0.000    0.000 
#
# Total GULP energy -156133.149351 kJ/mol
# GULP energy per Si atom -5576.183905 kJ/mol
# Density = 2.256912 g / cm^3
# Si number density = 22.620604 Si / 1000 Ang^3
#
#
#
# Elastic Constant Matrix: (Units=GPa)
#
#
# Indices 1 2 3 4 5 6 
#
# 1 223.1900 8.0812 77.5937 0.0000 -14.2109 0.0000
# 2 8.0812 61.0239 2.1558 0.0000 -0.9269 0.0000
# 3 77.5937 2.1558 109.5250 0.0000 -5.7153 0.0000
# 4 0.0000 0.0000 0.0000 11.4816 0.0000 -5.4464
# 5 -14.2109 -0.9269 -5.7153 0.0000 37.1788 0.0000
# 6 0.0000 0.0000 0.0000 -5.4464 0.0000 9.8048
#
#
#
# Elastic Compliance Matrix: (Units=1/GPa)
#
#
# Indices 1 2 3 4 5 6 
#
# 1 0.006069 -0.000630 -0.004201 0.000000 0.001658 0.000000
# 2 -0.000630 0.016469 0.000132 0.000000 0.000190 0.000000
# 3 -0.004201 0.000132 0.012118 0.000000 0.000260 0.000000
# 4 0.000000 0.000000 0.000000 0.118256 0.000000 0.065689
# 5 0.001658 0.000190 0.000260 0.000000 0.027576 0.000000
# 6 0.000000 0.000000 0.000000 0.065689 0.000000 0.138480
#
#
# Mechanical properties :
#
#
# Convention : Reuss Voigt Hill
#
# Bulk Modulus (GPa) = 39.59181 63.26671 51.42926
# Shear Modulus (GPa) = 14.84630 32.08692 23.46661
#
# Velocity S-wave (km/s) = 2.56465 3.77036 3.22436
# Velocity P-wave (km/s) = 5.12937 6.85445 6.05367
#
# Compressibility (1/GPa) = 0.02525775
#
# Stress axis : x y z
#
# Youngs Moduli (GPa) = 164.76115 60.72132 82.52525
#
# Poissons Ratio (x) = 0.03826 0.34668
# Poissons Ratio (y) = 0.10382 -0.01091
# Poissons Ratio (z) = 0.69215 -0.00803
#
# Static dielectric constant tensor:
#      x y z
#    x 1.851920 0.000000 0.015130 
#    y 0.000000 1.908340 0.000000 
#    z 0.015130 0.000000 1.785720 
# 
# From -- ./inp_files/186803.got.cif
#   From: 2010.05.17/outbox.cif.g08.bks.cpg/sg12_94_cif.got.tgz:186803.got - 2010.06.03 13:09:07.
