data_PCOD9221541
_publ_section_title
;
Structure prediction by ZEFSAII (Michael W. Deem and Ramdas Pophale) SiO2 
 PCOD9221541
Probable space group: C 2/M
;
_chemical_formula_sum "Si O2"
_cell_formula_units_Z 64
_cell_length_a 14.930189
_cell_length_b 29.499318
_cell_length_c 8.847883
_cell_angle_alpha 90.000000
_cell_angle_beta 112.555425
_cell_angle_gamma 90.000000
_cell_volume 3598.800258
_symmetry_space_group_name_H-M "C 2/M"
_symmetry_group_IT_number 12
_symmetry_cell_setting 'monoclinic'
loop_
_space_group_symop_operation_xyz
x,y,z
-x,y,-z
-x,-y,-z
x,-y,z
1/2+x,1/2+y,z
1/2-x,1/2+y,-z
1/2-x,1/2-y,-z
1/2+x,1/2-y,z
loop_
_atom_site_type_symbol
_atom_site_label
_atom_site_fract_x
_atom_site_fract_y
_atom_site_fract_z
Si Si1 0.910282 0.226002 0.664491
Si Si2 0.250212 0.817046 0.258501
Si Si3 0.917530 0.360881 0.557305
Si Si4 0.966924 0.447896 0.730680
Si Si5 0.249592 0.856009 0.934642
Si Si6 0.657727 0.052552 0.040602
Si Si7 0.913522 0.689875 0.848182
Si Si8 0.868768 0.224973 0.283999
O O1 0.855408 0.190246 0.735120
O O2 0.868650 0.271916 0.712221
O O3 0.880837 0.219717 0.472011
O O4 0.026591 0.231559 0.728399
O O5 0.319272 0.839824 0.429362
O O6 0.300246 0.769855 0.228662
O O7 0.245351 0.848682 0.110025
O O8 0.924326 0.414815 0.576206
O O9 0.944903 0.346326 0.744382
O O10 0.000000 0.342631 0.500000
O O11 0.967673 0.500000 0.682200
O O12 0.075950 0.436521 0.859960
O O13 0.898997 0.445030 0.836149
O O14 0.346011 0.834498 0.923778
O O15 0.171394 0.822080 0.809427
O O16 0.258800 0.909419 0.906651
O O17 0.688149 0.000000 0.039941
O O18 0.000000 0.710767 0.000000
#
# Coordination Sequence:
#
# PCOD9221541 Si02
#       8
#     8   8   8   8   8   8   8   8
#     4  11  24  39  56  77 116 156 182 244 289 318
#     4  12  24  38  53  85 116 152 194 237 282 341
#     4  12  22  34  52  79 116 152 191 233 279 338
#     4   9  18  33  54  80 112 150 188 231 286 347
#     4  12  23  36  58  84 108 150 199 233 284 352
#     4   9  18  35  56  82 114 145 190 242 288 342
#     4  12  22  34  55  77 110 154 194 226 275 338
#     4  11  23  41  56  81 114 154 198 233 284 344
#
# _framework density 17.783705000000001
#
# number of rings (size 3 to 8) (size 9 to 14) (size 15 to 20)
#    0.000    1.000    3.750    6.000    1.750    0.250 
#    0.000    0.625    0.000    0.000    0.000    4.375 
#    0.000    0.000    0.000    0.000    0.000    0.000 
#
# Total GULP energy -178397.489941 kJ/mol
# GULP energy per Si atom -5574.921561 kJ/mol
# Density = 1.774323 g / cm^3
# Si number density = 17.783705 Si / 1000 Ang^3
#
#
#
# Elastic Constant Matrix: (Units=GPa)
#
#
# Indices 1 2 3 4 5 6 
#
# 1 69.7120 13.3206 14.9223 0.0000 -17.1345 0.0000
# 2 13.3206 98.7428 25.4781 0.0000 6.4871 0.0000
# 3 14.9223 25.4781 65.3447 0.0000 -12.4025 0.0000
# 4 0.0000 0.0000 0.0000 26.9969 0.0000 3.8707
# 5 -17.1345 6.4871 -12.4025 0.0000 25.7256 0.0000
# 6 0.0000 0.0000 0.0000 3.8707 0.0000 18.0883
#
#
#
# Elastic Compliance Matrix: (Units=1/GPa)
#
#
# Indices 1 2 3 4 5 6 
#
# 1 0.018164 -0.003146 -0.000522 0.000000 0.012640 0.000000
# 2 -0.003146 0.012546 -0.005693 0.000000 -0.008004 0.000000
# 3 -0.000522 -0.005693 0.019646 0.000000 0.010559 0.000000
# 4 0.000000 0.000000 0.000000 0.038214 0.000000 -0.008177
# 5 0.012640 -0.008004 0.010559 0.000000 0.054399 0.000000
# 6 0.000000 0.000000 0.000000 -0.008177 0.000000 0.057034
#
#
# Mechanical properties :
#
#
# Convention : Reuss Voigt Hill
#
# Bulk Modulus (GPa) = 31.61018 37.91572 34.76295
# Shear Modulus (GPa) = 21.80819 26.16739 23.98779
#
# Velocity S-wave (km/s) = 3.50566 3.84008 3.67667
# Velocity P-wave (km/s) = 5.84804 6.40534 6.13302
#
# Compressibility (1/GPa) = 0.03163538
#
# Stress axis : x y z
#
# Youngs Moduli (GPa) = 55.05260 79.70440 50.89987
#
# Poissons Ratio (x) = 0.25075 0.02659
# Poissons Ratio (y) = 0.17320 0.28975
# Poissons Ratio (z) = 0.02876 0.45372
#
# Static dielectric constant tensor:
#      x y z
#    x 1.656640 0.000000 0.004860 
#    y 0.000000 1.669170 0.000000 
#    z 0.004860 0.000000 1.620800 
# 
# From -- ./inp_files/67004.got.cif
#   From: 2010.05.17/outbox.cif.g08.bks.cpg/sg12_34_cif.got.tgz:67004.got - 2010.06.03 13:09:07.
