data_PCOD9221340
_publ_section_title
;
Structure prediction by ZEFSAII (Michael W. Deem and Ramdas Pophale) SiO2 
 PCOD9221340
Probable space group: C 2/M
;
_chemical_formula_sum "Si O2"
_cell_formula_units_Z 48
_cell_length_a 22.467223
_cell_length_b 18.177843
_cell_length_c 18.855405
_cell_angle_alpha 90.000000
_cell_angle_beta 162.737869
_cell_angle_gamma 90.000000
_cell_volume 2285.121099
_symmetry_space_group_name_H-M "C 2/M"
_symmetry_group_IT_number 12
_symmetry_cell_setting 'monoclinic'
loop_
_space_group_symop_operation_xyz
x,y,z
-x,y,-z
-x,-y,-z
x,-y,z
1/2+x,1/2+y,z
1/2-x,1/2+y,-z
1/2-x,1/2-y,-z
1/2+x,1/2-y,z
loop_
_atom_site_type_symbol
_atom_site_label
_atom_site_fract_x
_atom_site_fract_y
_atom_site_fract_z
Si Si1 0.444971 0.209093 0.019098
Si Si2 0.375053 0.822904 0.293377
Si Si3 0.904087 0.136058 0.145125
Si Si4 0.706786 0.918446 0.063848
Si Si5 0.710686 0.920094 0.493833
Si Si6 0.129530 0.737501 0.465280
O O1 0.313227 0.280556 0.886932
O O2 0.500000 0.203103 0.000000
O O3 0.315721 0.141008 0.900285
O O4 0.664010 0.217580 0.304039
O O5 0.500000 0.858481 0.500000
O O6 0.524652 0.766510 0.422871
O O7 0.277661 0.868620 0.117825
O O8 0.089190 0.091540 0.324060
O O9 0.975212 0.221154 0.237134
O O10 0.841922 0.107911 0.151706
O O11 0.483755 0.922234 0.777049
O O12 0.767255 0.000000 0.156125
O O13 0.683887 0.846471 0.509198
O O14 0.721073 0.000000 0.543019
#
# Coordination Sequence:
#
# PCOD9221340 Si02
#       6
#     8   8   8   8   8   8
#     4  12  24  41  67  95 133 173 217 271 327 388
#     4  12  24  38  65  99 130 163 214 277 328 376
#     4  12  22  40  70  96 127 172 227 272 316 386
#     4  11  24  41  64  98 135 173 216 268 327 388
#     4  11  23  38  63  96 130 166 214 273 324 377
#     4  12  22  40  67  96 124 172 228 270 317 384
#
# _framework density 21.005451000000001
#
# number of rings (size 3 to 8) (size 9 to 14) (size 15 to 20)
#    0.000    0.333    8.333    2.500    0.000    0.333 
#    0.000    0.000    0.000    9.500    0.000    0.000 
#    0.000    0.000    0.000    0.000    0.000    0.000 
#
# Total GULP energy -134040.489032 kJ/mol
# GULP energy per Si atom -5585.020376 kJ/mol
# Density = 2.095764 g / cm^3
# Si number density = 21.005451 Si / 1000 Ang^3
#
#
#
# Elastic Constant Matrix: (Units=GPa)
#
#
# Indices 1 2 3 4 5 6 
#
# 1 92.4178 12.3844 2.9233 0.0075 23.1670 0.0036
# 2 12.3844 92.4642 -5.6931 0.0157 8.0538 0.0131
# 3 2.9233 -5.6931 53.2449 0.0180 23.3554 0.0130
# 4 0.0075 0.0157 0.0180 -5.8734 -0.0017 -1.0929
# 5 23.1670 8.0538 23.3554 -0.0017 35.3975 0.0012
# 6 0.0036 0.0131 0.0130 -1.0929 0.0012 13.9324
#
#
#
# Elastic Compliance Matrix: (Units=1/GPa)
#
#
# Indices 1 2 3 4 5 6 
#
# 1 0.013685 -0.000550 0.004311 0.000033 -0.011676 -0.000003
# 2 -0.000550 0.011460 0.003154 0.000043 -0.004328 -0.000010
# 3 0.004311 0.003154 0.028757 0.000112 -0.022513 -0.000020
# 4 0.000033 0.000043 0.000112 -0.167811 -0.000113 -0.013163
# 5 -0.011676 -0.004328 -0.022513 -0.000113 0.051731 0.000015
# 6 -0.000003 -0.000010 -0.000020 -0.013163 0.000015 0.070743
#
#
# Mechanical properties :
#
#
# Convention : Reuss Voigt Hill
#
# Bulk Modulus (GPa) = 14.76432 28.59512 21.67972
# Shear Modulus (GPa) = 288.82524 23.92547 156.37536
#
# Velocity S-wave (km/s) = 11.73877 3.37859 8.63752
# Velocity P-wave (km/s) = 13.81215 5.37239 10.47946
#
# Compressibility (1/GPa) = 0.06773084
#
# Stress axis : x y z
#
# Youngs Moduli (GPa) = 73.07476 87.26071 34.77442
#
# Poissons Ratio (x) = 0.04803 -0.14992
# Poissons Ratio (y) = 0.04023 -0.10968
# Poissons Ratio (z) = -0.31504 -0.27522
#
# Static dielectric constant tensor:
#      x y z
#    x 1.766240 0.000000 -0.017380 
#    y 0.000000 1.804180 0.000000 
#    z -0.017380 0.000000 1.779760 
# 
# From -- ./inp_files/285417.got.cif
#   From: 2010.05.17/outbox.cif.g08.bks.cpg/sg12_143_cif.got.tgz:285417.got - 2010.06.03 13:09:07.
