data_PCOD9221492
_publ_section_title
;
Structure prediction by ZEFSAII (Michael W. Deem and Ramdas Pophale) SiO2 
 PCOD9221492
Probable space group: C 2/M
;
_chemical_formula_sum "Si O2"
_cell_formula_units_Z 56
_cell_length_a 16.615911
_cell_length_b 17.109789
_cell_length_c 11.911210
_cell_angle_alpha 90.000000
_cell_angle_beta 121.366656
_cell_angle_gamma 90.000000
_cell_volume 2891.400416
_symmetry_space_group_name_H-M "C 2/M"
_symmetry_group_IT_number 12
_symmetry_cell_setting 'monoclinic'
loop_
_space_group_symop_operation_xyz
x,y,z
-x,y,-z
-x,-y,-z
x,-y,z
1/2+x,1/2+y,z
1/2-x,1/2+y,-z
1/2-x,1/2-y,-z
1/2+x,1/2-y,z
loop_
_atom_site_type_symbol
_atom_site_label
_atom_site_fract_x
_atom_site_fract_y
_atom_site_fract_z
Si Si1 0.388028 0.593632 0.411764
Si Si2 0.299148 0.706871 0.709710
Si Si3 0.858368 0.828919 0.155955
Si Si4 0.028419 0.910458 0.151687
Si Si5 0.305777 0.163526 0.140131
Si Si6 0.392016 0.000000 0.560664
Si Si7 0.785463 0.353673 0.571765
Si Si8 0.882786 0.500000 0.290734
O O1 0.500000 0.612168 0.500000
O O2 0.380136 0.500000 0.395163
O O3 0.350609 0.637951 0.275063
O O4 0.319152 0.620820 0.462166
O O5 0.383523 0.645520 0.765782
O O6 0.254493 0.697058 0.799028
O O7 0.224723 0.685914 0.557882
O O8 0.326997 0.794063 0.693668
O O9 0.877083 0.735361 0.168659
O O10 0.941536 0.876835 0.158058
O O11 0.763574 0.843255 0.016062
O O12 0.049386 0.000000 0.199737
O O13 0.000000 0.909755 0.000000
O O14 0.344770 0.079447 0.205747
O O15 0.351805 0.926414 0.597850
O O16 0.356631 0.000000 0.404698
O O17 0.504468 0.000000 0.636341
#
# Coordination Sequence:
#
# PCOD9221492 Si02
#       8
#     8   8   8   8   8   4   8   4
#     4  11  23  40  64  98 135 171 212 264 331 400
#     4  11  23  41  63  96 128 171 214 269 330 382
#     4  11  24  43  64  98 131 173 214 268 331 396
#     4  11  24  39  67  99 129 163 213 271 328 388
#     4  11  24  43  68  93 130 173 222 268 327 388
#     4  11  24  44  68  96 131 172 230 271 317 390
#     4  11  23  41  66  93 129 174 216 270 325 388
#     4  11  26  44  67  95 129 177 225 279 318 373
#
# _framework density 19.367777
#
# number of rings (size 3 to 8) (size 9 to 14) (size 15 to 20)
#    0.000    1.000    5.000    1.286    6.000    1.143 
#    2.571    0.000    0.000    0.857    0.000    0.000 
#    0.000    0.000    0.000    0.000    0.000    0.000 
#
# Total GULP energy -156399.356913 kJ/mol
# GULP energy per Si atom -5585.691318 kJ/mol
# Density = 1.932370 g / cm^3
# Si number density = 19.367777 Si / 1000 Ang^3
#
#
#
# Elastic Constant Matrix: (Units=GPa)
#
#
# Indices 1 2 3 4 5 6 
#
# 1 74.0758 37.4855 15.1270 0.0000 -8.1599 0.0000
# 2 37.4855 163.4798 45.8770 0.0000 7.8466 0.0000
# 3 15.1270 45.8770 96.7397 0.0000 -8.7565 0.0000
# 4 0.0000 0.0000 0.0000 35.5713 0.0000 0.8275
# 5 -8.1599 7.8466 -8.7565 0.0000 22.5005 0.0000
# 6 0.0000 0.0000 0.0000 0.8275 0.0000 37.0473
#
#
#
# Elastic Compliance Matrix: (Units=1/GPa)
#
#
# Indices 1 2 3 4 5 6 
#
# 1 0.016394 -0.004134 0.000068 0.000000 0.007414 0.000000
# 2 -0.004134 0.008445 -0.003898 0.000000 -0.005961 0.000000
# 3 0.000068 -0.003898 0.012749 0.000000 0.006346 0.000000
# 4 0.000000 0.000000 0.000000 0.028127 0.000000 -0.000628
# 5 0.007414 -0.005961 0.006346 0.000000 0.051680 0.000000
# 6 0.000000 0.000000 0.000000 -0.000628 0.000000 0.027007
#
#
# Mechanical properties :
#
#
# Convention : Reuss Voigt Hill
#
# Bulk Modulus (GPa) = 46.16698 59.03049 52.59874
# Shear Modulus (GPa) = 29.84163 34.74421 32.29292
#
# Velocity S-wave (km/s) = 3.92955 4.24006 4.08775
# Velocity P-wave (km/s) = 6.66912 7.38348 7.03537
#
# Compressibility (1/GPa) = 0.02166050
#
# Stress axis : x y z
#
# Youngs Moduli (GPa) = 60.99607 118.41439 78.43562
#
# Poissons Ratio (x) = 0.48954 -0.00533
# Poissons Ratio (y) = 0.25217 0.30574
# Poissons Ratio (z) = -0.00415 0.46158
#
# Static dielectric constant tensor:
#      x y z
#    x 1.679600 0.000000 -0.022800 
#    y 0.000000 1.705670 0.000000 
#    z -0.022800 0.000000 1.675140 
# 
# From -- ./inp_files/156784.got.cif
#   From: 2010.05.17/outbox.cif.g08.bks.cpg/sg12_79_cif.got.tgz:156784.got - 2010.06.03 13:09:07.
