data_PCOD9221144
_publ_section_title
;
Structure prediction by ZEFSAII (Michael W. Deem and Ramdas Pophale) SiO2 
 PCOD9221144
Probable space group: C 2/M
;
_chemical_formula_sum "Si O2"
_cell_formula_units_Z 48
_cell_length_a 15.447814
_cell_length_b 11.271075
_cell_length_c 23.581297
_cell_angle_alpha 90.000000
_cell_angle_beta 143.147439
_cell_angle_gamma 90.000000
_cell_volume 2462.498882
_symmetry_space_group_name_H-M "C 2/M"
_symmetry_group_IT_number 12
_symmetry_cell_setting 'monoclinic'
loop_
_space_group_symop_operation_xyz
x,y,z
-x,y,-z
-x,-y,-z
x,-y,z
1/2+x,1/2+y,z
1/2-x,1/2+y,-z
1/2-x,1/2-y,-z
1/2+x,1/2-y,z
loop_
_atom_site_type_symbol
_atom_site_label
_atom_site_fract_x
_atom_site_fract_y
_atom_site_fract_z
Si Si1 0.125678 0.735928 0.784163
Si Si2 0.321754 0.858948 0.796224
Si Si3 0.652166 0.360621 0.598202
Si Si4 0.016567 0.000000 0.101978
Si Si5 0.164953 0.644924 0.420378
Si Si6 0.411411 0.729424 0.109413
Si Si7 0.770926 0.000000 0.879832
O O1 0.256207 0.796576 0.817854
O O2 0.082637 0.799643 0.820086
O O3 0.179009 0.614891 0.840184
O O4 0.995015 0.697944 0.674336
O O5 0.223296 0.812940 0.692357
O O6 0.483946 0.832974 0.859793
O O7 0.305257 0.000000 0.794949
O O8 0.500000 0.305751 0.500000
O O9 0.625194 0.500000 0.596712
O O10 0.759494 0.355707 0.601638
O O11 0.984987 0.116208 0.119791
O O12 0.171718 0.000000 0.154264
O O13 0.901329 0.000000 0.991046
O O14 0.165428 0.500000 0.438315
O O15 0.250000 0.750000 0.500000
O O16 0.250000 0.750000 0.000000
#
# Coordination Sequence:
#
# PCOD9221144 Si02
#       7
#     8   8   8   4   8   8   4
#     4  12  24  43  69  97 132 177 224 275 338 397
#     4  11  25  43  65  99 135 173 225 279 333 401
#     4   9  18  37  64  91 126 169 216 268 325 392
#     4  11  24  44  64  95 134 169 227 280 334 397
#     4  11  23  40  68 100 133 177 224 275 335 406
#     4  12  26  42  68  97 132 178 225 278 335 398
#     4  11  22  42  70  88 124 186 229 266 329 409
#
# _framework density 19.492394999999998
#
# number of rings (size 3 to 8) (size 9 to 14) (size 15 to 20)
#    0.000    1.000    5.833    1.000    3.500    2.667 
#    0.000    0.833    1.833    1.500    0.000    0.000 
#    0.000    0.000    0.000    0.000    0.000    0.000 
#
# Total GULP energy -133616.692463 kJ/mol
# GULP energy per Si atom -5567.362186 kJ/mol
# Density = 1.944803 g / cm^3
# Si number density = 19.492395 Si / 1000 Ang^3
#
#
#
# Elastic Constant Matrix: (Units=GPa)
#
#
# Indices 1 2 3 4 5 6 
#
# 1 84.1058 -1.1001 12.9574 0.0000 -7.0998 0.0000
# 2 -1.1001 43.1241 5.7363 0.0000 -14.6351 0.0000
# 3 12.9574 5.7363 69.8949 0.0000 2.1324 0.0000
# 4 0.0000 0.0000 0.0000 27.0456 0.0000 18.7413
# 5 -7.0998 -14.6351 2.1324 0.0000 36.1600 0.0000
# 6 0.0000 0.0000 0.0000 18.7413 0.0000 171.3615
#
#
#
# Elastic Compliance Matrix: (Units=1/GPa)
#
#
# Indices 1 2 3 4 5 6 
#
# 1 0.012595 0.001804 -0.002585 0.000000 0.003356 0.000000
# 2 0.001804 0.027598 -0.002956 0.000000 0.011698 0.000000
# 3 -0.002585 -0.002956 0.015108 0.000000 -0.002595 0.000000
# 4 0.000000 0.000000 0.000000 0.040006 0.000000 -0.004375
# 5 0.003356 0.011698 -0.002595 0.000000 0.033201 0.000000
# 6 0.000000 0.000000 0.000000 -0.004375 0.000000 0.006314
#
#
# Mechanical properties :
#
#
# Convention : Reuss Voigt Hill
#
# Bulk Modulus (GPa) = 20.90909 25.81245 23.36077
# Shear Modulus (GPa) = 31.59740 58.88217 45.23978
#
# Velocity S-wave (km/s) = 4.03055 5.50212 4.82279
# Velocity P-wave (km/s) = 5.69302 7.32363 6.55919
#
# Compressibility (1/GPa) = 0.04782608
#
# Stress axis : x y z
#
# Youngs Moduli (GPa) = 79.39701 36.23419 66.18889
#
# Poissons Ratio (x) = -0.06536 0.17112
# Poissons Ratio (y) = -0.14323 0.19568
# Poissons Ratio (z) = 0.20527 0.10712
#
# Static dielectric constant tensor:
#      x y z
#    x 1.674420 0.000000 0.010280 
#    y 0.000000 1.685500 0.000000 
#    z 0.010280 0.000000 1.730840 
# 
# From -- ./inp_files/310292.got.cif
#   From: 2010.05.17/outbox.cif.g08.bks.cpg/sg12_156_cif.got.tgz:310292.got - 2010.06.03 13:09:07.
