data_PCOD9221762
_publ_section_title
;
Structure prediction by ZEFSAII (Michael W. Deem and Ramdas Pophale) SiO2 
 PCOD9221762
Probable space group: C 2/M
;
_chemical_formula_sum "Si O2"
_cell_formula_units_Z 44
_cell_length_a 18.331614
_cell_length_b 23.688722
_cell_length_c 5.171598
_cell_angle_alpha 90.000000
_cell_angle_beta 70.670661
_cell_angle_gamma 90.000000
_cell_volume 2119.188373
_symmetry_space_group_name_H-M "C 2/M"
_symmetry_group_IT_number 12
_symmetry_cell_setting 'monoclinic'
loop_
_space_group_symop_operation_xyz
x,y,z
-x,y,-z
-x,-y,-z
x,-y,z
1/2+x,1/2+y,z
1/2-x,1/2+y,-z
1/2-x,1/2-y,-z
1/2+x,1/2-y,z
loop_
_atom_site_type_symbol
_atom_site_label
_atom_site_fract_x
_atom_site_fract_y
_atom_site_fract_z
Si Si1 0.000000 0.274226 0.000000
Si Si2 0.411251 0.065290 0.700850
Si Si3 0.622094 0.865662 0.747739
Si Si4 0.420807 0.681373 0.747685
Si Si5 0.738342 0.288056 0.267325
Si Si6 0.445051 0.560047 0.817451
O O1 0.057396 0.316527 0.779419
O O2 0.941743 0.232917 0.913662
O O3 0.500000 0.066344 0.500000
O O4 0.366756 0.101534 0.534505
O O5 0.385979 0.000000 0.738668
O O6 0.406487 0.093074 0.989478
O O7 0.699608 0.837569 0.770678
O O8 0.500000 0.675506 0.500000
O O9 0.350115 0.693386 0.644185
O O10 0.402519 0.619971 0.888800
O O11 0.750000 0.250000 0.500000
O O12 0.750000 0.250000 0.000000
O O13 0.500000 0.560307 0.500000
O O14 0.400592 0.500000 0.862578
O O15 0.500000 0.558821 0.000000
#
# Coordination Sequence:
#
# PCOD9221762 Si02
#       6
#     4   8   8   8   8   8
#     4  12  22  36  64  96 128 162 216 262 318 392
#     4  11  23  43  68  96 129 174 226 275 323 388
#     4  12  24  40  65  97 134 173 217 269 332 392
#     4  11  24  40  65  94 128 167 221 265 320 390
#     4  12  26  43  62  94 140 174 210 267 334 396
#     4   9  18  35  58  86 116 152 201 257 308 359
#
# _framework density 20.762664000000001
#
# number of rings (size 3 to 8) (size 9 to 14) (size 15 to 20)
#    0.000    0.909    4.545    2.727    2.545    1.455 
#    0.000    1.818    0.000    4.364    0.000    0.000 
#    0.000    0.000    0.000    0.000    0.000    0.000 
#
# Total GULP energy -122829.476176 kJ/mol
# GULP energy per Si atom -5583.158008 kJ/mol
# Density = 2.071541 g / cm^3
# Si number density = 20.762664 Si / 1000 Ang^3
#
#
#
# Elastic Constant Matrix: (Units=GPa)
#
#
# Indices 1 2 3 4 5 6 
#
# 1 126.3489 45.5863 6.1438 0.0000 9.8561 0.0000
# 2 45.5863 165.2247 27.0796 0.0000 18.4056 0.0000
# 3 6.1438 27.0796 74.3739 0.0000 27.4203 0.0000
# 4 0.0000 0.0000 0.0000 27.5737 0.0000 14.1290
# 5 9.8561 18.4056 27.4203 0.0000 35.3427 0.0000
# 6 0.0000 0.0000 0.0000 14.1290 0.0000 31.0935
#
#
#
# Elastic Compliance Matrix: (Units=1/GPa)
#
#
# Indices 1 2 3 4 5 6 
#
# 1 0.008878 -0.002375 0.000824 0.000000 -0.001878 0.000000
# 2 -0.002375 0.007191 -0.001801 0.000000 -0.001685 0.000000
# 3 0.000824 -0.001801 0.019290 0.000000 -0.014258 0.000000
# 4 0.000000 0.000000 0.000000 0.047274 0.000000 -0.021481
# 5 -0.001878 -0.001685 -0.014258 0.000000 0.040758 0.000000
# 6 0.000000 0.000000 0.000000 -0.021481 0.000000 0.041922
#
#
# Mechanical properties :
#
#
# Convention : Reuss Voigt Hill
#
# Bulk Modulus (GPa) = 34.89872 58.17410 46.53641
# Shear Modulus (GPa) = 27.53798 37.94449 32.74124
#
# Velocity S-wave (km/s) = 3.64582 4.27961 3.97536
# Velocity P-wave (km/s) = 5.87942 7.24565 6.59799
#
# Compressibility (1/GPa) = 0.02865435
#
# Stress axis : x y z
#
# Youngs Moduli (GPa) = 112.63751 139.07115 51.84116
#
# Poissons Ratio (x) = 0.33034 -0.04271
# Poissons Ratio (y) = 0.26755 0.09334
# Poissons Ratio (z) = -0.09280 0.25040
#
# Static dielectric constant tensor:
#      x y z
#    x 1.768950 0.000000 0.045110 
#    y 0.000000 1.842830 0.000000 
#    z 0.045110 0.000000 1.804830 
# 
# From -- ./inp_files/16132.got.cif
#   From: 2010.05.17/outbox.cif.g08.bks.cpg/sg12_9_cif.got.tgz:16132.got - 2010.06.03 13:09:07.
