data_PCOD9221603
_publ_section_title
;
Structure prediction by ZEFSAII (Michael W. Deem and Ramdas Pophale) SiO2 
 PCOD9221603
Probable space group: C 2/M
;
_chemical_formula_sum "Si O2"
_cell_formula_units_Z 40
_cell_length_a 19.294143
_cell_length_b 8.646767
_cell_length_c 11.810416
_cell_angle_alpha 90.000000
_cell_angle_beta 105.323707
_cell_angle_gamma 90.000000
_cell_volume 1900.305087
_symmetry_space_group_name_H-M "C 2/M"
_symmetry_group_IT_number 12
_symmetry_cell_setting 'monoclinic'
loop_
_space_group_symop_operation_xyz
x,y,z
-x,y,-z
-x,-y,-z
x,-y,z
1/2+x,1/2+y,z
1/2-x,1/2+y,-z
1/2-x,1/2-y,-z
1/2+x,1/2-y,z
loop_
_atom_site_type_symbol
_atom_site_label
_atom_site_fract_x
_atom_site_fract_y
_atom_site_fract_z
Si Si1 0.829121 0.683873 0.516984
Si Si2 0.114957 0.182464 0.227811
Si Si3 0.463547 0.181644 0.155044
Si Si4 0.316925 0.185038 0.958127
Si Si5 0.566212 0.319508 0.615757
O O1 0.828448 0.500000 0.504264
O O2 0.750000 0.750000 0.500000
O O3 0.873051 0.731565 0.648142
O O4 0.865122 0.761178 0.423320
O O5 0.172541 0.239796 0.160572
O O6 0.034799 0.225289 0.152067
O O7 0.121147 0.000000 0.248682
O O8 0.448159 0.220332 0.279270
O O9 0.478717 0.000000 0.145594
O O10 0.391100 0.220042 0.056335
O O11 0.310269 0.000000 0.944451
O O12 0.250000 0.250000 0.000000
O O13 0.500000 0.305170 0.500000
O O14 0.572867 0.500000 0.650363
#
# Coordination Sequence:
#
# PCOD9221603 Si02
#       5
#     8   8   8   8   8
#     4  12  26  44  68  97 135 176 218 269 328 389
#     4  12  25  44  69  98 132 172 222 270 327 394
#     4  11  24  43  69  98 131 173 221 272 327 390
#     4  11  26  46  68  97 132 171 220 274 332 392
#     4  11  23  41  67 100 135 171 217 267 322 391
#
# _framework density 21.049251999999999
#
# number of rings (size 3 to 8) (size 9 to 14) (size 15 to 20)
#    0.000    0.600    2.000    6.000    2.800    6.400 
#    0.000    0.000    0.000    0.000    0.000    0.000 
#    0.000    0.000    0.000    0.000    0.000    0.000 
#
# Total GULP energy -112027.610407 kJ/mol
# GULP energy per Si atom -5601.380520 kJ/mol
# Density = 2.100134 g / cm^3
# Si number density = 21.049252 Si / 1000 Ang^3
#
#
#
# Elastic Constant Matrix: (Units=GPa)
#
#
# Indices 1 2 3 4 5 6 
#
# 1 108.6165 6.6521 -4.0040 0.0000 -20.7452 0.0000
# 2 6.6521 39.7563 -8.8133 0.0000 12.0390 0.0000
# 3 -4.0040 -8.8133 42.8139 0.0000 -14.2814 0.0000
# 4 0.0000 0.0000 0.0000 23.9071 0.0000 -0.9295
# 5 -20.7452 12.0390 -14.2814 0.0000 40.4194 0.0000
# 6 0.0000 0.0000 0.0000 -0.9295 0.0000 40.4535
#
#
#
# Elastic Compliance Matrix: (Units=1/GPa)
#
#
# Indices 1 2 3 4 5 6 
#
# 1 0.011004 -0.003541 0.002875 0.000000 0.007718 0.000000
# 2 -0.003541 0.029214 0.002464 0.000000 -0.009648 0.000000
# 3 0.002875 0.002464 0.027638 0.000000 0.010507 0.000000
# 4 0.000000 0.000000 0.000000 0.041866 0.000000 0.000962
# 5 0.007718 -0.009648 0.010507 0.000000 0.035288 0.000000
# 6 0.000000 0.000000 0.000000 0.000962 0.000000 0.024742
#
#
# Mechanical properties :
#
#
# Convention : Reuss Voigt Hill
#
# Bulk Modulus (GPa) = 13.99568 19.87292 16.93430
# Shear Modulus (GPa) = 26.31967 34.11278 30.21623
#
# Velocity S-wave (km/s) = 3.53991 4.03006 3.79291
# Velocity P-wave (km/s) = 4.83440 5.57824 5.21959
#
# Compressibility (1/GPa) = 0.07145060
#
# Stress axis : x y z
#
# Youngs Moduli (GPa) = 90.87900 34.23062 36.18242
#
# Poissons Ratio (x) = 0.12121 -0.10401
# Poissons Ratio (y) = 0.32181 -0.08916
# Poissons Ratio (z) = -0.26124 -0.08435
#
# Static dielectric constant tensor:
#      x y z
#    x 1.729400 0.000000 0.018030 
#    y 0.000000 1.699320 0.000000 
#    z 0.018030 0.000000 1.761990 
# 
# From -- ./inp_files/151964.got.cif
#   From: 2010.05.17/outbox.cif.g08.bks.cpg/sg12_76_cif.got.tgz:151964.got - 2010.06.03 13:09:07.
