data_PCOD9221081
_publ_section_title
;
Structure prediction by ZEFSAII (Michael W. Deem and Ramdas Pophale) SiO2 
 PCOD9221081
Probable space group: C 2/M
;
_chemical_formula_sum "Si O2"
_cell_formula_units_Z 64
_cell_length_a 16.300229
_cell_length_b 25.704351
_cell_length_c 14.592033
_cell_angle_alpha 90.000000
_cell_angle_beta 150.008224
_cell_angle_gamma 90.000000
_cell_volume 3056.174641
_symmetry_space_group_name_H-M "C 2/M"
_symmetry_group_IT_number 12
_symmetry_cell_setting 'monoclinic'
loop_
_space_group_symop_operation_xyz
x,y,z
-x,y,-z
-x,-y,-z
x,-y,z
1/2+x,1/2+y,z
1/2-x,1/2+y,-z
1/2-x,1/2-y,-z
1/2+x,1/2-y,z
loop_
_atom_site_type_symbol
_atom_site_label
_atom_site_fract_x
_atom_site_fract_y
_atom_site_fract_z
Si Si1 0.700362 0.562214 0.795057
Si Si2 0.581214 0.223351 0.813341
Si Si3 0.316857 0.405424 0.427274
Si Si4 0.673793 0.059600 0.476650
Si Si5 0.980175 0.885902 0.873425
Si Si6 0.825908 0.395721 0.107985
Si Si7 0.584158 0.736208 0.173582
Si Si8 0.601314 0.290546 0.511187
O O1 0.723738 0.500000 0.822103
O O2 0.743747 0.582265 0.734572
O O3 0.505557 0.574743 0.617044
O O4 0.795426 0.589296 0.971488
O O5 0.618073 0.164041 0.826371
O O6 0.464567 0.228908 0.787841
O O7 0.508596 0.260847 0.666841
O O8 0.750000 0.250000 0.000000
O O9 0.213874 0.431898 0.407789
O O10 0.318928 0.343557 0.447914
O O11 0.813026 0.091884 0.666735
O O12 0.481241 0.073640 0.300493
O O13 0.698993 0.000000 0.526195
O O14 0.964738 0.823033 0.853958
O O15 0.000000 0.899655 0.000000
O O16 0.147547 0.902680 0.983319
O O17 0.773479 0.745782 0.338560
O O18 0.500000 0.754541 0.000000
O O19 0.500000 0.309199 0.500000
#
# Coordination Sequence:
#
# PCOD9221081 Si02
#       8
#     8   8   8   8   8   8   8   8
#     4  11  22  41  70 101 141 189 234 284 348 415
#     4  12  23  41  67  97 136 177 229 280 340 409
#     4  11  22  41  68 104 147 184 234 279 344 425
#     4  12  26  47  74 104 138 181 236 290 352 415
#     4  11  26  49  71 100 137 181 232 292 355 418
#     4  12  26  45  72 104 137 182 236 291 351 419
#     4  11  24  42  66  93 138 180 222 272 344 410
#     4  12  24  39  65 102 138 179 229 285 334 408
#
# _framework density 20.941210999999999
#
# number of rings (size 3 to 8) (size 9 to 14) (size 15 to 20)
#    0.000    0.500    3.750    6.000    3.500    1.750 
#    0.000    1.875    0.000    0.000    0.000    0.000 
#    0.000    0.000    0.000    0.000    0.000    0.000 
#
# Total GULP energy -178847.762297 kJ/mol
# GULP energy per Si atom -5588.992572 kJ/mol
# Density = 2.089355 g / cm^3
# Si number density = 20.941211 Si / 1000 Ang^3
#
#
#
# Elastic Constant Matrix: (Units=GPa)
#
#
# Indices 1 2 3 4 5 6 
#
# 1 32.8467 19.7151 20.1772 0.0000 0.7419 0.0000
# 2 19.7151 82.3451 24.6876 0.0000 -8.4766 0.0000
# 3 20.1772 24.6876 77.5244 0.0000 -4.1163 0.0000
# 4 0.0000 0.0000 0.0000 36.0958 0.0000 -2.6417
# 5 0.7419 -8.4766 -4.1163 0.0000 29.2542 0.0000
# 6 0.0000 0.0000 0.0000 -2.6417 0.0000 27.3347
#
#
#
# Elastic Compliance Matrix: (Units=1/GPa)
#
#
# Indices 1 2 3 4 5 6 
#
# 1 0.040182 -0.007591 -0.008273 0.000000 -0.004383 0.000000
# 2 -0.007591 0.015186 -0.002636 0.000000 0.004222 0.000000
# 3 -0.008273 -0.002636 0.015982 0.000000 0.001695 0.000000
# 4 0.000000 0.000000 0.000000 0.027901 0.000000 0.002696
# 5 -0.004383 0.004222 0.001695 0.000000 0.035756 0.000000
# 6 0.000000 0.000000 0.000000 0.002696 0.000000 0.036844
#
#
# Mechanical properties :
#
#
# Convention : Reuss Voigt Hill
#
# Bulk Modulus (GPa) = 29.11306 35.76400 32.43853
# Shear Modulus (GPa) = 22.69602 27.07938 24.88770
#
# Velocity S-wave (km/s) = 3.29568 3.59989 3.45114
# Velocity P-wave (km/s) = 5.33052 5.86467 5.60396
#
# Compressibility (1/GPa) = 0.03434884
#
# Stress axis : x y z
#
# Youngs Moduli (GPa) = 24.88679 65.84823 62.57060
#
# Poissons Ratio (x) = 0.49986 0.51767
# Poissons Ratio (y) = 0.18892 0.16495
# Poissons Ratio (z) = 0.20590 0.17359
#
# Static dielectric constant tensor:
#      x y z
#    x 1.793480 0.000000 0.022860 
#    y 0.000000 1.753120 0.000000 
#    z 0.022860 0.000000 1.741490 
# 
# From -- ./inp_files/228192.got.cif
#   From: 2010.05.17/outbox.cif.g08.bks.cpg/sg12_115_cif.got.tgz:228192.got - 2010.06.03 13:09:07.
