data_PCOD9221086
_publ_section_title
;
Structure prediction by ZEFSAII (Michael W. Deem and Ramdas Pophale) SiO2 
 PCOD9221086
Probable space group: C 2/M
;
_chemical_formula_sum "Si O2"
_cell_formula_units_Z 58
_cell_length_a 19.293222
_cell_length_b 18.617930
_cell_length_c 9.863027
_cell_angle_alpha 90.000000
_cell_angle_beta 54.806135
_cell_angle_gamma 90.000000
_cell_volume 2895.197869
_symmetry_space_group_name_H-M "C 2/M"
_symmetry_group_IT_number 12
_symmetry_cell_setting 'monoclinic'
loop_
_space_group_symop_operation_xyz
x,y,z
-x,y,-z
-x,-y,-z
x,-y,z
1/2+x,1/2+y,z
1/2-x,1/2+y,-z
1/2-x,1/2-y,-z
1/2+x,1/2-y,z
loop_
_atom_site_type_symbol
_atom_site_label
_atom_site_fract_x
_atom_site_fract_y
_atom_site_fract_z
Si Si1 0.334594 0.168634 0.494150
Si Si2 0.096980 0.919915 0.349326
Si Si3 0.694421 0.180515 0.016732
Si Si4 0.218851 0.823623 0.363174
Si Si5 0.005519 0.290267 0.152001
Si Si6 0.742920 0.584985 0.817476
Si Si7 0.565617 0.368195 0.089345
Si Si8 0.000000 0.000000 0.000000
O O1 0.268004 0.164113 0.446281
O O2 0.317027 0.242988 0.593169
O O3 0.427143 0.177066 0.323699
O O4 0.309465 0.105671 0.625445
O O5 0.145046 0.879215 0.414293
O O6 0.098567 0.877514 0.205998
O O7 0.000000 0.924663 0.500000
O O8 0.131869 0.000000 0.288596
O O9 0.719031 0.167805 0.833677
O O10 0.750000 0.250000 0.000000
O O11 0.593930 0.192307 0.126628
O O12 0.718092 0.114791 0.087263
O O13 0.009751 0.203185 0.142587
O O14 0.000000 0.313696 0.000000
O O15 0.723680 0.500000 0.840638
O O16 0.653111 0.627841 0.902300
O O17 0.513384 0.436906 0.100486
#
# Coordination Sequence:
#
# PCOD9221086 Si02
#       8
#     8   8   8   8   8   8   8   2
#     4  11  26  43  66 105 137 185 237 296 351 415
#     4  11  23  39  61  97 140 183 232 281 347 428
#     4  12  22  43  72 101 135 185 237 290 351 423
#     4  11  22  41  68  95 141 183 236 284 345 420
#     4  12  24  42  71 100 139 183 241 296 351 417
#     4  12  26  47  73 103 142 184 237 290 361 433
#     4  12  23  41  66  99 143 188 225 285 358 438
#     4  12  24  36  66 108 152 182 222 290 380 432
#
# _framework density 20.033173000000001
#
# number of rings (size 3 to 8) (size 9 to 14) (size 15 to 20)
#    0.000    0.414    7.586    0.828    1.931    2.207 
#    0.000    1.379    0.000    0.828    0.000    0.000 
#    0.000    0.000    0.000    0.000    0.000    0.000 
#
# Total GULP energy -161785.195438 kJ/mol
# GULP energy per Si atom -5578.799843 kJ/mol
# Density = 1.998758 g / cm^3
# Si number density = 20.033173 Si / 1000 Ang^3
#
#
#
# Elastic Constant Matrix: (Units=GPa)
#
#
# Indices 1 2 3 4 5 6 
#
# 1 75.2713 8.9084 17.3908 0.0000 -8.8818 0.0000
# 2 8.9084 40.4714 23.9710 0.0000 -1.8839 0.0000
# 3 17.3908 23.9710 102.6944 0.0000 -7.7056 0.0000
# 4 0.0000 0.0000 0.0000 52.8567 0.0000 48.0687
# 5 -8.8818 -1.8839 -7.7056 0.0000 31.0802 0.0000
# 6 0.0000 0.0000 0.0000 48.0687 0.0000 92.6078
#
#
#
# Elastic Compliance Matrix: (Units=1/GPa)
#
#
# Indices 1 2 3 4 5 6 
#
# 1 0.014332 -0.001984 -0.001697 0.000000 0.003555 0.000000
# 2 -0.001984 0.028948 -0.006452 0.000000 -0.000412 0.000000
# 3 -0.001697 -0.006452 0.011683 0.000000 0.002020 0.000000
# 4 0.000000 0.000000 0.000000 0.035834 0.000000 -0.018600
# 5 0.003555 -0.000412 0.002020 0.000000 0.033667 0.000000
# 6 0.000000 0.000000 0.000000 -0.018600 0.000000 0.020453
#
#
# Mechanical properties :
#
#
# Convention : Reuss Voigt Hill
#
# Bulk Modulus (GPa) = 28.82184 35.44197 32.13190
# Shear Modulus (GPa) = 28.28904 46.52006 37.40455
#
# Velocity S-wave (km/s) = 3.76188 4.82410 4.32572
# Velocity P-wave (km/s) = 5.76951 6.98278 6.40494
#
# Compressibility (1/GPa) = 0.03469591
#
# Stress axis : x y z
#
# Youngs Moduli (GPa) = 69.77579 34.54500 85.59695
#
# Poissons Ratio (x) = 0.06853 0.14528
# Poissons Ratio (y) = 0.13843 0.55227
# Poissons Ratio (z) = 0.11842 0.22288
#
# Static dielectric constant tensor:
#      x y z
#    x 1.743010 0.000000 -0.024560 
#    y 0.000000 1.711440 0.000000 
#    z -0.024560 0.000000 1.752000 
# 
# From -- ./inp_files/78030.got.cif
#   From: 2010.05.17/outbox.cif.g08.bks.cpg/sg12_40_cif.got.tgz:78030.got - 2010.06.03 13:09:07.
