data_PCOD9221199
_publ_section_title
;
Structure prediction by ZEFSAII (Michael W. Deem and Ramdas Pophale) SiO2 
 PCOD9221199
Probable space group: C 2/M
;
_chemical_formula_sum "Si O2"
_cell_formula_units_Z 48
_cell_length_a 17.258745
_cell_length_b 17.259055
_cell_length_c 13.825897
_cell_angle_alpha 90.000000
_cell_angle_beta 34.519871
_cell_angle_gamma 90.000000
_cell_volume 2333.816147
_symmetry_space_group_name_H-M "C 2/M"
_symmetry_group_IT_number 12
_symmetry_cell_setting 'monoclinic'
loop_
_space_group_symop_operation_xyz
x,y,z
-x,y,-z
-x,-y,-z
x,-y,z
1/2+x,1/2+y,z
1/2-x,1/2+y,-z
1/2-x,1/2-y,-z
1/2+x,1/2-y,z
loop_
_atom_site_type_symbol
_atom_site_label
_atom_site_fract_x
_atom_site_fract_y
_atom_site_fract_z
Si Si1 0.923088 0.087353 0.989299
Si Si2 0.977796 0.160584 0.309064
Si Si3 0.713511 0.907966 0.675170
Si Si4 0.783541 0.810039 0.793875
Si Si5 0.624685 0.133543 0.303650
Si Si6 0.474515 0.170482 0.801983
O O1 0.952840 0.128995 0.858887
O O2 0.976287 0.000000 0.925155
O O3 0.763212 0.087157 0.175496
O O4 0.000000 0.126651 0.000000
O O5 0.841408 0.115074 0.475851
O O6 0.086439 0.153708 0.284458
O O7 0.953629 0.251526 0.312427
O O8 0.737888 0.859713 0.748718
O O9 0.577006 0.878791 0.761923
O O10 0.709020 0.000000 0.697381
O O11 0.831771 0.722997 0.719450
O O12 0.657631 0.806227 0.998566
O O13 0.500000 0.111249 0.500000
O O14 0.578399 0.128023 0.239792
#
# Coordination Sequence:
#
# PCOD9221199 Si02
#       6
#     8   8   8   8   8   8
#     4  11  25  41  64  96 129 173 222 275 336 388
#     4  11  22  46  69  95 132 178 228 272 324 395
#     4  12  28  42  65 106 142 176 217 276 344 402
#     4  11  22  44  69  98 129 172 230 270 323 402
#     4  11  23  43  69  97 129 171 224 279 328 391
#     4  11  23  43  69 100 130 174 227 271 328 399
#
# _framework density 20.567171999999999
#
# number of rings (size 3 to 8) (size 9 to 14) (size 15 to 20)
#    0.000    0.833    3.333    5.000    4.667    4.333 
#    0.000    0.000    0.000    0.000    0.000    0.000 
#    0.000    0.000    0.000    0.000    0.000    0.000 
#
# Total GULP energy -134237.596795 kJ/mol
# GULP energy per Si atom -5593.233200 kJ/mol
# Density = 2.052036 g / cm^3
# Si number density = 20.567172 Si / 1000 Ang^3
#
#
#
# Elastic Constant Matrix: (Units=GPa)
#
#
# Indices 1 2 3 4 5 6 
#
# 1 112.8737 37.8355 16.4315 -0.0001 -2.0555 0.0000
# 2 37.8355 44.0994 -8.9500 -0.0001 -3.2685 0.0001
# 3 16.4315 -8.9500 81.0576 -0.0001 9.0814 0.0001
# 4 -0.0001 -0.0001 -0.0001 19.4459 0.0000 -8.9608
# 5 -2.0555 -3.2685 9.0814 0.0000 28.9547 -0.0001
# 6 0.0000 0.0001 0.0001 -8.9608 -0.0001 28.4367
#
#
#
# Elastic Compliance Matrix: (Units=1/GPa)
#
#
# Indices 1 2 3 4 5 6 
#
# 1 0.013706 -0.012559 -0.004265 0.000000 0.000893 0.000000
# 2 -0.012559 0.034803 0.006269 0.000000 0.001071 0.000000
# 3 -0.004265 0.006269 0.014353 0.000000 -0.004097 0.000000
# 4 0.000000 0.000000 0.000000 0.060160 0.000000 0.018957
# 5 0.000893 0.001071 -0.004097 0.000000 0.036006 0.000000
# 6 0.000000 0.000000 0.000000 0.018957 0.000000 0.041140
#
#
# Mechanical properties :
#
#
# Convention : Reuss Voigt Hill
#
# Bulk Modulus (GPa) = 23.95173 36.51831 30.23502
# Shear Modulus (GPa) = 21.25887 28.21503 24.73695
#
# Velocity S-wave (km/s) = 3.21850 3.70786 3.47182
# Velocity P-wave (km/s) = 5.04803 6.01042 5.55012
#
# Compressibility (1/GPa) = 0.04175064
#
# Stress axis : x y z
#
# Youngs Moduli (GPa) = 72.95839 28.73337 69.67343
#
# Poissons Ratio (x) = 0.36086 0.29717
# Poissons Ratio (y) = 0.91628 -0.43676
# Poissons Ratio (z) = 0.31119 -0.18012
#
# Static dielectric constant tensor:
#      x y z
#    x 1.725990 0.000000 0.001850 
#    y 0.000000 1.719320 0.000000 
#    z 0.001850 0.000000 1.709290 
# 
# From -- ./inp_files/226731.got.cif
#   From: 2010.05.17/outbox.cif.g08.bks.cpg/sg12_114_cif.got.tgz:226731.got - 2010.06.03 13:09:07.
