data_PCOD9221901
_publ_section_title
;
Structure prediction by ZEFSAII (Michael W. Deem and Ramdas Pophale) SiO2 
 PCOD9221901
Probable space group: C 2/M
;
_chemical_formula_sum "Si O2"
_cell_formula_units_Z 64
_cell_length_a 20.382093
_cell_length_b 9.990400
_cell_length_c 16.639189
_cell_angle_alpha 90.000000
_cell_angle_beta 119.003400
_cell_angle_gamma 90.000000
_cell_volume 2963.253343
_symmetry_space_group_name_H-M "C 2/M"
_symmetry_group_IT_number 12
_symmetry_cell_setting 'monoclinic'
loop_
_space_group_symop_operation_xyz
x,y,z
-x,y,-z
-x,-y,-z
x,-y,z
1/2+x,1/2+y,z
1/2-x,1/2+y,-z
1/2-x,1/2-y,-z
1/2+x,1/2-y,z
loop_
_atom_site_type_symbol
_atom_site_label
_atom_site_fract_x
_atom_site_fract_y
_atom_site_fract_z
Si Si1 0.536361 0.659399 0.210026
Si Si2 0.770887 0.152630 0.439930
Si Si3 0.915393 0.837957 0.931046
Si Si4 0.104620 0.343839 0.852140
Si Si5 0.729861 0.852134 0.693927
Si Si6 0.766197 0.843907 0.905834
Si Si7 0.938442 0.356112 0.362629
Si Si8 0.939852 0.850865 0.591973
O O1 0.518780 0.500000 0.193994
O O2 0.591816 0.689015 0.168694
O O3 0.460565 0.746331 0.155070
O O4 0.569168 0.685432 0.318393
O O5 0.750000 0.250000 0.500000
O O6 0.745130 0.227533 0.344149
O O7 0.861068 0.147216 0.500654
O O8 0.742753 0.000000 0.430415
O O9 0.849819 0.782353 0.949543
O O10 0.912552 0.000000 0.938846
O O11 0.000000 0.794855 0.000000
O O12 0.101000 0.500000 0.878538
O O13 0.191213 0.291178 0.905331
O O14 0.086076 0.349425 0.745624
O O15 0.748172 0.844726 0.799117
O O16 0.639089 0.849436 0.635806
O O17 0.755930 0.000000 0.680095
O O18 0.771269 0.000000 0.934645
O O19 0.974482 0.500000 0.397070
O O20 0.999691 0.244733 0.410722
O O21 0.971890 0.000000 0.610734
#
# Coordination Sequence:
#
# PCOD9221901 Si02
#       8
#     8   8   8   8   8   8   8   8
#     4   9  17  30  51  75  99 129 164 204 253 298
#     4  11  24  37  48  67  98 132 170 211 249 290
#     4   9  17  29  49  78 104 127 165 213 250 292
#     4   8  14  28  49  74  99 129 168 203 242 296
#     4   9  18  33  53  74  97 130 166 204 249 295
#     4   8  15  29  52  74  98 135 171 204 247 300
#     4   8  15  29  50  74  96 122 162 205 245 290
#     4   9  19  33  49  70  95 129 163 199 250 298
#
# _framework density 21.597881999999998
#
# number of rings (size 3 to 8) (size 9 to 14) (size 15 to 20)
#    0.000    3.125    0.000    1.875    1.750    2.000 
#    0.000    5.000    0.000    1.125    0.000    0.000 
#    0.000    0.000    0.000    0.000    0.000    0.000 
#
# Total GULP energy -178366.491548 kJ/mol
# GULP energy per Si atom -5573.952861 kJ/mol
# Density = 2.154872 g / cm^3
# Si number density = 21.597882 Si / 1000 Ang^3
#
#
#
# Elastic Constant Matrix: (Units=GPa)
#
#
# Indices 1 2 3 4 5 6 
#
# 1 102.1083 30.2147 10.5173 0.0000 6.3084 0.0000
# 2 30.2147 72.5834 6.7326 0.0000 -2.1697 0.0000
# 3 10.5173 6.7326 59.5017 0.0000 2.4618 0.0000
# 4 0.0000 0.0000 0.0000 -8.8587 0.0000 -1.0164
# 5 6.3084 -2.1697 2.4618 0.0000 34.5986 0.0000
# 6 0.0000 0.0000 0.0000 -1.0164 0.0000 27.3710
#
#
#
# Elastic Compliance Matrix: (Units=1/GPa)
#
#
# Indices 1 2 3 4 5 6 
#
# 1 0.011474 -0.004715 -0.001400 0.000000 -0.002288 0.000000
# 2 -0.004715 0.015895 -0.001045 0.000000 0.001931 0.000000
# 3 -0.001400 -0.001045 0.017215 0.000000 -0.001035 0.000000
# 4 0.000000 0.000000 0.000000 -0.112404 0.000000 -0.004174
# 5 -0.002288 0.001931 -0.001035 0.000000 0.029515 0.000000
# 6 0.000000 0.000000 0.000000 -0.004174 0.000000 0.036380
#
#
# Mechanical properties :
#
#
# Convention : Reuss Voigt Hill
#
# Bulk Modulus (GPa) = 33.04276 36.56917 34.80596
# Shear Modulus (GPa) = 222.39747 23.07076 122.73412
#
# Velocity S-wave (km/s) = 10.15852 3.27187 7.54654
# Velocity P-wave (km/s) = 12.36633 5.58946 9.59605
#
# Compressibility (1/GPa) = 0.03026382
#
# Stress axis : x y z
#
# Youngs Moduli (GPa) = 87.15129 62.91424 58.08966
#
# Poissons Ratio (x) = 0.29664 0.08132
# Poissons Ratio (y) = 0.41092 0.06070
# Poissons Ratio (z) = 0.12201 0.06574
#
# Static dielectric constant tensor:
#      x y z
#    x 1.816710 0.000000 0.005990 
#    y 0.000000 1.772170 0.000000 
#    z 0.005990 0.000000 1.868300 
# 
# From -- ./inp_files/320145.got.cif
#   From: 2010.05.17/outbox.cif.g08.bks.cpg/sg12_161_cif.got.tgz:320145.got - 2010.06.03 13:09:07.
