data_PCOD9221360
_publ_section_title
;
Structure prediction by ZEFSAII (Michael W. Deem and Ramdas Pophale) SiO2 
 PCOD9221360
Probable space group: C 2/M
;
_chemical_formula_sum "Si O2"
_cell_formula_units_Z 56
_cell_length_a 16.180357
_cell_length_b 9.203640
_cell_length_c 17.022302
_cell_angle_alpha 90.000000
_cell_angle_beta 102.717436
_cell_angle_gamma 90.000000
_cell_volume 2472.742316
_symmetry_space_group_name_H-M "C 2/M"
_symmetry_group_IT_number 12
_symmetry_cell_setting 'monoclinic'
loop_
_space_group_symop_operation_xyz
x,y,z
-x,y,-z
-x,-y,-z
x,-y,z
1/2+x,1/2+y,z
1/2-x,1/2+y,-z
1/2-x,1/2-y,-z
1/2+x,1/2-y,z
loop_
_atom_site_type_symbol
_atom_site_label
_atom_site_fract_x
_atom_site_fract_y
_atom_site_fract_z
Si Si1 0.995799 0.669661 0.341446
Si Si2 0.699001 0.171291 0.093982
Si Si3 0.871879 0.675174 0.182567
Si Si4 0.576289 0.671557 0.954270
Si Si5 0.386500 0.333613 0.519124
Si Si6 0.732459 0.834974 0.615029
Si Si7 0.150613 0.335170 0.252491
O O1 0.992026 0.500000 0.363492
O O2 0.033304 0.762066 0.420892
O O3 0.067902 0.682425 0.288396
O O4 0.911080 0.710334 0.276267
O O5 0.785925 0.240740 0.143405
O O6 0.638113 0.182417 0.157523
O O7 0.707786 0.000000 0.075762
O O8 0.658335 0.263950 0.015957
O O9 0.863271 0.500000 0.175668
O O10 0.933440 0.735391 0.126812
O O11 0.585455 0.500000 0.938419
O O12 0.500000 0.687840 0.000000
O O13 0.402584 0.500000 0.502864
O O14 0.347125 0.248766 0.437540
O O15 0.308758 0.330219 0.566341
O O16 0.776901 0.769538 0.700234
O O17 0.708157 0.000000 0.623012
O O18 0.181314 0.500000 0.272036
#
# Coordination Sequence:
#
# PCOD9221360 Si02
#       7
#     8   8   8   8   8   8   8
#     4   9  18  33  53  77 105 139 180 224 270 321
#     4  11  23  39  59  82 112 148 184 223 270 325
#     4  11  23  39  59  82 112 148 184 223 270 325
#     4  11  24  41  62  87 113 141 178 225 272 321
#     4   9  16  26  44  72 105 139 175 219 269 319
#     4   9  16  26  44  72 105 139 175 219 269 319
#     4   9  18  33  53  77 105 139 180 224 270 321
#
# _framework density 22.646919
#
# number of rings (size 3 to 8) (size 9 to 14) (size 15 to 20)
#    0.000    2.143    0.000    3.429    0.000    8.000 
#    0.000    2.857    0.000    0.857    0.000    6.000 
#    0.000    0.000    0.000    0.000    0.000    0.000 
#
# Total GULP energy -156609.477034 kJ/mol
# GULP energy per Si atom -5593.195608 kJ/mol
# Density = 2.259537 g / cm^3
# Si number density = 22.646919 Si / 1000 Ang^3
#
#
#
# Elastic Constant Matrix: (Units=GPa)
#
#
# Indices 1 2 3 4 5 6 
#
# 1 88.3604 30.1398 13.8544 0.0000 16.8077 0.0000
# 2 30.1398 110.6865 66.2608 0.0000 32.8414 0.0000
# 3 13.8544 66.2608 115.0437 0.0000 27.6422 0.0000
# 4 0.0000 0.0000 0.0000 33.2278 0.0000 4.1974
# 5 16.8077 32.8414 27.6422 0.0000 49.3384 0.0000
# 6 0.0000 0.0000 0.0000 4.1974 0.0000 18.0677
#
#
#
# Elastic Compliance Matrix: (Units=1/GPa)
#
#
# Indices 1 2 3 4 5 6 
#
# 1 0.012798 -0.003270 0.001002 0.000000 -0.002744 0.000000
# 2 -0.003270 0.016029 -0.007560 0.000000 -0.005320 0.000000
# 3 0.001002 -0.007560 0.013634 0.000000 -0.002948 0.000000
# 4 0.000000 0.000000 0.000000 0.031005 0.000000 -0.007203
# 5 -0.002744 -0.005320 -0.002948 0.000000 0.026396 0.000000
# 6 0.000000 0.000000 0.000000 -0.007203 0.000000 0.057021
#
#
# Mechanical properties :
#
#
# Convention : Reuss Voigt Hill
#
# Bulk Modulus (GPa) = 43.85224 59.40005 51.62614
# Shear Modulus (GPa) = 27.15301 33.71580 30.43441
#
# Velocity S-wave (km/s) = 3.46637 3.86263 3.66985
# Velocity P-wave (km/s) = 5.95201 6.79551 6.38770
#
# Compressibility (1/GPa) = 0.02280385
#
# Stress axis : x y z
#
# Youngs Moduli (GPa) = 78.13915 62.38597 73.34424
#
# Poissons Ratio (x) = 0.20402 -0.07347
# Poissons Ratio (y) = 0.25553 0.55449
# Poissons Ratio (z) = -0.07827 0.47165
#
# Static dielectric constant tensor:
#      x y z
#    x 1.922360 0.000000 -0.059260 
#    y 0.000000 1.759890 0.000000 
#    z -0.059260 0.000000 1.819060 
# 
# From -- ./inp_files/275695.got.cif
#   From: 2010.05.17/outbox.cif.g08.bks.cpg/sg12_138_cif.got.tgz:275695.got - 2010.06.03 13:09:07.
