data_PCOD9221247
_publ_section_title
;
Structure prediction by ZEFSAII (Michael W. Deem and Ramdas Pophale) SiO2 
 PCOD9221247
Probable space group: C 2/M
;
_chemical_formula_sum "Si O2"
_cell_formula_units_Z 56
_cell_length_a 16.747031
_cell_length_b 28.613523
_cell_length_c 9.219567
_cell_angle_alpha 90.000000
_cell_angle_beta 43.508477
_cell_angle_gamma 90.000000
_cell_volume 3041.582395
_symmetry_space_group_name_H-M "C 2/M"
_symmetry_group_IT_number 12
_symmetry_cell_setting 'monoclinic'
loop_
_space_group_symop_operation_xyz
x,y,z
-x,y,-z
-x,-y,-z
x,-y,z
1/2+x,1/2+y,z
1/2-x,1/2+y,-z
1/2-x,1/2-y,-z
1/2+x,1/2-y,z
loop_
_atom_site_type_symbol
_atom_site_label
_atom_site_fract_x
_atom_site_fract_y
_atom_site_fract_z
Si Si1 0.181399 0.500000 0.679180
Si Si2 0.691875 0.822496 0.164469
Si Si3 0.942344 0.500000 0.841392
Si Si4 0.186704 0.602025 0.677380
Si Si5 0.435039 0.103398 0.853579
Si Si6 0.059594 0.257103 0.785681
Si Si7 0.097109 0.779500 0.262297
Si Si8 0.756787 0.179280 0.392281
O O1 0.240178 0.550218 0.591616
O O2 0.079038 0.500000 0.695457
O O3 0.118254 0.500000 0.919779
O O4 0.597175 0.855743 0.215369
O O5 0.646308 0.769918 0.256490
O O6 0.736364 0.841302 0.259806
O O7 0.797886 0.813860 0.913347
O O8 0.914135 0.551165 0.815384
O O9 0.269133 0.640816 0.500989
O O10 0.066684 0.604382 0.741033
O O11 0.145985 0.608927 0.896672
O O12 0.137343 0.215271 0.746421
O O13 0.144035 0.291127 0.588448
O O14 0.964882 0.235631 0.804468
O O15 0.000000 0.282493 0.000000
O O16 0.000000 0.797750 0.500000
#
# Coordination Sequence:
#
# PCOD9221247 Si02
#       8
#     4   8   4   8   8   8   8   8
#     4   7  12  28  47  71 103 129 165 202 244 296
#     4  11  23  35  50  78 103 133 169 209 255 299
#     4   7  12  28  47  73  99 135 162 200 247 298
#     4   9  18  30  51  77 102 136 168 204 245 302
#     4   9  18  30  52  75 106 133 169 204 247 301
#     4  11  23  38  52  69 102 139 172 209 248 296
#     4  11  23  38  52  70 104 138 167 210 254 293
#     4  11  23  34  52  77 101 133 174 207 251 300
#
# _framework density 18.411469
#
# number of rings (size 3 to 8) (size 9 to 14) (size 15 to 20)
#    0.000    2.143    2.857    2.571    6.000    0.000 
#    0.000    0.714    0.000    2.571    0.000    2.000 
#    0.000    0.000    0.000    0.000    0.000    0.000 
#
# Total GULP energy -156176.284866 kJ/mol
# GULP energy per Si atom -5577.724460 kJ/mol
# Density = 1.836956 g / cm^3
# Si number density = 18.411469 Si / 1000 Ang^3
#
#
#
# Elastic Constant Matrix: (Units=GPa)
#
#
# Indices 1 2 3 4 5 6 
#
# 1 28.7223 -5.3745 -7.8430 0.0000 4.7927 0.0000
# 2 -5.3745 64.4546 3.4770 0.0000 4.0666 0.0000
# 3 -7.8430 3.4770 59.2571 0.0000 3.5273 0.0000
# 4 0.0000 0.0000 0.0000 12.3776 0.0000 -0.7560
# 5 4.7927 4.0666 3.5273 0.0000 19.3420 0.0000
# 6 0.0000 0.0000 0.0000 -0.7560 0.0000 11.7820
#
#
#
# Elastic Compliance Matrix: (Units=1/GPa)
#
#
# Indices 1 2 3 4 5 6 
#
# 1 0.038947 0.003667 0.005621 0.000000 -0.011447 0.000000
# 2 0.003667 0.016100 -0.000206 0.000000 -0.004256 0.000000
# 3 0.005621 -0.000206 0.017906 0.000000 -0.004615 0.000000
# 4 0.000000 0.000000 0.000000 0.081109 0.000000 0.005205
# 5 -0.011447 -0.004256 -0.004615 0.000000 0.056274 0.000000
# 6 0.000000 0.000000 0.000000 0.005205 0.000000 0.085210
#
#
# Mechanical properties :
#
#
# Convention : Reuss Voigt Hill
#
# Bulk Modulus (GPa) = 10.97492 14.77256 12.87374
# Shear Modulus (GPa) = 16.24669 19.51195 17.87932
#
# Velocity S-wave (km/s) = 2.97378 3.25895 3.11962
# Velocity P-wave (km/s) = 4.21486 4.71189 4.47029
#
# Compressibility (1/GPa) = 0.09111684
#
# Stress axis : x y z
#
# Youngs Moduli (GPa) = 25.67582 62.11124 55.84590
#
# Poissons Ratio (x) = -0.22773 -0.31392
# Poissons Ratio (y) = -0.09414 0.01151
# Poissons Ratio (z) = -0.14433 0.01280
#
# Static dielectric constant tensor:
#      x y z
#    x 1.637660 0.000000 0.014110 
#    y 0.000000 1.681870 0.000000 
#    z 0.014110 0.000000 1.636530 
# 
# From -- ./inp_files/68158.got.cif
#   From: 2010.05.17/outbox.cif.g08.bks.cpg/sg12_35_cif.got.tgz:68158.got - 2010.06.03 13:09:07.
