data_PCOD9221824
_publ_section_title
;
Structure prediction by ZEFSAII (Michael W. Deem and Ramdas Pophale) SiO2 
 PCOD9221824
Probable space group: C 2/M
;
_chemical_formula_sum "Si O2"
_cell_formula_units_Z 48
_cell_length_a 9.834233
_cell_length_b 24.380874
_cell_length_c 14.043310
_cell_angle_alpha 90.000000
_cell_angle_beta 141.831506
_cell_angle_gamma 90.000000
_cell_volume 2080.803054
_symmetry_space_group_name_H-M "C 2/M"
_symmetry_group_IT_number 12
_symmetry_cell_setting 'monoclinic'
loop_
_space_group_symop_operation_xyz
x,y,z
-x,y,-z
-x,-y,-z
x,-y,z
1/2+x,1/2+y,z
1/2-x,1/2+y,-z
1/2-x,1/2-y,-z
1/2+x,1/2-y,z
loop_
_atom_site_type_symbol
_atom_site_label
_atom_site_fract_x
_atom_site_fract_y
_atom_site_fract_z
Si Si1 0.951337 0.561911 0.860825
Si Si2 0.579378 0.397687 0.940204
Si Si3 0.419918 0.725465 0.857081
Si Si4 0.241804 0.435515 0.591679
Si Si5 0.479796 0.749037 0.681205
Si Si6 0.975145 0.863693 0.380222
O O1 0.920609 0.500000 0.808093
O O2 0.731012 0.596216 0.728221
O O3 0.000000 0.559707 0.000000
O O4 0.166748 0.587942 0.933016
O O5 0.542869 0.332295 0.916507
O O6 0.427563 0.424204 0.774503
O O7 0.500000 0.416988 0.000000
O O8 0.456641 0.758899 0.780767
O O9 0.161452 0.713867 0.730484
O O10 0.500000 0.752315 0.000000
O O11 0.245246 0.500000 0.568374
O O12 0.315840 0.397435 0.544378
O O13 0.000000 0.422253 0.500000
O O14 0.250000 0.750000 0.500000
O O15 0.563752 0.686893 0.711378
O O16 0.000000 0.840727 0.500000
#
# Coordination Sequence:
#
# PCOD9221824 Si02
#       6
#     8   8   8   8   8   8
#     4  11  23  44  70  96 135 183 233 287 346 412
#     4  11  25  44  71 102 139 183 233 285 354 417
#     4  11  25  45  72 103 139 184 235 290 351 419
#     4  11  25  45  70 101 141 185 232 291 353 418
#     4  12  26  46  71 104 141 186 235 290 355 423
#     4  12  27  45  69 102 143 184 238 291 351 418
#
# _framework density 23.068017000000001
#
# number of rings (size 3 to 8) (size 9 to 14) (size 15 to 20)
#    0.000    0.667    3.333    3.000    4.667    8.667 
#    0.000    0.000    0.000    0.000    0.000    0.000 
#    0.000    0.000    0.000    0.000    0.000    0.000 
#
# Total GULP energy -134415.612728 kJ/mol
# GULP energy per Si atom -5600.650530 kJ/mol
# Density = 2.301551 g / cm^3
# Si number density = 23.068017 Si / 1000 Ang^3
#
#
#
# Elastic Constant Matrix: (Units=GPa)
#
#
# Indices 1 2 3 4 5 6 
#
# 1 162.3944 31.0172 33.3025 0.0000 9.8794 0.0000
# 2 31.0172 71.2864 23.1038 0.0000 20.0246 0.0000
# 3 33.3025 23.1038 66.5362 0.0000 22.2084 0.0000
# 4 0.0000 0.0000 0.0000 28.4986 0.0000 16.7642
# 5 9.8794 20.0246 22.2084 0.0000 59.1826 0.0000
# 6 0.0000 0.0000 0.0000 16.7642 0.0000 34.0381
#
#
#
# Elastic Compliance Matrix: (Units=1/GPa)
#
#
# Indices 1 2 3 4 5 6 
#
# 1 0.007182 -0.002351 -0.003022 0.000000 0.000731 0.000000
# 2 -0.002351 0.017343 -0.003450 0.000000 -0.004181 0.000000
# 3 -0.003022 -0.003450 0.019642 0.000000 -0.005699 0.000000
# 4 0.000000 0.000000 0.000000 0.049402 0.000000 -0.024331
# 5 0.000731 -0.004181 -0.005699 0.000000 0.020328 0.000000
# 6 0.000000 0.000000 0.000000 -0.024331 0.000000 0.041362
#
#
# Mechanical properties :
#
#
# Convention : Reuss Voigt Hill
#
# Bulk Modulus (GPa) = 37.70525 52.78485 45.24505
# Shear Modulus (GPa) = 27.51072 38.53011 33.02042
#
# Velocity S-wave (km/s) = 3.45714 4.09134 3.78754
# Velocity P-wave (km/s) = 5.68476 6.72687 6.22765
#
# Compressibility (1/GPa) = 0.02652150
#
# Stress axis : x y z
#
# Youngs Moduli (GPa) = 139.23328 57.65885 50.91029
#
# Poissons Ratio (x) = 0.13554 0.15387
# Poissons Ratio (y) = 0.32729 0.17565
# Poissons Ratio (z) = 0.42082 0.19893
#
# Static dielectric constant tensor:
#      x y z
#    x 1.880860 0.000000 -0.010720 
#    y 0.000000 1.858390 0.000000 
#    z -0.010720 0.000000 1.888340 
# 
# From -- ./inp_files/200238.got.cif
#   From: 2010.05.17/outbox.cif.g08.bks.cpg/sg12_101_cif.got.tgz:200238.got - 2010.06.03 13:09:07.
