data_PCOD9221111
_publ_section_title
;
Structure prediction by ZEFSAII (Michael W. Deem and Ramdas Pophale) SiO2 
 PCOD9221111
Probable space group: C 2/M
;
_chemical_formula_sum "Si O2"
_cell_formula_units_Z 48
_cell_length_a 18.816671
_cell_length_b 20.450836
_cell_length_c 8.104946
_cell_angle_alpha 90.000000
_cell_angle_beta 133.593411
_cell_angle_gamma 90.000000
_cell_volume 2258.880125
_symmetry_space_group_name_H-M "C 2/M"
_symmetry_group_IT_number 12
_symmetry_cell_setting 'monoclinic'
loop_
_space_group_symop_operation_xyz
x,y,z
-x,y,-z
-x,-y,-z
x,-y,z
1/2+x,1/2+y,z
1/2-x,1/2+y,-z
1/2-x,1/2-y,-z
1/2+x,1/2-y,z
loop_
_atom_site_type_symbol
_atom_site_label
_atom_site_fract_x
_atom_site_fract_y
_atom_site_fract_z
Si Si1 0.653373 0.194833 0.192123
Si Si2 0.292721 0.571936 0.977031
Si Si3 0.980804 0.270495 0.708774
Si Si4 0.000002 0.880059 0.197605
Si Si5 0.784609 0.073340 0.359237
Si Si6 0.709735 0.788690 0.775247
O O1 0.589282 0.215642 0.245223
O O2 0.711208 0.127721 0.310508
O O3 0.731963 0.250573 0.274763
O O4 0.578667 0.189938 0.915466
O O5 0.259789 0.500000 0.866378
O O6 0.407506 0.580394 0.117813
O O7 0.278503 0.575185 0.151021
O O8 0.239349 0.635660 0.821184
O O9 0.009558 0.194345 0.755286
O O10 0.906711 0.282644 0.439101
O O11 0.103948 0.908416 0.419148
O O12 0.000000 0.879205 0.000000
O O13 0.762596 0.000000 0.381662
O O14 0.750000 0.750000 0.000000
#
# Coordination Sequence:
#
# PCOD9221111 Si02
#       6
#     8   8   8   8   8   8
#     4  11  22  42  64  91 123 170 210 264 312 372
#     4  11  24  42  61  94 134 164 204 262 325 383
#     4  11  23  39  65  95 127 159 217 270 310 370
#     4  12  22  39  65  97 129 163 207 265 325 383
#     4  11  25  43  62  88 130 175 212 258 320 383
#     4  12  22  39  65  95 124 168 214 258 316 380
#
# _framework density 21.249466999999999
#
# number of rings (size 3 to 8) (size 9 to 14) (size 15 to 20)
#    0.000    0.667    6.667    1.500    2.333    3.333 
#    0.000    2.500    0.000    2.000    0.000    0.000 
#    0.000    0.000    0.000    0.000    0.000    0.000 
#
# Total GULP energy -134294.548732 kJ/mol
# GULP energy per Si atom -5595.606197 kJ/mol
# Density = 2.120110 g / cm^3
# Si number density = 21.249467 Si / 1000 Ang^3
#
#
#
# Elastic Constant Matrix: (Units=GPa)
#
#
# Indices 1 2 3 4 5 6 
#
# 1 44.2683 13.9326 6.2102 0.0000 16.4275 0.0000
# 2 13.9326 164.9983 13.4775 0.0000 12.6798 0.0000
# 3 6.2102 13.4775 86.0819 0.0000 15.5393 0.0000
# 4 0.0000 0.0000 0.0000 7.1323 0.0000 20.7777
# 5 16.4275 12.6798 15.5393 0.0000 33.6000 0.0000
# 6 0.0000 0.0000 0.0000 20.7777 0.0000 113.7590
#
#
#
# Elastic Compliance Matrix: (Units=1/GPa)
#
#
# Indices 1 2 3 4 5 6 
#
# 1 0.027914 -0.001377 0.000624 0.000000 -0.013416 0.000000
# 2 -0.001377 0.006338 -0.000636 0.000000 -0.001425 0.000000
# 3 0.000624 -0.000636 0.012747 0.000000 -0.005960 0.000000
# 4 0.000000 0.000000 0.000000 0.299644 0.000000 -0.054729
# 5 -0.013416 -0.001425 -0.005960 0.000000 0.039615 0.000000
# 6 0.000000 0.000000 0.000000 -0.054729 0.000000 0.018787
#
#
# Mechanical properties :
#
#
# Convention : Reuss Voigt Hill
#
# Bulk Modulus (GPa) = 22.61349 40.28767 31.45058
# Shear Modulus (GPa) = 11.83252 48.34681 30.08966
#
# Velocity S-wave (km/s) = 2.36230 4.77508 3.76709
# Velocity P-wave (km/s) = 4.25507 7.02868 5.80982
#
# Compressibility (1/GPa) = 0.04422138
#
# Stress axis : x y z
#
# Youngs Moduli (GPa) = 35.82422 157.76948 78.44770
#
# Poissons Ratio (x) = 0.21725 -0.04893
# Poissons Ratio (y) = 0.04933 0.04988
# Poissons Ratio (z) = -0.02234 0.10032
#
# Static dielectric constant tensor:
#      x y z
#    x 1.721820 0.000000 -0.018070 
#    y 0.000000 1.757550 0.000000 
#    z -0.018070 0.000000 1.803510 
# 
# From -- ./inp_files/89413.got.cif
#   From: 2010.05.17/outbox.cif.g08.bks.cpg/sg12_45_cif.got.tgz:89413.got - 2010.06.03 13:09:07.
