data_PCOD9221736
_publ_section_title
;
Structure prediction by ZEFSAII (Michael W. Deem and Ramdas Pophale) SiO2 
 PCOD9221736
Probable space group: C 2/M
;
_chemical_formula_sum "Si O2"
_cell_formula_units_Z 40
_cell_length_a 12.156791
_cell_length_b 21.858975
_cell_length_c 9.694634
_cell_angle_alpha 90.000000
_cell_angle_beta 51.445652
_cell_angle_gamma 90.000000
_cell_volume 2014.635731
_symmetry_space_group_name_H-M "C 2/M"
_symmetry_group_IT_number 12
_symmetry_cell_setting 'monoclinic'
loop_
_space_group_symop_operation_xyz
x,y,z
-x,y,-z
-x,-y,-z
x,-y,z
1/2+x,1/2+y,z
1/2-x,1/2+y,-z
1/2-x,1/2-y,-z
1/2+x,1/2-y,z
loop_
_atom_site_type_symbol
_atom_site_label
_atom_site_fract_x
_atom_site_fract_y
_atom_site_fract_z
Si Si1 0.602583 0.000000 0.129073
Si Si2 0.111059 0.840112 0.800608
Si Si3 0.600368 0.876630 0.293733
Si Si4 0.857803 0.874481 0.531568
Si Si5 0.284760 0.000000 0.268120
Si Si6 0.427812 0.196717 0.200737
O O1 0.638473 0.938826 0.184452
O O2 0.434203 0.000000 0.231534
O O3 0.677672 0.000000 0.922639
O O4 0.262836 0.843832 0.752926
O O5 0.114628 0.875361 0.653539
O O6 0.072714 0.769966 0.795258
O O7 0.000000 0.863382 0.000000
O O8 0.500000 0.892397 0.500000
O O9 0.516659 0.832983 0.254381
O O10 0.731043 0.827588 0.662350
O O11 0.000000 0.857756 0.500000
O O12 0.801745 0.939959 0.625186
O O13 0.500000 0.177097 0.000000
#
# Coordination Sequence:
#
# PCOD9221736 Si02
#       6
#     4   8   8   8   4   8
#     4  11  23  42  76 101 133 178 237 287 334 409
#     4  11  28  44  66 106 141 183 225 283 351 401
#     4  12  24  44  72 101 140 178 236 285 341 403
#     4  12  26  44  70  99 142 176 229 285 344 409
#     4  11  23  46  68 104 129 180 237 278 345 410
#     4  11  25  44  71 100 135 186 232 275 338 416
#
# _framework density 19.854706
#
# number of rings (size 3 to 8) (size 9 to 14) (size 15 to 20)
#    0.000    0.600    4.000    2.400    8.400    2.400 
#    0.000    1.000    0.000    0.000    0.000    0.000 
#    0.000    0.000    0.000    0.000    0.000    0.000 
#
# Total GULP energy -111941.764658 kJ/mol
# GULP energy per Si atom -5597.088233 kJ/mol
# Density = 1.980952 g / cm^3
# Si number density = 19.854706 Si / 1000 Ang^3
#
#
#
# Elastic Constant Matrix: (Units=GPa)
#
#
# Indices 1 2 3 4 5 6 
#
# 1 139.6794 22.2717 50.3364 0.0000 11.7905 0.0000
# 2 22.2717 58.7007 25.1150 0.0000 14.9442 0.0000
# 3 50.3364 25.1150 152.0787 0.0000 6.7144 0.0000
# 4 0.0000 0.0000 0.0000 -18.6766 0.0000 24.5695
# 5 11.7905 14.9442 6.7144 0.0000 34.1817 0.0000
# 6 0.0000 0.0000 0.0000 24.5695 0.0000 -18.3191
#
#
#
# Elastic Compliance Matrix: (Units=1/GPa)
#
#
# Indices 1 2 3 4 5 6 
#
# 1 0.008457 -0.001738 -0.002438 0.000000 -0.001678 0.000000
# 2 -0.001738 0.020805 -0.002507 0.000000 -0.008004 0.000000
# 3 -0.002438 -0.002507 0.007778 0.000000 0.000409 0.000000
# 4 0.000000 0.000000 0.000000 0.070048 0.000000 0.093948
# 5 -0.001678 -0.008004 0.000409 0.000000 0.033253 0.000000
# 6 0.000000 0.000000 0.000000 0.093948 0.000000 0.071415
#
#
# Mechanical properties :
#
#
# Convention : Reuss Voigt Hill
#
# Bulk Modulus (GPa) = 42.24069 60.65612 51.44840
# Shear Modulus (GPa) = 21.45795 16.28627 18.87211
#
# Velocity S-wave (km/s) = 3.29104 2.86715 3.08638
# Velocity P-wave (km/s) = 5.98016 6.44802 6.21850
#
# Compressibility (1/GPa) = 0.02367386
#
# Stress axis : x y z
#
# Youngs Moduli (GPa) = 118.25066 48.06429 128.56040
#
# Poissons Ratio (x) = 0.08355 0.31342
# Poissons Ratio (y) = 0.20555 0.32233
# Poissons Ratio (z) = 0.28828 0.12051
#
# Static dielectric constant tensor:
#      x y z
#    x 1.673920 0.000000 -0.009330 
#    y 0.000000 1.680210 0.000000 
#    z -0.009330 0.000000 1.693180 
# 
# From -- ./inp_files/50471.got.cif
#   From: 2010.05.17/outbox.cif.g08.bks.cpg/sg12_26_cif.got.tgz:50471.got - 2010.06.03 13:09:07.
