data_PCOD9221078
_publ_section_title
;
Structure prediction by ZEFSAII (Michael W. Deem and Ramdas Pophale) SiO2 
 PCOD9221078
Probable space group: C 2/M
;
_chemical_formula_sum "Si O2"
_cell_formula_units_Z 28
_cell_length_a 11.171659
_cell_length_b 19.486661
_cell_length_c 6.772105
_cell_angle_alpha 90.000000
_cell_angle_beta 120.231170
_cell_angle_gamma 90.000000
_cell_volume 1273.775936
_symmetry_space_group_name_H-M "C 2/M"
_symmetry_group_IT_number 12
_symmetry_cell_setting 'monoclinic'
loop_
_space_group_symop_operation_xyz
x,y,z
-x,y,-z
-x,-y,-z
x,-y,z
1/2+x,1/2+y,z
1/2-x,1/2+y,-z
1/2-x,1/2-y,-z
1/2+x,1/2-y,z
loop_
_atom_site_type_symbol
_atom_site_label
_atom_site_fract_x
_atom_site_fract_y
_atom_site_fract_z
Si Si1 0.606437 0.000000 0.905666
Si Si2 0.500000 0.107894 0.500000
Si Si3 0.271272 0.352997 0.537515
Si Si4 0.158753 0.740258 0.122294
Si Si5 0.339800 0.500000 0.418624
O O1 0.573670 0.062963 0.732284
O O2 0.500000 0.000000 0.000000
O O3 0.751783 0.000000 0.141157
O O4 0.382016 0.150909 0.501506
O O5 0.259213 0.310224 0.328401
O O6 0.358399 0.311687 0.770517
O O7 0.304538 0.431668 0.514768
O O8 0.250000 0.750000 0.000000
O O9 0.000000 0.711392 0.000000
O O10 0.500000 0.500000 0.500000
#
# Coordination Sequence:
#
# PCOD9221078 Si02
#       5
#     4   4   8   8   4
#     4  11  22  41  68 102 142 179 233 292 359 436
#     4  11  22  42  74 106 132 185 254 294 358 435
#     4  11  26  45  70 109 141 185 248 301 362 444
#     4  11  27  47  74 101 145 196 244 301 366 437
#     4  12  28  44  72 108 154 192 234 307 378 436
#
# _framework density 21.981888999999999
#
# number of rings (size 3 to 8) (size 9 to 14) (size 15 to 20)
#    0.000    0.857    2.857    2.571   12.000    2.286 
#    0.000    2.143    0.000    0.000    0.000    0.000 
#    0.000    0.000    0.000    0.000    0.000    0.000 
#
# Total GULP energy -78163.125898 kJ/mol
# GULP energy per Si atom -5583.080421 kJ/mol
# Density = 2.193186 g / cm^3
# Si number density = 21.981889 Si / 1000 Ang^3
#
#
#
# Elastic Constant Matrix: (Units=GPa)
#
#
# Indices 1 2 3 4 5 6 
#
# 1 118.3721 6.8054 48.1819 0.0000 -10.6589 0.0000
# 2 6.8054 117.9391 43.1101 0.0000 -14.7737 0.0000
# 3 48.1819 43.1101 137.8167 0.0000 -8.6044 0.0000
# 4 0.0000 0.0000 0.0000 10.8087 0.0000 -1.8702
# 5 -10.6589 -14.7737 -8.6044 0.0000 52.2200 0.0000
# 6 0.0000 0.0000 0.0000 -1.8702 0.0000 22.9902
#
#
#
# Elastic Compliance Matrix: (Units=1/GPa)
#
#
# Indices 1 2 3 4 5 6 
#
# 1 0.010060 0.000995 -0.003721 0.000000 0.001722 0.000000
# 2 0.000995 0.009938 -0.003302 0.000000 0.002471 0.000000
# 3 -0.003721 -0.003302 0.009583 0.000000 -0.000115 0.000000
# 4 0.000000 0.000000 0.000000 0.093839 0.000000 0.007634
# 5 0.001722 0.002471 -0.000115 0.000000 0.020181 0.000000
# 6 0.000000 0.000000 0.000000 0.007634 0.000000 0.044118
#
#
# Mechanical properties :
#
#
# Convention : Reuss Voigt Hill
#
# Bulk Modulus (GPa) = 57.06136 63.36918 60.21527
# Shear Modulus (GPa) = 24.31706 35.60582 29.96144
#
# Velocity S-wave (km/s) = 3.32961 4.02901 3.69590
# Velocity P-wave (km/s) = 6.38721 7.10876 6.75762
#
# Compressibility (1/GPa) = 0.01752500
#
# Stress axis : x y z
#
# Youngs Moduli (GPa) = 99.40000 100.62233 104.35383
#
# Poissons Ratio (x) = -0.10015 0.38830
# Poissons Ratio (y) = -0.09894 0.34462
# Poissons Ratio (z) = 0.36987 0.33230
#
# Static dielectric constant tensor:
#      x y z
#    x 1.778480 0.000000 0.059910 
#    y 0.000000 1.900060 0.000000 
#    z 0.059910 0.000000 1.929000 
# 
# From -- ./inp_files/5833.got.cif
#   From: 2010.05.17/outbox.cif.g08.bks.cpg/sg12_3_cif.got.tgz:5833.got - 2010.06.03 13:09:07.
