data_PCOD9221967
_publ_section_title
;
Structure prediction by ZEFSAII (Michael W. Deem and Ramdas Pophale) SiO2 
 PCOD9221967
Probable space group: C 2/M
;
_chemical_formula_sum "Si O2"
_cell_formula_units_Z 38
_cell_length_a 12.201685
_cell_length_b 25.372551
_cell_length_c 6.722497
_cell_angle_alpha 90.000000
_cell_angle_beta 108.012556
_cell_angle_gamma 90.000000
_cell_volume 1979.201223
_symmetry_space_group_name_H-M "C 2/M"
_symmetry_group_IT_number 12
_symmetry_cell_setting 'monoclinic'
loop_
_space_group_symop_operation_xyz
x,y,z
-x,y,-z
-x,-y,-z
x,-y,z
1/2+x,1/2+y,z
1/2-x,1/2+y,-z
1/2-x,1/2-y,-z
1/2+x,1/2-y,z
loop_
_atom_site_type_symbol
_atom_site_label
_atom_site_fract_x
_atom_site_fract_y
_atom_site_fract_z
Si Si1 0.264062 0.942417 0.823125
Si Si2 0.343259 0.276542 0.196699
Si Si3 0.125545 0.123867 0.048945
Si Si4 0.500000 0.803870 0.500000
Si Si5 0.500000 0.000000 0.000000
Si Si6 0.238935 0.346790 0.479840
O O1 0.250327 0.900245 0.640989
O O2 0.210319 0.000000 0.748564
O O3 0.398099 0.955093 0.929668
O O4 0.211048 0.916692 0.990225
O O5 0.440327 0.234418 0.305653
O O6 0.283999 0.299385 0.364020
O O7 0.250000 0.250000 0.000000
O O8 0.392171 0.326886 0.109260
O O9 0.182917 0.145948 0.281364
O O10 0.000000 0.098887 0.000000
O O11 0.606536 0.836507 0.468960
#
# Coordination Sequence:
#
# PCOD9221967 Si02
#       6
#     8   8   8   4   2   8
#     4   9  23  44  67  95 131 169 210 281 335 385
#     4  11  24  41  59  93 138 175 215 271 327 384
#     4  11  24  43  66  94 135 176 225 269 327 399
#     4  12  24  38  69  94 135 176 228 268 326 398
#     4   8  20  44  68  90 138 160 208 270 346 384
#     4  11  25  41  64 103 124 177 225 268 331 394
#
# _framework density 19.199665
#
# number of rings (size 3 to 8) (size 9 to 14) (size 15 to 20)
#    0.632    0.842    2.105    1.895    5.895    3.789 
#    0.000    2.632    0.000    0.000    0.000    0.000 
#    0.000    0.000    0.000    0.000    0.000    0.000 
#
# Total GULP energy -105780.735141 kJ/mol
# GULP energy per Si atom -5567.407113 kJ/mol
# Density = 1.915597 g / cm^3
# Si number density = 19.199665 Si / 1000 Ang^3
#
#
#
# Elastic Constant Matrix: (Units=GPa)
#
#
# Indices 1 2 3 4 5 6 
#
# 1 88.6470 17.5186 60.4594 0.0000 7.1044 0.0000
# 2 17.5186 87.5334 42.2057 0.0000 -3.5059 0.0000
# 3 60.4594 42.2057 117.9832 0.0000 0.1484 0.0000
# 4 0.0000 0.0000 0.0000 13.2928 0.0000 9.6172
# 5 7.1044 -3.5059 0.1484 0.0000 28.4052 0.0000
# 6 0.0000 0.0000 0.0000 9.6172 0.0000 11.1793
#
#
#
# Elastic Compliance Matrix: (Units=1/GPa)
#
#
# Indices 1 2 3 4 5 6 
#
# 1 0.017927 0.000804 -0.009469 0.000000 -0.004335 0.000000
# 2 0.000804 0.013927 -0.005396 0.000000 0.001546 0.000000
# 3 -0.009469 -0.005396 0.015256 0.000000 0.001623 0.000000
# 4 0.000000 0.000000 0.000000 0.199223 0.000000 -0.171385
# 5 -0.004335 0.001546 0.001623 0.000000 0.036471 0.000000
# 6 0.000000 0.000000 0.000000 -0.171385 0.000000 0.236888
#
#
# Mechanical properties :
#
#
# Convention : Reuss Voigt Hill
#
# Bulk Modulus (GPa) = 52.66250 59.39233 56.02741
# Shear Modulus (GPa) = 9.02293 22.17413 15.59853
#
# Velocity S-wave (km/s) = 2.17019 3.40210 2.85342
# Velocity P-wave (km/s) = 5.81103 6.81422 6.33252
#
# Compressibility (1/GPa) = 0.01898885
#
# Stress axis : x y z
#
# Youngs Moduli (GPa) = 55.78135 71.80305 65.54710
#
# Poissons Ratio (x) = -0.05773 0.62065
# Poissons Ratio (y) = -0.04485 0.35369
# Poissons Ratio (z) = 0.52818 0.38745
#
# Static dielectric constant tensor:
#      x y z
#    x 1.677970 0.000000 -0.026140 
#    y 0.000000 1.671320 0.000000 
#    z -0.026140 0.000000 1.659960 
# 
# From -- ./inp_files/7767.got.cif
#   From: 2010.05.17/outbox.cif.g08.bks.cpg/sg12_4_cif.got.tgz:7767.got - 2010.06.03 13:09:07.
