data_PCOD9221096
_publ_section_title
;
Structure prediction by ZEFSAII (Michael W. Deem and Ramdas Pophale) SiO2 
 PCOD9221096
Probable space group: C 2/M
;
_chemical_formula_sum "Si O2"
_cell_formula_units_Z 40
_cell_length_a 8.425874
_cell_length_b 21.860736
_cell_length_c 16.245318
_cell_angle_alpha 90.000000
_cell_angle_beta 34.655599
_cell_angle_gamma 90.000000
_cell_volume 1701.559233
_symmetry_space_group_name_H-M "C 2/M"
_symmetry_group_IT_number 12
_symmetry_cell_setting 'monoclinic'
loop_
_space_group_symop_operation_xyz
x,y,z
-x,y,-z
-x,-y,-z
x,-y,z
1/2+x,1/2+y,z
1/2-x,1/2+y,-z
1/2-x,1/2-y,-z
1/2+x,1/2-y,z
loop_
_atom_site_type_symbol
_atom_site_label
_atom_site_fract_x
_atom_site_fract_y
_atom_site_fract_z
Si Si1 0.728646 0.433153 0.473168
Si Si2 0.295225 0.393449 0.775318
Si Si3 0.818177 0.072487 0.957191
Si Si4 0.696198 0.838648 0.239603
Si Si5 0.761709 0.779571 0.673863
O O1 0.500000 0.418528 0.500000
O O2 0.845655 0.500000 0.405156
O O3 0.548175 0.432510 0.632065
O O4 0.965600 0.383508 0.376068
O O5 0.299952 0.403243 0.870584
O O6 0.337054 0.326787 0.715754
O O7 0.992577 0.417564 0.874547
O O8 0.051851 0.117424 0.892801
O O9 0.883539 0.000000 0.932586
O O10 0.528177 0.803570 0.239964
O O11 0.775344 0.787044 0.271695
O O12 0.000000 0.778778 0.500000
#
# Coordination Sequence:
#
# PCOD9221096 Si02
#       5
#     8   8   8   8   8
#     4  11  22  41  70 104 137 175 225 284 349 409
#     4  11  22  47  69  99 139 181 222 278 346 408
#     4  11  26  45  70 104 140 182 229 278 343 415
#     4  12  25  44  70 104 137 178 233 284 340 402
#     4  12  25  45  72 102 136 181 231 287 341 403
#
# _framework density 23.507850000000001
#
# number of rings (size 3 to 8) (size 9 to 14) (size 15 to 20)
#    0.000    0.600    4.000    4.800    2.800    1.600 
#    0.000    3.000    0.000    0.000    0.000    0.000 
#    0.000    0.000    0.000    0.000    0.000    0.000 
#
# Total GULP energy -111922.648039 kJ/mol
# GULP energy per Si atom -5596.132402 kJ/mol
# Density = 2.345434 g / cm^3
# Si number density = 23.507850 Si / 1000 Ang^3
#
#
#
# Elastic Constant Matrix: (Units=GPa)
#
#
# Indices 1 2 3 4 5 6 
#
# 1 88.4113 57.4867 47.0394 -0.0007 -12.2918 0.0010
# 2 57.4867 223.2239 76.4337 -0.0012 -15.8243 0.0027
# 3 47.0394 76.4337 89.8398 -0.0022 -8.0598 0.0091
# 4 -0.0007 -0.0012 -0.0022 26.2575 0.0007 -0.1058
# 5 -12.2918 -15.8243 -8.0598 0.0007 37.2489 -0.0016
# 6 0.0010 0.0027 0.0091 -0.1058 -0.0016 32.2846
#
#
#
# Elastic Compliance Matrix: (Units=1/GPa)
#
#
# Indices 1 2 3 4 5 6 
#
# 1 0.016540 -0.001642 -0.006971 0.000000 0.003252 0.000002
# 2 -0.001642 0.006573 -0.004621 0.000000 0.001251 0.000001
# 3 -0.006971 -0.004621 0.018693 0.000001 -0.000219 -0.000005
# 4 0.000000 0.000000 0.000001 0.038085 -0.000001 0.000125
# 5 0.003252 0.001251 -0.000219 -0.000001 0.028404 0.000001
# 6 0.000002 0.000001 -0.000005 0.000125 0.000001 0.030975
#
#
# Mechanical properties :
#
#
# Convention : Reuss Voigt Hill
#
# Bulk Modulus (GPa) = 65.19821 84.82160 75.00990
# Shear Modulus (GPa) = 29.26552 33.85923 31.56238
#
# Velocity S-wave (km/s) = 3.53218 3.79929 3.66817
# Velocity P-wave (km/s) = 6.66558 7.44357 7.06529
#
# Compressibility (1/GPa) = 0.01533785
#
# Stress axis : x y z
#
# Youngs Moduli (GPa) = 60.46094 152.12683 53.49699
#
# Poissons Ratio (x) = 0.24977 0.37295
# Poissons Ratio (y) = 0.09927 0.24719
# Poissons Ratio (z) = 0.42150 0.70293
#
# Static dielectric constant tensor:
#      x y z
#    x 1.956810 0.000010 0.011530 
#    y 0.000010 1.874160 0.000000 
#    z 0.011530 0.000000 1.877150 
# 
# From -- ./inp_files/259329.got.cif
#   From: 2010.05.17/outbox.cif.g08.bks.cpg/sg12_130_cif.got.tgz:259329.got - 2010.06.03 13:09:07.
