data_PCOD9221498
_publ_section_title
;
Structure prediction by ZEFSAII (Michael W. Deem and Ramdas Pophale) SiO2 
 PCOD9221498
Probable space group: C 2/M
;
_chemical_formula_sum "Si O2"
_cell_formula_units_Z 36
_cell_length_a 16.279408
_cell_length_b 17.552348
_cell_length_c 6.201723
_cell_angle_alpha 90.000000
_cell_angle_beta 72.472439
_cell_angle_gamma 90.000000
_cell_volume 1689.817373
_symmetry_space_group_name_H-M "C 2/M"
_symmetry_group_IT_number 12
_symmetry_cell_setting 'monoclinic'
loop_
_space_group_symop_operation_xyz
x,y,z
-x,y,-z
-x,-y,-z
x,-y,z
1/2+x,1/2+y,z
1/2-x,1/2+y,-z
1/2-x,1/2-y,-z
1/2+x,1/2-y,z
loop_
_atom_site_type_symbol
_atom_site_label
_atom_site_fract_x
_atom_site_fract_y
_atom_site_fract_z
Si Si1 0.627014 0.914537 0.357006
Si Si2 0.500000 0.820591 0.500000
Si Si3 0.722363 0.411262 0.106563
Si Si4 0.424441 0.296912 0.915016
Si Si5 0.179437 0.304634 0.663003
O O1 0.540827 0.893458 0.303433
O O2 0.617167 0.840512 0.527638
O O3 0.629493 0.000000 0.440783
O O4 0.712150 0.903478 0.148053
O O5 0.533611 0.754650 0.299750
O O6 0.703163 0.500000 0.150690
O O7 0.639495 0.359865 0.129412
O O8 0.772204 0.376239 0.271078
O O9 0.500000 0.332499 0.000000
O O10 0.368840 0.242633 0.117322
O O11 0.250000 0.250000 0.500000
#
# Coordination Sequence:
#
# PCOD9221498 Si02
#       5
#     8   4   8   8   8
#     4  11  23  40  65  96 134 171 210 270 330 383
#     4  12  23  42  63  98 134 170 216 262 325 392
#     4  11  25  44  66  96 132 172 217 266 322 382
#     4  12  25  41  66  97 129 174 217 265 319 383
#     4  12  22  42  68  97 124 167 227 264 316 383
#
# _framework density 21.304075999999998
#
# number of rings (size 3 to 8) (size 9 to 14) (size 15 to 20)
#    0.000    0.444    6.667    3.000    0.000    0.444 
#    0.000    1.667    0.000    0.000    0.000    0.000 
#    0.000    0.000    0.000    0.000    0.000    0.000 
#
# Total GULP energy -100269.038133 kJ/mol
# GULP energy per Si atom -5570.502119 kJ/mol
# Density = 2.125559 g / cm^3
# Si number density = 21.304076 Si / 1000 Ang^3
#
#
#
# Elastic Constant Matrix: (Units=GPa)
#
#
# Indices 1 2 3 4 5 6 
#
# 1 98.9241 51.9754 26.5338 0.0000 0.8208 0.0000
# 2 51.9754 148.4333 53.5218 0.0000 -4.8449 0.0000
# 3 26.5338 53.5218 106.7903 0.0000 -18.6487 0.0000
# 4 0.0000 0.0000 0.0000 40.7934 0.0000 -5.0312
# 5 0.8208 -4.8449 -18.6487 0.0000 37.4339 0.0000
# 6 0.0000 0.0000 0.0000 -5.0312 0.0000 22.6534
#
#
#
# Elastic Compliance Matrix: (Units=1/GPa)
#
#
# Indices 1 2 3 4 5 6 
#
# 1 0.012570 -0.003943 -0.001407 0.000000 -0.001487 0.000000
# 2 -0.003943 0.009500 -0.003890 0.000000 -0.000622 0.000000
# 3 -0.001407 -0.003890 0.012684 0.000000 0.005846 0.000000
# 4 0.000000 0.000000 0.000000 0.025204 0.000000 0.005598
# 5 -0.001487 -0.000622 0.005846 0.000000 0.029578 0.000000
# 6 0.000000 0.000000 0.000000 0.005598 0.000000 0.045387
#
#
# Mechanical properties :
#
#
# Convention : Reuss Voigt Hill
#
# Bulk Modulus (GPa) = 61.44482 68.68997 65.06740
# Shear Modulus (GPa) = 31.48051 34.98391 33.23221
#
# Velocity S-wave (km/s) = 3.84822 4.05671 3.95384
# Velocity P-wave (km/s) = 6.97492 7.36581 7.17303
#
# Compressibility (1/GPa) = 0.01627476
#
# Stress axis : x y z
#
# Youngs Moduli (GPa) = 79.55449 105.26222 78.83708
#
# Poissons Ratio (x) = 0.41503 0.11091
# Poissons Ratio (y) = 0.31367 0.30670
# Poissons Ratio (z) = 0.11192 0.40950
#
# Static dielectric constant tensor:
#      x y z
#    x 2.366130 0.000000 0.051440 
#    y 0.000000 1.720180 0.000000 
#    z 0.051440 0.000000 1.853040 
# 
# From -- ./inp_files/15048.got.cif
#   From: 2010.05.17/outbox.cif.g08.bks.cpg/sg12_8_cif.got.tgz:15048.got - 2010.06.03 13:09:07.
