data_PCOD9221994
_publ_section_title
;
Structure prediction by ZEFSAII (Michael W. Deem and Ramdas Pophale) SiO2 
 PCOD9221994
Probable space group: C 2/M
;
_chemical_formula_sum "Si O2"
_cell_formula_units_Z 60
_cell_length_a 23.107904
_cell_length_b 28.052222
_cell_length_c 5.140687
_cell_angle_alpha 90.000000
_cell_angle_beta 52.688550
_cell_angle_gamma 90.000000
_cell_volume 2650.382529
_symmetry_space_group_name_H-M "C 2/M"
_symmetry_group_IT_number 12
_symmetry_cell_setting 'monoclinic'
loop_
_space_group_symop_operation_xyz
x,y,z
-x,y,-z
-x,-y,-z
x,-y,z
1/2+x,1/2+y,z
1/2-x,1/2+y,-z
1/2-x,1/2-y,-z
1/2+x,1/2-y,z
loop_
_atom_site_type_symbol
_atom_site_label
_atom_site_fract_x
_atom_site_fract_y
_atom_site_fract_z
Si Si1 0.853390 0.911886 0.762839
Si Si2 0.576082 0.750633 0.417074
Si Si3 0.669858 0.873592 0.518418
Si Si4 0.207360 0.205157 0.745842
Si Si5 0.223130 0.057287 0.516793
Si Si6 0.919032 0.639603 0.725490
Si Si7 0.083302 0.830105 0.721594
Si Si8 0.048165 0.000000 0.620315
O O1 0.787174 0.919080 0.739313
O O2 0.890309 0.861371 0.598087
O O3 0.905293 0.952626 0.511583
O O4 0.837257 0.926176 0.103637
O O5 0.500000 0.732416 0.500000
O O6 0.575430 0.806680 0.400790
O O7 0.576282 0.726631 0.695844
O O8 0.650743 0.730997 0.091866
O O9 0.731532 0.832018 0.316825
O O10 0.706244 0.920372 0.542186
O O11 0.632377 0.884394 0.347372
O O12 0.613595 0.857304 0.896483
O O13 0.250000 0.250000 0.500000
O O14 0.153401 0.171812 0.719104
O O15 0.222807 0.000000 0.499386
O O16 0.000000 0.618827 0.500000
O O17 0.000000 0.846996 0.000000
O O18 0.000000 0.000000 0.500000
O O19 0.000000 0.000000 0.000000
#
# Coordination Sequence:
#
# PCOD9221994 Si02
#       8
#     8   8   8   8   8   8   8   4
#     4  12  25  44  67  95 141 182 236 293 349 404
#     4  11  24  41  65  94 140 190 233 282 342 411
#     4  12  25  44  73 104 136 179 230 290 350 419
#     4  12  24  41  64  98 137 179 236 290 337 403
#     4  12  24  46  74 102 138 178 227 294 358 419
#     4  11  26  46  72 102 141 181 226 281 352 428
#     4  12  26  42  64  96 141 192 236 291 348 406
#     4  12  24  42  64  92 130 184 241 288 347 406
#
# _framework density 22.638241000000001
#
# number of rings (size 3 to 8) (size 9 to 14) (size 15 to 20)
#    0.000    0.267    5.333    4.000    1.867    1.600 
#    0.000    0.000    0.000    2.400    0.000    0.000 
#    0.000    0.000    0.000    0.000    0.000    0.000 
#
# Total GULP energy -167551.633342 kJ/mol
# GULP energy per Si atom -5585.054445 kJ/mol
# Density = 2.258672 g / cm^3
# Si number density = 22.638241 Si / 1000 Ang^3
#
#
#
# Elastic Constant Matrix: (Units=GPa)
#
#
# Indices 1 2 3 4 5 6 
#
# 1 111.6986 -3.9299 36.9949 0.0000 -16.9000 0.0000
# 2 -3.9299 81.8250 8.7911 0.0000 -7.2152 0.0000
# 3 36.9949 8.7911 97.3768 0.0000 -18.4673 0.0000
# 4 0.0000 0.0000 0.0000 23.4879 0.0000 2.8472
# 5 -16.9000 -7.2152 -18.4673 0.0000 36.5383 0.0000
# 6 0.0000 0.0000 0.0000 2.8472 0.0000 32.6069
#
#
#
# Elastic Compliance Matrix: (Units=1/GPa)
#
#
# Indices 1 2 3 4 5 6 
#
# 1 0.010673 0.001190 -0.003519 0.000000 0.003393 0.000000
# 2 0.001190 0.012617 -0.001122 0.000000 0.002475 0.000000
# 3 -0.003519 -0.001122 0.012561 0.000000 0.004499 0.000000
# 4 0.000000 0.000000 0.000000 0.043031 0.000000 -0.003757
# 5 0.003393 0.002475 0.004499 0.000000 0.031701 0.000000
# 6 0.000000 0.000000 0.000000 -0.003757 0.000000 0.030996
#
#
# Mechanical properties :
#
#
# Convention : Reuss Voigt Hill
#
# Bulk Modulus (GPa) = 34.54255 41.62363 38.08309
# Shear Modulus (GPa) = 31.61941 35.12956 33.37448
#
# Velocity S-wave (km/s) = 3.74133 3.94354 3.84377
# Velocity P-wave (km/s) = 5.82710 6.25793 6.04635
#
# Compressibility (1/GPa) = 0.02894981
#
# Stress axis : x y z
#
# Youngs Moduli (GPa) = 93.69097 79.25754 79.61240
#
# Poissons Ratio (x) = -0.09431 0.28015
# Poissons Ratio (y) = -0.11148 0.08931
# Poissons Ratio (z) = 0.32969 0.08891
#
# Static dielectric constant tensor:
#      x y z
#    x 2.016750 0.000000 -0.012800 
#    y 0.000000 1.806850 0.000000 
#    z -0.012800 0.000000 1.888930 
# 
# From -- ./inp_files/26684.got.cif
#   From: 2010.05.17/outbox.cif.g08.bks.cpg/sg12_14_cif.got.tgz:26684.got - 2010.06.03 13:09:07.
