data_PCOD9221503
_publ_section_title
;
Structure prediction by ZEFSAII (Michael W. Deem and Ramdas Pophale) SiO2 
 PCOD9221503
Probable space group: C 2/M
;
_chemical_formula_sum "Si O2"
_cell_formula_units_Z 40
_cell_length_a 11.778032
_cell_length_b 14.253170
_cell_length_c 15.508552
_cell_angle_alpha 90.000000
_cell_angle_beta 136.936280
_cell_angle_gamma 90.000000
_cell_volume 1777.690459
_symmetry_space_group_name_H-M "C 2/M"
_symmetry_group_IT_number 12
_symmetry_cell_setting 'monoclinic'
loop_
_space_group_symop_operation_xyz
x,y,z
-x,y,-z
-x,-y,-z
x,-y,z
1/2+x,1/2+y,z
1/2-x,1/2+y,-z
1/2-x,1/2-y,-z
1/2+x,1/2-y,z
loop_
_atom_site_type_symbol
_atom_site_label
_atom_site_fract_x
_atom_site_fract_y
_atom_site_fract_z
Si Si1 0.605874 0.392519 0.634814
Si Si2 0.000000 0.639987 0.500000
Si Si3 0.328634 0.332907 0.604793
Si Si4 0.464109 0.190933 0.814103
Si Si5 0.661715 0.110620 0.765024
Si Si6 0.000000 0.787894 0.000000
O O1 0.500000 0.341908 0.500000
O O2 0.635018 0.500000 0.625147
O O3 0.474869 0.387319 0.638690
O O4 0.788286 0.352061 0.746902
O O5 0.173951 0.606631 0.553112
O O6 0.082857 0.667381 0.640274
O O7 0.250000 0.250000 0.500000
O O8 0.415059 0.281797 0.732118
O O9 0.558636 0.127486 0.796337
O O10 0.557282 0.222660 0.951952
O O11 0.845838 0.149032 0.884429
O O12 0.658061 0.000000 0.741393
#
# Coordination Sequence:
#
# PCOD9221503 Si02
#       6
#     8   4   8   8   8   4
#     4  11  23  40  66 103 139 170 217 283 344 394
#     4  12  23  42  72 104 137 174 224 276 345 404
#     4  12  21  39  69 102 138 174 225 280 337 403
#     4  12  24  45  70  96 133 184 232 275 331 409
#     4  12  26  45  70 103 140 176 223 285 346 403
#     4  12  27  48  69  96 136 188 234 274 335 408
#
# _framework density 22.501106
#
# number of rings (size 3 to 8) (size 9 to 14) (size 15 to 20)
#    0.000    0.200    6.000    4.200    0.000    3.200 
#    0.000    4.000    0.000    0.000    0.000    0.000 
#    0.000    0.000    0.000    0.000    0.000    0.000 
#
# Total GULP energy -111484.785147 kJ/mol
# GULP energy per Si atom -5574.239257 kJ/mol
# Density = 2.244989 g / cm^3
# Si number density = 22.501106 Si / 1000 Ang^3
#
#
#
# Elastic Constant Matrix: (Units=GPa)
#
#
# Indices 1 2 3 4 5 6 
#
# 1 150.7129 17.5346 28.2883 0.0000 8.3508 0.0000
# 2 17.5346 67.0882 27.0033 0.0000 -2.2572 0.0000
# 3 28.2883 27.0033 117.5663 0.0000 -12.3944 0.0000
# 4 0.0000 0.0000 0.0000 14.9342 0.0000 -1.3299
# 5 8.3508 -2.2572 -12.3944 0.0000 49.3197 0.0000
# 6 0.0000 0.0000 0.0000 -1.3299 0.0000 3.2904
#
#
#
# Elastic Compliance Matrix: (Units=1/GPa)
#
#
# Indices 1 2 3 4 5 6 
#
# 1 0.007180 -0.001285 -0.001609 0.000000 -0.001679 0.000000
# 2 -0.001285 0.016656 -0.003506 0.000000 0.000099 0.000000
# 3 -0.001609 -0.003506 0.009974 0.000000 0.002619 0.000000
# 4 0.000000 0.000000 0.000000 0.069460 0.000000 0.028074
# 5 -0.001679 0.000099 0.002619 0.000000 0.021223 0.000000
# 6 0.000000 0.000000 0.000000 0.028074 0.000000 0.315263
#
#
# Mechanical properties :
#
#
# Convention : Reuss Voigt Hill
#
# Bulk Modulus (GPa) = 47.59839 53.44663 50.52251
# Shear Modulus (GPa) = 10.87995 31.01161 20.94578
#
# Velocity S-wave (km/s) = 2.20132 3.71647 3.05434
# Velocity P-wave (km/s) = 5.25935 6.49775 5.91107
#
# Compressibility (1/GPa) = 0.02100911
#
# Stress axis : x y z
#
# Youngs Moduli (GPa) = 139.28033 60.03773 100.25632
#
# Poissons Ratio (x) = 0.07716 0.16135
# Poissons Ratio (y) = 0.17901 0.35150
# Poissons Ratio (z) = 0.22415 0.21049
#
# Static dielectric constant tensor:
#      x y z
#    x 1.893340 0.000000 -0.035540 
#    y 0.000000 1.978120 0.000000 
#    z -0.035540 0.000000 1.825130 
# 
# From -- ./inp_files/206413.got.cif
#   From: 2010.05.17/outbox.cif.g08.bks.cpg/sg12_104_cif.got.tgz:206413.got - 2010.06.03 13:09:07.
