data_PCOD9221881
_publ_section_title
;
Structure prediction by ZEFSAII (Michael W. Deem and Ramdas Pophale) SiO2 
 PCOD9221881
Probable space group: C 2/M
;
_chemical_formula_sum "Si O2"
_cell_formula_units_Z 40
_cell_length_a 30.755277
_cell_length_b 9.705155
_cell_length_c 15.034788
_cell_angle_alpha 90.000000
_cell_angle_beta 23.402182
_cell_angle_gamma 90.000000
_cell_volume 1782.419421
_symmetry_space_group_name_H-M "C 2/M"
_symmetry_group_IT_number 12
_symmetry_cell_setting 'monoclinic'
loop_
_space_group_symop_operation_xyz
x,y,z
-x,y,-z
-x,-y,-z
x,-y,z
1/2+x,1/2+y,z
1/2-x,1/2+y,-z
1/2-x,1/2-y,-z
1/2+x,1/2-y,z
loop_
_atom_site_type_symbol
_atom_site_label
_atom_site_fract_x
_atom_site_fract_y
_atom_site_fract_z
Si Si1 0.574259 0.212376 0.182345
Si Si2 0.430501 0.500000 0.222456
Si Si3 0.661852 0.000000 0.706461
Si Si4 0.681799 0.000000 0.110356
Si Si5 0.889185 0.500000 0.554708
Si Si6 0.076176 0.000000 0.271853
Si Si7 0.909114 0.758928 0.047636
Si Si8 0.741637 0.000000 0.372339
O O1 0.649055 0.130893 0.112481
O O2 0.459444 0.133976 0.400041
O O3 0.562376 0.366876 0.237104
O O4 0.615886 0.203736 0.004030
O O5 0.296948 0.500000 0.470014
O O6 0.500000 0.500000 0.000000
O O7 0.480300 0.354810 0.167837
O O8 0.605612 0.133627 0.856324
O O9 0.650095 0.000000 0.620961
O O10 0.624512 0.000000 0.313965
O O11 0.805663 0.000000 0.905856
O O12 0.790233 0.500000 0.671642
O O13 0.000000 0.000000 0.500000
O O14 0.814874 0.866345 0.250240
#
# Coordination Sequence:
#
# PCOD9221881 Si02
#       8
#     8   4   4   4   4   4   8   4
#     4  11  24  44  66 103 136 175 233 284 351 428
#     4  11  25  46  73 102 148 191 239 309 357 425
#     4  12  25  48  76 101 147 194 243 296 372 422
#     4  11  23  46  68  92 140 180 225 281 348 429
#     4  11  24  43  71  96 135 185 226 286 356 419
#     4  12  24  41  69 100 131 181 231 286 352 414
#     4  11  25  46  69 107 143 184 244 295 354 436
#     4  11  25  45  69 100 140 185 232 296 357 418
#
# _framework density 22.441406000000001
#
# number of rings (size 3 to 8) (size 9 to 14) (size 15 to 20)
#    0.000    0.800    2.000    7.200    2.800    1.600 
#    3.600    1.500    0.000    0.000    0.000    0.000 
#    0.000    0.000    0.000    0.000    0.000    0.000 
#
# Total GULP energy -111816.324547 kJ/mol
# GULP energy per Si atom -5590.816227 kJ/mol
# Density = 2.239033 g / cm^3
# Si number density = 22.441406 Si / 1000 Ang^3
#
#
#
# Elastic Constant Matrix: (Units=GPa)
#
#
# Indices 1 2 3 4 5 6 
#
# 1 107.0341 46.1289 25.8640 0.0000 29.6606 0.0000
# 2 46.1289 142.0290 41.2032 0.0000 1.3542 0.0000
# 3 25.8640 41.2032 84.5798 0.0000 18.4134 0.0000
# 4 0.0000 0.0000 0.0000 10.7221 0.0000 31.1835
# 5 29.6606 1.3542 18.4134 0.0000 57.0379 0.0000
# 6 0.0000 0.0000 0.0000 31.1835 0.0000 9.3276
#
#
#
# Elastic Compliance Matrix: (Units=1/GPa)
#
#
# Indices 1 2 3 4 5 6 
#
# 1 0.013000 -0.003978 -0.000631 0.000000 -0.006462 0.000000
# 2 -0.003978 0.009491 -0.004096 0.000000 0.003166 0.000000
# 3 -0.000631 -0.004096 0.014971 0.000000 -0.004408 0.000000
# 4 0.000000 0.000000 0.000000 -0.010692 0.000000 0.035744
# 5 -0.006462 0.003166 -0.004408 0.000000 0.022240 0.000000
# 6 0.000000 0.000000 0.000000 0.035744 0.000000 -0.012290
#
#
# Mechanical properties :
#
#
# Convention : Reuss Voigt Hill
#
# Bulk Modulus (GPa) = 49.86844 62.22614 56.04729
# Shear Modulus (GPa) = 82.21732 30.11399 56.16565
#
# Velocity S-wave (km/s) = 6.05937 3.66716 5.00820
# Velocity P-wave (km/s) = 8.43946 6.76160 7.64669
#
# Compressibility (1/GPa) = 0.02005276
#
# Stress axis : x y z
#
# Youngs Moduli (GPa) = 76.92117 105.36429 66.79502
#
# Poissons Ratio (x) = 0.41911 0.04214
# Poissons Ratio (y) = 0.30597 0.27361
# Poissons Ratio (z) = 0.04852 0.43160
#
# Static dielectric constant tensor:
#      x y z
#    x 1.797780 0.000000 -0.085760 
#    y 0.000000 1.834680 0.000000 
#    z -0.085760 0.000000 1.775830 
# 
# From -- ./inp_files/249563.got.cif
#   From: 2010.05.17/outbox.cif.g08.bks.cpg/sg12_125_cif.got.tgz:249563.got - 2010.06.03 13:09:07.
