data_PCOD9221990
_publ_section_title
;
Structure prediction by ZEFSAII (Michael W. Deem and Ramdas Pophale) SiO2 
 PCOD9221990
Probable space group: C 2/M
;
_chemical_formula_sum "Si O2"
_cell_formula_units_Z 40
_cell_length_a 24.839737
_cell_length_b 15.154182
_cell_length_c 4.981531
_cell_angle_alpha 90.000000
_cell_angle_beta 73.759483
_cell_angle_gamma 90.000000
_cell_volume 1800.350485
_symmetry_space_group_name_H-M "C 2/M"
_symmetry_group_IT_number 12
_symmetry_cell_setting 'monoclinic'
loop_
_space_group_symop_operation_xyz
x,y,z
-x,y,-z
-x,-y,-z
x,-y,z
1/2+x,1/2+y,z
1/2-x,1/2+y,-z
1/2-x,1/2-y,-z
1/2+x,1/2-y,z
loop_
_atom_site_type_symbol
_atom_site_label
_atom_site_fract_x
_atom_site_fract_y
_atom_site_fract_z
Si Si1 0.391852 0.168021 0.945636
Si Si2 0.304208 0.500000 0.703535
Si Si3 0.383617 0.500000 0.090159
Si Si4 0.948961 0.600208 0.395728
Si Si5 0.762929 0.313484 0.233589
Si Si6 0.040001 0.162907 0.189906
O O1 0.430812 0.141865 0.142548
O O2 0.328926 0.167566 0.133189
O O3 0.399008 0.104801 0.680523
O O4 0.414024 0.262316 0.811289
O O5 0.331094 0.500000 0.961201
O O6 0.269801 0.407746 0.715924
O O7 0.356477 0.500000 0.422591
O O8 0.423458 0.582166 0.970475
O O9 0.964779 0.500000 0.315779
O O10 0.000000 0.640911 0.500000
O O11 0.750000 0.250000 0.500000
O O12 0.750000 0.250000 0.000000
O O13 0.000000 0.142905 0.500000
O O14 0.000000 0.190574 0.000000
#
# Coordination Sequence:
#
# PCOD9221990 Si02
#       6
#     8   4   4   8   8   8
#     4  12  24  42  69  96 139 177 234 281 349 411
#     4  12  26  47  76 102 145 190 238 302 363 412
#     4  12  26  47  72 100 142 180 235 294 363 418
#     4  11  24  41  64  96 137 177 222 273 338 412
#     4  12  27  48  72 105 141 187 245 300 359 428
#     4  12  24  42  70 103 139 179 228 284 355 431
#
# _framework density 22.217897000000001
#
# number of rings (size 3 to 8) (size 9 to 14) (size 15 to 20)
#    0.000    0.200    0.000   10.800    2.800    1.600 
#    0.000    0.000    0.000    0.000    0.000    0.000 
#    0.000    0.000    0.000    0.000    0.000    0.000 
#
# Total GULP energy -111904.876332 kJ/mol
# GULP energy per Si atom -5595.243817 kJ/mol
# Density = 2.216733 g / cm^3
# Si number density = 22.217897 Si / 1000 Ang^3
#
#
#
# Elastic Constant Matrix: (Units=GPa)
#
#
# Indices 1 2 3 4 5 6 
#
# 1 59.9631 19.7835 6.1004 0.0000 -9.1535 0.0000
# 2 19.7835 119.9391 23.0278 0.0000 -10.9217 0.0000
# 3 6.1004 23.0278 136.2755 0.0000 -2.6969 0.0000
# 4 0.0000 0.0000 0.0000 38.6724 0.0000 -4.7034
# 5 -9.1535 -10.9217 -2.6969 0.0000 50.7057 0.0000
# 6 0.0000 0.0000 0.0000 -4.7034 0.0000 16.0967
#
#
#
# Elastic Compliance Matrix: (Units=1/GPa)
#
#
# Indices 1 2 3 4 5 6 
#
# 1 0.017994 -0.002668 -0.000302 0.000000 0.002657 0.000000
# 2 -0.002668 0.009176 -0.001403 0.000000 0.001420 0.000000
# 3 -0.000302 -0.001403 0.007590 0.000000 0.000047 0.000000
# 4 0.000000 0.000000 0.000000 0.026811 0.000000 0.007834
# 5 0.002657 0.001420 0.000047 0.000000 0.020510 0.000000
# 6 0.000000 0.000000 0.000000 0.007834 0.000000 0.064414
#
#
# Mechanical properties :
#
#
# Convention : Reuss Voigt Hill
#
# Bulk Modulus (GPa) = 38.44184 46.00011 42.22097
# Shear Modulus (GPa) = 30.50426 38.91267 34.70846
#
# Velocity S-wave (km/s) = 3.70937 4.18953 3.95674
# Velocity P-wave (km/s) = 5.97374 6.64469 6.31813
#
# Compressibility (1/GPa) = 0.02601332
#
# Stress axis : x y z
#
# Youngs Moduli (GPa) = 55.57538 108.97569 131.75888
#
# Poissons Ratio (x) = 0.29075 0.03980
# Poissons Ratio (y) = 0.14827 0.18487
# Poissons Ratio (z) = 0.01679 0.15290
#
# Static dielectric constant tensor:
#      x y z
#    x 1.826920 0.000000 -0.011360 
#    y 0.000000 1.849980 0.000000 
#    z -0.011360 0.000000 1.806030 
# 
# From -- ./inp_files/24230.got.cif
#   From: 2010.05.17/outbox.cif.g08.bks.cpg/sg12_13_cif.got.tgz:24230.got - 2010.06.03 13:09:07.
