data_PCOD9221770
_publ_section_title
;
Structure prediction by ZEFSAII (Michael W. Deem and Ramdas Pophale) SiO2 
 PCOD9221770
Probable space group: C 2/M
;
_chemical_formula_sum "Si O2"
_cell_formula_units_Z 44
_cell_length_a 11.390902
_cell_length_b 24.678774
_cell_length_c 12.403967
_cell_angle_alpha 90.000000
_cell_angle_beta 35.275393
_cell_angle_gamma 90.000000
_cell_volume 2013.722385
_symmetry_space_group_name_H-M "C 2/M"
_symmetry_group_IT_number 12
_symmetry_cell_setting 'monoclinic'
loop_
_space_group_symop_operation_xyz
x,y,z
-x,y,-z
-x,-y,-z
x,-y,z
1/2+x,1/2+y,z
1/2-x,1/2+y,-z
1/2-x,1/2-y,-z
1/2+x,1/2-y,z
loop_
_atom_site_type_symbol
_atom_site_label
_atom_site_fract_x
_atom_site_fract_y
_atom_site_fract_z
Si Si1 0.762373 0.181476 0.182594
Si Si2 0.465215 0.892960 0.792627
Si Si3 0.350988 0.283188 0.823191
Si Si4 0.330564 0.376305 0.351314
Si Si5 0.624707 0.000000 0.245909
Si Si6 0.668329 0.500000 0.688410
Si Si7 0.000000 0.641470 0.000000
O O1 0.707193 0.148612 0.116219
O O2 0.615167 0.233531 0.286619
O O3 0.744861 0.141455 0.297990
O O4 0.000000 0.198315 0.000000
O O5 0.653590 0.880502 0.572811
O O6 0.367024 0.949000 0.835600
O O7 0.531046 0.890838 0.866514
O O8 0.531051 0.324527 0.718399
O O9 0.250000 0.250000 0.000000
O O10 0.188475 0.320635 0.885809
O O11 0.414827 0.439196 0.280178
O O12 0.397965 0.000000 0.467317
O O13 0.789990 0.000000 0.215395
#
# Coordination Sequence:
#
# PCOD9221770 Si02
#       7
#     8   8   8   8   4   4   4
#     4  12  22  41  66  96 136 174 214 281 335 390
#     4  11  24  41  68  98 134 175 228 275 335 410
#     4  12  23  44  65  91 140 183 213 273 343 400
#     4  11  23  43  69 105 128 173 235 278 336 394
#     4   9  18  39  65  99 131 174 209 286 347 376
#     4   9  18  38  71  98 137 162 218 295 329 388
#     4  12  24  45  60  90 136 183 216 270 342 396
#
# _framework density 21.850082
#
# number of rings (size 3 to 8) (size 9 to 14) (size 15 to 20)
#    0.000    0.909    6.364    0.545    0.000    1.818 
#    3.273    5.455    0.000    3.273    0.000    0.000 
#    0.000    0.000    0.000    0.000    0.000    0.000 
#
# Total GULP energy -122683.228042 kJ/mol
# GULP energy per Si atom -5576.510366 kJ/mol
# Density = 2.180035 g / cm^3
# Si number density = 21.850082 Si / 1000 Ang^3
#
#
#
# Elastic Constant Matrix: (Units=GPa)
#
#
# Indices 1 2 3 4 5 6 
#
# 1 114.9674 45.0581 25.2665 0.0000 17.8475 0.0000
# 2 45.0581 183.4945 30.4667 0.0000 -0.2711 0.0000
# 3 25.2665 30.4667 72.9367 0.0000 13.7118 0.0000
# 4 0.0000 0.0000 0.0000 30.3949 0.0000 -8.1693
# 5 17.8475 -0.2711 13.7118 0.0000 38.5850 0.0000
# 6 0.0000 0.0000 0.0000 -8.1693 0.0000 91.4013
#
#
#
# Elastic Compliance Matrix: (Units=1/GPa)
#
#
# Indices 1 2 3 4 5 6 
#
# 1 0.010693 -0.002311 -0.001935 0.000000 -0.004274 0.000000
# 2 -0.002311 0.006390 -0.002227 0.000000 0.001905 0.000000
# 3 -0.001935 -0.002227 0.016230 0.000000 -0.004888 0.000000
# 4 0.000000 0.000000 0.000000 0.033710 0.000000 0.003013
# 5 -0.004274 0.001905 -0.004888 0.000000 0.029644 0.000000
# 6 0.000000 0.000000 0.000000 0.003013 0.000000 0.011210
#
#
# Mechanical properties :
#
#
# Convention : Reuss Voigt Hill
#
# Bulk Modulus (GPa) = 49.09937 63.66458 56.38198
# Shear Modulus (GPa) = 39.18156 50.11673 44.64914
#
# Velocity S-wave (km/s) = 4.23921 4.79442 4.52534
# Velocity P-wave (km/s) = 6.81770 7.73620 7.29143
#
# Compressibility (1/GPa) = 0.02036686
#
# Stress axis : x y z
#
# Youngs Moduli (GPa) = 93.52288 156.50263 61.61414
#
# Poissons Ratio (x) = 0.36161 0.11925
# Poissons Ratio (y) = 0.21609 0.13720
# Poissons Ratio (z) = 0.18100 0.34849
#
# Static dielectric constant tensor:
#      x y z
#    x 1.813840 0.000000 -0.020660 
#    y 0.000000 1.891110 0.000000 
#    z -0.020660 0.000000 1.915680 
# 
# From -- ./inp_files/135816.got.cif
#   From: 2010.05.17/outbox.cif.g08.bks.cpg/sg12_68_cif.got.tgz:135816.got - 2010.06.03 13:09:07.
