data_PCOD9221459
_publ_section_title
;
Structure prediction by ZEFSAII (Michael W. Deem and Ramdas Pophale) SiO2 
 PCOD9221459
Probable space group: C 2/M
;
_chemical_formula_sum "Si O2"
_cell_formula_units_Z 64
_cell_length_a 20.939722
_cell_length_b 19.058375
_cell_length_c 11.465816
_cell_angle_alpha 90.000000
_cell_angle_beta 42.729055
_cell_angle_gamma 90.000000
_cell_volume 3104.790132
_symmetry_space_group_name_H-M "C 2/M"
_symmetry_group_IT_number 12
_symmetry_cell_setting 'monoclinic'
loop_
_space_group_symop_operation_xyz
x,y,z
-x,y,-z
-x,-y,-z
x,-y,z
1/2+x,1/2+y,z
1/2-x,1/2+y,-z
1/2-x,1/2-y,-z
1/2+x,1/2-y,z
loop_
_atom_site_type_symbol
_atom_site_label
_atom_site_fract_x
_atom_site_fract_y
_atom_site_fract_z
Si Si1 0.866097 0.724304 0.625239
Si Si2 0.706887 0.080758 0.806210
Si Si3 0.793140 0.274288 0.320809
Si Si4 0.483437 0.076538 0.781026
Si Si5 0.981874 0.703239 0.144135
Si Si6 0.142681 0.422031 0.276013
Si Si7 0.553926 0.717171 0.253698
Si Si8 0.669122 0.581336 0.132435
O O1 0.766612 0.742112 0.703234
O O2 0.875765 0.640895 0.612581
O O3 0.877417 0.744770 0.746072
O O4 0.949029 0.766218 0.445530
O O5 0.708698 0.142488 0.708302
O O6 0.788552 0.093427 0.794122
O O7 0.715668 0.000000 0.752327
O O8 0.609790 0.084150 0.011147
O O9 0.750000 0.250000 0.500000
O O10 0.899783 0.249492 0.200079
O O11 0.547669 0.141865 0.728109
O O12 0.438158 0.079557 0.714040
O O13 0.525092 0.000000 0.745801
O O14 0.053668 0.747851 0.125991
O O15 0.000000 0.662359 0.000000
O O16 0.143501 0.500000 0.326762
O O17 0.241955 0.410990 0.074906
O O18 0.588218 0.637144 0.210973
O O19 0.638551 0.500000 0.167473
#
# Coordination Sequence:
#
# PCOD9221459 Si02
#       8
#     8   8   8   8   8   8   8   8
#     4  11  23  40  62  86 125 167 201 250 306 370
#     4   9  18  36  61  90 119 154 199 252 313 364
#     4  12  24  40  56  85 130 165 196 250 307 373
#     4   9  18  35  59  91 124 152 196 253 303 362
#     4  12  24  37  58  92 124 162 204 249 307 359
#     4   9  19  37  64  94 124 158 205 255 305 367
#     4  11  23  40  61  91 124 158 211 253 305 369
#     4   9  19  37  66  96 118 152 210 270 308 345
#
# _framework density 20.613309000000001
#
# number of rings (size 3 to 8) (size 9 to 14) (size 15 to 20)
#    0.000    1.750    5.000    1.500    1.750    1.250 
#    0.000    4.375    0.000    1.125    0.000    0.000 
#    0.000    0.000    0.000    0.000    0.000    0.000 
#
# Total GULP energy -178346.927705 kJ/mol
# GULP energy per Si atom -5573.341491 kJ/mol
# Density = 2.056639 g / cm^3
# Si number density = 20.613309 Si / 1000 Ang^3
#
#
#
# Elastic Constant Matrix: (Units=GPa)
#
#
# Indices 1 2 3 4 5 6 
#
# 1 143.2724 61.8225 30.1057 0.0000 9.2782 0.0000
# 2 61.8225 145.8606 47.0429 0.0000 5.8895 0.0000
# 3 30.1057 47.0429 52.3817 0.0000 14.0743 0.0000
# 4 0.0000 0.0000 0.0000 23.3694 0.0000 3.6910
# 5 9.2782 5.8895 14.0743 0.0000 27.3394 0.0000
# 6 0.0000 0.0000 0.0000 3.6910 0.0000 29.5616
#
#
#
# Elastic Compliance Matrix: (Units=1/GPa)
#
#
# Indices 1 2 3 4 5 6 
#
# 1 0.008789 -0.003036 -0.001972 0.000000 -0.001314 0.000000
# 2 -0.003036 0.010884 -0.008909 0.000000 0.003272 0.000000
# 3 -0.001972 -0.008909 0.031948 0.000000 -0.013859 0.000000
# 4 0.000000 0.000000 0.000000 0.043652 0.000000 -0.005450
# 5 -0.001314 0.003272 -0.013859 0.000000 0.043453 0.000000
# 6 0.000000 0.000000 0.000000 -0.005450 0.000000 0.034508
#
#
# Mechanical properties :
#
#
# Convention : Reuss Voigt Hill
#
# Bulk Modulus (GPa) = 42.03799 68.82857 55.43328
# Shear Modulus (GPa) = 23.92383 29.55698 26.74041
#
# Velocity S-wave (km/s) = 3.41046 3.79077 3.60563
# Velocity P-wave (km/s) = 5.99551 7.25415 6.65466
#
# Compressibility (1/GPa) = 0.02378801
#
# Stress axis : x y z
#
# Youngs Moduli (GPa) = 113.77478 91.87878 31.30077
#
# Poissons Ratio (x) = 0.27898 0.06171
# Poissons Ratio (y) = 0.34546 0.27885
# Poissons Ratio (z) = 0.22432 0.81851
#
# Static dielectric constant tensor:
#      x y z
#    x 1.794440 0.000000 -0.091660 
#    y 0.000000 1.724610 0.000000 
#    z -0.091660 0.000000 1.973810 
# 
# From -- ./inp_files/168780.got.cif
#   From: 2010.05.17/outbox.cif.g08.bks.cpg/sg12_85_cif.got.tgz:168780.got - 2010.06.03 13:09:07.
