data_PCOD9221661
_publ_section_title
;
Structure prediction by ZEFSAII (Michael W. Deem and Ramdas Pophale) SiO2 
 PCOD9221661
Probable space group: C 2/M
;
_chemical_formula_sum "Si O2"
_cell_formula_units_Z 32
_cell_length_a 6.970937
_cell_length_b 13.774129
_cell_length_c 11.688562
_cell_angle_alpha 90.000000
_cell_angle_beta 80.552442
_cell_angle_gamma 90.000000
_cell_volume 1107.096337
_symmetry_space_group_name_H-M "C 2/M"
_symmetry_group_IT_number 12
_symmetry_cell_setting 'monoclinic'
loop_
_space_group_symop_operation_xyz
x,y,z
-x,y,-z
-x,-y,-z
x,-y,z
1/2+x,1/2+y,z
1/2-x,1/2+y,-z
1/2-x,1/2-y,-z
1/2+x,1/2-y,z
loop_
_atom_site_type_symbol
_atom_site_label
_atom_site_fract_x
_atom_site_fract_y
_atom_site_fract_z
Si Si1 0.908201 0.893157 0.645341
Si Si2 0.329380 0.171439 0.608266
Si Si3 0.120942 0.639894 0.137196
Si Si4 0.314870 0.367817 0.902281
O O1 0.128503 0.872881 0.582197
O O2 0.803132 0.788056 0.635985
O O3 0.932889 0.901867 0.780991
O O4 0.832259 0.000000 0.618368
O O5 0.500000 0.156934 0.500000
O O6 0.369036 0.125682 0.728560
O O7 0.133776 0.754271 0.108794
O O8 0.906687 0.611205 0.118056
O O9 0.293990 0.602476 0.037567
#
# Coordination Sequence:
#
# PCOD9221661 Si02
#       4
#     8   8   8   8
#     4  11  24  42  66  96 130 171 219 269 325 389
#     4  11  23  42  65  94 133 174 217 266 323 388
#     4   9  17  33  60  88 125 168 205 261 322 375
#     4   9  17  33  59  91 123 163 210 260 325 379
#
# _framework density 28.904437999999999
#
# number of rings (size 3 to 8) (size 9 to 14) (size 15 to 20)
#    0.000    2.000    0.000    6.750    0.000    4.000 
#    0.000   10.000    0.000    0.000    0.000    0.000 
#    0.000    0.000    0.000    0.000    0.000    0.000 
#
# Total GULP energy -89499.034852 kJ/mol
# GULP energy per Si atom -5593.689678 kJ/mol
# Density = 2.883865 g / cm^3
# Si number density = 28.904438 Si / 1000 Ang^3
#
#
#
# Elastic Constant Matrix: (Units=GPa)
#
#
# Indices 1 2 3 4 5 6 
#
# 1 82.5198 -0.8907 26.7504 0.0000 -12.6694 0.0000
# 2 -0.8907 194.2343 8.9619 0.0000 -8.5139 0.0000
# 3 26.7504 8.9619 212.8302 0.0000 -15.3696 0.0000
# 4 0.0000 0.0000 0.0000 -21.0199 0.0000 17.2244
# 5 -12.6694 -8.5139 -15.3696 0.0000 60.4847 0.0000
# 6 0.0000 0.0000 0.0000 17.2244 0.0000 -10.8124
#
#
#
# Elastic Compliance Matrix: (Units=1/GPa)
#
#
# Indices 1 2 3 4 5 6 
#
# 1 0.012961 0.000231 -0.001467 0.000000 0.002375 0.000000
# 2 0.000231 0.005190 -0.000195 0.000000 0.000730 0.000000
# 3 -0.001467 -0.000195 0.004958 0.000000 0.000925 0.000000
# 4 0.000000 0.000000 0.000000 0.155786 0.000000 0.248171
# 5 0.002375 0.000730 0.000925 0.000000 0.017368 0.000000
# 6 0.000000 0.000000 0.000000 0.248171 0.000000 0.302857
#
#
# Mechanical properties :
#
#
# Convention : Reuss Voigt Hill
#
# Bulk Modulus (GPa) = 49.38898 62.13639 55.76269
# Shear Modulus (GPa) = 9.82837 36.04799 22.93818
#
# Velocity S-wave (km/s) = 1.84599 3.53532 2.82012
# Velocity P-wave (km/s) = 4.65485 6.18131 5.47157
#
# Compressibility (1/GPa) = 0.02024743
#
# Stress axis : x y z
#
# Youngs Moduli (GPa) = 77.15439 192.66141 201.69344
#
# Poissons Ratio (x) = -0.04455 0.29595
# Poissons Ratio (y) = -0.01784 0.03932
# Poissons Ratio (z) = 0.11321 0.03756
#
# Static dielectric constant tensor:
#      x y z
#    x 2.274070 0.000000 0.052010 
#    y 0.000000 2.302580 0.000000 
#    z 0.052010 0.000000 2.380280 
# 
# From -- ./inp_files/193888.got.cif
#   From: 2010.05.17/outbox.cif.g08.bks.cpg/sg12_97_cif.got.tgz:193888.got - 2010.06.03 13:09:07.
