data_PCOD9221288
_publ_section_title
;
Structure prediction by ZEFSAII (Michael W. Deem and Ramdas Pophale) SiO2 
 PCOD9221288
Probable space group: C 2/M
;
_chemical_formula_sum "Si O2"
_cell_formula_units_Z 48
_cell_length_a 9.109859
_cell_length_b 22.461237
_cell_length_c 12.457830
_cell_angle_alpha 90.000000
_cell_angle_beta 95.315834
_cell_angle_gamma 90.000000
_cell_volume 2538.141643
_symmetry_space_group_name_H-M "C 2/M"
_symmetry_group_IT_number 12
_symmetry_cell_setting 'monoclinic'
loop_
_space_group_symop_operation_xyz
x,y,z
-x,y,-z
-x,-y,-z
x,-y,z
1/2+x,1/2+y,z
1/2-x,1/2+y,-z
1/2-x,1/2-y,-z
1/2+x,1/2-y,z
loop_
_atom_site_type_symbol
_atom_site_label
_atom_site_fract_x
_atom_site_fract_y
_atom_site_fract_z
Si Si1 0.828309 0.066319 0.507361
Si Si2 0.332744 0.429194 0.857169
Si Si3 0.690721 0.882329 0.305349
Si Si4 0.147541 0.359422 0.670170
Si Si5 0.680871 0.429918 0.892420
Si Si6 0.141003 0.229345 0.583783
O O1 0.760348 0.066876 0.384365
O O2 0.733562 0.112099 0.573264
O O3 0.000000 0.080801 0.500000
O O4 0.819688 0.000000 0.555431
O O5 0.301756 0.500000 0.836056
O O6 0.241220 0.385530 0.775294
O O7 0.508218 0.420385 0.851974
O O8 0.301378 0.416503 0.980413
O O9 0.520723 0.879620 0.327097
O O10 0.717058 0.894596 0.182475
O O11 0.785557 0.824394 0.346498
O O12 0.129597 0.288176 0.656850
O O13 0.710273 0.500000 0.881650
O O14 0.250000 0.250000 0.500000
O O15 0.000000 0.214290 0.500000
#
# Coordination Sequence:
#
# PCOD9221288 Si02
#       6
#     8   8   8   8   8   8
#     4  11  23  37  56  84 118 156 196 240 297 363
#     4   9  20  40  64  89 121 160 201 244 293 358
#     4  12  24  37  60  89 119 155 198 249 302 357
#     4  12  24  38  59  90 119 152 200 249 303 354
#     4   9  20  40  64  90 120 160 202 240 296 361
#     4  12  24  43  61  85 120 164 204 244 300 362
#
# _framework density 18.911473000000001
#
# number of rings (size 3 to 8) (size 9 to 14) (size 15 to 20)
#    0.000    1.167    3.333    4.000    2.333    6.667 
#    0.000    2.500    0.000    0.000    0.000    0.000 
#    0.000    0.000    0.000    0.000    0.000    0.000 
#
# Total GULP energy -133891.596210 kJ/mol
# GULP energy per Si atom -5578.816509 kJ/mol
# Density = 1.886843 g / cm^3
# Si number density = 18.911473 Si / 1000 Ang^3
#
#
#
# Elastic Constant Matrix: (Units=GPa)
#
#
# Indices 1 2 3 4 5 6 
#
# 1 67.4817 25.5420 25.5076 0.0000 -14.6507 0.0000
# 2 25.5420 97.3155 30.3100 0.0000 1.0750 0.0000
# 3 25.5076 30.3100 74.7241 0.0000 -3.5825 0.0000
# 4 0.0000 0.0000 0.0000 -144.1078 0.0000 -89.2831
# 5 -14.6507 1.0750 -3.5825 0.0000 35.3949 0.0000
# 6 0.0000 0.0000 0.0000 -89.2831 0.0000 -31.5694
#
#
#
# Elastic Compliance Matrix: (Units=1/GPa)
#
#
# Indices 1 2 3 4 5 6 
#
# 1 0.019772 -0.003766 -0.004847 0.000000 0.007808 0.000000
# 2 -0.003766 0.012504 -0.003898 0.000000 -0.002333 0.000000
# 3 -0.004847 -0.003898 0.016609 0.000000 -0.000207 0.000000
# 4 0.000000 0.000000 0.000000 0.009225 0.000000 -0.026090
# 5 0.007808 -0.002333 -0.000207 0.000000 0.031534 0.000000
# 6 0.000000 0.000000 0.000000 -0.026090 0.000000 0.042111
#
#
# Mechanical properties :
#
#
# Convention : Reuss Voigt Hill
#
# Bulk Modulus (GPa) = 41.90891 44.69337 43.30114
# Shear Modulus (GPa) = 30.35236 -17.51234 6.42001
#
# Velocity S-wave (km/s) = 4.01055 -3.04635 1.84449
# Velocity P-wave (km/s) = 6.60717 3.36312 5.24239
#
# Compressibility (1/GPa) = 0.02386127
#
# Stress axis : x y z
#
# Youngs Moduli (GPa) = 50.57771 79.97293 60.20986
#
# Poissons Ratio (x) = 0.30117 0.29186
# Poissons Ratio (y) = 0.19047 0.23472
# Poissons Ratio (z) = 0.24517 0.31176
#
# Static dielectric constant tensor:
#      x y z
#    x 1.665730 0.000000 -0.026390 
#    y 0.000000 1.743350 0.000000 
#    z -0.026390 0.000000 1.648740 
# 
# From -- ./inp_files/121940.got.cif
#   From: 2010.05.17/outbox.cif.g08.bks.cpg/sg12_61_cif.got.tgz:121940.got - 2010.06.03 13:09:07.
