data_PCOD9221030
_publ_section_title
;
Structure prediction by ZEFSAII (Michael W. Deem and Ramdas Pophale) SiO2 
 PCOD9221030
Probable space group: C 2/M
;
_chemical_formula_sum "Si O2"
_cell_formula_units_Z 44
_cell_length_a 21.904606
_cell_length_b 17.839571
_cell_length_c 13.820540
_cell_angle_alpha 90.000000
_cell_angle_beta 157.363428
_cell_angle_gamma 90.000000
_cell_volume 2078.621051
_symmetry_space_group_name_H-M "C 2/M"
_symmetry_group_IT_number 12
_symmetry_cell_setting 'monoclinic'
loop_
_space_group_symop_operation_xyz
x,y,z
-x,y,-z
-x,-y,-z
x,-y,z
1/2+x,1/2+y,z
1/2-x,1/2+y,-z
1/2-x,1/2-y,-z
1/2+x,1/2-y,z
loop_
_atom_site_type_symbol
_atom_site_label
_atom_site_fract_x
_atom_site_fract_y
_atom_site_fract_z
Si Si1 0.000000 0.365765 0.500000
Si Si2 0.572966 0.000000 0.257274
Si Si3 0.119601 0.645848 0.095686
Si Si4 0.044201 0.500000 0.713104
Si Si5 0.943668 0.000000 0.807980
Si Si6 0.206504 0.241527 0.050647
Si Si7 0.537591 0.380219 0.316117
Si Si8 0.100032 0.000000 0.741524
O O1 0.970178 0.424243 0.369547
O O2 0.847631 0.313068 0.294250
O O3 0.578950 0.000000 0.381862
O O4 0.758362 0.000000 0.506744
O O5 0.478631 0.072752 0.082158
O O6 0.180000 0.690860 0.088289
O O7 0.279603 0.623559 0.386395
O O8 0.000000 0.684381 0.000000
O O9 0.216369 0.500000 0.012657
O O10 0.001938 0.925568 0.839049
O O11 0.000000 0.000000 0.000000
O O12 0.250000 0.250000 0.000000
O O13 0.037614 0.200670 0.802075
O O14 0.446082 0.427384 0.264135
O O15 0.000000 0.000000 0.500000
#
# Coordination Sequence:
#
# PCOD9221030 Si02
#       8
#     4   4   8   4   4   8   8   4
#     4  11  24  46  68 101 144 184 230 299 358 440
#     4  12  24  47  73 104 137 183 250 299 363 430
#     4  12  26  48  74 102 143 193 242 300 364 443
#     4  11  23  40  74 105 132 184 239 288 364 417
#     4  11  26  46  75 102 142 188 238 310 363 423
#     4  12  27  46  69 105 151 188 238 297 371 436
#     4  11  25  46  69 106 142 184 245 295 360 435
#     4  11  22  40  74 104 136 179 235 300 352 416
#
# _framework density 21.167878999999999
#
# number of rings (size 3 to 8) (size 9 to 14) (size 15 to 20)
#    0.000    0.545    3.636    4.636    5.091    1.455 
#    0.000    0.000    0.000    0.000    0.000    0.000 
#    0.000    0.000    0.000    0.000    0.000    0.000 
#
# Total GULP energy -122876.686188 kJ/mol
# GULP energy per Si atom -5585.303918 kJ/mol
# Density = 2.111970 g / cm^3
# Si number density = 21.167879 Si / 1000 Ang^3
#
#
#
# Elastic Constant Matrix: (Units=GPa)
#
#
# Indices 1 2 3 4 5 6 
#
# 1 127.3105 47.7640 15.6109 0.0000 -20.7784 0.0000
# 2 47.7640 88.9904 33.5711 0.0000 -11.0494 0.0000
# 3 15.6109 33.5711 81.4929 0.0000 -12.7610 0.0000
# 4 0.0000 0.0000 0.0000 5.4184 0.0000 40.7679
# 5 -20.7784 -11.0494 -12.7610 0.0000 41.0291 0.0000
# 6 0.0000 0.0000 0.0000 40.7679 0.0000 -43.8018
#
#
#
# Elastic Compliance Matrix: (Units=1/GPa)
#
#
# Indices 1 2 3 4 5 6 
#
# 1 0.010456 -0.005433 0.000878 0.000000 0.004105 0.000000
# 2 -0.005433 0.016282 -0.005688 0.000000 -0.000136 0.000000
# 3 0.000878 -0.005688 0.015007 0.000000 0.003580 0.000000
# 4 0.000000 0.000000 0.000000 0.023061 0.000000 0.021464
# 5 0.004105 -0.000136 0.003580 0.000000 0.027529 0.000000
# 6 0.000000 0.000000 0.000000 0.021464 0.000000 -0.002853
#
#
# Mechanical properties :
#
#
# Convention : Reuss Voigt Hill
#
# Bulk Modulus (GPa) = 47.04082 54.63175 50.83628
# Shear Modulus (GPa) = 42.71515 13.91901 28.31708
#
# Velocity S-wave (km/s) = 4.49700 2.56706 3.66148
# Velocity P-wave (km/s) = 7.01677 5.88653 6.47635
#
# Compressibility (1/GPa) = 0.02125813
#
# Stress axis : x y z
#
# Youngs Moduli (GPa) = 95.64250 61.41605 66.63739
#
# Poissons Ratio (x) = 0.33370 -0.05852
# Poissons Ratio (y) = 0.51967 0.37903
# Poissons Ratio (z) = -0.08400 0.34933
#
# Static dielectric constant tensor:
#      x y z
#    x 1.794710 0.000000 0.016060 
#    y 0.000000 1.814390 0.000000 
#    z 0.016060 0.000000 1.700540 
# 
# From -- ./inp_files/241593.got.cif
#   From: 2010.05.17/outbox.cif.g08.bks.cpg/sg12_121_cif.got.tgz:241593.got - 2010.06.03 13:09:07.
