data_PCOD9221246
_publ_section_title
;
Structure prediction by ZEFSAII (Michael W. Deem and Ramdas Pophale) SiO2 
 PCOD9221246
Probable space group: C 2/M
;
_chemical_formula_sum "Si O2"
_cell_formula_units_Z 32
_cell_length_a 26.268777
_cell_length_b 5.706683
_cell_length_c 9.715374
_cell_angle_alpha 90.000000
_cell_angle_beta 64.202062
_cell_angle_gamma 90.000000
_cell_volume 1311.254485
_symmetry_space_group_name_H-M "C 2/M"
_symmetry_group_IT_number 12
_symmetry_cell_setting 'monoclinic'
loop_
_space_group_symop_operation_xyz
x,y,z
-x,y,-z
-x,-y,-z
x,-y,z
1/2+x,1/2+y,z
1/2-x,1/2+y,-z
1/2-x,1/2-y,-z
1/2+x,1/2-y,z
loop_
_atom_site_type_symbol
_atom_site_label
_atom_site_fract_x
_atom_site_fract_y
_atom_site_fract_z
Si Si1 0.174675 0.500000 0.597668
Si Si2 0.243261 0.500000 0.087146
Si Si3 0.879927 0.500000 0.625133
Si Si4 0.432230 0.249572 0.057289
Si Si5 0.539027 0.750660 0.286105
Si Si6 0.798504 0.000000 0.307804
O O1 0.130146 0.500000 0.524423
O O2 0.176750 0.748874 0.674324
O O3 0.235693 0.500000 0.447597
O O4 0.180571 0.500000 0.227688
O O5 0.289557 0.500000 0.154304
O O6 0.250000 0.750000 0.000000
O O7 0.916837 0.284064 0.642070
O O8 0.412367 0.500000 0.133644
O O9 0.412055 0.000000 0.135958
O O10 0.500000 0.249465 0.000000
O O11 0.426973 0.248909 0.897948
O O12 0.509051 0.500000 0.327826
O O13 0.505987 0.000000 0.324132
#
# Coordination Sequence:
#
# PCOD9221246 Si02
#       6
#     4   4   4   8   8   4
#     4   9  17  28  48  61  81 100 123 173 200 244
#     4  11  23  34  48  61  81 108 137 176 209 247
#     4   9  20  28  45  62  85 104 142 166 213 238
#     4   8  12  19  30  46  69 101 135 155 177 218
#     4   8  15  23  35  53  78 103 133 163 188 235
#     4   9  18  32  44  64  77  98 133 161 210 245
#
# _framework density 24.404109999999999
#
# number of rings (size 3 to 8) (size 9 to 14) (size 15 to 20)
#    0.750    2.500    0.000    0.750    3.500    2.000 
#    0.000    0.000    0.000    0.000    0.000    0.000 
#    0.000    0.000    0.000    0.000    0.000   30.000 
#
# Total GULP energy -89197.620234 kJ/mol
# GULP energy per Si atom -5574.851265 kJ/mol
# Density = 2.434857 g / cm^3
# Si number density = 24.404110 Si / 1000 Ang^3
#
#
#
# Elastic Constant Matrix: (Units=GPa)
#
#
# Indices 1 2 3 4 5 6 
#
# 1 58.7899 68.1636 42.4552 0.0000 15.1745 0.0000
# 2 68.1636 323.9290 82.3581 0.0000 9.9068 0.0000
# 3 42.4552 82.3581 88.2396 0.0000 33.2735 0.0000
# 4 0.0000 0.0000 0.0000 52.4835 0.0000 -1.6697
# 5 15.1745 9.9068 33.2735 0.0000 49.7637 0.0000
# 6 0.0000 0.0000 0.0000 -1.6697 0.0000 38.6300
#
#
#
# Elastic Compliance Matrix: (Units=1/GPa)
#
#
# Indices 1 2 3 4 5 6 
#
# 1 0.028577 -0.003412 -0.010075 0.000000 -0.001298 0.000000
# 2 -0.003412 0.004662 -0.003680 0.000000 0.002573 0.000000
# 3 -0.010075 -0.003680 0.024309 0.000000 -0.012449 0.000000
# 4 0.000000 0.000000 0.000000 0.019080 0.000000 0.000825
# 5 -0.001298 0.002573 -0.012449 0.000000 0.028302 0.000000
# 6 0.000000 0.000000 0.000000 0.000825 0.000000 0.025922
#
#
# Mechanical properties :
#
#
# Convention : Reuss Voigt Hill
#
# Bulk Modulus (GPa) = 43.07772 95.21249 69.14510
# Shear Modulus (GPa) = 28.91448 46.70753 37.81100
#
# Velocity S-wave (km/s) = 3.44586 4.37958 3.94047
# Velocity P-wave (km/s) = 5.78982 8.04201 7.00700
#
# Compressibility (1/GPa) = 0.02321386
#
# Stress axis : x y z
#
# Youngs Moduli (GPa) = 34.99362 214.50253 41.13708
#
# Poissons Ratio (x) = 0.73189 0.41446
# Poissons Ratio (y) = 0.11940 0.15137
# Poissons Ratio (z) = 0.35257 0.78930
#
# Static dielectric constant tensor:
#      x y z
#    x 1.949920 0.000000 -0.061600 
#    y 0.000000 1.982730 0.000000 
#    z -0.061600 0.000000 2.003320 
# 
# From -- ./inp_files/107138.got.cif
#   From: 2010.05.17/outbox.cif.g08.bks.cpg/sg12_54_cif.got.tgz:107138.got - 2010.06.03 13:09:07.
