data_PCOD9221693
_publ_section_title
;
Structure prediction by ZEFSAII (Michael W. Deem and Ramdas Pophale) SiO2 
 PCOD9221693
Probable space group: C 2/M
;
_chemical_formula_sum "Si O2"
_cell_formula_units_Z 40
_cell_length_a 9.685943
_cell_length_b 22.504065
_cell_length_c 13.529933
_cell_angle_alpha 90.000000
_cell_angle_beta 141.135279
_cell_angle_gamma 90.000000
_cell_volume 1850.550793
_symmetry_space_group_name_H-M "C 2/M"
_symmetry_group_IT_number 12
_symmetry_cell_setting 'monoclinic'
loop_
_space_group_symop_operation_xyz
x,y,z
-x,y,-z
-x,-y,-z
x,-y,z
1/2+x,1/2+y,z
1/2-x,1/2+y,-z
1/2-x,1/2-y,-z
1/2+x,1/2-y,z
loop_
_atom_site_type_symbol
_atom_site_label
_atom_site_fract_x
_atom_site_fract_y
_atom_site_fract_z
Si Si1 0.772365 0.344057 0.828922
Si Si2 0.650837 0.104614 0.767416
Si Si3 0.996878 0.269590 0.613615
Si Si4 0.737482 0.065330 0.344631
Si Si5 0.066338 0.070372 0.879340
O O1 0.636037 0.288644 0.715294
O O2 0.833334 0.384921 0.770615
O O3 0.000000 0.321786 0.000000
O O4 0.357438 0.386441 0.166539
O O5 0.596470 0.174361 0.727549
O O6 0.410473 0.074098 0.640612
O O7 0.815528 0.084291 0.772625
O O8 0.782089 0.086094 0.940492
O O9 0.750000 0.250000 0.500000
O O10 0.000000 0.285216 0.500000
O O11 0.000000 0.070866 0.500000
O O12 0.690308 0.000000 0.278049
O O13 0.089773 0.000000 0.869836
#
# Coordination Sequence:
#
# PCOD9221693 Si02
#       5
#     8   8   8   8   8
#     4  12  25  41  71 100 136 173 233 280 342 396
#     4  11  23  42  68  96 137 177 223 270 341 400
#     4  12  27  47  69  95 138 181 227 281 339 404
#     4  11  23  42  68  98 136 179 223 274 337 404
#     4  11  24  42  69 104 139 173 220 284 344 401
#
# _framework density 21.615186000000001
#
# number of rings (size 3 to 8) (size 9 to 14) (size 15 to 20)
#    0.000    0.600    2.000    7.200    2.800    1.600 
#    0.000    0.000    0.000    9.000    0.000    0.000 
#    0.000    0.000    0.000    0.000    0.000    0.000 
#
# Total GULP energy -111849.654481 kJ/mol
# GULP energy per Si atom -5592.482724 kJ/mol
# Density = 2.156599 g / cm^3
# Si number density = 21.615186 Si / 1000 Ang^3
#
#
#
# Elastic Constant Matrix: (Units=GPa)
#
#
# Indices 1 2 3 4 5 6 
#
# 1 96.3678 6.0994 19.7939 0.0000 31.0562 0.0000
# 2 6.0994 108.4602 25.7240 0.0000 1.8081 0.0000
# 3 19.7939 25.7240 70.5426 0.0000 28.6288 0.0000
# 4 0.0000 0.0000 0.0000 21.5061 0.0000 17.3678
# 5 31.0562 1.8081 28.6288 0.0000 41.4111 0.0000
# 6 0.0000 0.0000 0.0000 17.3678 0.0000 25.7823
#
#
#
# Elastic Compliance Matrix: (Units=1/GPa)
#
#
# Indices 1 2 3 4 5 6 
#
# 1 0.013755 -0.000791 0.000836 0.000000 -0.010858 0.000000
# 2 -0.000791 0.010400 -0.005041 0.000000 0.003624 0.000000
# 3 0.000836 -0.005041 0.022163 0.000000 -0.015729 0.000000
# 4 0.000000 0.000000 0.000000 0.101972 0.000000 -0.068691
# 5 -0.010858 0.003624 -0.015729 0.000000 0.043007 0.000000
# 6 0.000000 0.000000 0.000000 -0.068691 0.000000 0.085059
#
#
# Mechanical properties :
#
#
# Convention : Reuss Voigt Hill
#
# Bulk Modulus (GPa) = 27.52961 42.06727 34.79844
# Shear Modulus (GPa) = 16.75290 32.65678 24.70484
#
# Velocity S-wave (km/s) = 2.78700 3.89115 3.38441
# Velocity P-wave (km/s) = 4.80836 6.30018 5.60413
#
# Compressibility (1/GPa) = 0.03632452
#
# Stress axis : x y z
#
# Youngs Moduli (GPa) = 72.70279 96.15678 45.12038
#
# Poissons Ratio (x) = 0.07603 -0.03770
# Poissons Ratio (y) = 0.05748 0.22746
# Poissons Ratio (z) = -0.06075 0.48475
#
# Static dielectric constant tensor:
#      x y z
#    x 1.857280 0.000000 0.139170 
#    y 0.000000 1.707960 0.000000 
#    z 0.139170 0.000000 2.091330 
# 
# From -- ./inp_files/265173.got.cif
#   From: 2010.05.17/outbox.cif.g08.bks.cpg/sg12_133_cif.got.tgz:265173.got - 2010.06.03 13:09:07.
