data_PCOD9221809
_publ_section_title
;
Structure prediction by ZEFSAII (Michael W. Deem and Ramdas Pophale) SiO2 
 PCOD9221809
Probable space group: C 2/M
;
_chemical_formula_sum "Si O2"
_cell_formula_units_Z 36
_cell_length_a 16.873422
_cell_length_b 13.723598
_cell_length_c 7.166310
_cell_angle_alpha 90.000000
_cell_angle_beta 91.154846
_cell_angle_gamma 90.000000
_cell_volume 1659.122768
_symmetry_space_group_name_H-M "C 2/M"
_symmetry_group_IT_number 12
_symmetry_cell_setting 'monoclinic'
loop_
_space_group_symop_operation_xyz
x,y,z
-x,y,-z
-x,-y,-z
x,-y,z
1/2+x,1/2+y,z
1/2-x,1/2+y,-z
1/2-x,1/2-y,-z
1/2+x,1/2-y,z
loop_
_atom_site_type_symbol
_atom_site_label
_atom_site_fract_x
_atom_site_fract_y
_atom_site_fract_z
Si Si1 0.245001 0.754036 0.224126
Si Si2 0.059498 0.106752 0.731622
Si Si3 0.500000 0.785064 0.500000
Si Si4 0.337085 0.116285 0.515046
Si Si5 0.119842 0.895945 0.134333
O O1 0.309197 0.822559 0.329821
O O2 0.225901 0.653966 0.330947
O O3 0.163347 0.813748 0.248086
O O4 0.250000 0.750000 0.000000
O O5 0.051171 0.205938 0.620233
O O6 0.970514 0.098637 0.807220
O O7 0.077032 0.000000 0.642120
O O8 0.116644 0.119342 0.911311
O O9 0.571582 0.853974 0.429556
O O10 0.332330 0.000000 0.489598
O O11 0.159090 0.000000 0.171395
#
# Coordination Sequence:
#
# PCOD9221809 Si02
#       5
#     8   8   4   8   8
#     4  11  23  44  67  91 123 169 218 269 319 379
#     4   9  18  31  57  91 118 154 202 257 315 366
#     4  12  20  40  60  88 134 172 208 258 314 388
#     4  11  26  43  64  96 130 170 216 263 322 387
#     4   9  17  34  57  84 117 151 200 261 315 366
#
# _framework density 21.698214
#
# number of rings (size 3 to 8) (size 9 to 14) (size 15 to 20)
#    0.000    1.778    2.222    4.000    0.000    1.778 
#    0.000    3.333    0.000    4.000    0.000    0.000 
#    0.000    0.000    0.000    0.000    0.000    0.000 
#
# Total GULP energy -100219.396155 kJ/mol
# GULP energy per Si atom -5567.744231 kJ/mol
# Density = 2.164883 g / cm^3
# Si number density = 21.698214 Si / 1000 Ang^3
#
#
#
# Elastic Constant Matrix: (Units=GPa)
#
#
# Indices 1 2 3 4 5 6 
#
# 1 75.5213 52.7310 20.0793 0.0000 10.0016 0.0000
# 2 52.7310 156.0873 45.6904 0.0000 5.8638 0.0000
# 3 20.0793 45.6904 87.4928 0.0000 -9.1506 0.0000
# 4 0.0000 0.0000 0.0000 21.1052 0.0000 10.1036
# 5 10.0016 5.8638 -9.1506 0.0000 24.9797 0.0000
# 6 0.0000 0.0000 0.0000 10.1036 0.0000 18.6584
#
#
#
# Elastic Compliance Matrix: (Units=1/GPa)
#
#
# Indices 1 2 3 4 5 6 
#
# 1 0.018468 -0.005342 -0.002174 0.000000 -0.006937 0.000000
# 2 -0.005342 0.009388 -0.003830 0.000000 -0.001468 0.000000
# 3 -0.002174 -0.003830 0.014676 0.000000 0.007146 0.000000
# 4 0.000000 0.000000 0.000000 0.063963 0.000000 -0.034636
# 5 -0.006937 -0.001468 0.007146 0.000000 0.045772 0.000000
# 6 0.000000 0.000000 0.000000 -0.034636 0.000000 0.072351
#
#
# Mechanical properties :
#
#
# Convention : Reuss Voigt Hill
#
# Bulk Modulus (GPa) = 50.40501 61.78920 56.09710
# Shear Modulus (GPa) = 19.69100 26.32202 23.00651
#
# Velocity S-wave (km/s) = 3.01573 3.48673 3.25975
# Velocity P-wave (km/s) = 5.95035 6.68941 6.33067
#
# Compressibility (1/GPa) = 0.01983930
#
# Stress axis : x y z
#
# Youngs Moduli (GPa) = 54.14783 106.52324 68.13908
#
# Poissons Ratio (x) = 0.56905 0.14814
# Poissons Ratio (y) = 0.28926 0.26097
# Poissons Ratio (z) = 0.11772 0.40798
#
# Static dielectric constant tensor:
#      x y z
#    x 1.831780 0.000000 -0.016050 
#    y 0.000000 1.856460 0.000000 
#    z -0.016050 0.000000 1.872760 
# 
# From -- ./inp_files/82926.got.cif
#   From: 2010.05.17/outbox.cif.g08.bks.cpg/sg12_42_cif.got.tgz:82926.got - 2010.06.03 13:09:07.
