data_PCOD9221947
_publ_section_title
;
Structure prediction by ZEFSAII (Michael W. Deem and Ramdas Pophale) SiO2 
 PCOD9221947
Probable space group: C 2/M
;
_chemical_formula_sum "Si O2"
_cell_formula_units_Z 36
_cell_length_a 11.387591
_cell_length_b 25.229617
_cell_length_c 8.052234
_cell_angle_alpha 90.000000
_cell_angle_beta 44.999967
_cell_angle_gamma 90.000000
_cell_volume 1635.850674
_symmetry_space_group_name_H-M "C 2/M"
_symmetry_group_IT_number 12
_symmetry_cell_setting 'monoclinic'
loop_
_space_group_symop_operation_xyz
x,y,z
-x,y,-z
-x,-y,-z
x,-y,z
1/2+x,1/2+y,z
1/2-x,1/2+y,-z
1/2-x,1/2-y,-z
1/2+x,1/2-y,z
loop_
_atom_site_type_symbol
_atom_site_label
_atom_site_fract_x
_atom_site_fract_y
_atom_site_fract_z
Si Si1 0.500000 0.750000 0.000000
Si Si2 0.399300 0.058905 0.338535
Si Si3 0.588431 0.336312 0.148311
Si Si4 0.763258 0.663688 0.325172
Si Si5 0.237835 0.058905 0.862867
O O1 0.384666 0.710904 0.008365
O O2 0.606969 0.789096 0.777697
O O3 0.345654 0.106991 0.277265
O O4 0.294390 0.062758 0.614766
O O5 0.590846 0.062758 0.203540
O O6 0.370808 0.000000 0.295616
O O7 0.398787 0.332080 0.398598
O O8 0.702617 0.332080 0.196168
O O9 0.622918 0.393008 0.031426
O O10 0.166424 0.000000 0.962769
#
# Coordination Sequence:
#
# PCOD9221947 Si02
#       5
#     4   8   8   8   8
#     4  12  24  44  62  80 116 164 200 242 296 356
#     4   9  19  38  64  92 122 157 194 234 290 358
#     4  11  24  40  61  90 119 152 198 248 296 346
#     4  11  24  40  61  90 119 152 198 248 296 346
#     4   9  19  38  64  92 122 157 194 234 290 358
#
# _framework density 22.006899000000001
#
# number of rings (size 3 to 8) (size 9 to 14) (size 15 to 20)
#    0.000    1.778    0.000    5.333    0.000    1.778 
#    0.000   12.222    0.000    0.000    0.000    0.000 
#    0.000    0.000    0.000    0.000    0.000    0.000 
#
# Total GULP energy -100758.973162 kJ/mol
# GULP energy per Si atom -5597.720731 kJ/mol
# Density = 2.195681 g / cm^3
# Si number density = 22.006899 Si / 1000 Ang^3
#
#
#
# Elastic Constant Matrix: (Units=GPa)
#
#
# Indices 1 2 3 4 5 6 
#
# 1 68.5849 49.1005 1.3117 0.0000 5.2723 0.0000
# 2 49.1005 204.4961 49.0998 0.0000 -0.0002 0.0000
# 3 1.3117 49.0998 68.5827 0.0000 -5.2722 0.0000
# 4 0.0000 0.0000 0.0000 40.7212 0.0000 -0.0005
# 5 5.2723 -0.0002 -5.2722 0.0000 24.2158 0.0000
# 6 0.0000 0.0000 0.0000 -0.0005 0.0000 40.7222
#
#
#
# Elastic Compliance Matrix: (Units=1/GPa)
#
#
# Indices 1 2 3 4 5 6 
#
# 1 0.018490 -0.005184 0.003100 0.000000 -0.003351 0.000000
# 2 -0.005184 0.007379 -0.005184 0.000000 0.000000 0.000000
# 3 0.003100 -0.005184 0.018491 0.000000 0.003351 0.000000
# 4 0.000000 0.000000 0.000000 0.024557 0.000000 0.000000
# 5 -0.003351 0.000000 0.003351 0.000000 0.042754 0.000000
# 6 0.000000 0.000000 0.000000 0.000000 0.000000 0.024557
#
#
# Mechanical properties :
#
#
# Convention : Reuss Voigt Hill
#
# Bulk Modulus (GPa) = 33.52966 60.07638 46.80302
# Shear Modulus (GPa) = 31.11290 37.27529 34.19409
#
# Velocity S-wave (km/s) = 3.76410 4.12005 3.94609
# Velocity P-wave (km/s) = 5.84469 7.07044 6.48658
#
# Compressibility (1/GPa) = 0.02982434
#
# Stress axis : x y z
#
# Youngs Moduli (GPa) = 54.08348 135.51238 54.08180
#
# Poissons Ratio (x) = 0.70247 -0.16765
# Poissons Ratio (y) = 0.28036 0.28036
# Poissons Ratio (z) = -0.16766 0.70248
#
# Static dielectric constant tensor:
#      x y z
#    x 1.817580 0.000000 0.000000 
#    y 0.000000 1.771070 0.000000 
#    z 0.000000 0.000000 1.817580 
# 
# From -- ./inp_files/50359.got.cif
#   From: 2010.05.17/outbox.cif.g08.bks.cpg/sg12_26_cif.got.tgz:50359.got - 2010.06.03 13:09:07.
