data_PCOD9221193
_publ_section_title
;
Structure prediction by ZEFSAII (Michael W. Deem and Ramdas Pophale) SiO2 
 PCOD9221193
Probable space group: C 2/M
;
_chemical_formula_sum "Si O2"
_cell_formula_units_Z 40
_cell_length_a 15.684105
_cell_length_b 23.907221
_cell_length_c 8.684482
_cell_angle_alpha 90.000000
_cell_angle_beta 149.004978
_cell_angle_gamma 90.000000
_cell_volume 1676.908202
_symmetry_space_group_name_H-M "C 2/M"
_symmetry_group_IT_number 12
_symmetry_cell_setting 'monoclinic'
loop_
_space_group_symop_operation_xyz
x,y,z
-x,y,-z
-x,-y,-z
x,-y,z
1/2+x,1/2+y,z
1/2-x,1/2+y,-z
1/2-x,1/2-y,-z
1/2+x,1/2-y,z
loop_
_atom_site_type_symbol
_atom_site_label
_atom_site_fract_x
_atom_site_fract_y
_atom_site_fract_z
Si Si1 0.835663 0.777683 0.486507
Si Si2 0.983083 0.109069 0.655337
Si Si3 0.869925 0.702713 0.121592
Si Si4 0.331511 0.905615 0.276962
Si Si5 0.189692 0.064591 0.352691
O O1 0.750000 0.750000 0.500000
O O2 0.964451 0.829537 0.707119
O O3 0.947336 0.728057 0.591005
O O4 0.697120 0.802242 0.156884
O O5 0.827299 0.078157 0.492563
O O6 0.000000 0.119334 0.500000
O O7 0.148869 0.073667 0.948829
O O8 0.847737 0.647727 0.188668
O O9 0.750000 0.750000 0.000000
O O10 0.500000 0.937595 0.500000
O O11 0.308520 0.899089 0.426231
O O12 0.234360 0.000000 0.398599
O O13 0.000000 0.073493 0.000000
#
# Coordination Sequence:
#
# PCOD9221193 Si02
#       5
#     8   8   8   8   8
#     4  12  26  40  61  93 133 177 219 261 321 384
#     4  11  22  44  66  95 131 170 221 271 324 389
#     4  12  23  40  61  91 132 173 214 262 315 384
#     4  11  23  40  67  95 131 171 214 268 326 387
#     4   9  22  43  70  98 127 169 222 271 330 390
#
# _framework density 23.853422999999999
#
# number of rings (size 3 to 8) (size 9 to 14) (size 15 to 20)
#    0.000    1.000    4.000    2.400    5.600    2.400 
#    0.000    1.000    0.000    1.200    0.000    0.000 
#    0.000    0.000    0.000    0.000    0.000    0.000 
#
# Total GULP energy -111505.890198 kJ/mol
# GULP energy per Si atom -5575.294510 kJ/mol
# Density = 2.379913 g / cm^3
# Si number density = 23.853423 Si / 1000 Ang^3
#
#
#
# Elastic Constant Matrix: (Units=GPa)
#
#
# Indices 1 2 3 4 5 6 
#
# 1 227.1128 55.5183 40.6503 0.0000 19.6960 0.0000
# 2 55.5183 106.0741 15.8844 0.0000 -2.5081 0.0000
# 3 40.6503 15.8844 73.4162 0.0000 8.0380 0.0000
# 4 0.0000 0.0000 0.0000 5.1414 0.0000 -4.7403
# 5 19.6960 -2.5081 8.0380 0.0000 33.6030 0.0000
# 6 0.0000 0.0000 0.0000 -4.7403 0.0000 9.2536
#
#
#
# Elastic Compliance Matrix: (Units=1/GPa)
#
#
# Indices 1 2 3 4 5 6 
#
# 1 0.005738 -0.002738 -0.002253 0.000000 -0.003029 0.000000
# 2 -0.002738 0.011102 -0.001184 0.000000 0.002716 0.000000
# 3 -0.002253 -0.001184 0.015393 0.000000 -0.002450 0.000000
# 4 0.000000 0.000000 0.000000 0.368585 0.000000 0.188814
# 5 -0.003029 0.002716 -0.002450 0.000000 0.032323 0.000000
# 6 0.000000 0.000000 0.000000 0.188814 0.000000 0.204789
#
#
# Mechanical properties :
#
#
# Convention : Reuss Voigt Hill
#
# Bulk Modulus (GPa) = 50.29204 70.07877 60.18541
# Shear Modulus (GPa) = 7.61143 29.23627 18.42385
#
# Velocity S-wave (km/s) = 1.78825 3.50475 2.78218
# Velocity P-wave (km/s) = 5.03918 6.76907 5.96715
#
# Compressibility (1/GPa) = 0.01988386
#
# Stress axis : x y z
#
# Youngs Moduli (GPa) = 174.26806 90.07671 64.96486
#
# Poissons Ratio (x) = 0.24659 0.14639
# Poissons Ratio (y) = 0.47707 0.07689
# Poissons Ratio (z) = 0.39269 0.10661
#
# Static dielectric constant tensor:
#      x y z
#    x 1.997170 0.000000 -0.070950 
#    y 0.000000 1.930840 0.000000 
#    z -0.070950 0.000000 2.067720 
# 
# From -- ./inp_files/68756.got.cif
#   From: 2010.05.17/outbox.cif.g08.bks.cpg/sg12_35_cif.got.tgz:68756.got - 2010.06.03 13:09:07.
