data_PCOD9221326
_publ_section_title
;
Structure prediction by ZEFSAII (Michael W. Deem and Ramdas Pophale) SiO2 
 PCOD9221326
Probable space group: C 2/M
;
_chemical_formula_sum "Si O2"
_cell_formula_units_Z 64
_cell_length_a 30.372338
_cell_length_b 8.815889
_cell_length_c 14.969637
_cell_angle_alpha 90.000000
_cell_angle_beta 52.762159
_cell_angle_gamma 90.000000
_cell_volume 3191.095743
_symmetry_space_group_name_H-M "C 2/M"
_symmetry_group_IT_number 12
_symmetry_cell_setting 'monoclinic'
loop_
_space_group_symop_operation_xyz
x,y,z
-x,y,-z
-x,-y,-z
x,-y,z
1/2+x,1/2+y,z
1/2-x,1/2+y,-z
1/2-x,1/2-y,-z
1/2+x,1/2-y,z
loop_
_atom_site_type_symbol
_atom_site_label
_atom_site_fract_x
_atom_site_fract_y
_atom_site_fract_z
Si Si1 0.808653 0.671919 0.925879
Si Si2 0.149750 0.330725 0.325524
Si Si3 0.388959 0.318339 0.970221
Si Si4 0.493684 0.817966 0.760784
Si Si5 0.291279 0.321445 0.587604
Si Si6 0.379896 0.181943 0.341373
Si Si7 0.951683 0.831688 0.629493
Si Si8 0.830078 0.182170 0.229751
O O1 0.807286 0.500000 0.962619
O O2 0.821442 0.665629 0.805517
O O3 0.853701 0.762231 0.928077
O O4 0.750000 0.750000 0.000000
O O5 0.151222 0.500000 0.364198
O O6 0.177405 0.213471 0.358303
O O7 0.089460 0.279178 0.371217
O O8 0.394882 0.500000 0.960885
O O9 0.449468 0.242210 0.888085
O O10 0.354102 0.277936 0.102202
O O11 0.558020 0.780892 0.700799
O O12 0.474201 0.740055 0.692846
O O13 0.488681 0.000000 0.759918
O O14 0.285802 0.500000 0.577059
O O15 0.330953 0.247741 0.463931
O O16 0.230667 0.248370 0.673571
O O17 0.370476 0.252260 0.255525
O O18 0.374991 0.000000 0.344633
O O19 0.000000 0.850288 0.500000
O O20 0.927052 0.000000 0.677686
O O21 0.827030 0.000000 0.238603
#
# Coordination Sequence:
#
# PCOD9221326 Si02
#       8
#     8   8   8   8   8   8   8   8
#     4  11  23  38  60  90 126 167 211 258 312 374
#     4  11  23  39  60  90 126 166 209 252 308 375
#     4  11  24  42  66  94 130 172 217 270 324 386
#     4  11  24  42  65  94 130 172 217 268 325 387
#     4  12  25  42  67  98 132 170 215 271 329 390
#     4  11  25  45  69  96 128 170 217 271 332 392
#     4  11  23  38  60  91 126 166 212 259 311 375
#     4  11  25  45  68  96 129 169 217 271 332 392
#
# _framework density 20.055807999999999
#
# number of rings (size 3 to 8) (size 9 to 14) (size 15 to 20)
#    0.000    0.875    1.250    5.625    0.000   12.000 
#    0.000    2.500    0.000    0.000    0.000    0.000 
#    0.000    0.000    0.000    0.000    0.000    0.000 
#
# Total GULP energy -178868.526923 kJ/mol
# GULP energy per Si atom -5589.641466 kJ/mol
# Density = 2.001016 g / cm^3
# Si number density = 20.055808 Si / 1000 Ang^3
#
#
#
# Elastic Constant Matrix: (Units=GPa)
#
#
# Indices 1 2 3 4 5 6 
#
# 1 74.3649 12.1498 25.2759 0.0000 -1.0057 0.0000
# 2 12.1498 83.6851 40.4894 0.0000 -6.9968 0.0001
# 3 25.2759 40.4894 99.9370 0.0000 -12.5027 0.0000
# 4 0.0000 0.0000 0.0000 33.9845 0.0000 -1.0801
# 5 -1.0057 -6.9968 -12.5027 0.0000 37.1311 0.0000
# 6 0.0000 0.0001 0.0000 -1.0801 0.0000 34.6646
#
#
#
# Elastic Compliance Matrix: (Units=1/GPa)
#
#
# Indices 1 2 3 4 5 6 
#
# 1 0.014754 -0.000445 -0.003666 0.000000 -0.000919 0.000000
# 2 -0.000445 0.014900 -0.005819 0.000000 0.000836 0.000000
# 3 -0.003666 -0.005819 0.013720 0.000000 0.003424 0.000000
# 4 0.000000 0.000000 0.000000 0.029454 0.000000 0.000918
# 5 -0.000919 0.000836 0.003424 0.000000 0.028217 0.000000
# 6 0.000000 0.000000 0.000000 0.000918 0.000000 0.028876
#
#
# Mechanical properties :
#
#
# Convention : Reuss Voigt Hill
#
# Bulk Modulus (GPa) = 42.53196 45.97970 44.25583
# Shear Modulus (GPa) = 31.72206 33.16086 32.44146
#
# Velocity S-wave (km/s) = 3.98136 4.07065 4.02625
# Velocity P-wave (km/s) = 6.51059 6.71336 6.61275
#
# Compressibility (1/GPa) = 0.02351173
#
# Stress axis : x y z
#
# Youngs Moduli (GPa) = 67.78031 67.11542 72.88846
#
# Poissons Ratio (x) = 0.02987 0.26721
# Poissons Ratio (y) = 0.03016 0.42417
# Poissons Ratio (z) = 0.24849 0.39057
#
# Static dielectric constant tensor:
#      x y z
#    x 1.675910 0.000000 -0.004560 
#    y 0.000000 1.715400 0.000000 
#    z -0.004560 0.000000 1.702310 
# 
# From -- ./inp_files/249758.got.cif
#   From: 2010.05.17/outbox.cif.g08.bks.cpg/sg12_125_cif.got.tgz:249758.got - 2010.06.03 13:09:07.
