data_PCOD9221598
_publ_section_title
;
Structure prediction by ZEFSAII (Michael W. Deem and Ramdas Pophale) SiO2 
 PCOD9221598
Probable space group: C 2/M
;
_chemical_formula_sum "Si O2"
_cell_formula_units_Z 56
_cell_length_a 8.733874
_cell_length_b 20.846229
_cell_length_c 13.990848
_cell_angle_alpha 90.000000
_cell_angle_beta 84.814337
_cell_angle_gamma 90.000000
_cell_volume 2536.864493
_symmetry_space_group_name_H-M "C 2/M"
_symmetry_group_IT_number 12
_symmetry_cell_setting 'monoclinic'
loop_
_space_group_symop_operation_xyz
x,y,z
-x,y,-z
-x,-y,-z
x,-y,z
1/2+x,1/2+y,z
1/2-x,1/2+y,-z
1/2-x,1/2-y,-z
1/2+x,1/2-y,z
loop_
_atom_site_type_symbol
_atom_site_label
_atom_site_fract_x
_atom_site_fract_y
_atom_site_fract_z
Si Si1 0.205603 0.696142 0.081472
Si Si2 0.921703 0.333225 0.349901
Si Si3 0.446525 0.567983 0.394266
Si Si4 0.678840 0.572400 0.016672
Si Si5 0.194788 0.891041 0.232741
Si Si6 0.271293 0.179622 0.548770
Si Si7 0.530550 0.727034 0.789758
O O1 0.336180 0.695566 0.155755
O O2 0.048743 0.718388 0.139748
O O3 0.250000 0.750000 0.000000
O O4 0.212747 0.626642 0.033865
O O5 0.861779 0.379320 0.269551
O O6 0.824260 0.354993 0.447353
O O7 0.896813 0.262361 0.305866
O O8 0.091280 0.324622 0.382902
O O9 0.500000 0.564751 0.500000
O O10 0.361234 0.500000 0.378614
O O11 0.586737 0.572314 0.313091
O O12 0.359117 0.635835 0.397253
O O13 0.710115 0.500000 0.981853
O O14 0.695940 0.577274 0.129563
O O15 0.500000 0.587511 0.000000
O O16 0.106285 0.822480 0.224934
O O17 0.250000 0.250000 0.500000
#
# Coordination Sequence:
#
# PCOD9221598 Si02
#       7
#     8   8   8   8   8   8   8
#     4  12  22  41  66  95 130 170 226 284 340 401
#     4  11  24  39  63 101 137 176 222 286 350 403
#     4  11  25  45  70  99 133 182 233 278 333 416
#     4  11  23  41  66  98 136 179 229 288 348 409
#     4  12  22  42  66 101 136 176 230 281 343 412
#     4  11  24  43  67  99 143 180 223 284 346 409
#     4  12  23  38  66 102 129 172 224 282 340 408
#
# _framework density 22.074494000000001
#
# number of rings (size 3 to 8) (size 9 to 14) (size 15 to 20)
#    0.000    0.571    5.714    2.571    4.000    0.000 
#    0.000    2.857    0.000    8.571    0.000    0.000 
#    0.000    0.000    0.000    0.000    0.000    0.000 
#
# Total GULP energy -156296.240496 kJ/mol
# GULP energy per Si atom -5582.008589 kJ/mol
# Density = 2.202425 g / cm^3
# Si number density = 22.074494 Si / 1000 Ang^3
#
#
#
# Elastic Constant Matrix: (Units=GPa)
#
#
# Indices 1 2 3 4 5 6 
#
# 1 53.7650 21.1673 31.1603 0.0000 10.0412 0.0000
# 2 21.1673 120.0110 26.1356 0.0000 -11.3183 0.0000
# 3 31.1603 26.1356 110.0790 0.0000 13.5367 0.0000
# 4 0.0000 0.0000 0.0000 -13.8553 0.0000 1.5128
# 5 10.0412 -11.3183 13.5367 0.0000 42.2173 0.0000
# 6 0.0000 0.0000 0.0000 1.5128 0.0000 20.9090
#
#
#
# Elastic Compliance Matrix: (Units=1/GPa)
#
#
# Indices 1 2 3 4 5 6 
#
# 1 0.024017 -0.003537 -0.005351 0.000000 -0.004945 0.000000
# 2 -0.003537 0.009729 -0.001804 0.000000 0.004028 0.000000
# 3 -0.005351 -0.001804 0.011379 0.000000 -0.002860 0.000000
# 4 0.000000 0.000000 0.000000 -0.071609 0.000000 0.005181
# 5 -0.004945 0.004028 -0.002860 0.000000 0.026860 0.000000
# 6 0.000000 0.000000 0.000000 0.005181 0.000000 0.047452
#
#
# Mechanical properties :
#
#
# Convention : Reuss Voigt Hill
#
# Bulk Modulus (GPa) = 42.12068 48.97571 45.54820
# Shear Modulus (GPa) = 64.83040 23.54699 44.18870
#
# Velocity S-wave (km/s) = 5.42519 3.26959 4.47900
# Velocity P-wave (km/s) = 7.63977 6.04056 6.88674
#
# Compressibility (1/GPa) = 0.02374131
#
# Stress axis : x y z
#
# Youngs Moduli (GPa) = 41.63796 102.78323 87.88154
#
# Poissons Ratio (x) = 0.36356 0.47021
# Poissons Ratio (y) = 0.14728 0.15854
# Poissons Ratio (z) = 0.22279 0.18543
#
# Static dielectric constant tensor:
#      x y z
#    x 1.847200 0.000000 -0.012110 
#    y 0.000000 1.891680 0.000000 
#    z -0.012110 0.000000 1.833950 
# 
# From -- ./inp_files/197562.got.cif
#   From: 2010.05.17/outbox.cif.g08.bks.cpg/sg12_99_cif.got.tgz:197562.got - 2010.06.03 13:09:07.
