data_PCOD9221209
_publ_section_title
;
Structure prediction by ZEFSAII (Michael W. Deem and Ramdas Pophale) SiO2 
 PCOD9221209
Probable space group: C 2/M
;
_chemical_formula_sum "Si O2"
_cell_formula_units_Z 32
_cell_length_a 11.583935
_cell_length_b 16.336521
_cell_length_c 14.086157
_cell_angle_alpha 90.000000
_cell_angle_beta 148.435771
_cell_angle_gamma 90.000000
_cell_volume 1395.361635
_symmetry_space_group_name_H-M "C 2/M"
_symmetry_group_IT_number 12
_symmetry_cell_setting 'monoclinic'
loop_
_space_group_symop_operation_xyz
x,y,z
-x,y,-z
-x,-y,-z
x,-y,z
1/2+x,1/2+y,z
1/2-x,1/2+y,-z
1/2-x,1/2-y,-z
1/2+x,1/2-y,z
loop_
_atom_site_type_symbol
_atom_site_label
_atom_site_fract_x
_atom_site_fract_y
_atom_site_fract_z
Si Si1 0.110072 0.336057 0.490576
Si Si2 0.875161 0.833053 0.119512
Si Si3 0.157450 0.163233 0.688779
Si Si4 0.014046 0.406699 0.219460
O O1 0.362360 0.320787 0.697628
O O2 0.000000 0.385176 0.500000
O O3 0.959284 0.253143 0.378848
O O4 0.104978 0.376279 0.384158
O O5 0.831392 0.865026 0.195930
O O6 0.750000 0.750000 0.000000
O O7 0.751043 0.897060 0.965192
O O8 0.387397 0.149478 0.796290
O O9 0.000000 0.121182 0.500000
O O10 0.074664 0.500000 0.244367
#
# Coordination Sequence:
#
# PCOD9221209 Si02
#       4
#     8   8   8   8
#     4  11  25  45  73 103 146 193 246 293 360 433
#     4  12  23  44  75 108 145 192 245 300 355 435
#     4  11  22  44  75 105 142 187 243 298 360 425
#     4  12  28  48  72 112 150 188 241 304 372 432
#
# _framework density 22.933122000000001
#
# number of rings (size 3 to 8) (size 9 to 14) (size 15 to 20)
#    0.000    0.500    5.000    4.500    0.000    5.000 
#    0.000    1.250    0.000    0.000    0.000    0.000 
#    0.000    0.000    0.000    0.000    0.000    0.000 
#
# Total GULP energy -89172.597161 kJ/mol
# GULP energy per Si atom -5573.287323 kJ/mol
# Density = 2.288093 g / cm^3
# Si number density = 22.933122 Si / 1000 Ang^3
#
#
#
# Elastic Constant Matrix: (Units=GPa)
#
#
# Indices 1 2 3 4 5 6 
#
# 1 135.3270 25.5992 49.2907 -0.0011 12.9583 -0.0006
# 2 25.5992 80.1193 39.4415 -0.0010 22.5520 -0.0009
# 3 49.2907 39.4415 167.0330 0.0027 4.5208 0.0008
# 4 -0.0011 -0.0010 0.0027 9.8099 0.0003 2.4072
# 5 12.9583 22.5520 4.5208 0.0003 33.4274 -0.0002
# 6 -0.0006 -0.0009 0.0008 2.4072 -0.0002 16.8771
#
#
#
# Elastic Compliance Matrix: (Units=1/GPa)
#
#
# Indices 1 2 3 4 5 6 
#
# 1 0.008621 -0.000978 -0.002249 0.000002 -0.002378 0.000000
# 2 -0.000978 0.017671 -0.003585 0.000003 -0.011058 0.000001
# 3 -0.002249 -0.003585 0.007435 -0.000003 0.002285 0.000000
# 4 0.000002 0.000003 -0.000003 0.105635 -0.000003 -0.015067
# 5 -0.002378 -0.011058 0.002285 -0.000003 0.037989 0.000000
# 6 0.000000 0.000001 0.000000 -0.015067 0.000000 0.061401
#
#
# Mechanical properties :
#
#
# Convention : Reuss Voigt Hill
#
# Bulk Modulus (GPa) = 49.74091 67.90466 58.82278
# Shear Modulus (GPa) = 19.29922 29.89939 24.59931
#
# Velocity S-wave (km/s) = 2.90408 3.61469 3.27869
# Velocity P-wave (km/s) = 5.74296 6.86261 6.32760
#
# Compressibility (1/GPa) = 0.02010418
#
# Stress axis : x y z
#
# Youngs Moduli (GPa) = 115.99119 56.58900 134.49761
#
# Poissons Ratio (x) = 0.05536 0.30245
# Poissons Ratio (y) = 0.11347 0.48214
# Poissons Ratio (z) = 0.26084 0.20286
#
# Static dielectric constant tensor:
#      x y z
#    x 1.973810 0.000000 0.070620 
#    y 0.000000 1.942510 0.000000 
#    z 0.070620 0.000000 1.936940 
# 
# From -- ./inp_files/206447.got.cif
#   From: 2010.05.17/outbox.cif.g08.bks.cpg/sg12_104_cif.got.tgz:206447.got - 2010.06.03 13:09:07.
