data_PCOD9221553
_publ_section_title
;
Structure prediction by ZEFSAII (Michael W. Deem and Ramdas Pophale) SiO2 
 PCOD9221553
Probable space group: C 2/M
;
_chemical_formula_sum "Si O2"
_cell_formula_units_Z 44
_cell_length_a 8.032259
_cell_length_b 33.202149
_cell_length_c 7.973324
_cell_angle_alpha 90.000000
_cell_angle_beta 80.310659
_cell_angle_gamma 90.000000
_cell_volume 2096.058493
_symmetry_space_group_name_H-M "C 2/M"
_symmetry_group_IT_number 12
_symmetry_cell_setting 'monoclinic'
loop_
_space_group_symop_operation_xyz
x,y,z
-x,y,-z
-x,-y,-z
x,-y,z
1/2+x,1/2+y,z
1/2-x,1/2+y,-z
1/2-x,1/2-y,-z
1/2+x,1/2-y,z
loop_
_atom_site_type_symbol
_atom_site_label
_atom_site_fract_x
_atom_site_fract_y
_atom_site_fract_z
Si Si1 0.483680 0.378942 0.304180
Si Si2 0.903345 0.626623 0.689829
Si Si3 0.000000 0.421810 0.000000
Si Si4 0.858466 0.956005 0.879011
Si Si5 0.491263 0.208271 0.198320
Si Si6 0.401139 0.706324 0.693105
O O1 0.500000 0.374958 0.500000
O O2 0.290707 0.386635 0.287175
O O3 0.595846 0.416587 0.233527
O O4 0.544524 0.335414 0.227299
O O5 0.000000 0.617725 0.500000
O O6 0.904137 0.674678 0.720126
O O7 0.992196 0.605716 0.834066
O O8 0.168759 0.448537 0.974137
O O9 0.866976 0.000000 0.792424
O O10 0.000000 0.956435 0.000000
O O11 0.556831 0.253315 0.213550
O O12 0.299715 0.204795 0.296005
O O13 0.500000 0.198773 0.000000
O O14 0.500000 0.709826 0.500000
#
# Coordination Sequence:
#
# PCOD9221553 Si02
#       6
#     8   8   4   8   8   8
#     4  11  24  44  69  99 135 183 229 288 349 412
#     4  12  24  43  70 101 143 183 234 287 343 416
#     4  12  23  46  72 106 140 184 230 282 351 414
#     4  11  24  44  71 101 138 179 224 286 352 418
#     4  12  24  40  62 100 137 183 235 289 345 410
#     4  11  23  41  63  92 137 185 233 286 348 411
#
# _framework density 20.991782000000001
#
# number of rings (size 3 to 8) (size 9 to 14) (size 15 to 20)
#    0.000    0.545    2.727    7.364    0.000    1.091 
#    0.000    0.000    0.000    2.727    0.000    0.000 
#    0.000    0.000    0.000    0.000    0.000    0.000 
#
# Total GULP energy -123062.428403 kJ/mol
# GULP energy per Si atom -5593.746746 kJ/mol
# Density = 2.094400 g / cm^3
# Si number density = 20.991782 Si / 1000 Ang^3
#
#
#
# Elastic Constant Matrix: (Units=GPa)
#
#
# Indices 1 2 3 4 5 6 
#
# 1 121.0638 41.4533 16.0111 0.0000 -8.9646 0.0000
# 2 41.4533 113.8571 22.2412 0.0000 -8.6086 0.0000
# 3 16.0111 22.2412 73.3252 0.0000 4.9427 0.0000
# 4 0.0000 0.0000 0.000015196.8362 0.0000 8756.5320
# 5 -8.9646 -8.6086 4.9427 0.0000 30.4164 0.0000
# 6 0.0000 0.0000 0.0000 8756.5320 0.0000 5114.8918
#
#
#
# Elastic Compliance Matrix: (Units=1/GPa)
#
#
# Indices 1 2 3 4 5 6 
#
# 1 0.009655 -0.003093 -0.001317 0.000000 0.002184 0.000000
# 2 -0.003093 0.010633 -0.002721 0.000000 0.002540 0.000000
# 3 -0.001317 -0.002721 0.014993 0.000000 -0.003595 0.000000
# 4 0.000000 0.000000 0.000000 0.004856 0.000000 -0.008313
# 5 0.002184 0.002540 -0.003595 0.000000 0.034824 0.000000
# 6 0.000000 0.000000 0.000000 -0.008313 0.000000 0.014428
#
#
# Mechanical properties :
#
#
# Convention : Reuss Voigt Hill
#
# Bulk Modulus (GPa) = 47.57702 51.96193 49.76947
# Shear Modulus (GPa) = 45.18490 4083.66493 2064.42491
#
# Velocity S-wave (km/s) = 4.64454 44.15413 31.39394
# Velocity P-wave (km/s) = 7.17469 51.22750 36.57685
#
# Compressibility (1/GPa) = 0.02101855
#
# Stress axis : x y z
#
# Youngs Moduli (GPa) = 103.57255 94.05122 66.69700
#
# Poissons Ratio (x) = 0.29087 0.08787
# Poissons Ratio (y) = 0.32032 0.18148
# Poissons Ratio (z) = 0.13645 0.25591
#
# Static dielectric constant tensor:
#      x y z
#    x 1.742100 0.000000 -0.001050 
#    y 0.000000 1.786770 0.000000 
#    z -0.001050 0.000000 1.717100 
# 
# From -- ./inp_files/41619.got.cif
#   From: 2010.05.17/outbox.cif.g08.bks.cpg/sg12_21_cif.got.tgz:41619.got - 2010.06.03 13:09:07.
