data_PCOD9221149
_publ_section_title
;
Structure prediction by ZEFSAII (Michael W. Deem and Ramdas Pophale) SiO2 
 PCOD9221149
Probable space group: C 2/M
;
_chemical_formula_sum "Si O2"
_cell_formula_units_Z 48
_cell_length_a 20.413432
_cell_length_b 15.070666
_cell_length_c 11.681745
_cell_angle_alpha 90.000000
_cell_angle_beta 36.211463
_cell_angle_gamma 90.000000
_cell_volume 2123.110001
_symmetry_space_group_name_H-M "C 2/M"
_symmetry_group_IT_number 12
_symmetry_cell_setting 'monoclinic'
loop_
_space_group_symop_operation_xyz
x,y,z
-x,y,-z
-x,-y,-z
x,-y,z
1/2+x,1/2+y,z
1/2-x,1/2+y,-z
1/2-x,1/2-y,-z
1/2+x,1/2-y,z
loop_
_atom_site_type_symbol
_atom_site_label
_atom_site_fract_x
_atom_site_fract_y
_atom_site_fract_z
Si Si1 0.873327 0.155246 0.155163
Si Si2 0.491794 0.290971 0.645063
Si Si3 0.437671 0.902113 0.760161
Si Si4 0.611411 0.135121 0.908969
Si Si5 0.201259 0.098429 0.980598
Si Si6 0.670733 0.600731 0.537966
O O1 0.880238 0.258067 0.109359
O O2 0.818667 0.105544 0.126482
O O3 0.810869 0.142301 0.362798
O O4 0.000000 0.125174 0.000000
O O5 0.500000 0.312608 0.500000
O O6 0.508645 0.185703 0.637906
O O7 0.580410 0.342417 0.597085
O O8 0.372466 0.325265 0.857103
O O9 0.329182 0.893115 0.833809
O O10 0.488104 0.000000 0.670359
O O11 0.396777 0.895486 0.949014
O O12 0.718036 0.100448 0.692600
O O13 0.500000 0.108819 0.000000
O O14 0.164433 0.000000 0.072461
O O15 0.630805 0.500000 0.609429
#
# Coordination Sequence:
#
# PCOD9221149 Si02
#       6
#     8   8   8   8   8   8
#     4  11  22  42  71 101 145 185 227 284 345 417
#     4  12  25  42  70 100 142 182 228 295 349 415
#     4  11  25  46  70  98 136 189 242 289 346 414
#     4  11  24  47  73 100 137 185 236 286 349 417
#     4  11  23  42  71 102 140 189 231 281 350 414
#     4  12  26  43  70 109 142 180 235 287 349 423
#
# _framework density 22.608345
#
# number of rings (size 3 to 8) (size 9 to 14) (size 15 to 20)
#    0.000    0.667    3.333    4.500    2.333    5.000 
#    0.000    0.000    0.000    0.000    0.000    0.000 
#    0.000    0.000    0.000    0.000    0.000    0.000 
#
# Total GULP energy -134455.231147 kJ/mol
# GULP energy per Si atom -5602.301298 kJ/mol
# Density = 2.255689 g / cm^3
# Si number density = 22.608345 Si / 1000 Ang^3
#
#
#
# Elastic Constant Matrix: (Units=GPa)
#
#
# Indices 1 2 3 4 5 6 
#
# 1 121.0511 37.2237 15.0527 0.0000 26.3752 0.0000
# 2 37.2237 147.8970 -7.0946 0.0000 -7.1556 0.0000
# 3 15.0527 -7.0946 26.9402 0.0000 18.5702 0.0000
# 4 0.0000 0.0000 0.0000 -108.1100 0.0000 174.2287
# 5 26.3752 -7.1556 18.5702 0.0000 41.8327 0.0000
# 6 0.0000 0.0000 0.0000 174.2287 0.0000 -253.3334
#
#
#
# Elastic Compliance Matrix: (Units=1/GPa)
#
#
# Indices 1 2 3 4 5 6 
#
# 1 0.010932 -0.003181 -0.002622 0.000000 -0.006273 0.000000
# 2 -0.003181 0.007782 0.002200 0.000000 0.002360 0.000000
# 3 -0.002622 0.002200 0.054416 0.000000 -0.022127 0.000000
# 4 0.000000 0.000000 0.000000 0.085362 0.000000 0.058707
# 5 -0.006273 0.002360 -0.022127 0.000000 0.038086 0.000000
# 6 0.000000 0.000000 0.000000 0.058707 0.000000 0.036428
#
#
# Mechanical properties :
#
#
# Convention : Reuss Voigt Hill
#
# Bulk Modulus (GPa) = 15.16912 42.91688 29.04300
# Shear Modulus (GPa) = 19.07050 -47.20838 -14.06894
#
# Velocity S-wave (km/s) = 2.90749 -4.57453 -2.49728
# Velocity P-wave (km/s) = 4.24210 2.97955 2.13514
#
# Compressibility (1/GPa) = 0.06592341
#
# Stress axis : x y z
#
# Youngs Moduli (GPa) = 91.47651 128.50685 18.37702
#
# Poissons Ratio (x) = 0.40873 0.04818
# Poissons Ratio (y) = 0.29095 -0.04042
# Poissons Ratio (z) = 0.23985 -0.28267
#
# Static dielectric constant tensor:
#      x y z
#    x 1.784540 0.000000 -0.010810 
#    y 0.000000 1.876680 0.000000 
#    z -0.010810 0.000000 1.828840 
# 
# From -- ./inp_files/167530.got.cif
#   From: 2010.05.17/outbox.cif.g08.bks.cpg/sg12_84_cif.got.tgz:167530.got - 2010.06.03 13:09:07.
