data_PCOD9221015
_publ_section_title
;
Structure prediction by ZEFSAII (Michael W. Deem and Ramdas Pophale) SiO2 
 PCOD9221015
Probable space group: C 2/M
;
_chemical_formula_sum "Si O2"
_cell_formula_units_Z 58
_cell_length_a 25.212140
_cell_length_b 12.301653
_cell_length_c 16.561477
_cell_angle_alpha 90.000000
_cell_angle_beta 32.019461
_cell_angle_gamma 90.000000
_cell_volume 2723.440774
_symmetry_space_group_name_H-M "C 2/M"
_symmetry_group_IT_number 12
_symmetry_cell_setting 'monoclinic'
loop_
_space_group_symop_operation_xyz
x,y,z
-x,y,-z
-x,-y,-z
x,-y,z
1/2+x,1/2+y,z
1/2-x,1/2+y,-z
1/2-x,1/2-y,-z
1/2+x,1/2-y,z
loop_
_atom_site_type_symbol
_atom_site_label
_atom_site_fract_x
_atom_site_fract_y
_atom_site_fract_z
Si Si1 0.116101 0.878841 0.368956
Si Si2 0.504851 0.190405 0.854556
Si Si3 0.501898 0.881559 0.674308
Si Si4 0.350368 0.309421 0.845871
Si Si5 0.355161 0.618118 0.013046
Si Si6 0.703439 0.829252 0.326992
Si Si7 0.500000 0.000000 0.000000
Si Si8 0.397339 0.376308 0.185568
O O1 0.164154 0.872070 0.218310
O O2 0.172036 0.795312 0.354182
O O3 0.000000 0.852412 0.500000
O O4 0.119936 0.000000 0.397379
O O5 0.519346 0.140656 0.747017
O O6 0.590175 0.278860 0.766851
O O7 0.408306 0.270914 0.974001
O O8 0.497152 0.097195 0.932307
O O9 0.434457 0.783221 0.729510
O O10 0.606026 0.881239 0.491933
O O11 0.453134 0.000000 0.728002
O O12 0.250000 0.250000 0.000000
O O13 0.373809 0.381198 0.893709
O O14 0.391506 0.500000 0.997853
O O15 0.241035 0.628244 0.191105
O O16 0.799537 0.851918 0.258492
O O17 0.388086 0.500000 0.228915
O O18 0.500000 0.371060 0.000000
#
# Coordination Sequence:
#
# PCOD9221015 Si02
#       8
#     8   8   8   8   8   8   2   8
#     4  11  24  47  69  93 135 181 223 284 343 408
#     4  11  23  42  65  96 132 176 227 273 329 403
#     4  11  25  43  65  97 138 172 215 286 345 400
#     4  11  23  43  64  98 134 170 226 276 339 411
#     4  11  22  40  69 100 128 174 231 282 330 392
#     4  12  23  43  67 100 135 175 225 274 343 407
#     4  12  20  40  66  88 128 174 220 270 328 400
#     4  11  22  41  67  98 132 173 226 279 330 395
#
# _framework density 21.296589999999998
#
# number of rings (size 3 to 8) (size 9 to 14) (size 15 to 20)
#    0.000    0.828    5.517    2.069    0.000    1.655 
#    4.966    1.379    0.000    0.000    0.000    0.000 
#    0.000    0.000    0.000    0.000    0.000    0.000 
#
# Total GULP energy -161608.175225 kJ/mol
# GULP energy per Si atom -5572.695697 kJ/mol
# Density = 2.124812 g / cm^3
# Si number density = 21.296590 Si / 1000 Ang^3
#
#
#
# Elastic Constant Matrix: (Units=GPa)
#
#
# Indices 1 2 3 4 5 6 
#
# 1 41.6147 53.9347 3.2821 0.0000 -0.9380 0.0000
# 2 53.9347 182.1037 33.0308 0.0000 -1.7775 0.0000
# 3 3.2821 33.0308 90.5552 0.0000 -4.2416 0.0000
# 4 0.0000 0.0000 0.0000 12.2277 0.0000 2.8687
# 5 -0.9380 -1.7775 -4.2416 0.0000 34.4055 0.0000
# 6 0.0000 0.0000 0.0000 2.8687 0.0000 27.4653
#
#
#
# Elastic Compliance Matrix: (Units=1/GPa)
#
#
# Indices 1 2 3 4 5 6 
#
# 1 0.039800 -0.012341 0.003098 0.000000 0.000829 0.000000
# 2 -0.012341 0.009707 -0.003104 0.000000 -0.000218 0.000000
# 3 0.003098 -0.003104 0.012129 0.000000 0.001419 0.000000
# 4 0.000000 0.000000 0.000000 0.083836 0.000000 -0.008756
# 5 0.000829 -0.000218 0.001419 0.000000 0.029251 0.000000
# 6 0.000000 0.000000 0.000000 -0.008756 0.000000 0.037324
#
#
# Mechanical properties :
#
#
# Convention : Reuss Voigt Hill
#
# Bulk Modulus (GPa) = 27.06961 54.97433 41.02197
# Shear Modulus (GPa) = 20.07580 29.75476 24.91528
#
# Velocity S-wave (km/s) = 3.07364 3.74192 3.42412
# Velocity P-wave (km/s) = 5.03336 6.67375 5.91074
#
# Compressibility (1/GPa) = 0.03694180
#
# Stress axis : x y z
#
# Youngs Moduli (GPa) = 25.12594 103.01338 82.44483
#
# Poissons Ratio (x) = 1.27134 -0.25541
# Poissons Ratio (y) = 0.31009 0.25589
# Poissons Ratio (z) = -0.07784 0.31973
#
# Static dielectric constant tensor:
#      x y z
#    x 1.858860 0.000000 0.017810 
#    y 0.000000 1.809530 0.000000 
#    z 0.017810 0.000000 1.781920 
# 
# From -- ./inp_files/293272.got.cif
#   From: 2010.05.17/outbox.cif.g08.bks.cpg/sg12_147_cif.got.tgz:293272.got - 2010.06.03 13:09:07.
