data_PCOD9221186
_publ_section_title
;
Structure prediction by ZEFSAII (Michael W. Deem and Ramdas Pophale) SiO2 
 PCOD9221186
Probable space group: C 2/M
;
_chemical_formula_sum "Si O2"
_cell_formula_units_Z 36
_cell_length_a 13.650467
_cell_length_b 27.544992
_cell_length_c 5.149456
_cell_angle_alpha 90.000000
_cell_angle_beta 116.463182
_cell_angle_gamma 90.000000
_cell_volume 1733.331881
_symmetry_space_group_name_H-M "C 2/M"
_symmetry_group_IT_number 12
_symmetry_cell_setting 'monoclinic'
loop_
_space_group_symop_operation_xyz
x,y,z
-x,y,-z
-x,-y,-z
x,-y,z
1/2+x,1/2+y,z
1/2-x,1/2+y,-z
1/2-x,1/2-y,-z
1/2+x,1/2-y,z
loop_
_atom_site_type_symbol
_atom_site_label
_atom_site_fract_x
_atom_site_fract_y
_atom_site_fract_z
Si Si1 0.574835 0.386154 0.334057
Si Si2 0.500000 0.094213 0.000000
Si Si3 0.268997 0.944327 0.795600
Si Si4 0.249862 0.693044 0.452753
Si Si5 0.842069 0.643596 0.162651
O O1 0.500000 0.385788 0.500000
O O2 0.633709 0.333768 0.374825
O O3 0.500000 0.397236 0.000000
O O4 0.327304 0.424295 0.498821
O O5 0.390410 0.063436 0.813126
O O6 0.459201 0.127340 0.188850
O O7 0.274018 0.906721 0.043772
O O8 0.254025 0.000000 0.848220
O O9 0.250000 0.750000 0.500000
O O10 0.174630 0.667453 0.581341
O O11 0.207041 0.679268 0.116381
#
# Coordination Sequence:
#
# PCOD9221186 Si02
#       5
#     8   4   8   8   8
#     4  11  24  44  63  93 136 177 222 280 331 396
#     4   8  19  40  68 100 140 170 220 290 339 394
#     4   9  19  40  69 100 135 182 229 275 339 402
#     4  11  22  44  65  91 126 170 227 270 335 397
#     4   9  21  38  65  94 131 164 209 282 334 389
#
# _framework density 20.769251000000001
#
# number of rings (size 3 to 8) (size 9 to 14) (size 15 to 20)
#    1.333    0.889    0.000    3.667    0.000    1.778 
#    6.000    8.889    0.000    6.667    0.000    0.000 
#    0.000    0.000    0.000    0.000    0.000    0.000 
#
# Total GULP energy -100378.040939 kJ/mol
# GULP energy per Si atom -5576.557830 kJ/mol
# Density = 2.072198 g / cm^3
# Si number density = 20.769251 Si / 1000 Ang^3
#
#
#
# Elastic Constant Matrix: (Units=GPa)
#
#
# Indices 1 2 3 4 5 6 
#
# 1 109.3677 36.6328 54.1608 0.0000 2.3441 0.0000
# 2 36.6328 166.3348 33.4714 0.0000 22.3691 0.0000
# 3 54.1608 33.4714 95.8480 0.0000 13.4618 0.0000
# 4 0.0000 0.0000 0.0000 2.1830 0.0000 1.9331
# 5 2.3441 22.3691 13.4618 0.0000 30.5529 0.0000
# 6 0.0000 0.0000 0.0000 1.9331 0.0000 12.1252
#
#
#
# Elastic Compliance Matrix: (Units=1/GPa)
#
#
# Indices 1 2 3 4 5 6 
#
# 1 0.013380 -0.001951 -0.007393 0.000000 0.003659 0.000000
# 2 -0.001951 0.007241 -0.000749 0.000000 -0.004822 0.000000
# 3 -0.007393 -0.000749 0.015686 0.000000 -0.005796 0.000000
# 4 0.000000 0.000000 0.000000 0.533397 0.000000 -0.085041
# 5 0.003659 -0.004822 -0.005796 0.000000 0.038533 0.000000
# 6 0.000000 0.000000 0.000000 -0.085041 0.000000 0.096031
#
#
# Mechanical properties :
#
#
# Convention : Reuss Voigt Hill
#
# Bulk Modulus (GPa) = 62.03185 68.89782 65.46484
# Shear Modulus (GPa) = 6.85093 25.45791 16.15442
#
# Velocity S-wave (km/s) = 1.81817 3.50487 2.79194
# Velocity P-wave (km/s) = 5.86001 7.04442 6.47933
#
# Compressibility (1/GPa) = 0.01612075
#
# Stress axis : x y z
#
# Youngs Moduli (GPa) = 74.73976 138.10632 63.74960
#
# Poissons Ratio (x) = 0.26946 0.47131
# Poissons Ratio (y) = 0.14583 0.04774
# Poissons Ratio (z) = 0.55256 0.10342
#
# Static dielectric constant tensor:
#      x y z
#    x 1.773950 0.000000 0.012390 
#    y 0.000000 1.712770 0.000000 
#    z 0.012390 0.000000 1.809610 
# 
# From -- ./inp_files/13010.got.cif
#   From: 2010.05.17/outbox.cif.g08.bks.cpg/sg12_7_cif.got.tgz:13010.got - 2010.06.03 13:09:07.
