data_PCOD9221351
_publ_section_title
;
Structure prediction by ZEFSAII (Michael W. Deem and Ramdas Pophale) SiO2 
 PCOD9221351
Probable space group: C 2/M
;
_chemical_formula_sum "Si O2"
_cell_formula_units_Z 48
_cell_length_a 17.199630
_cell_length_b 18.026964
_cell_length_c 17.474869
_cell_angle_alpha 90.000000
_cell_angle_beta 150.503887
_cell_angle_gamma 90.000000
_cell_volume 2667.733046
_symmetry_space_group_name_H-M "C 2/M"
_symmetry_group_IT_number 12
_symmetry_cell_setting 'monoclinic'
loop_
_space_group_symop_operation_xyz
x,y,z
-x,y,-z
-x,-y,-z
x,-y,z
1/2+x,1/2+y,z
1/2-x,1/2+y,-z
1/2-x,1/2-y,-z
1/2+x,1/2-y,z
loop_
_atom_site_type_symbol
_atom_site_label
_atom_site_fract_x
_atom_site_fract_y
_atom_site_fract_z
Si Si1 0.683641 0.297932 0.262728
Si Si2 0.919353 0.721451 0.114614
Si Si3 0.877485 0.415465 0.965534
Si Si4 0.145834 0.584422 0.685858
Si Si5 0.629168 0.673064 0.669983
Si Si6 0.961002 0.301605 0.620706
O O1 0.505934 0.282086 0.135599
O O2 0.717287 0.367371 0.236504
O O3 0.749387 0.225529 0.273576
O O4 0.796575 0.309241 0.434041
O O5 0.035307 0.707345 0.285734
O O6 0.750000 0.750000 0.000000
O O7 0.906446 0.646134 0.054929
O O8 0.881167 0.500000 0.996802
O O9 0.712648 0.392134 0.786283
O O10 0.000000 0.409009 0.000000
O O11 0.188909 0.500000 0.739155
O O12 0.073434 0.629360 0.694722
O O13 0.000000 0.584824 0.500000
O O14 0.500000 0.645137 0.500000
O O15 0.544018 0.729511 0.654971
#
# Coordination Sequence:
#
# PCOD9221351 Si02
#       6
#     8   8   8   8   8   8
#     4   9  18  33  55  81 108 141 185 219 257 329
#     4  12  22  34  55  79 109 147 178 222 271 316
#     4  11  23  39  56  77 108 147 184 224 272 325
#     4   8  15  31  56  83 108 135 171 221 273 319
#     4   9  17  35  59  81 104 138 185 228 266 319
#     4   9  18  32  56  84 107 138 178 223 269 321
#
# _framework density 17.992805000000001
#
# number of rings (size 3 to 8) (size 9 to 14) (size 15 to 20)
#    0.000    2.333    3.333    2.500    0.000    1.000 
#    0.000    0.833    0.000    1.000    0.000    0.000 
#    0.000    0.000    0.000    0.000    0.000    0.000 
#
# Total GULP energy -133807.572956 kJ/mol
# GULP energy per Si atom -5575.315540 kJ/mol
# Density = 1.795185 g / cm^3
# Si number density = 17.992805 Si / 1000 Ang^3
#
#
#
# Elastic Constant Matrix: (Units=GPa)
#
#
# Indices 1 2 3 4 5 6 
#
# 1 71.6068 43.6336 17.8672 -0.0006 9.8302 -0.0003
# 2 43.6336 109.1618 23.7537 -0.0021 12.6534 -0.0005
# 3 17.8672 23.7537 35.5607 -0.0028 1.9420 -0.0011
# 4 -0.0006 -0.0021 -0.0028 21.3362 -0.0018 -3.2045
# 5 9.8302 12.6534 1.9420 -0.0018 33.7764 -0.0004
# 6 -0.0003 -0.0005 -0.0011 -3.2045 -0.0004 16.1509
#
#
#
# Elastic Compliance Matrix: (Units=1/GPa)
#
#
# Indices 1 2 3 4 5 6 
#
# 1 0.019575 -0.006282 -0.005473 -0.000001 -0.003029 -0.000001
# 2 -0.006282 0.013194 -0.005504 0.000000 -0.002798 0.000000
# 3 -0.005473 -0.005504 0.034456 0.000004 0.001674 0.000003
# 4 -0.000001 0.000000 0.000004 0.048308 0.000003 0.009585
# 5 -0.003029 -0.002798 0.001674 0.000003 0.031440 0.000001
# 6 -0.000001 0.000000 0.000003 0.009585 0.000001 0.063818
#
#
# Mechanical properties :
#
#
# Convention : Reuss Voigt Hill
#
# Bulk Modulus (GPa) = 30.57581 42.98203 36.77892
# Shear Modulus (GPa) = 19.51514 22.99102 21.25308
#
# Velocity S-wave (km/s) = 3.29691 3.57850 3.44059
# Velocity P-wave (km/s) = 5.61454 6.40426 6.02236
#
# Compressibility (1/GPa) = 0.03270559
#
# Stress axis : x y z
#
# Youngs Moduli (GPa) = 51.08620 75.79339 29.02244
#
# Poissons Ratio (x) = 0.47615 0.15885
# Poissons Ratio (y) = 0.32093 0.15974
# Poissons Ratio (z) = 0.27962 0.41716
#
# Static dielectric constant tensor:
#      x y z
#    x 1.625910 0.000000 0.011750 
#    y 0.000000 1.590500 0.000000 
#    z 0.011750 0.000000 1.647570 
# 
# From -- ./inp_files/97564.got.cif
#   From: 2010.05.17/outbox.cif.g08.bks.cpg/sg12_49_cif.got.tgz:97564.got - 2010.06.03 13:09:07.
