data_PCOD9221558
_publ_section_title
;
Structure prediction by ZEFSAII (Michael W. Deem and Ramdas Pophale) SiO2 
 PCOD9221558
Probable space group: C 2/M
;
_chemical_formula_sum "Si O2"
_cell_formula_units_Z 64
_cell_length_a 14.289666
_cell_length_b 13.607931
_cell_length_c 23.814115
_cell_angle_alpha 90.000000
_cell_angle_beta 40.958237
_cell_angle_gamma 90.000000
_cell_volume 3035.478165
_symmetry_space_group_name_H-M "C 2/M"
_symmetry_group_IT_number 12
_symmetry_cell_setting 'monoclinic'
loop_
_space_group_symop_operation_xyz
x,y,z
-x,y,-z
-x,-y,-z
x,-y,z
1/2+x,1/2+y,z
1/2-x,1/2+y,-z
1/2-x,1/2-y,-z
1/2+x,1/2-y,z
loop_
_atom_site_type_symbol
_atom_site_label
_atom_site_fract_x
_atom_site_fract_y
_atom_site_fract_z
Si Si1 0.650735 0.204104 0.903274
Si Si2 0.055623 0.217618 0.569329
Si Si3 0.790880 0.249788 0.388537
Si Si4 0.977500 0.390632 0.237451
Si Si5 0.620714 0.614642 0.844782
Si Si6 0.275410 0.392452 0.735994
Si Si7 0.637514 0.272163 0.099290
Si Si8 0.849578 0.384967 0.643132
O O1 0.642703 0.319798 0.890413
O O2 0.691683 0.156087 0.825593
O O3 0.776128 0.177756 0.889406
O O4 0.500000 0.176506 0.000000
O O5 0.909671 0.163709 0.650194
O O6 0.000026 0.329089 0.582864
O O7 0.153666 0.200507 0.579475
O O8 0.150574 0.190447 0.472247
O O9 0.922454 0.318984 0.311096
O O10 0.742110 0.174665 0.362257
O O11 0.025628 0.500000 0.232514
O O12 0.836996 0.399445 0.263060
O O13 0.084557 0.330070 0.149983
O O14 0.592263 0.500000 0.868741
O O15 0.491564 0.665009 0.868115
O O16 0.759559 0.621718 0.741811
O O17 0.322557 0.500000 0.733110
O O18 0.750000 0.250000 0.000000
O O19 0.864974 0.500000 0.621855
#
# Coordination Sequence:
#
# PCOD9221558 Si02
#       8
#     8   8   8   8   8   8   8   8
#     4  12  23  43  70  92 130 169 209 263 323 377
#     4  11  23  41  65  93 129 169 213 264 320 381
#     4  11  23  41  65  93 129 170 213 263 321 383
#     4  11  23  41  64  92 127 166 212 262 318 380
#     4  11  24  43  66  99 132 166 215 266 321 383
#     4  11  23  41  64  92 126 165 212 259 316 383
#     4  12  23  43  68  93 130 170 209 262 322 380
#     4  11  23  42  69  95 129 170 214 267 323 382
#
# _framework density 21.083991999999999
#
# number of rings (size 3 to 8) (size 9 to 14) (size 15 to 20)
#    0.000    0.750    6.250    1.125    0.000    4.500 
#    0.000    3.750    0.000    0.000    0.000    0.000 
#    0.000    0.000    0.000    0.000    0.000    0.000 
#
# Total GULP energy -178693.888188 kJ/mol
# GULP energy per Si atom -5584.184006 kJ/mol
# Density = 2.103600 g / cm^3
# Si number density = 21.083992 Si / 1000 Ang^3
#
#
#
# Elastic Constant Matrix: (Units=GPa)
#
#
# Indices 1 2 3 4 5 6 
#
# 1 59.1857 -11.5504 -17.6783 0.0000 -6.9559 0.0000
# 2 -11.5504 95.9715 35.4023 0.0000 -1.6223 0.0000
# 3 -17.6783 35.4023 124.2625 0.0000 -0.7381 0.0000
# 4 0.0000 0.0000 0.0000 2.2336 0.0000 -1.2904
# 5 -6.9559 -1.6223 -0.7381 0.0000 29.1104 0.0000
# 6 0.0000 0.0000 0.0000 -1.2904 0.0000 7.0891
#
#
#
# Elastic Compliance Matrix: (Units=1/GPa)
#
#
# Indices 1 2 3 4 5 6 
#
# 1 0.018379 0.001468 0.002223 0.000000 0.004530 0.000000
# 2 0.001468 0.011770 -0.003139 0.000000 0.000927 0.000000
# 3 0.002223 -0.003139 0.009262 0.000000 0.000591 0.000000
# 4 0.000000 0.000000 0.000000 0.500334 0.000000 0.091076
# 5 0.004530 0.000927 0.000591 0.000000 0.035501 0.000000
# 6 0.000000 0.000000 0.000000 0.091076 0.000000 0.157640
#
#
# Mechanical properties :
#
#
# Convention : Reuss Voigt Hill
#
# Bulk Modulus (GPa) = 24.68149 32.41851 28.55000
# Shear Modulus (GPa) = 6.70884 25.90303 16.30594
#
# Velocity S-wave (km/s) = 1.78574 3.50889 2.78399
# Velocity P-wave (km/s) = 3.99794 5.64143 4.88923
#
# Compressibility (1/GPa) = 0.04051619
#
# Stress axis : x y z
#
# Youngs Moduli (GPa) = 54.40999 84.96149 107.97330
#
# Poissons Ratio (x) = -0.12476 -0.24005
# Poissons Ratio (y) = -0.07990 0.33891
# Poissons Ratio (z) = -0.12097 0.26668
#
# Static dielectric constant tensor:
#      x y z
#    x 1.807140 0.000000 0.049430 
#    y 0.000000 1.629880 0.000000 
#    z 0.049430 0.000000 1.909850 
# 
# From -- ./inp_files/340123.got.cif
#   From: 2010.05.17/outbox.cif.g08.bks.cpg/sg12_171_cif.got.tgz:340123.got - 2010.06.03 13:09:07.
