data_PCOD9221107
_publ_section_title
;
Structure prediction by ZEFSAII (Michael W. Deem and Ramdas Pophale) SiO2 
 PCOD9221107
Probable space group: C 2/M
;
_chemical_formula_sum "Si O2"
_cell_formula_units_Z 32
_cell_length_a 14.950933
_cell_length_b 12.300218
_cell_length_c 10.362867
_cell_angle_alpha 90.000000
_cell_angle_beta 66.612906
_cell_angle_gamma 90.000000
_cell_volume 1749.161583
_symmetry_space_group_name_H-M "C 2/M"
_symmetry_group_IT_number 12
_symmetry_cell_setting 'monoclinic'
loop_
_space_group_symop_operation_xyz
x,y,z
-x,y,-z
-x,-y,-z
x,-y,z
1/2+x,1/2+y,z
1/2-x,1/2+y,-z
1/2-x,1/2-y,-z
1/2+x,1/2-y,z
loop_
_atom_site_type_symbol
_atom_site_label
_atom_site_fract_x
_atom_site_fract_y
_atom_site_fract_z
Si Si1 0.831940 0.232094 0.343672
Si Si2 0.795191 0.232138 0.834269
Si Si3 0.512885 0.129200 0.338222
Si Si4 0.103110 0.000000 0.604001
Si Si5 0.871015 0.000000 0.707487
O O1 0.750000 0.250000 0.500000
O O2 0.783637 0.247700 0.232674
O O3 0.921677 0.312850 0.321104
O O4 0.867224 0.108801 0.340293
O O5 0.830773 0.108714 0.794519
O O6 0.887443 0.311462 0.759167
O O7 0.750000 0.250000 0.000000
O O8 0.500000 0.144925 0.500000
O O9 0.515425 0.000000 0.311143
O O10 0.150724 0.000000 0.433674
O O11 0.987386 0.000000 0.652441
#
# Coordination Sequence:
#
# PCOD9221107 Si02
#       5
#     8   8   8   4   4
#     4  12  24  41  70 102 129 176 228 270 331 392
#     4  12  28  45  67 100 141 178 217 275 343 399
#     4  11  24  44  68 100 135 172 226 281 325 393
#     4  11  22  41  75  98 126 171 238 283 312 387
#     4  11  22  45  69  96 135 174 222 283 329 386
#
# _framework density 18.29448
#
# number of rings (size 3 to 8) (size 9 to 14) (size 15 to 20)
#    0.000    0.500    7.500    0.000    7.000    1.000 
#    0.000    2.500    0.000    0.000    0.000    0.000 
#    0.000    0.000    0.000    0.000    0.000    0.000 
#
# Total GULP energy -89493.162293 kJ/mol
# GULP energy per Si atom -5593.322643 kJ/mol
# Density = 1.825284 g / cm^3
# Si number density = 18.294480 Si / 1000 Ang^3
#
#
#
# Elastic Constant Matrix: (Units=GPa)
#
#
# Indices 1 2 3 4 5 6 
#
# 1 166.4973 96.5697 84.9329 0.0000 11.7171 0.0000
# 2 96.5697 198.9357 91.0321 0.0000 -6.2174 0.0000
# 3 84.9329 91.0321 166.3891 0.0000 4.8706 0.0000
# 4 0.0000 0.0000 0.0000 11.0009 0.0000 -10.0052
# 5 11.7171 -6.2174 4.8706 0.0000 28.0942 0.0000
# 6 0.0000 0.0000 0.0000 -10.0052 0.0000 41.4031
#
#
#
# Elastic Compliance Matrix: (Units=1/GPa)
#
#
# Indices 1 2 3 4 5 6 
#
# 1 0.009914 -0.003594 -0.002965 0.000000 -0.004416 0.000000
# 2 -0.003594 0.008138 -0.002728 0.000000 0.003773 0.000000
# 3 -0.002965 -0.002728 0.009043 0.000000 -0.000935 0.000000
# 4 0.000000 0.000000 0.000000 0.116508 0.000000 0.028155
# 5 -0.004416 0.003773 -0.000935 0.000000 0.038433 0.000000
# 6 0.000000 0.000000 0.000000 0.028155 0.000000 0.030956
#
#
# Mechanical properties :
#
#
# Convention : Reuss Voigt Hill
#
# Bulk Modulus (GPa) = 117.35710 119.65462 118.50586
# Shear Modulus (GPa) = 21.33042 33.38545 27.35794
#
# Velocity S-wave (km/s) = 3.41830 4.27651 3.87126
# Velocity P-wave (km/s) = 8.93688 9.48322 9.21410
#
# Compressibility (1/GPa) = 0.00852100
#
# Stress axis : x y z
#
# Youngs Moduli (GPa) = 100.86986 122.88770 110.57702
#
# Poissons Ratio (x) = 0.44162 0.32787
# Poissons Ratio (y) = 0.36249 0.30167
# Poissons Ratio (z) = 0.29909 0.33525
#
# Static dielectric constant tensor:
#      x y z
#    x 1.567790 0.000000 -0.017210 
#    y 0.000000 1.600370 0.000000 
#    z -0.017210 0.000000 1.587260 
# 
# From -- ./inp_files/56818.got.cif
#   From: 2010.05.17/outbox.cif.g08.bks.cpg/sg12_29_cif.got.tgz:56818.got - 2010.06.03 13:09:07.
