data_PCOD9221681
_publ_section_title
;
Structure prediction by ZEFSAII (Michael W. Deem and Ramdas Pophale) SiO2 
 PCOD9221681
Probable space group: C 2/M
;
_chemical_formula_sum "Si O2"
_cell_formula_units_Z 40
_cell_length_a 12.883367
_cell_length_b 26.906168
_cell_length_c 5.141464
_cell_angle_alpha 90.000000
_cell_angle_beta 102.044835
_cell_angle_gamma 90.000000
_cell_volume 1743.010673
_symmetry_space_group_name_H-M "C 2/M"
_symmetry_group_IT_number 12
_symmetry_cell_setting 'monoclinic'
loop_
_space_group_symop_operation_xyz
x,y,z
-x,y,-z
-x,-y,-z
x,-y,z
1/2+x,1/2+y,z
1/2-x,1/2+y,-z
1/2-x,1/2-y,-z
1/2+x,1/2-y,z
loop_
_atom_site_type_symbol
_atom_site_label
_atom_site_fract_x
_atom_site_fract_y
_atom_site_fract_z
Si Si1 0.574214 0.623399 0.791611
Si Si2 0.371918 0.273381 0.962854
Si Si3 0.628441 0.219307 0.541324
Si Si4 0.623828 0.894000 0.489114
Si Si5 0.225601 0.440921 0.053088
O O1 0.500000 0.631807 0.500000
O O2 0.660124 0.580430 0.800800
O O3 0.500000 0.611779 0.000000
O O4 0.638272 0.673109 0.908558
O O5 0.341001 0.261431 0.651664
O O6 0.163570 0.268934 0.852956
O O7 0.500000 0.269344 0.000000
O O8 0.500000 0.220280 0.500000
O O9 0.655896 0.163727 0.470215
O O10 0.500000 0.895825 0.500000
O O11 0.645237 0.923104 0.235091
O O12 0.691125 0.917162 0.760431
O O13 0.226732 0.500000 0.032188
#
# Coordination Sequence:
#
# PCOD9221681 Si02
#       5
#     8   8   8   8   8
#     4  11  23  42  67  95 131 173 215 263 323 385
#     4   9  16  31  57  90 124 163 202 245 306 376
#     4   9  17  32  58  90 125 163 200 246 308 378
#     4  11  24  44  68  96 130 170 213 265 328 388
#     4  12  27  45  66  95 128 166 224 282 323 377
#
# _framework density 22.948798
#
# number of rings (size 3 to 8) (size 9 to 14) (size 15 to 20)
#    0.000    1.600    0.000    6.600    0.000    6.400 
#    0.000    6.000    0.000    0.000    0.000    0.000 
#    0.000    0.000    0.000    0.000    0.000    0.000 
#
# Total GULP energy -111955.916291 kJ/mol
# GULP energy per Si atom -5597.795815 kJ/mol
# Density = 2.289657 g / cm^3
# Si number density = 22.948798 Si / 1000 Ang^3
#
#
#
# Elastic Constant Matrix: (Units=GPa)
#
#
# Indices 1 2 3 4 5 6 
#
# 1 61.1549 22.5947 9.2088 0.0000 -9.6945 0.0000
# 2 22.5947 117.8312 29.3575 0.0000 -7.5822 0.0000
# 3 9.2088 29.3575 134.6197 0.0000 8.8552 0.0000
# 4 0.0000 0.0000 0.0000 24.8744 0.0000 -2.3878
# 5 -9.6945 -7.5822 8.8552 0.0000 49.5723 0.0000
# 6 0.0000 0.0000 0.0000 -2.3878 0.0000 22.1597
#
#
#
# Elastic Compliance Matrix: (Units=1/GPa)
#
#
# Indices 1 2 3 4 5 6 
#
# 1 0.018114 -0.003072 -0.000780 0.000000 0.003212 0.000000
# 2 -0.003072 0.009647 -0.001974 0.000000 0.001227 0.000000
# 3 -0.000780 -0.001974 0.008037 0.000000 -0.001890 0.000000
# 4 0.000000 0.000000 0.000000 0.040622 0.000000 0.004377
# 5 0.003212 0.001227 -0.001890 0.000000 0.021326 0.000000
# 6 0.000000 0.000000 0.000000 0.004377 0.000000 0.045599
#
#
# Mechanical properties :
#
#
# Convention : Reuss Voigt Hill
#
# Bulk Modulus (GPa) = 41.41970 48.43642 44.92806
# Shear Modulus (GPa) = 30.66629 36.15092 33.40860
#
# Velocity S-wave (km/s) = 3.65950 3.97329 3.81962
# Velocity P-wave (km/s) = 5.99532 6.49627 6.25081
#
# Compressibility (1/GPa) = 0.02414310
#
# Stress axis : x y z
#
# Youngs Moduli (GPa) = 55.20685 103.66222 124.43070
#
# Poissons Ratio (x) = 0.31848 0.09710
# Poissons Ratio (y) = 0.16961 0.24566
# Poissons Ratio (z) = 0.04308 0.20466
#
# Static dielectric constant tensor:
#      x y z
#    x 1.994480 0.000000 0.082370 
#    y 0.000000 1.807930 0.000000 
#    z 0.082370 0.000000 1.841110 
# 
# From -- ./inp_files/8509.got.cif
#   From: 2010.05.17/outbox.cif.g08.bks.cpg/sg12_5_cif.got.tgz:8509.got - 2010.06.03 13:09:07.
