data_PCOD9221330
_publ_section_title
;
Structure prediction by ZEFSAII (Michael W. Deem and Ramdas Pophale) SiO2 
 PCOD9221330
Probable space group: C 2/M
;
_chemical_formula_sum "Si O2"
_cell_formula_units_Z 48
_cell_length_a 20.695251
_cell_length_b 18.009637
_cell_length_c 17.548508
_cell_angle_alpha 90.000000
_cell_angle_beta 20.280200
_cell_angle_gamma 90.000000
_cell_volume 2267.038251
_symmetry_space_group_name_H-M "C 2/M"
_symmetry_group_IT_number 12
_symmetry_cell_setting 'monoclinic'
loop_
_space_group_symop_operation_xyz
x,y,z
-x,y,-z
-x,-y,-z
x,-y,z
1/2+x,1/2+y,z
1/2-x,1/2+y,-z
1/2-x,1/2-y,-z
1/2+x,1/2-y,z
loop_
_atom_site_type_symbol
_atom_site_label
_atom_site_fract_x
_atom_site_fract_y
_atom_site_fract_z
Si Si1 0.210075 0.314817 0.853633
Si Si2 0.388872 0.828210 0.417760
Si Si3 0.418346 0.323537 0.464931
Si Si4 0.101160 0.586925 0.750404
Si Si5 0.479164 0.342488 0.932395
Si Si6 0.606845 0.913695 0.304584
O O1 0.302525 0.299646 0.668783
O O2 0.373329 0.332760 0.733622
O O3 0.102791 0.239393 0.993028
O O4 0.063633 0.381891 0.013744
O O5 0.409304 0.740318 0.410591
O O6 0.423865 0.862338 0.296877
O O7 0.529570 0.865660 0.321406
O O8 0.179393 0.849936 0.673160
O O9 0.304401 0.393658 0.559703
O O10 0.082586 0.500000 0.755678
O O11 0.500000 0.350749 0.000000
O O12 0.325078 0.399868 0.074081
O O13 0.500000 0.889419 0.500000
O O14 0.564932 0.000000 0.338727
#
# Coordination Sequence:
#
# PCOD9221330 Si02
#       6
#     8   8   8   8   8   8
#     4  11  23  43  74 106 127 175 229 295 340 397
#     4  12  24  43  69  99 137 181 224 280 339 408
#     4  11  23  43  75 103 131 170 239 285 338 399
#     4  12  28  46  65 100 147 184 222 278 348 411
#     4  12  21  38  69  99 130 172 228 280 330 398
#     4  11  23  38  60  95 138 180 225 279 335 395
#
# _framework density 21.172999999999998
#
# number of rings (size 3 to 8) (size 9 to 14) (size 15 to 20)
#    0.000    0.500    6.667    1.500    0.000    5.667 
#    0.000    1.667    0.000    0.000    0.000    0.000 
#    0.000    0.000    0.000    0.000    0.000    0.000 
#
# Total GULP energy -134303.773695 kJ/mol
# GULP energy per Si atom -5595.990571 kJ/mol
# Density = 2.112481 g / cm^3
# Si number density = 21.173000 Si / 1000 Ang^3
#
#
#
# Elastic Constant Matrix: (Units=GPa)
#
#
# Indices 1 2 3 4 5 6 
#
# 1 73.1030 24.2786 29.3370 0.0374 -12.6427 0.0278
# 2 24.2786 81.4288 11.0268 0.0404 4.5879 0.0306
# 3 29.3370 11.0268 79.9422 0.0187 -17.3407 0.0108
# 4 0.0374 0.0404 0.0187 6.1356 -0.0066 -16.9058
# 5 -12.6427 4.5879 -17.3407 -0.0066 32.9362 -0.0071
# 6 0.0278 0.0306 0.0108 -16.9058 -0.0071 0.3680
#
#
#
# Elastic Compliance Matrix: (Units=1/GPa)
#
#
# Indices 1 2 3 4 5 6 
#
# 1 0.018199 -0.005056 -0.004869 0.000016 0.005126 0.000027
# 2 -0.005056 0.014186 -0.001074 0.000019 -0.004482 0.000030
# 3 -0.004869 -0.001074 0.015885 -0.000003 0.006644 0.000001
# 4 0.000016 0.000019 -0.000003 -0.001298 -0.000011 -0.059622
# 5 0.005126 -0.004482 0.006644 -0.000011 0.036452 -0.000010
# 6 0.000027 0.000030 0.000001 -0.059622 -0.000010 -0.021638
#
#
# Mechanical properties :
#
#
# Convention : Reuss Voigt Hill
#
# Bulk Modulus (GPa) = 38.06187 40.41765 39.23976
# Shear Modulus (GPa) = 54.03013 19.21005 36.62009
#
# Velocity S-wave (km/s) = 5.05706 3.01539 4.16332
# Velocity P-wave (km/s) = 7.21901 5.59054 6.45632
#
# Compressibility (1/GPa) = 0.02627301
#
# Stress axis : x y z
#
# Youngs Moduli (GPa) = 54.94794 70.49234 62.95155
#
# Poissons Ratio (x) = 0.35638 0.30653
# Poissons Ratio (y) = 0.27780 0.06759
# Poissons Ratio (z) = 0.26756 0.07568
#
# Static dielectric constant tensor:
#      x y z
#    x 1.766980 -0.000010 0.016200 
#    y -0.000010 1.715320 0.000000 
#    z 0.016200 0.000000 1.765230 
# 
# From -- ./inp_files/285352.got.cif
#   From: 2010.05.17/outbox.cif.g08.bks.cpg/sg12_143_cif.got.tgz:285352.got - 2010.06.03 13:09:07.
