data_PCOD9221218
_publ_section_title
;
Structure prediction by ZEFSAII (Michael W. Deem and Ramdas Pophale) SiO2 
 PCOD9221218
Probable space group: C 2/M
;
_chemical_formula_sum "Si O2"
_cell_formula_units_Z 40
_cell_length_a 13.851113
_cell_length_b 16.724197
_cell_length_c 20.676437
_cell_angle_alpha 90.000000
_cell_angle_beta 156.735784
_cell_angle_gamma 90.000000
_cell_volume 1891.784883
_symmetry_space_group_name_H-M "C 2/M"
_symmetry_group_IT_number 12
_symmetry_cell_setting 'monoclinic'
loop_
_space_group_symop_operation_xyz
x,y,z
-x,y,-z
-x,-y,-z
x,-y,z
1/2+x,1/2+y,z
1/2-x,1/2+y,-z
1/2-x,1/2-y,-z
1/2+x,1/2-y,z
loop_
_atom_site_type_symbol
_atom_site_label
_atom_site_fract_x
_atom_site_fract_y
_atom_site_fract_z
Si Si1 0.477929 0.591904 0.779146
Si Si2 0.624614 0.367828 0.140348
Si Si3 0.197989 0.657764 0.485134
Si Si4 0.467529 0.186849 0.054169
Si Si5 0.587699 0.411396 0.627324
O O1 0.525624 0.500000 0.788023
O O2 0.392228 0.590581 0.800642
O O3 0.287842 0.632205 0.612047
O O4 0.719194 0.646948 0.924926
O O5 0.486623 0.282515 0.065583
O O6 0.910076 0.355516 0.301071
O O7 0.500000 0.405152 0.000000
O O8 0.250000 0.750000 0.500000
O O9 0.364273 0.608083 0.537503
O O10 0.699770 0.152913 0.234462
O O11 0.500000 0.160813 0.000000
O O12 0.500000 0.410417 0.500000
O O13 0.684928 0.500000 0.702604
#
# Coordination Sequence:
#
# PCOD9221218 Si02
#       5
#     8   8   8   8   8
#     4  12  27  45  72 103 140 184 228 285 349 410
#     4  11  26  45  69 102 137 182 234 281 340 412
#     4  12  24  44  70  99 137 184 229 280 336 412
#     4  11  22  45  71  99 134 175 231 283 342 407
#     4  11  25  41  67 101 135 176 225 287 347 399
#
# _framework density 21.144053
#
# number of rings (size 3 to 8) (size 9 to 14) (size 15 to 20)
#    0.000    0.600    4.000    3.600    5.600    3.600 
#    0.000    0.000    0.000    0.000    0.000    0.000 
#    0.000    0.000    0.000    0.000    0.000    0.000 
#
# Total GULP energy -111852.140647 kJ/mol
# GULP energy per Si atom -5592.607032 kJ/mol
# Density = 2.109593 g / cm^3
# Si number density = 21.144053 Si / 1000 Ang^3
#
#
#
# Elastic Constant Matrix: (Units=GPa)
#
#
# Indices 1 2 3 4 5 6 
#
# 1 104.1845 7.3991 54.9504 0.0241 -23.7384 0.0131
# 2 7.3991 88.1006 23.1565 0.0024 -16.7748 0.0000
# 3 54.9504 23.1565 136.8954 0.0301 -1.7711 -0.0101
# 4 0.0241 0.0024 0.0301 -62.8075 0.0123 -37.3049
# 5 -23.7384 -16.7748 -1.7711 0.0123 40.3544 -0.0010
# 6 0.0131 0.0000 -0.0101 -37.3049 -0.0010 28.4802
#
#
#
# Elastic Compliance Matrix: (Units=1/GPa)
#
#
# Indices 1 2 3 4 5 6 
#
# 1 0.014852 0.002167 -0.006207 0.000006 0.009365 -0.000001
# 2 0.002167 0.013227 -0.003022 0.000001 0.006641 0.000000
# 3 -0.006207 -0.003022 0.010250 -0.000001 -0.004458 0.000005
# 4 0.000006 0.000001 -0.000001 -0.008955 0.000006 -0.011730
# 5 0.009365 0.006641 -0.004458 0.000006 0.032854 0.000003
# 6 -0.000001 0.000000 0.000005 -0.011730 0.000003 0.019748
#
#
# Mechanical properties :
#
#
# Convention : Reuss Voigt Hill
#
# Bulk Modulus (GPa) = 41.31107 55.57696 48.44402
# Shear Modulus (GPa) = 47.99913 17.45037 32.72475
#
# Velocity S-wave (km/s) = 4.76973 2.87594 3.93836
# Velocity P-wave (km/s) = 7.06499 6.11310 6.60621
#
# Compressibility (1/GPa) = 0.02420658
#
# Stress axis : x y z
#
# Youngs Moduli (GPa) = 67.33016 75.60151 97.56220
#
# Poissons Ratio (x) = -0.16385 0.60559
# Poissons Ratio (y) = -0.14593 0.29479
# Poissons Ratio (z) = 0.41793 0.22843
#
# Static dielectric constant tensor:
#      x y z
#    x 1.803280 0.000020 0.150010 
#    y 0.000020 1.771980 0.000050 
#    z 0.150010 0.000050 2.313470 
# 
# From -- ./inp_files/61400.got.cif
#   From: 2010.05.17/outbox.cif.g08.bks.cpg/sg12_31_cif.got.tgz:61400.got - 2010.06.03 13:09:07.
