data_PCOD9221746
_publ_section_title
;
Structure prediction by ZEFSAII (Michael W. Deem and Ramdas Pophale) SiO2 
 PCOD9221746
Probable space group: C 2/M
;
_chemical_formula_sum "Si O2"
_cell_formula_units_Z 48
_cell_length_a 7.911067
_cell_length_b 30.524475
_cell_length_c 8.614293
_cell_angle_alpha 90.000000
_cell_angle_beta 90.453609
_cell_angle_gamma 90.000000
_cell_volume 2080.124334
_symmetry_space_group_name_H-M "C 2/M"
_symmetry_group_IT_number 12
_symmetry_cell_setting 'monoclinic'
loop_
_space_group_symop_operation_xyz
x,y,z
-x,y,-z
-x,-y,-z
x,-y,z
1/2+x,1/2+y,z
1/2-x,1/2+y,-z
1/2-x,1/2-y,-z
1/2+x,1/2-y,z
loop_
_atom_site_type_symbol
_atom_site_label
_atom_site_fract_x
_atom_site_fract_y
_atom_site_fract_z
Si Si1 0.116125 0.547235 0.760194
Si Si2 0.648306 0.720520 0.384454
Si Si3 0.740834 0.547133 0.900334
Si Si4 0.260108 0.367693 0.612766
Si Si5 0.143807 0.134666 0.739024
Si Si6 0.848407 0.284179 0.891907
O O1 0.146354 0.500000 0.679267
O O2 0.155045 0.591188 0.668871
O O3 0.925051 0.547100 0.820641
O O4 0.230028 0.548109 0.915692
O O5 0.500000 0.703538 0.500000
O O6 0.750000 0.750000 0.500000
O O7 0.780520 0.682087 0.339642
O O8 0.588127 0.751542 0.245129
O O9 0.658499 0.500000 0.858981
O O10 0.662100 0.591959 0.844568
O O11 0.263619 0.369987 0.426341
O O12 0.446486 0.367414 0.692046
O O13 0.225131 0.177458 0.823774
O O14 0.750000 0.250000 0.000000
O O15 0.000000 0.302893 0.000000
#
# Coordination Sequence:
#
# PCOD9221746 Si02
#       6
#     8   8   8   8   8   8
#     4   9  21  42  69  98 130 173 218 274 335 398
#     4  12  23  46  68  92 134 178 217 269 335 393
#     4   9  21  42  65  96 134 168 217 274 335 398
#     4  11  23  43  65  94 135 171 224 261 328 404
#     4  11  24  43  63  98 133 175 217 272 329 390
#     4  12  27  45  69 102 135 175 231 280 332 396
#
# _framework density 23.075545000000002
#
# number of rings (size 3 to 8) (size 9 to 14) (size 15 to 20)
#    0.000    1.333    3.333    3.000    4.667    4.000 
#    0.000    5.000    0.000    0.000    0.000    0.000 
#    0.000    0.000    0.000    0.000    0.000    0.000 
#
# Total GULP energy -133965.741804 kJ/mol
# GULP energy per Si atom -5581.905909 kJ/mol
# Density = 2.302302 g / cm^3
# Si number density = 23.075545 Si / 1000 Ang^3
#
#
#
# Elastic Constant Matrix: (Units=GPa)
#
#
# Indices 1 2 3 4 5 6 
#
# 1 35.9268 24.2307 24.5913 0.0000 2.9488 0.0000
# 2 24.2307 168.9651 40.5727 0.0000 -8.1577 0.0000
# 3 24.5913 40.5727 78.6588 0.0000 2.0884 0.0000
# 4 0.0000 0.0000 0.0000 45.7194 0.0000 -5.4649
# 5 2.9488 -8.1577 2.0884 0.0000 29.3352 0.0000
# 6 0.0000 0.0000 0.0000 -5.4649 0.0000 16.9591
#
#
#
# Elastic Compliance Matrix: (Units=1/GPa)
#
#
# Indices 1 2 3 4 5 6 
#
# 1 0.037008 -0.003129 -0.009853 0.000000 -0.003889 0.000000
# 2 -0.003129 0.007155 -0.002779 0.000000 0.002502 0.000000
# 3 -0.009853 -0.002779 0.017254 0.000000 -0.001011 0.000000
# 4 0.000000 0.000000 0.000000 0.022749 0.000000 0.007331
# 5 -0.003889 0.002502 -0.001011 0.000000 0.035247 0.000000
# 6 0.000000 0.000000 0.000000 0.007331 0.000000 0.061327
#
#
# Mechanical properties :
#
#
# Convention : Reuss Voigt Hill
#
# Bulk Modulus (GPa) = 33.44979 51.37111 42.41045
# Shear Modulus (GPa) = 22.49954 31.34647 26.92301
#
# Velocity S-wave (km/s) = 3.12595 3.68968 3.41945
# Velocity P-wave (km/s) = 5.24938 6.36099 5.83173
#
# Compressibility (1/GPa) = 0.02989555
#
# Stress axis : x y z
#
# Youngs Moduli (GPa) = 27.02123 139.75864 57.95898
#
# Poissons Ratio (x) = 0.43732 0.57105
# Poissons Ratio (y) = 0.08455 0.16106
# Poissons Ratio (z) = 0.26623 0.38837
#
# Static dielectric constant tensor:
#      x y z
#    x 1.855570 0.000000 0.033520 
#    y 0.000000 1.951000 0.000000 
#    z 0.033520 0.000000 1.845400 
# 
# From -- ./inp_files/42230.got.cif
#   From: 2010.05.17/outbox.cif.g08.bks.cpg/sg12_22_cif.got.tgz:42230.got - 2010.06.03 13:09:07.
