data_PCOD9221251
_publ_section_title
;
Structure prediction by ZEFSAII (Michael W. Deem and Ramdas Pophale) SiO2 
 PCOD9221251
Probable space group: C 2/M
;
_chemical_formula_sum "Si O2"
_cell_formula_units_Z 40
_cell_length_a 21.062547
_cell_length_b 21.293418
_cell_length_c 15.961358
_cell_angle_alpha 90.000000
_cell_angle_beta 163.601259
_cell_angle_gamma 90.000000
_cell_volume 2021.009388
_symmetry_space_group_name_H-M "C 2/M"
_symmetry_group_IT_number 12
_symmetry_cell_setting 'monoclinic'
loop_
_space_group_symop_operation_xyz
x,y,z
-x,y,-z
-x,-y,-z
x,-y,z
1/2+x,1/2+y,z
1/2-x,1/2+y,-z
1/2-x,1/2-y,-z
1/2+x,1/2-y,z
loop_
_atom_site_type_symbol
_atom_site_label
_atom_site_fract_x
_atom_site_fract_y
_atom_site_fract_z
Si Si1 0.132946 0.689662 0.992807
Si Si2 0.964728 0.828978 0.166560
Si Si3 0.641297 0.301499 0.558438
Si Si4 0.163467 0.069956 0.128165
Si Si5 0.466732 0.161488 0.610882
O O1 0.184144 0.671666 0.153242
O O2 0.387726 0.692516 0.276312
O O3 0.026541 0.759464 0.861202
O O4 0.987758 0.653306 0.738299
O O5 0.137190 0.832817 0.461927
O O6 0.955604 0.885235 0.089938
O O7 0.718650 0.828441 0.897664
O O8 0.666886 0.226171 0.577331
O O9 0.371902 0.106422 0.433341
O O10 0.214466 0.000000 0.160656
O O11 0.000000 0.064527 0.000000
#
# Coordination Sequence:
#
# PCOD9221251 Si02
#       5
#     8   8   8   8   8
#     4   8  13  24  47  76 100 116 138 184 239 281
#     4   9  16  28  49  72  92 120 155 186 226 280
#     4   8  13  24  47  76 100 116 138 184 239 281
#     4  11  23  35  45  61  93 131 162 197 232 261
#     4   9  16  28  49  72  92 120 155 186 226 280
#
# _framework density 19.792090999999999
#
# number of rings (size 3 to 8) (size 9 to 14) (size 15 to 20)
#    0.000    3.000    2.000    3.000    0.000    1.600 
#    0.000    4.000    0.000    1.200    0.000    8.400 
#    0.000    0.000    0.000    0.000    0.000    0.000 
#
# Total GULP energy -111464.529343 kJ/mol
# GULP energy per Si atom -5573.226467 kJ/mol
# Density = 1.974704 g / cm^3
# Si number density = 19.792091 Si / 1000 Ang^3
#
#
#
# Elastic Constant Matrix: (Units=GPa)
#
#
# Indices 1 2 3 4 5 6 
#
# 1 84.5646 32.4050 39.0476 -0.0010 -42.0560 0.0010
# 2 32.4050 81.1594 31.5830 0.0001 -28.7455 0.0002
# 3 39.0476 31.5830 100.3360 -0.0015 -37.2709 0.0025
# 4 -0.0010 0.0001 -0.0015 -222.8265 -0.0007 207.7279
# 5 -42.0560 -28.7455 -37.2709 -0.0007 48.3303 0.0008
# 6 0.0010 0.0002 0.0025 207.7279 0.0008 -164.9981
#
#
#
# Elastic Compliance Matrix: (Units=1/GPa)
#
#
# Indices 1 2 3 4 5 6 
#
# 1 0.021422 -0.002224 -0.001687 0.000000 0.016018 0.000000
# 2 -0.002224 0.016148 -0.001918 0.000000 0.006190 0.000000
# 3 -0.001687 -0.001918 0.014376 -0.000001 0.008477 -0.000001
# 4 0.000000 0.000000 -0.000001 0.025842 -0.000001 0.032534
# 5 0.016018 0.006190 0.008477 -0.000001 0.044849 -0.000001
# 6 0.000000 0.000000 -0.000001 0.032534 -0.000001 0.034899
#
#
# Mechanical properties :
#
#
# Convention : Reuss Voigt Hill
#
# Bulk Modulus (GPa) = 24.82084 52.45903 38.63993
# Shear Modulus (GPa) = 27.37878 -57.03058 -14.82590
#
# Velocity S-wave (km/s) = 3.72334 -5.37377 -2.73991
# Velocity P-wave (km/s) = 5.57246 3.45552 3.09126
#
# Compressibility (1/GPa) = 0.04028873
#
# Stress axis : x y z
#
# Youngs Moduli (GPa) = 46.68023 61.92613 69.56121
#
# Poissons Ratio (x) = 0.13770 0.11735
# Poissons Ratio (y) = 0.10380 0.13343
# Poissons Ratio (z) = 0.07875 0.11879
#
# Static dielectric constant tensor:
#      x y z
#    x 1.798280 0.000000 0.045180 
#    y 0.000000 1.675490 0.000000 
#    z 0.045180 0.000000 1.818830 
# 
# From -- ./inp_files/84661.got.cif
#   From: 2010.05.17/outbox.cif.g08.bks.cpg/sg12_43_cif.got.tgz:84661.got - 2010.06.03 13:09:07.
