data_PCOD9221220
_publ_section_title
;
Structure prediction by ZEFSAII (Michael W. Deem and Ramdas Pophale) SiO2 
 PCOD9221220
Probable space group: C 2/M
;
_chemical_formula_sum "Si O2"
_cell_formula_units_Z 40
_cell_length_a 24.497643
_cell_length_b 12.363110
_cell_length_c 7.032881
_cell_angle_alpha 90.000000
_cell_angle_beta 47.960976
_cell_angle_gamma 90.000000
_cell_volume 1581.948142
_symmetry_space_group_name_H-M "C 2/M"
_symmetry_group_IT_number 12
_symmetry_cell_setting 'monoclinic'
loop_
_space_group_symop_operation_xyz
x,y,z
-x,y,-z
-x,-y,-z
x,-y,z
1/2+x,1/2+y,z
1/2-x,1/2+y,-z
1/2-x,1/2-y,-z
1/2+x,1/2-y,z
loop_
_atom_site_type_symbol
_atom_site_label
_atom_site_fract_x
_atom_site_fract_y
_atom_site_fract_z
Si Si1 0.674263 0.691105 0.224630
Si Si2 0.565753 0.383932 0.191959
Si Si3 0.414059 0.159867 0.021465
Si Si4 0.928254 0.614185 0.434516
Si Si5 0.250929 0.875994 0.407253
O O1 0.641788 0.619288 0.132742
O O2 0.613022 0.783748 0.387965
O O3 0.690314 0.630967 0.383885
O O4 0.750000 0.750000 0.000000
O O5 0.500000 0.369936 0.500000
O O6 0.554509 0.500000 0.126497
O O7 0.572851 0.287949 0.026537
O O8 0.417178 0.123419 0.232180
O O9 0.334552 0.125832 0.134388
O O10 0.484113 0.115690 0.746222
O O11 0.896719 0.500000 0.572453
O O12 0.250000 0.750000 0.500000
O O13 0.243548 0.000000 0.514418
#
# Coordination Sequence:
#
# PCOD9221220 Si02
#       5
#     8   8   8   8   8
#     4  12  25  45  65 101 139 184 230 285 347 419
#     4  11  24  45  67  94 140 185 228 281 344 416
#     4  11  22  45  72 101 133 178 233 282 347 410
#     4  11  24  44  71 101 136 177 232 293 343 409
#     4  12  26  45  71 103 142 184 230 287 350 419
#
# _framework density 25.285277000000001
#
# number of rings (size 3 to 8) (size 9 to 14) (size 15 to 20)
#    0.000    0.600    6.000    3.000    0.000    2.400 
#    0.000    3.000    0.000    0.000    0.000    0.000 
#    0.000    0.000    0.000    0.000    0.000    0.000 
#
# Total GULP energy -111770.521466 kJ/mol
# GULP energy per Si atom -5588.526073 kJ/mol
# Density = 2.522773 g / cm^3
# Si number density = 25.285277 Si / 1000 Ang^3
#
#
#
# Elastic Constant Matrix: (Units=GPa)
#
#
# Indices 1 2 3 4 5 6 
#
# 1 77.5150 26.4951 11.0635 0.0000 -18.2943 0.0000
# 2 26.4951 237.5256 36.6001 0.0000 -0.1454 0.0000
# 3 11.0635 36.6001 75.3263 0.0000 -17.7602 0.0000
# 4 0.0000 0.0000 0.0000 12.8799 0.0000 23.2262
# 5 -18.2943 -0.1454 -17.7602 0.0000 42.0481 0.0000
# 6 0.0000 0.0000 0.0000 23.2262 0.0000 0.8487
#
#
#
# Elastic Compliance Matrix: (Units=1/GPa)
#
#
# Indices 1 2 3 4 5 6 
#
# 1 0.015014 -0.001698 0.000176 0.000000 0.006601 0.000000
# 2 -0.001698 0.004783 -0.002493 0.000000 -0.001775 0.000000
# 3 0.000176 -0.002493 0.016078 0.000000 0.006859 0.000000
# 4 0.000000 0.000000 0.000000 -0.001606 0.000000 0.043945
# 5 0.006601 -0.001775 0.006859 0.000000 0.029545 0.000000
# 6 0.000000 0.000000 0.000000 0.043945 0.000000 -0.024369
#
#
# Mechanical properties :
#
#
# Convention : Reuss Voigt Hill
#
# Bulk Modulus (GPa) = 35.91280 59.85379 47.88330
# Shear Modulus (GPa) = 88.09733 32.23588 60.16661
#
# Velocity S-wave (km/s) = 5.90906 3.57443 4.88332
# Velocity P-wave (km/s) = 7.79679 6.38421 7.12559
#
# Compressibility (1/GPa) = 0.02784522
#
# Stress axis : x y z
#
# Youngs Moduli (GPa) = 66.60559 209.09548 62.19598
#
# Poissons Ratio (x) = 0.35501 -0.01095
# Poissons Ratio (y) = 0.11308 0.15505
# Poissons Ratio (z) = -0.01173 0.52126
#
# Static dielectric constant tensor:
#      x y z
#    x 2.000490 0.000000 0.032200 
#    y 0.000000 2.060650 0.000000 
#    z 0.032200 0.000000 1.998870 
# 
# From -- ./inp_files/109692.got.cif
#   From: 2010.05.17/outbox.cif.g08.bks.cpg/sg12_55_cif.got.tgz:109692.got - 2010.06.03 13:09:07.
