data_PCOD9221727
_publ_section_title
;
Structure prediction by ZEFSAII (Michael W. Deem and Ramdas Pophale) SiO2 
 PCOD9221727
Probable space group: C 2/M
;
_chemical_formula_sum "Si O2"
_cell_formula_units_Z 40
_cell_length_a 17.894128
_cell_length_b 17.980289
_cell_length_c 7.264772
_cell_angle_alpha 90.000000
_cell_angle_beta 38.127758
_cell_angle_gamma 90.000000
_cell_volume 1443.137837
_symmetry_space_group_name_H-M "C 2/M"
_symmetry_group_IT_number 12
_symmetry_cell_setting 'monoclinic'
loop_
_space_group_symop_operation_xyz
x,y,z
-x,y,-z
-x,-y,-z
x,-y,z
1/2+x,1/2+y,z
1/2-x,1/2+y,-z
1/2-x,1/2-y,-z
1/2+x,1/2-y,z
loop_
_atom_site_type_symbol
_atom_site_label
_atom_site_fract_x
_atom_site_fract_y
_atom_site_fract_z
Si Si1 0.030768 0.232479 0.671892
Si Si2 0.887912 0.414074 0.361143
Si Si3 0.208270 0.335520 0.137227
Si Si4 0.209441 0.317538 0.745139
Si Si5 0.557819 0.580279 0.186347
O O1 0.019335 0.145641 0.748140
O O2 0.000000 0.236228 0.500000
O O3 0.097107 0.359649 0.487407
O O4 0.917008 0.271145 0.992633
O O5 0.867637 0.500000 0.453966
O O6 0.788236 0.374340 0.426704
O O7 0.000000 0.413944 0.000000
O O8 0.172786 0.236914 0.467408
O O9 0.250000 0.250000 0.000000
O O10 0.199226 0.366935 0.950066
O O11 0.313635 0.381738 0.027239
O O12 0.500000 0.571319 0.500000
O O13 0.564287 0.500000 0.084036
#
# Coordination Sequence:
#
# PCOD9221727 Si02
#       5
#     8   8   8   8   8
#     4  12  24  45  77 113 150 198 260 315 377 461
#     4  11  27  49  71 111 156 194 253 323 381 459
#     4  12  24  46  80 107 149 203 254 308 390 452
#     4  12  26  47  78 113 150 202 258 318 380 460
#     4  11  23  42  72 113 154 198 251 319 387 455
#
# _framework density 27.717379999999999
#
# number of rings (size 3 to 8) (size 9 to 14) (size 15 to 20)
#    0.000    0.400    6.000    3.000    0.000    3.200 
#    3.600    2.000    0.000    2.400    0.000    0.000 
#    0.000    0.000    0.000    0.000    0.000    0.000 
#
# Total GULP energy -111424.125203 kJ/mol
# GULP energy per Si atom -5571.206260 kJ/mol
# Density = 2.765429 g / cm^3
# Si number density = 27.717380 Si / 1000 Ang^3
#
#
#
# Elastic Constant Matrix: (Units=GPa)
#
#
# Indices 1 2 3 4 5 6 
#
# 1 133.6029 62.0034 66.0405 0.0000 -11.4735 0.0000
# 2 62.0034 153.2286 37.3878 0.0000 6.7937 0.0000
# 3 66.0405 37.3878 191.8969 0.0000 18.0945 0.0000
# 4 0.0000 0.0000 0.0000 41.8304 0.0000 -6.7842
# 5 -11.4735 6.7937 18.0945 0.0000 75.8645 0.0000
# 6 0.0000 0.0000 0.0000 -6.7842 0.0000 3.8081
#
#
#
# Elastic Compliance Matrix: (Units=1/GPa)
#
#
# Indices 1 2 3 4 5 6 
#
# 1 0.011166 -0.003823 -0.003365 0.000000 0.002834 0.000000
# 2 -0.003823 0.008167 -0.000156 0.000000 -0.001272 0.000000
# 3 -0.003365 -0.000156 0.006595 0.000000 -0.002068 0.000000
# 4 0.000000 0.000000 0.000000 0.033620 0.000000 0.059895
# 5 0.002834 -0.001272 -0.002068 0.000000 0.014217 0.000000
# 6 0.000000 0.000000 0.000000 0.059895 0.000000 0.369302
#
#
# Mechanical properties :
#
#
# Convention : Reuss Voigt Hill
#
# Bulk Modulus (GPa) = 88.96249 89.95465 89.45857
# Shear Modulus (GPa) = 10.83423 45.18703 28.01063
#
# Velocity S-wave (km/s) = 1.97922 4.04205 3.18241
# Velocity P-wave (km/s) = 6.11466 7.36946 6.77119
#
# Compressibility (1/GPa) = 0.01124069
#
# Stress axis : x y z
#
# Youngs Moduli (GPa) = 89.56073 122.43715 151.64130
#
# Poissons Ratio (x) = 0.46804 0.51027
# Poissons Ratio (y) = 0.34236 0.02362
# Poissons Ratio (z) = 0.30137 0.01907
#
# Static dielectric constant tensor:
#      x y z
#    x 2.429930 0.000000 -0.029680 
#    y 0.000000 2.476100 0.000000 
#    z -0.029680 0.000000 3.045000 
# 
# From -- ./inp_files/84947.got.cif
#   From: 2010.05.17/outbox.cif.g08.bks.cpg/sg12_43_cif.got.tgz:84947.got - 2010.06.03 13:09:07.
