data_PCOD9221894
_publ_section_title
;
Structure prediction by ZEFSAII (Michael W. Deem and Ramdas Pophale) SiO2 
 PCOD9221894
Probable space group: C 2/M
;
_chemical_formula_sum "Si O2"
_cell_formula_units_Z 52
_cell_length_a 13.217587
_cell_length_b 20.784871
_cell_length_c 16.598573
_cell_angle_alpha 90.000000
_cell_angle_beta 35.302742
_cell_angle_gamma 90.000000
_cell_volume 2635.241763
_symmetry_space_group_name_H-M "C 2/M"
_symmetry_group_IT_number 12
_symmetry_cell_setting 'monoclinic'
loop_
_space_group_symop_operation_xyz
x,y,z
-x,y,-z
-x,-y,-z
x,-y,z
1/2+x,1/2+y,z
1/2-x,1/2+y,-z
1/2-x,1/2-y,-z
1/2+x,1/2-y,z
loop_
_atom_site_type_symbol
_atom_site_label
_atom_site_fract_x
_atom_site_fract_y
_atom_site_fract_z
Si Si1 0.034442 0.731937 0.894576
Si Si2 0.980947 0.183497 0.243988
Si Si3 0.258806 0.500000 0.496636
Si Si4 0.952700 0.500000 0.203770
Si Si5 0.946449 0.758436 0.628410
Si Si6 0.380904 0.124116 0.506753
Si Si7 0.187866 0.603816 0.968367
Si Si8 0.816322 0.000000 0.760850
O O1 0.977995 0.760080 0.845273
O O2 0.242147 0.725630 0.760101
O O3 0.000000 0.771178 0.000000
O O4 0.924712 0.666916 0.974406
O O5 0.786802 0.161101 0.349446
O O6 0.983712 0.203332 0.337255
O O7 0.120378 0.128525 0.132540
O O8 0.128935 0.500000 0.656274
O O9 0.203666 0.566101 0.488129
O O10 0.470883 0.500000 0.374905
O O11 0.777343 0.500000 0.263548
O O12 0.076330 0.560414 0.101849
O O13 0.000000 0.773933 0.500000
O O14 0.005059 0.683600 0.604599
O O15 0.500000 0.096111 0.500000
O O16 0.232151 0.560664 0.862033
#
# Coordination Sequence:
#
# PCOD9221894 Si02
#       8
#     8   8   4   4   8   8   8   4
#     4  12  24  41  68 104 139 187 221 275 350 413
#     4  12  24  43  72 100 142 183 228 282 349 413
#     4  12  26  44  75  97 127 185 240 280 342 395
#     4  11  27  42  69 103 140 171 225 297 330 416
#     4  11  25  43  68 102 141 179 227 284 344 403
#     4  11  24  47  68  97 133 181 232 289 334 399
#     4  11  24  44  67  97 142 180 222 273 351 415
#     4  11  23  48  68  96 140 180 226 282 344 408
#
# _framework density 19.732534999999999
#
# number of rings (size 3 to 8) (size 9 to 14) (size 15 to 20)
#    0.000    0.615    6.154    3.231    2.154    0.000 
#    0.000    0.000    0.000    0.923    0.000    0.000 
#    0.000    0.000    0.000    0.000    0.000    0.000 
#
# Total GULP energy -144862.368926 kJ/mol
# GULP energy per Si atom -5571.629574 kJ/mol
# Density = 1.968762 g / cm^3
# Si number density = 19.732535 Si / 1000 Ang^3
#
#
#
# Elastic Constant Matrix: (Units=GPa)
#
#
# Indices 1 2 3 4 5 6 
#
# 1 75.7930 22.1889 38.3713 -0.0176 0.0663 0.0194
# 2 22.1889 41.5005 -0.2976 -0.0124 7.3376 0.0166
# 3 38.3713 -0.2976 93.8081 -0.0313 9.8326 0.0345
# 4 -0.0176 -0.0124 -0.0313 61.9144 0.0129 -78.5553
# 5 0.0663 7.3376 9.8326 0.0129 40.7050 -0.0196
# 6 0.0194 0.0166 0.0345 -78.5553 -0.0196 110.8491
#
#
#
# Elastic Compliance Matrix: (Units=1/GPa)
#
#
# Indices 1 2 3 4 5 6 
#
# 1 0.021520 -0.012358 -0.009307 0.000003 0.004441 0.000004
# 2 -0.012358 0.032015 0.005909 0.000001 -0.007178 -0.000005
# 3 -0.009307 0.005909 0.014975 0.000010 -0.004667 0.000003
# 4 0.000003 0.000001 0.000010 0.160137 0.000001 0.113484
# 5 0.004441 -0.007178 -0.004667 0.000001 0.026981 0.000008
# 6 0.000004 -0.000005 0.000003 0.113484 0.000008 0.089444
#
#
# Mechanical properties :
#
#
# Convention : Reuss Voigt Hill
#
# Bulk Modulus (GPa) = 27.02886 36.84742 31.93814
# Shear Modulus (GPa) = 12.85626 52.74964 32.80295
#
# Velocity S-wave (km/s) = 2.55527 5.17594 4.08165
# Velocity P-wave (km/s) = 4.73637 7.37797 6.19950
#
# Compressibility (1/GPa) = 0.03699749
#
# Stress axis : x y z
#
# Youngs Moduli (GPa) = 46.46939 31.23551 66.77811
#
# Poissons Ratio (x) = 0.38600 0.62151
# Poissons Ratio (y) = 0.57425 -0.39458
# Poissons Ratio (z) = 0.43249 -0.18456
#
# Static dielectric constant tensor:
#      x y z
#    x 1.739320 0.000000 0.022360 
#    y 0.000000 1.733080 0.000000 
#    z 0.022360 0.000000 1.685390 
# 
# From -- ./inp_files/272218.got.cif
#   From: 2010.05.17/outbox.cif.g08.bks.cpg/sg12_137_cif.got.tgz:272218.got - 2010.06.03 13:09:07.
