data_PCOD9221306
_publ_section_title
;
Structure prediction by ZEFSAII (Michael W. Deem and Ramdas Pophale) SiO2 
 PCOD9221306
Probable space group: C 2/M
;
_chemical_formula_sum "Si O2"
_cell_formula_units_Z 32
_cell_length_a 6.877583
_cell_length_b 16.702700
_cell_length_c 12.068832
_cell_angle_alpha 90.000000
_cell_angle_beta 87.671517
_cell_angle_gamma 90.000000
_cell_volume 1385.252769
_symmetry_space_group_name_H-M "C 2/M"
_symmetry_group_IT_number 12
_symmetry_cell_setting 'monoclinic'
loop_
_space_group_symop_operation_xyz
x,y,z
-x,y,-z
-x,-y,-z
x,-y,z
1/2+x,1/2+y,z
1/2-x,1/2+y,-z
1/2-x,1/2-y,-z
1/2+x,1/2-y,z
loop_
_atom_site_type_symbol
_atom_site_label
_atom_site_fract_x
_atom_site_fract_y
_atom_site_fract_z
Si Si1 0.157441 0.408161 0.351409
Si Si2 0.505874 0.326677 0.775475
Si Si3 0.340990 0.184507 0.080711
Si Si4 0.755150 0.666307 0.434307
O O1 0.107755 0.500000 0.332636
O O2 0.296607 0.374515 0.252367
O O3 0.267848 0.398684 0.467324
O O4 0.961201 0.357752 0.375135
O O5 0.563108 0.240613 0.826098
O O6 0.340969 0.361573 0.861849
O O7 0.399212 0.324967 0.659629
O O8 0.500000 0.140964 0.000000
O O9 0.250000 0.250000 0.000000
O O10 0.750000 0.750000 0.500000
#
# Coordination Sequence:
#
# PCOD9221306 Si02
#       4
#     8   8   8   8
#     4  11  27  44  62  98 150 187 219 268 340 415
#     4  11  23  37  68  95 132 175 224 267 348 395
#     4   9  21  39  64 101 132 160 219 300 344 381
#     4  11  25  38  66  99 139 173 230 278 321 395
#
# _framework density 23.100477000000001
#
# number of rings (size 3 to 8) (size 9 to 14) (size 15 to 20)
#    0.000    1.500    0.000    3.750   24.500    3.000 
#    0.000    0.000    0.000    7.500    0.000    0.000 
#    0.000    0.000    0.000    0.000    0.000    0.000 
#
# Total GULP energy -89366.905502 kJ/mol
# GULP energy per Si atom -5585.431594 kJ/mol
# Density = 2.304790 g / cm^3
# Si number density = 23.100477 Si / 1000 Ang^3
#
#
#
# Elastic Constant Matrix: (Units=GPa)
#
#
# Indices 1 2 3 4 5 6 
#
# 1 165.8849 56.6686 64.8025 0.0000 -52.6637 0.0000
# 2 56.6686 89.8505 31.7234 0.0000 -25.9915 0.0000
# 3 64.8025 31.7234 105.5210 0.0000 -21.2456 0.0000
# 4 0.0000 0.0000 0.0000 10.0402 0.0000 -0.5214
# 5 -52.6637 -25.9915 -21.2456 0.0000 88.9292 0.0000
# 6 0.0000 0.0000 0.0000 -0.5214 0.0000 14.4152
#
#
#
# Elastic Compliance Matrix: (Units=1/GPa)
#
#
# Indices 1 2 3 4 5 6 
#
# 1 0.010289 -0.003804 -0.004383 0.000000 0.003934 0.000000
# 2 -0.003804 0.014603 -0.001732 0.000000 0.001602 0.000000
# 3 -0.004383 -0.001732 0.012674 0.000000 -0.000074 0.000000
# 4 0.000000 0.000000 0.000000 0.099787 0.000000 0.003610
# 5 0.003934 0.001602 -0.000074 0.000000 0.014025 0.000000
# 6 0.000000 0.000000 0.000000 0.003610 0.000000 0.069502
#
#
# Mechanical properties :
#
#
# Convention : Reuss Voigt Hill
#
# Bulk Modulus (GPa) = 56.40299 74.18283 65.29291
# Shear Modulus (GPa) = 20.27347 36.54769 28.41058
#
# Velocity S-wave (km/s) = 2.96568 3.98190 3.51075
# Velocity P-wave (km/s) = 6.01634 7.30230 6.69029
#
# Compressibility (1/GPa) = 0.01772956
#
# Stress axis : x y z
#
# Youngs Moduli (GPa) = 97.19258 68.47718 78.90011
#
# Poissons Ratio (x) = 0.26046 0.34582
# Poissons Ratio (y) = 0.36968 0.13665
# Poissons Ratio (z) = 0.42599 0.11860
#
# Static dielectric constant tensor:
#      x y z
#    x 2.021310 0.000000 -0.017050 
#    y 0.000000 1.806580 0.000000 
#    z -0.017050 0.000000 1.929070 
# 
# From -- ./inp_files/117749.got.cif
#   From: 2010.05.17/outbox.cif.g08.bks.cpg/sg12_59_cif.got.tgz:117749.got - 2010.06.03 13:09:07.
