data_PCOD9221310
_publ_section_title
;
Structure prediction by ZEFSAII (Michael W. Deem and Ramdas Pophale) SiO2 
 PCOD9221310
Probable space group: C 2/M
;
_chemical_formula_sum "Si O2"
_cell_formula_units_Z 50
_cell_length_a 16.119228
_cell_length_b 9.795921
_cell_length_c 25.819877
_cell_angle_alpha 90.000000
_cell_angle_beta 145.913741
_cell_angle_gamma 90.000000
_cell_volume 2284.931089
_symmetry_space_group_name_H-M "C 2/M"
_symmetry_group_IT_number 12
_symmetry_cell_setting 'monoclinic'
loop_
_space_group_symop_operation_xyz
x,y,z
-x,y,-z
-x,-y,-z
x,-y,z
1/2+x,1/2+y,z
1/2-x,1/2+y,-z
1/2-x,1/2-y,-z
1/2+x,1/2-y,z
loop_
_atom_site_type_symbol
_atom_site_label
_atom_site_fract_x
_atom_site_fract_y
_atom_site_fract_z
Si Si1 0.695151 0.663515 0.271865
Si Si2 0.568705 0.740037 0.107042
Si Si3 0.155838 0.162173 0.375336
Si Si4 0.000000 0.500000 0.000000
Si Si5 0.249936 0.653649 0.950472
Si Si6 0.116774 0.341593 0.773720
Si Si7 0.979718 0.341321 0.552040
O O1 0.684173 0.500000 0.254821
O O2 0.666033 0.675279 0.317912
O O3 0.723730 0.674228 0.170291
O O4 0.863262 0.713813 0.347927
O O5 0.548268 0.880933 0.066807
O O6 0.585745 0.744835 0.178128
O O7 0.250000 0.750000 0.000000
O O8 0.420103 0.656135 0.018917
O O9 0.316020 0.214452 0.478359
O O10 0.012932 0.248929 0.316753
O O11 0.140673 0.000000 0.378995
O O12 0.208934 0.500000 0.944044
O O13 0.150321 0.699882 0.850737
O O14 0.072582 0.500000 0.749745
O O15 0.975719 0.500000 0.566210
O O16 0.000000 0.341598 0.500000
#
# Coordination Sequence:
#
# PCOD9221310 Si02
#       7
#     8   8   8   2   8   8   8
#     4   9  17  34  62  91 114 151 197 244 294 352
#     4  12  24  42  60  81 114 157 198 245 296 353
#     4   9  18  34  60  91 121 153 195 243 291 346
#     4  12  28  44  62  80 114 160 202 256 296 356
#     4  11  24  40  62  87 115 148 194 246 298 355
#     4  11  23  38  56  81 116 158 195 237 293 355
#     4   7  12  27  55  88 118 147 189 238 289 346
#
# _framework density 21.882497999999998
#
# number of rings (size 3 to 8) (size 9 to 14) (size 15 to 20)
#    0.000    2.080    1.600    4.320    2.240    3.200 
#    1.440    0.800    1.760    1.440    0.000    0.000 
#    0.000    0.000    0.000    0.000    0.000    0.000 
#
# Total GULP energy -139277.476705 kJ/mol
# GULP energy per Si atom -5571.099068 kJ/mol
# Density = 2.183269 g / cm^3
# Si number density = 21.882498 Si / 1000 Ang^3
#
#
#
# Elastic Constant Matrix: (Units=GPa)
#
#
# Indices 1 2 3 4 5 6 
#
# 1 67.3937 4.8492 3.7027 0.0000 13.5109 0.0000
# 2 4.8492 36.8397 15.3265 0.0000 7.1652 0.0000
# 3 3.7027 15.3265 115.7465 0.0000 19.5036 0.0000
# 4 0.0000 0.0000 0.0000 22.6696 0.0000 -0.2959
# 5 13.5109 7.1652 19.5036 0.0000 45.7887 0.0000
# 6 0.0000 0.0000 0.0000 -0.2959 0.0000 -3.7357
#
#
#
# Elastic Compliance Matrix: (Units=1/GPa)
#
#
# Indices 1 2 3 4 5 6 
#
# 1 0.015845 -0.001371 0.000459 0.000000 -0.004657 0.000000
# 2 -0.001371 0.029259 -0.003369 0.000000 -0.002739 0.000000
# 3 0.000459 -0.003369 0.009701 0.000000 -0.003741 0.000000
# 4 0.000000 0.000000 0.000000 0.044066 0.000000 -0.003490
# 5 -0.004657 -0.002739 -0.003741 0.000000 0.025235 0.000000
# 6 0.000000 0.000000 0.000000 -0.003490 0.000000 -0.267409
#
#
# Mechanical properties :
#
#
# Convention : Reuss Voigt Hill
#
# Bulk Modulus (GPa) = 21.62427 29.74849 25.68638
# Shear Modulus (GPa) = -41.90221 26.01795 -7.94213
#
# Velocity S-wave (km/s) = -4.38067 3.45191 -1.90718
# Velocity P-wave (km/s) = 3.96026 5.43247 2.62946
#
# Compressibility (1/GPa) = 0.04624434
#
# Stress axis : x y z
#
# Youngs Moduli (GPa) = 63.11088 34.17704 103.07924
#
# Poissons Ratio (x) = 0.04686 -0.04735
# Poissons Ratio (y) = 0.08653 0.34727
# Poissons Ratio (z) = -0.02899 0.11514
#
# Static dielectric constant tensor:
#      x y z
#    x 1.910820 0.000000 -0.006140 
#    y 0.000000 1.722680 0.000000 
#    z -0.006140 0.000000 1.816160 
# 
# From -- ./inp_files/360605.got.cif
#   From: 2010.05.17/outbox.cif.g08.bks.cpg/sg12_181_cif.got.tgz:360605.got - 2010.06.03 13:09:07.
