data_PCOD9221085
_publ_section_title
;
Structure prediction by ZEFSAII (Michael W. Deem and Ramdas Pophale) SiO2 
 PCOD9221085
Probable space group: C 2/M
;
_chemical_formula_sum "Si O2"
_cell_formula_units_Z 48
_cell_length_a 19.369661
_cell_length_b 11.134682
_cell_length_c 11.633798
_cell_angle_alpha 90.000000
_cell_angle_beta 69.589754
_cell_angle_gamma 90.000000
_cell_volume 2351.596138
_symmetry_space_group_name_H-M "C 2/M"
_symmetry_group_IT_number 12
_symmetry_cell_setting 'monoclinic'
loop_
_space_group_symop_operation_xyz
x,y,z
-x,y,-z
-x,-y,-z
x,-y,z
1/2+x,1/2+y,z
1/2-x,1/2+y,-z
1/2-x,1/2-y,-z
1/2+x,1/2-y,z
loop_
_atom_site_type_symbol
_atom_site_label
_atom_site_fract_x
_atom_site_fract_y
_atom_site_fract_z
Si Si1 0.078216 0.755770 0.771680
Si Si2 0.461548 0.000000 0.150941
Si Si3 0.144306 0.256896 0.289563
Si Si4 0.197698 0.141316 0.850927
Si Si5 0.574881 0.360848 0.530529
Si Si6 0.048276 0.500000 0.352037
Si Si7 0.578710 0.642019 0.105547
O O1 0.086137 0.620113 0.808820
O O2 0.146454 0.836285 0.770536
O O3 0.069739 0.772779 0.640993
O O4 0.000692 0.800442 0.868609
O O5 0.510652 0.000000 0.243595
O O6 0.500000 0.000000 0.000000
O O7 0.226502 0.288640 0.203663
O O8 0.139739 0.184120 0.410592
O O9 0.098404 0.380505 0.327322
O O10 0.104693 0.175706 0.217310
O O11 0.212896 0.000000 0.857674
O O12 0.143602 0.184335 0.984001
O O13 0.500000 0.352240 0.500000
O O14 0.582420 0.500000 0.562527
O O15 0.000000 0.500000 0.500000
O O16 0.570697 0.500000 0.096118
#
# Coordination Sequence:
#
# PCOD9221085 Si02
#       7
#     8   4   8   8   8   4   8
#     4  12  24  43  68  98 133 173 225 279 335 405
#     4  12  24  42  68 102 138 178 227 285 338 399
#     4  12  23  42  67  98 135 173 222 280 334 409
#     4  11  25  43  62  96 136 178 218 274 348 398
#     4  11  22  41  71 100 129 168 227 282 332 398
#     4  12  24  44  72 102 135 184 229 280 343 415
#     4  11  22  41  68  95 127 175 228 274 327 401
#
# _framework density 20.411667999999999
#
# number of rings (size 3 to 8) (size 9 to 14) (size 15 to 20)
#    0.000    0.500    4.167    5.500    0.000    2.000 
#    3.000    0.000    0.000    0.000    0.000    0.000 
#    0.000    0.000    0.000    0.000    0.000    0.000 
#
# Total GULP energy -134124.278010 kJ/mol
# GULP energy per Si atom -5588.511584 kJ/mol
# Density = 2.036521 g / cm^3
# Si number density = 20.411668 Si / 1000 Ang^3
#
#
#
# Elastic Constant Matrix: (Units=GPa)
#
#
# Indices 1 2 3 4 5 6 
#
# 1 47.7865 -18.3231 4.1347 0.0000 -7.7790 0.0000
# 2 -18.3231 54.1330 -2.3731 0.0000 -2.6835 0.0000
# 3 4.1347 -2.3731 -32.8318 0.0000 42.1506 0.0000
# 4 0.0000 0.0000 0.0000 34.0894 0.0000 1.6270
# 5 -7.7790 -2.6835 42.1506 0.0000 26.6515 0.0000
# 6 0.0000 0.0000 0.0000 1.6270 0.0000 17.3896
#
#
#
# Elastic Compliance Matrix: (Units=1/GPa)
#
#
# Indices 1 2 3 4 5 6 
#
# 1 0.023995 0.008368 0.004122 0.000000 0.001328 0.000000
# 2 0.008368 0.021472 0.001786 0.000000 0.001779 0.000000
# 3 0.004122 0.001786 -0.009336 0.000000 0.016149 0.000000
# 4 0.000000 0.000000 0.000000 0.029466 0.000000 -0.002757
# 5 0.001328 0.001779 0.016149 0.000000 0.012548 0.000000
# 6 0.000000 0.000000 0.000000 -0.002757 0.000000 0.057764
#
#
# Mechanical properties :
#
#
# Convention : Reuss Voigt Hill
#
# Bulk Modulus (GPa) = 15.46011 3.99609 9.72810
# Shear Modulus (GPa) = 38.78456 21.33603 30.06029
#
# Velocity S-wave (km/s) = 4.36376 3.23660 3.84174
# Velocity P-wave (km/s) = 5.74286 3.99117 4.94519
#
# Compressibility (1/GPa) = 0.06468260
#
# Stress axis : x y z
#
# Youngs Moduli (GPa) = 41.67598 46.57221 -107.10963
#
# Poissons Ratio (x) = -0.38973 0.44145
# Poissons Ratio (y) = -0.34876 0.19133
# Poissons Ratio (z) = -0.17177 -0.08319
#
# Static dielectric constant tensor:
#      x y z
#    x 1.706110 0.000000 0.035480 
#    y 0.000000 1.704700 0.000000 
#    z 0.035480 0.000000 1.786110 
# 
# From -- ./inp_files/164742.got.cif
#   From: 2010.05.17/outbox.cif.g08.bks.cpg/sg12_83_cif.got.tgz:164742.got - 2010.06.03 13:09:07.
