data_PCOD9221304
_publ_section_title
;
Structure prediction by ZEFSAII (Michael W. Deem and Ramdas Pophale) SiO2 
 PCOD9221304
Probable space group: C 2/M
;
_chemical_formula_sum "Si O2"
_cell_formula_units_Z 48
_cell_length_a 19.666240
_cell_length_b 15.169823
_cell_length_c 12.061245
_cell_angle_alpha 90.000000
_cell_angle_beta 36.837374
_cell_angle_gamma 90.000000
_cell_volume 2157.328812
_symmetry_space_group_name_H-M "C 2/M"
_symmetry_group_IT_number 12
_symmetry_cell_setting 'monoclinic'
loop_
_space_group_symop_operation_xyz
x,y,z
-x,y,-z
-x,-y,-z
x,-y,z
1/2+x,1/2+y,z
1/2-x,1/2+y,-z
1/2-x,1/2-y,-z
1/2+x,1/2-y,z
loop_
_atom_site_type_symbol
_atom_site_label
_atom_site_fract_x
_atom_site_fract_y
_atom_site_fract_z
Si Si1 0.366584 0.590712 0.169148
Si Si2 0.473199 0.103356 0.903653
Si Si3 0.773067 0.647212 0.447265
Si Si4 0.195993 0.763756 0.919719
Si Si5 0.897049 0.900528 0.788418
Si Si6 0.855440 0.147468 0.604352
O O1 0.319878 0.500000 0.178947
O O2 0.312772 0.598803 0.359668
O O3 0.500000 0.584810 0.000000
O O4 0.346494 0.676650 0.125159
O O5 0.598386 0.122491 0.690934
O O6 0.382586 0.175279 0.976637
O O7 0.441631 0.000000 0.927567
O O8 0.500000 0.116412 0.000000
O O9 0.750000 0.750000 0.500000
O O10 0.738995 0.626863 0.364649
O O11 0.179040 0.828590 0.046954
O O12 0.320767 0.738151 0.711512
O O13 0.860265 0.910148 0.708537
O O14 0.024481 0.860745 0.613863
O O15 0.900077 0.000000 0.832207
#
# Coordination Sequence:
#
# PCOD9221304 Si02
#       6
#     8   8   8   8   8   8
#     4  11  23  37  61  97 133 170 212 263 330 401
#     4  11  23  38  60  96 132 166 211 262 324 399
#     4  12  21  39  64  94 131 172 209 263 332 400
#     4  12  23  43  67  95 134 175 216 273 336 401
#     4  11  26  45  68  98 130 173 232 285 329 388
#     4  11  23  41  68  94 130 173 222 274 330 385
#
# _framework density 22.249738000000001
#
# number of rings (size 3 to 8) (size 9 to 14) (size 15 to 20)
#    0.000    0.667    3.333    6.000    0.000    5.333 
#    0.000    0.000    0.000    0.000    0.000    5.833 
#    0.000    0.000    0.000    0.000    0.000    0.000 
#
# Total GULP energy -133896.323715 kJ/mol
# GULP energy per Si atom -5579.013488 kJ/mol
# Density = 2.219910 g / cm^3
# Si number density = 22.249738 Si / 1000 Ang^3
#
#
#
# Elastic Constant Matrix: (Units=GPa)
#
#
# Indices 1 2 3 4 5 6 
#
# 1 57.8230 14.1055 6.1637 0.0000 4.8697 0.0000
# 2 14.1055 160.9312 33.5694 0.0000 -11.6678 0.0000
# 3 6.1637 33.5694 107.8901 0.0000 1.9424 0.0000
# 4 0.0000 0.0000 0.0000 -2.1040 0.0000 -90.2593
# 5 4.8697 -11.6678 1.9424 0.0000 34.0127 0.0000
# 6 0.0000 0.0000 0.0000 -90.2593 0.0000 -163.9951
#
#
#
# Elastic Compliance Matrix: (Units=1/GPa)
#
#
# Indices 1 2 3 4 5 6 
#
# 1 0.018024 -0.001716 -0.000439 0.000000 -0.003144 0.000000
# 2 -0.001716 0.007010 -0.002133 0.000000 0.002772 0.000000
# 3 -0.000439 -0.002133 0.009980 0.000000 -0.001239 0.000000
# 4 0.000000 0.000000 0.000000 0.021020 0.000000 -0.011569
# 5 -0.003144 0.002772 -0.001239 0.000000 0.030873 0.000000
# 6 0.000000 0.000000 0.000000 -0.011569 0.000000 0.000270
#
#
# Mechanical properties :
#
#
# Convention : Reuss Voigt Hill
#
# Bulk Modulus (GPa) = 37.82483 48.25793 43.04138
# Shear Modulus (GPa) = 47.81642 -8.23023 19.79310
#
# Velocity S-wave (km/s) = 4.64084 -1.92537 2.98583
# Velocity P-wave (km/s) = 6.76414 4.09799 5.59228
#
# Compressibility (1/GPa) = 0.02643766
#
# Stress axis : x y z
#
# Youngs Moduli (GPa) = 55.48024 142.64934 100.20278
#
# Poissons Ratio (x) = 0.24481 0.04400
# Poissons Ratio (y) = 0.09521 0.21374
# Poissons Ratio (z) = 0.02436 0.30428
#
# Static dielectric constant tensor:
#      x y z
#    x 1.860260 0.000000 0.006820 
#    y 0.000000 2.316080 0.000000 
#    z 0.006820 0.000000 1.871800 
# 
# From -- ./inp_files/167552.got.cif
#   From: 2010.05.17/outbox.cif.g08.bks.cpg/sg12_84_cif.got.tgz:167552.got - 2010.06.03 13:09:07.
