data_PCOD9221869
_publ_section_title
;
Structure prediction by ZEFSAII (Michael W. Deem and Ramdas Pophale) SiO2 
 PCOD9221869
Probable space group: C 2/M
;
_chemical_formula_sum "Si O2"
_cell_formula_units_Z 28
_cell_length_a 11.459849
_cell_length_b 14.848595
_cell_length_c 8.611605
_cell_angle_alpha 90.000000
_cell_angle_beta 124.193944
_cell_angle_gamma 90.000000
_cell_volume 1212.069077
_symmetry_space_group_name_H-M "C 2/M"
_symmetry_group_IT_number 12
_symmetry_cell_setting 'monoclinic'
loop_
_space_group_symop_operation_xyz
x,y,z
-x,y,-z
-x,-y,-z
x,-y,z
1/2+x,1/2+y,z
1/2-x,1/2+y,-z
1/2-x,1/2-y,-z
1/2+x,1/2-y,z
loop_
_atom_site_type_symbol
_atom_site_label
_atom_site_fract_x
_atom_site_fract_y
_atom_site_fract_z
Si Si1 0.222334 0.500000 0.924230
Si Si2 0.276044 0.348577 0.457071
Si Si3 0.488576 0.500000 0.675928
Si Si4 0.354525 0.000000 0.470604
Si Si5 0.157179 0.680592 0.038528
O O1 0.245712 0.500000 0.756248
O O2 0.374243 0.500000 0.119648
O O3 0.145019 0.589749 0.927738
O O4 0.250000 0.250000 0.500000
O O5 0.406339 0.404038 0.629083
O O6 0.156209 0.413688 0.430776
O O7 0.260219 0.342693 0.260868
O O8 0.500000 0.500000 0.500000
O O9 0.500000 0.000000 0.500000
O O10 0.250000 0.750000 0.000000
O O11 0.000000 0.704379 0.000000
#
# Coordination Sequence:
#
# PCOD9221869 Si02
#       5
#     4   8   4   4   8
#     4  12  24  48  76 109 157 200 267 321 389 475
#     4  11  25  44  69 104 152 195 250 320 384 462
#     4  11  23  45  72 104 146 199 254 318 395 450
#     4  11  24  46  74 107 147 204 254 320 388 459
#     4  12  27  47  75 113 152 204 262 324 389 462
#
# _framework density 23.100992999999999
#
# number of rings (size 3 to 8) (size 9 to 14) (size 15 to 20)
#    0.000    0.571    2.857    4.714    4.000    3.429 
#    0.000    0.000    0.000    0.000    0.000    0.000 
#    0.000    0.000    0.000    0.000    0.000    0.000 
#
# Total GULP energy -78027.901072 kJ/mol
# GULP energy per Si atom -5573.421505 kJ/mol
# Density = 2.304841 g / cm^3
# Si number density = 23.100993 Si / 1000 Ang^3
#
#
#
# Elastic Constant Matrix: (Units=GPa)
#
#
# Indices 1 2 3 4 5 6 
#
# 1 143.8187 81.5828 47.2880 0.0000 -1.8960 0.0000
# 2 81.5828 222.7683 45.7486 0.0000 -24.5220 0.0000
# 3 47.2880 45.7486 170.0745 0.0000 -4.1209 0.0000
# 4 0.0000 0.0000 0.0000 13.6577 0.0000 -54.7981
# 5 -1.8960 -24.5220 -4.1209 0.0000 61.3578 0.0000
# 6 0.0000 0.0000 0.0000 -54.7981 0.0000 0.2966
#
#
#
# Elastic Compliance Matrix: (Units=1/GPa)
#
#
# Indices 1 2 3 4 5 6 
#
# 1 0.009318 -0.003171 -0.001764 0.000000 -0.001098 0.000000
# 2 -0.003171 0.006041 -0.000688 0.000000 0.002270 0.000000
# 3 -0.001764 -0.000688 0.006558 0.000000 0.000111 0.000000
# 4 0.000000 0.000000 0.000000 -0.000099 0.000000 -0.018273
# 5 -0.001098 0.002270 0.000111 0.000000 0.017179 0.000000
# 6 0.000000 0.000000 0.000000 -0.018273 0.000000 -0.004554
#
#
# Mechanical properties :
#
#
# Convention : Reuss Voigt Hill
#
# Bulk Modulus (GPa) = 93.72101 98.43337 96.07719
# Shear Modulus (GPa) = 101.52998 39.19856 70.36427
#
# Velocity S-wave (km/s) = 6.63671 4.12373 5.52499
# Velocity P-wave (km/s) = 9.96926 8.08555 9.07640
#
# Compressibility (1/GPa) = 0.01066997
#
# Stress axis : x y z
#
# Youngs Moduli (GPa) = 107.32464 165.52206 152.48035
#
# Poissons Ratio (x) = 0.52484 0.26903
# Poissons Ratio (y) = 0.34031 0.10498
# Poissons Ratio (z) = 0.18936 0.11396
#
# Static dielectric constant tensor:
#      x y z
#    x 2.041910 0.000000 0.055430 
#    y 0.000000 1.820810 0.000000 
#    z 0.055430 0.000000 1.886490 
# 
# From -- ./inp_files/45494.got.cif
#   From: 2010.05.17/outbox.cif.g08.bks.cpg/sg12_23_cif.got.tgz:45494.got - 2010.06.03 13:09:07.
