data_PCOD9221758
_publ_section_title
;
Structure prediction by ZEFSAII (Michael W. Deem and Ramdas Pophale) SiO2 
 PCOD9221758
Probable space group: C 2/M
;
_chemical_formula_sum "Si O2"
_cell_formula_units_Z 48
_cell_length_a 12.079439
_cell_length_b 27.172329
_cell_length_c 15.000834
_cell_angle_alpha 90.000000
_cell_angle_beta 150.346838
_cell_angle_gamma 90.000000
_cell_volume 2435.978480
_symmetry_space_group_name_H-M "C 2/M"
_symmetry_group_IT_number 12
_symmetry_cell_setting 'monoclinic'
loop_
_space_group_symop_operation_xyz
x,y,z
-x,y,-z
-x,-y,-z
x,-y,z
1/2+x,1/2+y,z
1/2-x,1/2+y,-z
1/2-x,1/2-y,-z
1/2+x,1/2-y,z
loop_
_atom_site_type_symbol
_atom_site_label
_atom_site_fract_x
_atom_site_fract_y
_atom_site_fract_z
Si Si1 0.381462 0.500000 0.679932
Si Si2 0.240891 0.000000 0.803586
Si Si3 0.610075 0.266387 0.813765
Si Si4 0.752416 0.000000 0.792808
Si Si5 0.589608 0.918647 0.389083
Si Si6 0.758240 0.902534 0.310636
Si Si7 0.888707 0.309248 0.519022
Si Si8 0.000000 0.668676 0.000000
O O1 0.637384 0.500000 0.830445
O O2 0.279674 0.500000 0.706052
O O3 0.287957 0.451345 0.567948
O O4 0.187141 0.951385 0.708607
O O5 0.500000 0.000000 0.000000
O O6 0.375431 0.294580 0.670736
O O7 0.520733 0.222995 0.685878
O O8 0.750000 0.250000 0.000000
O O9 0.791037 0.299213 0.887739
O O10 0.624996 0.951639 0.737717
O O11 0.000000 0.000000 0.000000
O O12 0.634813 0.915048 0.316010
O O13 0.587787 0.865604 0.433196
O O14 0.598752 0.866355 0.145267
O O15 0.000000 0.878573 0.500000
O O16 0.000000 0.301873 0.500000
#
# Coordination Sequence:
#
# PCOD9221758 Si02
#       8
#     4   4   8   4   8   8   8   4
#     4  11  23  43  68  90 138 176 219 271 326 398
#     4  12  24  39  66 100 136 172 217 274 327 396
#     4  11  25  46  69 101 136 175 224 286 341 403
#     4  11  26  43  63  99 133 178 223 279 328 393
#     4  11  23  45  68  93 132 180 224 267 333 404
#     4  12  24  43  67 101 136 179 220 272 337 399
#     4  11  24  45  72  98 134 179 226 278 340 404
#     4  12  26  43  68 102 136 171 226 282 338 400
#
# _framework density 19.704608
#
# number of rings (size 3 to 8) (size 9 to 14) (size 15 to 20)
#    0.000    0.667    2.500    6.250    2.333    3.333 
#   10.500    0.000    0.000    0.000    0.000    0.000 
#    0.000    0.000    0.000    0.000    0.000    0.000 
#
# Total GULP energy -134077.929718 kJ/mol
# GULP energy per Si atom -5586.580405 kJ/mol
# Density = 1.965976 g / cm^3
# Si number density = 19.704608 Si / 1000 Ang^3
#
#
#
# Elastic Constant Matrix: (Units=GPa)
#
#
# Indices 1 2 3 4 5 6 
#
# 1 197.2943 73.3150 77.0444 0.0014 9.8355 0.0015
# 2 73.3150 142.1423 66.9687 -0.0001 5.4743 -0.0002
# 3 77.0444 66.9687 150.8895 0.0011 15.6747 0.0007
# 4 0.0014 -0.0001 0.0011 -321.2564 0.0015 -523.9203
# 5 9.8355 5.4743 15.6747 0.0015 45.1950 0.0014
# 6 0.0015 -0.0002 0.0007 -523.9203 0.0014 -555.9823
#
#
#
# Elastic Compliance Matrix: (Units=1/GPa)
#
#
# Indices 1 2 3 4 5 6 
#
# 1 0.006934 -0.002418 -0.002429 0.000000 -0.000374 0.000000
# 2 -0.002418 0.009742 -0.003134 0.000000 0.000433 0.000000
# 3 -0.002429 -0.003134 0.009507 0.000000 -0.002389 0.000000
# 4 0.000000 0.000000 0.000000 0.005799 0.000000 -0.005464
# 5 -0.000374 0.000433 -0.002389 0.000000 0.022984 0.000000
# 6 0.000000 0.000000 0.000000 -0.005464 0.000000 0.003351
#
#
# Mechanical properties :
#
#
# Convention : Reuss Voigt Hill
#
# Bulk Modulus (GPa) = 97.83326 102.77578 100.30452
# Shear Modulus (GPa) = 64.36249 -148.20886 -41.92319
#
# Velocity S-wave (km/s) = 5.72141 -8.68209 -4.61758
# Velocity P-wave (km/s) = 9.66457 6.94502 4.75239
#
# Compressibility (1/GPa) = 0.01022147
#
# Stress axis : x y z
#
# Youngs Moduli (GPa) = 144.21522 102.64474 105.18927
#
# Poissons Ratio (x) = 0.24818 0.25546
# Poissons Ratio (y) = 0.34870 0.32970
# Poissons Ratio (z) = 0.35024 0.32172
#
# Static dielectric constant tensor:
#      x y z
#    x 1.675720 0.000000 -0.032800 
#    y 0.000000 1.775330 0.000000 
#    z -0.032800 0.000000 1.715830 
# 
# From -- ./inp_files/209524.got.cif
#   From: 2010.05.17/outbox.cif.g08.bks.cpg/sg12_105_cif.got.tgz:209524.got - 2010.06.03 13:09:07.
