data_PCOD9221295
_publ_section_title
;
Structure prediction by ZEFSAII (Michael W. Deem and Ramdas Pophale) SiO2 
 PCOD9221295
Probable space group: C 2/M
;
_chemical_formula_sum "Si O2"
_cell_formula_units_Z 56
_cell_length_a 17.577653
_cell_length_b 22.727918
_cell_length_c 9.500733
_cell_angle_alpha 90.000000
_cell_angle_beta 127.777549
_cell_angle_gamma 90.000000
_cell_volume 3000.004469
_symmetry_space_group_name_H-M "C 2/M"
_symmetry_group_IT_number 12
_symmetry_cell_setting 'monoclinic'
loop_
_space_group_symop_operation_xyz
x,y,z
-x,y,-z
-x,-y,-z
x,-y,z
1/2+x,1/2+y,z
1/2-x,1/2+y,-z
1/2-x,1/2-y,-z
1/2+x,1/2-y,z
loop_
_atom_site_type_symbol
_atom_site_label
_atom_site_fract_x
_atom_site_fract_y
_atom_site_fract_z
Si Si1 0.730901 0.319527 0.974454
Si Si2 0.071259 0.348903 0.902551
Si Si3 0.114666 0.844705 0.122663
Si Si4 0.816751 0.067158 0.573083
Si Si5 0.404147 0.241390 0.685101
Si Si6 0.105273 0.160409 0.557768
Si Si7 0.125041 0.619195 0.284503
O O1 0.837357 0.348389 0.094447
O O2 0.661459 0.337852 0.022937
O O3 0.750000 0.250000 0.000000
O O4 0.679919 0.334512 0.769461
O O5 0.012324 0.286251 0.830087
O O6 0.981152 0.392229 0.773078
O O7 0.108041 0.364452 0.101181
O O8 0.164820 0.897994 0.261952
O O9 0.125311 0.783577 0.220812
O O10 0.000000 0.855953 0.000000
O O11 0.869377 0.106353 0.514836
O O12 0.704511 0.071792 0.404650
O O13 0.848765 0.000000 0.614388
O O14 0.396404 0.280260 0.537576
O O15 0.341593 0.181921 0.611465
O O16 0.000000 0.152260 0.500000
#
# Coordination Sequence:
#
# PCOD9221295 Si02
#       7
#     8   8   8   8   8   8   8
#     4  12  22  32  60  95 128 158 191 240 321 386
#     4   9  18  35  58  89 126 157 190 247 305 382
#     4  11  23  39  60  89 127 163 201 255 315 381
#     4  11  25  44  64  84 114 172 232 255 296 358
#     4   9  19  37  59  88 130 159 187 243 319 394
#     4  11  23  37  58  95 127 157 202 259 312 369
#     4   9  18  37  61  85 123 154 201 252 307 363
#
# _framework density 18.666639
#
# number of rings (size 3 to 8) (size 9 to 14) (size 15 to 20)
#    0.857    0.857    1.429    5.143    2.000    1.714 
#    0.000    2.857    0.000    0.857    0.000    0.000 
#    0.000    0.000    0.000    0.000    0.000    0.000 
#
# Total GULP energy -156124.586837 kJ/mol
# GULP energy per Si atom -5575.878101 kJ/mol
# Density = 1.862415 g / cm^3
# Si number density = 18.666639 Si / 1000 Ang^3
#
#
#
# Elastic Constant Matrix: (Units=GPa)
#
#
# Indices 1 2 3 4 5 6 
#
# 1 77.2204 -10.8602 8.7869 0.0000 -5.6046 0.0000
# 2 -10.8602 65.8662 18.8304 0.0000 -8.5459 0.0000
# 3 8.7869 18.8304 56.9060 0.0000 -16.1522 0.0000
# 4 0.0000 0.0000 0.0000 7.5442 0.0000 4.0372
# 5 -5.6046 -8.5459 -16.1522 0.0000 27.0471 0.0000
# 6 0.0000 0.0000 0.0000 4.0372 0.0000 10.0463
#
#
#
# Elastic Compliance Matrix: (Units=1/GPa)
#
#
# Indices 1 2 3 4 5 6 
#
# 1 0.013885 0.003334 -0.002567 0.000000 0.002398 0.000000
# 2 0.003334 0.017699 -0.005524 0.000000 0.002984 0.000000
# 3 -0.002567 -0.005524 0.023060 0.000000 0.011493 0.000000
# 4 0.000000 0.000000 0.000000 0.168867 0.000000 -0.067860
# 5 0.002398 0.002984 0.011493 0.000000 0.045276 0.000000
# 6 0.000000 0.000000 0.000000 -0.067860 0.000000 0.126809
#
#
# Mechanical properties :
#
#
# Convention : Reuss Voigt Hill
#
# Bulk Modulus (GPa) = 22.15851 25.94521 24.05186
# Shear Modulus (GPa) = 11.90047 21.14322 16.52185
#
# Velocity S-wave (km/s) = 2.52767 3.36917 2.97829
# Velocity P-wave (km/s) = 4.51832 5.39115 4.97392
#
# Compressibility (1/GPa) = 0.04512938
#
# Stress axis : x y z
#
# Youngs Moduli (GPa) = 72.02029 56.50168 43.36601
#
# Poissons Ratio (x) = -0.18839 0.11131
# Poissons Ratio (y) = -0.24014 0.23957
# Poissons Ratio (z) = 0.18485 0.31214
#
# Static dielectric constant tensor:
#      x y z
#    x 1.685680 0.000000 0.031710 
#    y 0.000000 1.626910 0.000000 
#    z 0.031710 0.000000 1.670520 
# 
# From -- ./inp_files/77639.got.cif
#   From: 2010.05.17/outbox.cif.g08.bks.cpg/sg12_39_cif.got.tgz:77639.got - 2010.06.03 13:09:07.
