data_PCOD9221457
_publ_section_title
;
Structure prediction by ZEFSAII (Michael W. Deem and Ramdas Pophale) SiO2 
 PCOD9221457
Probable space group: C 2/M
;
_chemical_formula_sum "Si O2"
_cell_formula_units_Z 42
_cell_length_a 15.400462
_cell_length_b 9.602447
_cell_length_c 16.802035
_cell_angle_alpha 90.000000
_cell_angle_beta 60.688021
_cell_angle_gamma 90.000000
_cell_volume 2166.594174
_symmetry_space_group_name_H-M "C 2/M"
_symmetry_group_IT_number 12
_symmetry_cell_setting 'monoclinic'
loop_
_space_group_symop_operation_xyz
x,y,z
-x,y,-z
-x,-y,-z
x,-y,z
1/2+x,1/2+y,z
1/2-x,1/2+y,-z
1/2-x,1/2-y,-z
1/2+x,1/2-y,z
loop_
_atom_site_type_symbol
_atom_site_label
_atom_site_fract_x
_atom_site_fract_y
_atom_site_fract_z
Si Si1 0.036404 0.333068 0.231818
Si Si2 0.286418 0.337042 0.777534
Si Si3 0.330935 0.237534 0.582873
Si Si4 0.500000 0.000000 0.500000
Si Si5 0.056769 0.668861 0.896060
Si Si6 0.118994 0.152792 0.608075
O O1 0.042735 0.500000 0.236278
O O2 0.139291 0.258561 0.205883
O O3 0.998571 0.294051 0.160762
O O4 0.954322 0.273638 0.329768
O O5 0.295079 0.500000 0.795111
O O6 0.314809 0.317892 0.672246
O O7 0.172258 0.290477 0.840555
O O8 0.414740 0.120904 0.554109
O O9 0.224807 0.172273 0.604167
O O10 0.362250 0.332421 0.494147
O O11 0.056435 0.500000 0.898646
O O12 0.000000 0.719993 0.000000
O O13 0.077037 0.000000 0.645559
#
# Coordination Sequence:
#
# PCOD9221457 Si02
#       6
#     8   8   8   2   8   8
#     4  11  24  40  65  96 127 167 214 266 317 378
#     4  11  23  42  66  96 129 171 215 262 316 382
#     4  11  24  37  62  90 130 168 211 261 308 376
#     4  12  24  40  54  96 122 170 208 264 314 356
#     4   9  20  42  68  94 127 166 209 262 327 388
#     4  11  23  40  61  90 126 171 214 259 309 374
#
# _framework density 19.385262999999998
#
# number of rings (size 3 to 8) (size 9 to 14) (size 15 to 20)
#    0.000    1.333    2.857    2.286    5.333    1.524 
#    0.000    2.857    0.000    4.000    0.000    0.000 
#    0.000    0.000    0.000    0.000    0.000    0.000 
#
# Total GULP energy -117110.263784 kJ/mol
# GULP energy per Si atom -5576.679228 kJ/mol
# Density = 1.934114 g / cm^3
# Si number density = 19.385263 Si / 1000 Ang^3
#
#
#
# Elastic Constant Matrix: (Units=GPa)
#
#
# Indices 1 2 3 4 5 6 
#
# 1 155.0101 55.8077 83.0797 0.0000 -12.7015 0.0000
# 2 55.8077 95.0261 33.6790 0.0000 -3.6623 0.0000
# 3 83.0797 33.6790 121.5852 0.0000 -5.3124 0.0000
# 4 0.0000 0.0000 0.0000 12.8945 0.0000 -2.8928
# 5 -12.7015 -3.6623 -5.3124 0.0000 12.7407 0.0000
# 6 0.0000 0.0000 0.0000 -2.8928 0.0000 9.1991
#
#
#
# Elastic Compliance Matrix: (Units=1/GPa)
#
#
# Indices 1 2 3 4 5 6 
#
# 1 0.012461 -0.004558 -0.006892 0.000000 0.008239 0.000000
# 2 -0.004558 0.013389 -0.000636 0.000000 -0.000961 0.000000
# 3 -0.006892 -0.000636 0.013040 0.000000 -0.001617 0.000000
# 4 0.000000 0.000000 0.000000 0.083439 0.000000 0.026238
# 5 0.008239 -0.000961 -0.001617 0.000000 0.085752 0.000000
# 6 0.000000 0.000000 0.000000 0.026238 0.000000 0.116957
#
#
# Mechanical properties :
#
#
# Convention : Reuss Voigt Hill
#
# Bulk Modulus (GPa) = 67.94915 79.63935 73.79425
# Shear Modulus (GPa) = 14.11966 20.23719 17.17843
#
# Velocity S-wave (km/s) = 2.70176 3.23452 2.98007
# Velocity P-wave (km/s) = 6.69782 7.42436 7.07043
#
# Compressibility (1/GPa) = 0.01471689
#
# Stress axis : x y z
#
# Youngs Moduli (GPa) = 80.24803 74.68944 76.68836
#
# Poissons Ratio (x) = 0.34044 0.52856
# Poissons Ratio (y) = 0.36578 0.04878
# Poissons Ratio (z) = 0.55310 0.04751
#
# Static dielectric constant tensor:
#      x y z
#    x 1.679580 0.000000 0.012890 
#    y 0.000000 1.662460 0.000000 
#    z 0.012890 0.000000 1.666200 
# 
# From -- ./inp_files/267559.got.cif
#   From: 2010.05.17/outbox.cif.g08.bks.cpg/sg12_134_cif.got.tgz:267559.got - 2010.06.03 13:09:07.
