data_PCOD9221233
_publ_section_title
;
Structure prediction by ZEFSAII (Michael W. Deem and Ramdas Pophale) SiO2 
 PCOD9221233
Probable space group: C 2/M
;
_chemical_formula_sum "Si O2"
_cell_formula_units_Z 36
_cell_length_a 14.488344
_cell_length_b 14.015644
_cell_length_c 9.054345
_cell_angle_alpha 90.000000
_cell_angle_beta 77.451695
_cell_angle_gamma 90.000000
_cell_volume 1794.688269
_symmetry_space_group_name_H-M "C 2/M"
_symmetry_group_IT_number 12
_symmetry_cell_setting 'monoclinic'
loop_
_space_group_symop_operation_xyz
x,y,z
-x,y,-z
-x,-y,-z
x,-y,z
1/2+x,1/2+y,z
1/2-x,1/2+y,-z
1/2-x,1/2-y,-z
1/2+x,1/2-y,z
loop_
_atom_site_type_symbol
_atom_site_label
_atom_site_fract_x
_atom_site_fract_y
_atom_site_fract_z
Si Si1 0.883503 0.500000 0.527373
Si Si2 0.309598 0.500000 0.888220
Si Si3 0.500000 0.833936 0.000000
Si Si4 0.608716 0.000000 0.817320
Si Si5 0.663723 0.304713 0.959333
Si Si6 0.770365 0.842855 0.393220
Si Si7 0.113017 0.000000 0.470300
O O1 0.859981 0.500000 0.361353
O O2 0.825305 0.406481 0.604930
O O3 0.000000 0.500000 0.500000
O O4 0.196041 0.500000 0.900952
O O5 0.351034 0.500000 0.709985
O O6 0.341531 0.408126 0.967215
O O7 0.452720 0.905793 0.132554
O O8 0.422776 0.762116 0.967036
O O9 0.681827 0.313473 0.778077
O O10 0.750000 0.250000 0.000000
O O11 0.750000 0.750000 0.500000
O O12 0.842860 0.909891 0.458273
O O13 0.000000 0.000000 0.500000
#
# Coordination Sequence:
#
# PCOD9221233 Si02
#       7
#     4   4   4   4   8   8   4
#     4  11  25  42  70  98 130 175 230 276 335 391
#     4  12  23  46  69  97 141 177 225 291 349 398
#     4  11  26  41  70  98 136 173 232 271 344 406
#     4  11  22  47  68  99 133 177 231 291 325 404
#     4  12  26  43  70 104 138 180 225 286 348 407
#     4  11  24  47  68  98 138 176 227 280 336 414
#     4  11  26  46  67  96 138 184 224 279 352 409
#
# _framework density 20.059193
#
# number of rings (size 3 to 8) (size 9 to 14) (size 15 to 20)
#    0.000    0.667    4.444    4.000    6.222    1.333 
#    0.000    0.000    0.000    0.000    0.000    0.000 
#    0.000    0.000    0.000    0.000    0.000    0.000 
#
# Total GULP energy -100568.358545 kJ/mol
# GULP energy per Si atom -5587.131030 kJ/mol
# Density = 2.001354 g / cm^3
# Si number density = 20.059193 Si / 1000 Ang^3
#
#
#
# Elastic Constant Matrix: (Units=GPa)
#
#
# Indices 1 2 3 4 5 6 
#
# 1 147.4756 61.7086 -1.8316 0.0000 -2.6544 0.0000
# 2 61.7086 177.0057 39.8389 0.0000 5.1322 0.0000
# 3 -1.8316 39.8389 109.5276 0.0000 4.8459 0.0000
# 4 0.0000 0.0000 0.0000 27.0858 0.0000 -3.7201
# 5 -2.6544 5.1322 4.8459 0.0000 23.6387 0.0000
# 6 0.0000 0.0000 0.0000 -3.7201 0.0000 23.2564
#
#
#
# Elastic Compliance Matrix: (Units=1/GPa)
#
#
# Indices 1 2 3 4 5 6 
#
# 1 0.008139 -0.003152 0.001223 0.000000 0.001348 0.000000
# 2 -0.003152 0.007392 -0.002679 0.000000 -0.001410 0.000000
# 3 0.001223 -0.002679 0.010186 0.000000 -0.001369 0.000000
# 4 0.000000 0.000000 0.000000 0.037749 0.000000 0.006038
# 5 0.001348 -0.001410 -0.001369 0.000000 0.043042 0.000000
# 6 0.000000 0.000000 0.000000 0.006038 0.000000 0.043965
#
#
# Mechanical properties :
#
#
# Convention : Reuss Voigt Hill
#
# Bulk Modulus (GPa) = 60.60300 70.38229 65.49264
# Shear Modulus (GPa) = 30.26846 37.08240 33.67543
#
# Velocity S-wave (km/s) = 3.88874 4.30426 4.10176
# Velocity P-wave (km/s) = 7.10217 7.73729 7.42652
#
# Compressibility (1/GPa) = 0.01650083
#
# Stress axis : x y z
#
# Youngs Moduli (GPa) = 122.86473 135.27790 98.17752
#
# Poissons Ratio (x) = 0.42637 -0.12006
# Poissons Ratio (y) = 0.38724 0.26303
# Poissons Ratio (z) = -0.15025 0.36243
#
# Static dielectric constant tensor:
#      x y z
#    x 1.706600 0.000000 -0.012700 
#    y 0.000000 1.704120 0.000000 
#    z -0.012700 0.000000 1.667490 
# 
# From -- ./inp_files/58506.got.cif
#   From: 2010.05.17/outbox.cif.g08.bks.cpg/sg12_30_cif.got.tgz:58506.got - 2010.06.03 13:09:07.
