data_PCOD9221253
_publ_section_title
;
Structure prediction by ZEFSAII (Michael W. Deem and Ramdas Pophale) SiO2 
 PCOD9221253
Probable space group: C 2/M
;
_chemical_formula_sum "Si O2"
_cell_formula_units_Z 64
_cell_length_a 23.546567
_cell_length_b 7.524591
_cell_length_c 20.347642
_cell_angle_alpha 90.000000
_cell_angle_beta 123.034371
_cell_angle_gamma 90.000000
_cell_volume 3022.363438
_symmetry_space_group_name_H-M "C 2/M"
_symmetry_group_IT_number 12
_symmetry_cell_setting 'monoclinic'
loop_
_space_group_symop_operation_xyz
x,y,z
-x,y,-z
-x,-y,-z
x,-y,z
1/2+x,1/2+y,z
1/2-x,1/2+y,-z
1/2-x,1/2-y,-z
1/2+x,1/2-y,z
loop_
_atom_site_type_symbol
_atom_site_label
_atom_site_fract_x
_atom_site_fract_y
_atom_site_fract_z
Si Si1 0.937961 0.715370 0.164951
Si Si2 0.274541 0.281001 0.228368
Si Si3 0.988294 0.716149 0.919058
Si Si4 0.562150 0.712650 0.454929
Si Si5 0.590150 0.716877 0.616409
Si Si6 0.282778 0.298061 0.090189
Si Si7 0.849164 0.716378 0.761409
Si Si8 0.576750 0.211426 0.318321
O O1 0.935039 0.500000 0.165399
O O2 0.958187 0.769219 0.103313
O O3 0.864148 0.782216 0.137533
O O4 0.001110 0.776452 0.250310
O O5 0.274450 0.500000 0.228238
O O6 0.348642 0.224274 0.299480
O O7 0.260868 0.213898 0.145819
O O8 0.218580 0.222945 0.245684
O O9 0.990505 0.500000 0.921852
O O10 0.914258 0.765284 0.846171
O O11 0.000000 0.780577 0.000000
O O12 0.559378 0.500000 0.457613
O O13 0.597348 0.772705 0.544594
O O14 0.484117 0.776903 0.407384
O O15 0.593102 0.755626 0.404189
O O16 0.590016 0.500000 0.617813
O O17 0.262305 0.500000 0.085168
O O18 0.250000 0.250000 0.000000
O O19 0.845714 0.500000 0.757856
O O20 0.868502 0.777472 0.700188
O O21 0.573169 0.000000 0.306774
#
# Coordination Sequence:
#
# PCOD9221253 Si02
#       8
#     8   8   8   8   8   8   8   8
#     4   9  18  32  49  71  97 124 158 201 245 286
#     4   9  17  30  49  70  94 124 164 204 239 284
#     4   8  14  24  44  69  90 115 155 203 241 277
#     4   9  16  28  49  72  98 127 160 200 241 286
#     4   8  15  28  46  71  96 124 163 204 238 276
#     4  11  23  35  51  75  99 128 163 200 245 296
#     4   8  15  27  43  67  93 122 159 201 241 277
#     4   9  17  30  48  73 101 125 155 199 247 287
#
# _framework density 21.175481000000001
#
# number of rings (size 3 to 8) (size 9 to 14) (size 15 to 20)
#    0.000    3.125    0.000    3.375    1.750    1.500 
#    0.000    1.875    0.000    3.375    0.000    0.000 
#    0.000    0.000    0.000    0.000    0.000    0.000 
#
# Total GULP energy -178443.007936 kJ/mol
# GULP energy per Si atom -5576.343998 kJ/mol
# Density = 2.112728 g / cm^3
# Si number density = 21.175481 Si / 1000 Ang^3
#
#
#
# Elastic Constant Matrix: (Units=GPa)
#
#
# Indices 1 2 3 4 5 6 
#
# 1 83.8413 -3.0609 54.7436 0.0001 -20.1923 0.0000
# 2 -3.0609 45.2784 9.1587 0.0003 -2.6988 -0.0002
# 3 54.7436 9.1587 104.9611 0.0000 -33.2748 0.0000
# 4 0.0001 0.0003 0.0000 -46.7513 0.0000 16.1714
# 5 -20.1923 -2.6988 -33.2748 0.0000 32.5209 0.0000
# 6 0.0000 -0.0002 0.0000 16.1714 0.0000 4.3016
#
#
#
# Elastic Compliance Matrix: (Units=1/GPa)
#
#
# Indices 1 2 3 4 5 6 
#
# 1 0.018674 0.003280 -0.009271 0.000000 0.002381 0.000000
# 2 0.003280 0.023059 -0.003656 0.000000 0.000209 0.000000
# 3 -0.009271 -0.003656 0.018887 0.000000 0.013265 0.000000
# 4 0.000000 0.000000 0.000000 -0.009298 0.000000 0.034956
# 5 0.002381 0.000209 0.013265 0.000000 0.045818 0.000000
# 6 0.000000 0.000000 0.000000 0.034956 0.000000 0.101058
#
#
# Mechanical properties :
#
#
# Convention : Reuss Voigt Hill
#
# Bulk Modulus (GPa) = 24.19862 39.52928 31.86395
# Shear Modulus (GPa) = 21.61999 9.56354 15.59176
#
# Velocity S-wave (km/s) = 3.19876 2.12747 2.71645
# Velocity P-wave (km/s) = 5.00952 4.97422 4.99190
#
# Compressibility (1/GPa) = 0.04132467
#
# Stress axis : x y z
#
# Youngs Moduli (GPa) = 53.55092 43.36644 52.94635
#
# Poissons Ratio (x) = -0.14222 0.49086
# Poissons Ratio (y) = -0.17562 0.19359
# Poissons Ratio (z) = 0.49646 0.15857
#
# Static dielectric constant tensor:
#      x y z
#    x 1.763660 0.000000 -0.043420 
#    y 0.000000 1.803610 0.000000 
#    z -0.043420 0.000000 1.767830 
# 
# From -- ./inp_files/324255.got.cif
#   From: 2010.05.17/outbox.cif.g08.bks.cpg/sg12_163_cif.got.tgz:324255.got - 2010.06.03 13:09:07.
