data_PCOD9221623
_publ_section_title
;
Structure prediction by ZEFSAII (Michael W. Deem and Ramdas Pophale) SiO2 
 PCOD9221623
Probable space group: C 2/M
;
_chemical_formula_sum "Si O2"
_cell_formula_units_Z 56
_cell_length_a 8.514360
_cell_length_b 19.080382
_cell_length_c 16.797255
_cell_angle_alpha 90.000000
_cell_angle_beta 111.824627
_cell_angle_gamma 90.000000
_cell_volume 2533.249463
_symmetry_space_group_name_H-M "C 2/M"
_symmetry_group_IT_number 12
_symmetry_cell_setting 'monoclinic'
loop_
_space_group_symop_operation_xyz
x,y,z
-x,y,-z
-x,-y,-z
x,-y,z
1/2+x,1/2+y,z
1/2-x,1/2+y,-z
1/2-x,1/2-y,-z
1/2+x,1/2-y,z
loop_
_atom_site_type_symbol
_atom_site_label
_atom_site_fract_x
_atom_site_fract_y
_atom_site_fract_z
Si Si1 0.003908 0.335805 0.824203
Si Si2 0.931096 0.772463 0.563710
Si Si3 0.706357 0.000000 0.450798
Si Si4 0.412562 0.374296 0.707747
Si Si5 0.527562 0.872723 0.646063
Si Si6 0.008124 0.000000 0.628893
Si Si7 0.329932 0.314794 0.129700
Si Si8 0.173337 0.578430 0.981501
O O1 0.972001 0.351758 0.725288
O O2 0.827125 0.324613 0.838223
O O3 0.118669 0.266805 0.862416
O O4 0.108960 0.399567 0.882438
O O5 0.750000 0.750000 0.500000
O O6 0.921871 0.813322 0.643721
O O7 0.028635 0.700180 0.597896
O O8 0.000000 0.814937 0.500000
O O9 0.591222 0.069180 0.417279
O O10 0.822726 0.000000 0.551558
O O11 0.845504 0.000000 0.407716
O O12 0.521226 0.434212 0.687983
O O13 0.501387 0.349836 0.803937
O O14 0.220882 0.397564 0.684920
O O15 0.279480 0.358214 0.041349
O O16 0.249460 0.500000 0.998776
O O17 0.000000 0.576089 0.000000
#
# Coordination Sequence:
#
# PCOD9221623 Si02
#       8
#     8   8   4   8   8   4   8   8
#     4  11  23  41  69  99 136 174 223 274 338 399
#     4  12  26  42  68  95 130 176 229 276 328 390
#     4  11  27  45  69  92 134 178 232 275 339 401
#     4  12  26  44  68  98 137 175 226 278 338 399
#     4  12  26  45  66 100 136 180 219 280 340 399
#     4  11  27  45  67  96 129 181 229 280 332 404
#     4  11  23  41  69 100 134 175 223 277 332 402
#     4   9  21  42  69  99 131 174 223 274 334 402
#
# _framework density 22.105996999999999
#
# number of rings (size 3 to 8) (size 9 to 14) (size 15 to 20)
#    0.000    0.857    2.857    3.429    8.000    0.571 
#    0.000    2.143    0.000    3.429    0.000    0.000 
#    0.000    0.000    0.000    0.000    0.000    0.000 
#
# Total GULP energy -156511.530526 kJ/mol
# GULP energy per Si atom -5589.697519 kJ/mol
# Density = 2.205568 g / cm^3
# Si number density = 22.105997 Si / 1000 Ang^3
#
#
#
# Elastic Constant Matrix: (Units=GPa)
#
#
# Indices 1 2 3 4 5 6 
#
# 1 66.0294 -7.5576 -8.7102 0.0000 5.2745 0.0000
# 2 -7.5576 86.1762 1.0975 0.0000 1.9659 0.0000
# 3 -8.7102 1.0975 62.2892 0.0000 3.8615 0.0000
# 4 0.0000 0.0000 0.0000 32.1936 0.0000 4.3783
# 5 5.2745 1.9659 3.8615 0.0000 22.4483 0.0000
# 6 0.0000 0.0000 0.0000 4.3783 0.0000 23.4079
#
#
#
# Elastic Compliance Matrix: (Units=1/GPa)
#
#
# Indices 1 2 3 4 5 6 
#
# 1 0.015984 0.001469 0.002476 0.000000 -0.004310 0.000000
# 2 0.001469 0.011764 0.000084 0.000000 -0.001390 0.000000
# 3 0.002476 0.000084 0.016613 0.000000 -0.003447 0.000000
# 4 0.000000 0.000000 0.000000 0.031873 0.000000 -0.005962
# 5 -0.004310 -0.001390 -0.003447 0.000000 0.046274 0.000000
# 6 0.000000 0.000000 0.000000 -0.005962 0.000000 0.043836
#
#
# Mechanical properties :
#
#
# Convention : Reuss Voigt Hill
#
# Bulk Modulus (GPa) = 19.07725 20.46159 19.76942
# Shear Modulus (GPa) = 28.44836 30.92097 29.68467
#
# Velocity S-wave (km/s) = 3.59124 3.74406 3.66844
# Velocity P-wave (km/s) = 5.08376 5.28837 5.18707
#
# Compressibility (1/GPa) = 0.05241846
#
# Stress axis : x y z
#
# Youngs Moduli (GPa) = 62.56325 85.00833 60.19516
#
# Poissons Ratio (x) = -0.12484 -0.14907
# Poissons Ratio (y) = -0.09188 -0.00507
# Poissons Ratio (z) = -0.15493 -0.00716
#
# Static dielectric constant tensor:
#      x y z
#    x 1.800980 0.000000 0.005420 
#    y 0.000000 1.720320 0.000000 
#    z 0.005420 0.000000 1.754950 
# 
# From -- ./inp_files/257225.got.cif
#   From: 2010.05.17/outbox.cif.g08.bks.cpg/sg12_129_cif.got.tgz:257225.got - 2010.06.03 13:09:07.
