data_PCOD9221582
_publ_section_title
;
Structure prediction by ZEFSAII (Michael W. Deem and Ramdas Pophale) SiO2 
 PCOD9221582
Probable space group: C 2/M
;
_chemical_formula_sum "Si O2"
_cell_formula_units_Z 64
_cell_length_a 14.128893
_cell_length_b 18.325593
_cell_length_c 24.170563
_cell_angle_alpha 90.000000
_cell_angle_beta 29.151465
_cell_angle_gamma 90.000000
_cell_volume 3048.519185
_symmetry_space_group_name_H-M "C 2/M"
_symmetry_group_IT_number 12
_symmetry_cell_setting 'monoclinic'
loop_
_space_group_symop_operation_xyz
x,y,z
-x,y,-z
-x,-y,-z
x,-y,z
1/2+x,1/2+y,z
1/2-x,1/2+y,-z
1/2-x,1/2-y,-z
1/2+x,1/2-y,z
loop_
_atom_site_type_symbol
_atom_site_label
_atom_site_fract_x
_atom_site_fract_y
_atom_site_fract_z
Si Si1 0.015510 0.794196 0.556982
Si Si2 0.145973 0.189795 0.012998
Si Si3 0.814226 0.585730 0.007471
Si Si4 0.796436 0.416959 0.576272
Si Si5 0.589733 0.848674 0.591142
Si Si6 0.224169 0.304164 0.178704
Si Si7 0.756482 0.916439 0.744298
Si Si8 0.098920 0.855207 0.220065
O O1 0.225597 0.826306 0.466531
O O2 0.012727 0.718916 0.592722
O O3 0.000000 0.780778 0.500000
O O4 0.853274 0.853797 0.657550
O O5 0.923603 0.205748 0.110801
O O6 0.250000 0.250000 0.000000
O O7 0.169259 0.115149 0.034848
O O8 0.242538 0.182025 0.903302
O O9 0.795467 0.500000 0.028273
O O10 0.031570 0.599593 0.874198
O O11 0.757190 0.628932 0.092178
O O12 0.745983 0.500000 0.615513
O O13 0.833092 0.406659 0.492299
O O14 0.620609 0.367333 0.687063
O O15 0.000000 0.399217 0.500000
O O16 0.411199 0.863835 0.723000
O O17 0.119349 0.225830 0.232430
O O18 0.865241 0.909933 0.747656
O O19 0.771246 0.000000 0.715747
#
# Coordination Sequence:
#
# PCOD9221582 Si02
#       8
#     8   8   8   8   8   8   8   8
#     4  11  24  40  65  93 127 173 221 271 328 395
#     4  11  24  43  66 100 141 173 219 281 326 401
#     4  11  25  42  69 103 134 178 221 272 345 401
#     4  11  25  43  66  98 134 177 227 276 335 399
#     4  11  23  43  63  94 130 174 219 272 331 393
#     4  11  25  40  68 102 127 177 226 265 342 390
#     4  11  23  41  65  96 134 171 217 277 336 399
#     4  12  21  42  70  98 134 169 225 284 333 396
#
# _framework density 20.9938
#
# number of rings (size 3 to 8) (size 9 to 14) (size 15 to 20)
#    0.000    0.875    3.750    3.375    5.250    1.250 
#    0.000    1.875    0.000    0.000    0.000    0.000 
#    0.000    0.000    0.000    0.000    0.000    0.000 
#
# Total GULP energy -178832.544816 kJ/mol
# GULP energy per Si atom -5588.517026 kJ/mol
# Density = 2.094602 g / cm^3
# Si number density = 20.993800 Si / 1000 Ang^3
#
#
#
# Elastic Constant Matrix: (Units=GPa)
#
#
# Indices 1 2 3 4 5 6 
#
# 1 98.5385 1.7618 22.9042 -0.0087 6.4552 0.0001
# 2 1.7618 45.7276 16.8429 -0.0163 -2.6600 0.0051
# 3 22.9042 16.8429 98.4067 -0.0181 -0.0595 -0.0109
# 4 -0.0087 -0.0163 -0.0181 23.5413 -0.0013 -5.2872
# 5 6.4552 -2.6600 -0.0595 -0.0013 27.7942 0.0010
# 6 0.0001 0.0051 -0.0109 -5.2872 0.0010 19.0912
#
#
#
# Elastic Compliance Matrix: (Units=1/GPa)
#
#
# Indices 1 2 3 4 5 6 
#
# 1 0.010912 0.000395 -0.002609 0.000002 -0.002502 -0.000001
# 2 0.000395 0.023493 -0.004112 0.000012 0.002148 -0.000005
# 3 -0.002609 -0.004112 0.011473 0.000007 0.000237 0.000010
# 4 0.000002 0.000012 0.000007 0.045296 0.000002 0.012545
# 5 -0.002502 0.002148 0.000237 0.000002 0.036766 -0.000002
# 6 -0.000001 -0.000005 0.000010 0.012545 -0.000002 0.055854
#
#
# Mechanical properties :
#
#
# Convention : Reuss Voigt Hill
#
# Bulk Modulus (GPa) = 30.09643 36.18784 33.14213
# Shear Modulus (GPa) = 24.09411 27.49628 25.79519
#
# Velocity S-wave (km/s) = 3.39141 3.62295 3.50909
# Velocity P-wave (km/s) = 5.45001 5.89710 5.67796
#
# Compressibility (1/GPa) = 0.03322653
#
# Stress axis : x y z
#
# Youngs Moduli (GPa) = 91.64607 42.56630 87.16137
#
# Poissons Ratio (x) = -0.01681 0.22739
# Poissons Ratio (y) = -0.03620 0.35837
# Poissons Ratio (z) = 0.23908 0.17501
#
# Static dielectric constant tensor:
#      x y z
#    x 1.745980 0.000000 -0.003360 
#    y 0.000000 1.750490 0.000000 
#    z -0.003360 0.000000 1.793650 
# 
# From -- ./inp_files/340812.got.cif
#   From: 2010.05.17/outbox.cif.g08.bks.cpg/sg12_171_cif.got.tgz:340812.got - 2010.06.03 13:09:07.
