data_PCOD9221424
_publ_section_title
;
Structure prediction by ZEFSAII (Michael W. Deem and Ramdas Pophale) SiO2 
 PCOD9221424
Probable space group: C 2/M
;
_chemical_formula_sum "Si O2"
_cell_formula_units_Z 48
_cell_length_a 28.907306
_cell_length_b 8.991291
_cell_length_c 14.527112
_cell_angle_alpha 90.000000
_cell_angle_beta 39.136551
_cell_angle_gamma 90.000000
_cell_volume 2383.174373
_symmetry_space_group_name_H-M "C 2/M"
_symmetry_group_IT_number 12
_symmetry_cell_setting 'monoclinic'
loop_
_space_group_symop_operation_xyz
x,y,z
-x,y,-z
-x,-y,-z
x,-y,z
1/2+x,1/2+y,z
1/2-x,1/2+y,-z
1/2-x,1/2-y,-z
1/2+x,1/2-y,z
loop_
_atom_site_type_symbol
_atom_site_label
_atom_site_fract_x
_atom_site_fract_y
_atom_site_fract_z
Si Si1 0.756350 0.323452 0.389697
Si Si2 0.475776 0.822990 0.642709
Si Si3 0.491994 0.174607 0.120748
Si Si4 0.320705 0.674659 0.935347
Si Si5 0.641524 0.325701 0.916842
Si Si6 0.408233 0.325713 0.399360
O O1 0.771515 0.500000 0.375545
O O2 0.750000 0.250000 0.500000
O O3 0.816841 0.244900 0.233537
O O4 0.678578 0.305373 0.457192
O O5 0.500000 0.795212 0.500000
O O6 0.539779 0.760397 0.609997
O O7 0.469146 0.000000 0.666841
O O8 0.397455 0.747847 0.785169
O O9 0.427935 0.265667 0.267515
O O10 0.482189 0.000000 0.152954
O O11 0.500000 0.198771 0.000000
O O12 0.566820 0.236080 0.047666
O O13 0.323074 0.500000 0.908531
O O14 0.314822 0.687447 0.055149
O O15 0.250000 0.750000 0.000000
O O16 0.625842 0.500000 0.924862
O O17 0.425356 0.500000 0.379144
#
# Coordination Sequence:
#
# PCOD9221424 Si02
#       6
#     8   8   8   8   8   8
#     4  11  25  43  65  95 131 173 218 266 321 382
#     4  11  25  44  68  98 130 167 213 266 323 385
#     4  11  23  39  64  95 126 166 212 261 318 380
#     4  11  25  44  68  98 131 170 215 265 322 384
#     4  11  24  42  65  94 129 169 214 265 319 380
#     4  11  24  42  64  94 129 168 213 263 320 382
#
# _framework density 20.141203000000001
#
# number of rings (size 3 to 8) (size 9 to 14) (size 15 to 20)
#    0.000    1.000    1.667    4.000    2.333   10.000 
#    0.000    0.000    0.000    0.000    0.000    0.000 
#    0.000    0.000    0.000    0.000    0.000    0.000 
#
# Total GULP energy -134259.978864 kJ/mol
# GULP energy per Si atom -5594.165786 kJ/mol
# Density = 2.009536 g / cm^3
# Si number density = 20.141203 Si / 1000 Ang^3
#
#
#
# Elastic Constant Matrix: (Units=GPa)
#
#
# Indices 1 2 3 4 5 6 
#
# 1 83.0860 46.5870 7.6767 0.0000 -3.0252 0.0000
# 2 46.5870 74.2147 23.8810 0.0000 6.5357 0.0000
# 3 7.6767 23.8810 70.7795 0.0000 10.7878 0.0000
# 4 0.0000 0.0000 0.0000 32.4929 0.0000 2.6410
# 5 -3.0252 6.5357 10.7878 0.0000 25.6412 0.0000
# 6 0.0000 0.0000 0.0000 2.6410 0.0000 33.0153
#
#
#
# Elastic Compliance Matrix: (Units=1/GPa)
#
#
# Indices 1 2 3 4 5 6 
#
# 1 0.019446 -0.013151 0.001568 0.000000 0.004987 0.000000
# 2 -0.013151 0.024089 -0.005908 0.000000 -0.005206 0.000000
# 3 0.001568 -0.005908 0.016769 0.000000 -0.005364 0.000000
# 4 0.000000 0.000000 0.000000 0.030977 0.000000 -0.002478
# 5 0.004987 -0.005206 -0.005364 0.000000 0.043172 0.000000
# 6 0.000000 0.000000 0.000000 -0.002478 0.000000 0.030487
#
#
# Mechanical properties :
#
#
# Convention : Reuss Voigt Hill
#
# Bulk Modulus (GPa) = 39.48955 42.70774 41.09864
# Shear Modulus (GPa) = 23.99657 28.22557 26.11107
#
# Velocity S-wave (km/s) = 3.45544 3.74757 3.60446
# Velocity P-wave (km/s) = 5.96397 6.32265 6.14593
#
# Compressibility (1/GPa) = 0.02532315
#
# Stress axis : x y z
#
# Youngs Moduli (GPa) = 51.42424 41.51269 59.63294
#
# Poissons Ratio (x) = 0.54592 -0.09350
# Poissons Ratio (y) = 0.67626 0.35230
# Poissons Ratio (z) = -0.08063 0.24525
#
# Static dielectric constant tensor:
#      x y z
#    x 1.735260 0.000000 -0.011440 
#    y 0.000000 1.673970 0.000000 
#    z -0.011440 0.000000 1.722480 
# 
# From -- ./inp_files/244663.got.cif
#   From: 2010.05.17/outbox.cif.g08.bks.cpg/sg12_123_cif.got.tgz:244663.got - 2010.06.03 13:09:07.
