data_PCOD9221403
_publ_section_title
;
Structure prediction by ZEFSAII (Michael W. Deem and Ramdas Pophale) SiO2 
 PCOD9221403
Probable space group: C 2/M
;
_chemical_formula_sum "Si O2"
_cell_formula_units_Z 40
_cell_length_a 17.071385
_cell_length_b 16.731485
_cell_length_c 14.345761
_cell_angle_alpha 90.000000
_cell_angle_beta 27.883291
_cell_angle_gamma 90.000000
_cell_volume 1916.321028
_symmetry_space_group_name_H-M "C 2/M"
_symmetry_group_IT_number 12
_symmetry_cell_setting 'monoclinic'
loop_
_space_group_symop_operation_xyz
x,y,z
-x,y,-z
-x,-y,-z
x,-y,z
1/2+x,1/2+y,z
1/2-x,1/2+y,-z
1/2-x,1/2-y,-z
1/2+x,1/2-y,z
loop_
_atom_site_type_symbol
_atom_site_label
_atom_site_fract_x
_atom_site_fract_y
_atom_site_fract_z
Si Si1 0.777433 0.090206 0.311773
Si Si2 0.206235 0.591097 0.600356
Si Si3 0.500000 0.283481 0.000000
Si Si4 0.478565 0.294338 0.697461
Si Si5 0.122251 0.319110 0.024203
Si Si6 0.000000 0.325093 0.500000
O O1 0.692252 0.093947 0.502381
O O2 0.918914 0.157219 0.159739
O O3 0.655287 0.116495 0.357153
O O4 0.838404 0.000000 0.235231
O O5 0.248653 0.500000 0.581989
O O6 0.354474 0.652441 0.471516
O O7 0.025587 0.616785 0.828847
O O8 0.371173 0.227782 0.080739
O O9 0.442973 0.242494 0.827638
O O10 0.490531 0.231190 0.600363
O O11 0.308359 0.344801 0.857690
#
# Coordination Sequence:
#
# PCOD9221403 Si02
#       6
#     8   8   4   8   8   4
#     4  11  23  39  62  97 132 162 202 265 333 378
#     4  11  24  44  66  92 131 170 209 269 324 367
#     4  12  21  40  65  92 126 168 214 260 313 380
#     4  11  23  40  65  96 125 167 222 256 310 383
#     4  11  23  40  65  96 125 167 222 256 310 383
#     4  12  21  40  65  92 126 168 214 260 313 380
#
# _framework density 20.873328999999998
#
# number of rings (size 3 to 8) (size 9 to 14) (size 15 to 20)
#    0.000    0.800    6.000    2.400    0.000    0.800 
#    0.000    1.000    0.000    0.000    0.000    0.000 
#    0.000    0.000    0.000    0.000    0.000    0.000 
#
# Total GULP energy -111672.599220 kJ/mol
# GULP energy per Si atom -5583.629961 kJ/mol
# Density = 2.082582 g / cm^3
# Si number density = 20.873329 Si / 1000 Ang^3
#
#
#
# Elastic Constant Matrix: (Units=GPa)
#
#
# Indices 1 2 3 4 5 6 
#
# 1 81.7816 34.1499 3.2796 0.0000 -5.1667 0.0002
# 2 34.1499 62.7845 17.4141 0.0010 -0.7985 0.0012
# 3 3.2796 17.4141 52.0264 0.0007 -9.3499 0.0000
# 4 0.0000 0.0010 0.0007 23.5797 -0.0004 7.0825
# 5 -5.1667 -0.7985 -9.3499 -0.0004 40.7768 -0.0004
# 6 0.0002 0.0012 0.0000 7.0825 -0.0004 6.4438
#
#
#
# Elastic Compliance Matrix: (Units=1/GPa)
#
#
# Indices 1 2 3 4 5 6 
#
# 1 0.016262 -0.009538 0.002612 0.000000 0.002473 0.000002
# 2 -0.009538 0.023195 -0.007612 0.000001 -0.002500 -0.000005
# 3 0.002612 -0.007612 0.022567 -0.000001 0.005356 0.000003
# 4 0.000000 0.000001 -0.000001 0.063310 0.000000 -0.069585
# 5 0.002473 -0.002500 0.005356 0.000000 0.026016 0.000002
# 6 0.000002 -0.000005 0.000003 -0.069585 0.000002 0.231669
#
#
# Mechanical properties :
#
#
# Convention : Reuss Voigt Hill
#
# Bulk Modulus (GPa) = 30.35123 34.03106 32.19115
# Shear Modulus (GPa) = 11.81813 23.61001 17.71407
#
# Velocity S-wave (km/s) = 2.38204 3.36684 2.91631
# Velocity P-wave (km/s) = 4.70508 5.60831 5.17643
#
# Compressibility (1/GPa) = 0.03294760
#
# Stress axis : x y z
#
# Youngs Moduli (GPa) = 61.49261 43.11272 44.31297
#
# Poissons Ratio (x) = 0.41122 -0.11574
# Poissons Ratio (y) = 0.58654 0.33730
# Poissons Ratio (z) = -0.16061 0.32816
#
# Static dielectric constant tensor:
#      x y z
#    x 1.744410 0.000000 -0.018910 
#    y 0.000000 1.737040 0.000000 
#    z -0.018910 0.000000 1.809530 
# 
# From -- ./inp_files/225578.got.cif
#   From: 2010.05.17/outbox.cif.g08.bks.cpg/sg12_113_cif.got.tgz:225578.got - 2010.06.03 13:09:07.
