data_PCOD9221609
_publ_section_title
;
Structure prediction by ZEFSAII (Michael W. Deem and Ramdas Pophale) SiO2 
 PCOD9221609
Probable space group: C 2/M
;
_chemical_formula_sum "Si O2"
_cell_formula_units_Z 42
_cell_length_a 7.525726
_cell_length_b 15.666605
_cell_length_c 17.084384
_cell_angle_alpha 90.000000
_cell_angle_beta 67.566540
_cell_angle_gamma 90.000000
_cell_volume 1861.857926
_symmetry_space_group_name_H-M "C 2/M"
_symmetry_group_IT_number 12
_symmetry_cell_setting 'monoclinic'
loop_
_space_group_symop_operation_xyz
x,y,z
-x,y,-z
-x,-y,-z
x,-y,z
1/2+x,1/2+y,z
1/2-x,1/2+y,-z
1/2-x,1/2-y,-z
1/2+x,1/2-y,z
loop_
_atom_site_type_symbol
_atom_site_label
_atom_site_fract_x
_atom_site_fract_y
_atom_site_fract_z
Si Si1 0.855782 0.354328 0.674011
Si Si2 0.312996 0.593674 0.453756
Si Si3 0.856796 0.861957 0.138659
Si Si4 0.783605 0.835976 0.623510
Si Si5 0.000000 0.000000 0.000000
Si Si6 0.422287 0.193098 0.935614
O O1 0.828276 0.399051 0.595402
O O2 0.699361 0.382988 0.763753
O O3 0.820939 0.255133 0.657017
O O4 0.066572 0.365221 0.675718
O O5 0.295195 0.500000 0.492714
O O6 0.530590 0.607947 0.386350
O O7 0.284607 0.661601 0.527909
O O8 0.664517 0.864498 0.117315
O O9 0.931899 0.764142 0.122527
O O10 0.996621 0.925136 0.069435
O O11 0.500000 0.146470 0.000000
O O12 0.250000 0.250000 0.000000
#
# Coordination Sequence:
#
# PCOD9221609 Si02
#       6
#     8   8   8   8   2   8
#     4  12  24  40  70 102 132 179 237 285 328 401
#     4  11  26  44  66 100 144 187 220 280 349 403
#     4  11  23  41  67  95 131 166 225 276 337 396
#     4  11  23  43  69  99 136 181 237 278 330 407
#     4  12  24  44  62  92 138 170 194 288 352 396
#     4   9  17  38  66  87 113 167 216 259 321 407
#
# _framework density 22.558112000000001
#
# number of rings (size 3 to 8) (size 9 to 14) (size 15 to 20)
#    0.000    1.143    4.762    3.429    4.000    2.286 
#    0.000    0.476    0.000    0.000    0.000    0.000 
#    0.000    0.000    0.000    0.000    0.000    0.000 
#
# Total GULP energy -116940.877960 kJ/mol
# GULP energy per Si atom -5568.613236 kJ/mol
# Density = 2.250677 g / cm^3
# Si number density = 22.558112 Si / 1000 Ang^3
#
#
#
# Elastic Constant Matrix: (Units=GPa)
#
#
# Indices 1 2 3 4 5 6 
#
# 1 66.3387 -13.0846 -4.1547 0.0000 -0.3585 0.0000
# 2 -13.0846 54.5980 2.0618 0.0000 3.5892 0.0000
# 3 -4.1547 2.0618 107.5598 0.0000 -0.2121 0.0000
# 4 0.0000 0.0000 0.0000 -2.6821 0.0000 -9.3208
# 5 -0.3585 3.5892 -0.2121 0.0000 31.4894 0.0000
# 6 0.0000 0.0000 0.0000 -9.3208 0.0000 -4.6748
#
#
#
# Elastic Compliance Matrix: (Units=1/GPa)
#
#
# Indices 1 2 3 4 5 6 
#
# 1 0.015855 0.003796 0.000539 0.000000 -0.000249 0.000000
# 2 0.003796 0.019376 -0.000229 0.000000 -0.002167 0.000000
# 3 0.000539 -0.000229 0.009323 0.000000 0.000095 0.000000
# 4 0.000000 0.000000 0.000000 0.062885 0.000000 -0.125383
# 5 -0.000249 -0.002167 0.000095 0.000000 0.032002 0.000000
# 6 0.000000 0.000000 0.000000 -0.125383 0.000000 0.036080
#
#
# Mechanical properties :
#
#
# Convention : Reuss Voigt Hill
#
# Bulk Modulus (GPa) = 18.95160 22.01571 20.48366
# Shear Modulus (GPa) = 27.04203 21.07144 24.05673
#
# Velocity S-wave (km/s) = 3.46608 3.05961 3.26917
# Velocity P-wave (km/s) = 4.94346 4.71830 4.83219
#
# Compressibility (1/GPa) = 0.05276600
#
# Stress axis : x y z
#
# Youngs Moduli (GPa) = 63.07056 51.60898 107.26666
#
# Poissons Ratio (x) = -0.19589 -0.05784
# Poissons Ratio (y) = -0.23940 0.02457
# Poissons Ratio (z) = -0.03401 0.01182
#
# Static dielectric constant tensor:
#      x y z
#    x 1.922580 0.000000 -0.040900 
#    y 0.000000 1.915060 0.000000 
#    z -0.040900 0.000000 1.852570 
# 
# From -- ./inp_files/255695.got.cif
#   From: 2010.05.17/outbox.cif.g08.bks.cpg/sg12_128_cif.got.tgz:255695.got - 2010.06.03 13:09:07.
