data_PCOD9221367
_publ_section_title
;
Structure prediction by ZEFSAII (Michael W. Deem and Ramdas Pophale) SiO2 
 PCOD9221367
Probable space group: C 2/M
;
_chemical_formula_sum "Si O2"
_cell_formula_units_Z 40
_cell_length_a 14.925558
_cell_length_b 8.400339
_cell_length_c 30.957889
_cell_angle_alpha 90.000000
_cell_angle_beta 146.722528
_cell_angle_gamma 90.000000
_cell_volume 2129.752098
_symmetry_space_group_name_H-M "C 2/M"
_symmetry_group_IT_number 12
_symmetry_cell_setting 'monoclinic'
loop_
_space_group_symop_operation_xyz
x,y,z
-x,y,-z
-x,-y,-z
x,-y,z
1/2+x,1/2+y,z
1/2-x,1/2+y,-z
1/2-x,1/2-y,-z
1/2+x,1/2-y,z
loop_
_atom_site_type_symbol
_atom_site_label
_atom_site_fract_x
_atom_site_fract_y
_atom_site_fract_z
Si Si1 0.609660 0.692150 0.503822
Si Si2 0.676709 0.687857 0.090242
Si Si3 0.291952 0.811842 0.802746
Si Si4 0.360503 0.312769 0.084003
Si Si5 0.539307 0.692275 0.377791
O O1 0.500000 0.748729 0.500000
O O2 0.606044 0.500000 0.503025
O O3 0.544874 0.744211 0.430354
O O4 0.798066 0.745871 0.580321
O O5 0.668370 0.500000 0.096797
O O6 0.718090 0.780897 0.150268
O O7 0.805733 0.722292 0.104885
O O8 0.500000 0.736309 0.000000
O O9 0.451723 0.721176 0.850757
O O10 0.126758 0.757770 0.712557
O O11 0.313760 0.000000 0.803439
O O12 0.331206 0.500000 0.077376
O O13 0.250000 0.250000 0.000000
O O14 0.545292 0.500000 0.379673
#
# Coordination Sequence:
#
# PCOD9221367 Si02
#       5
#     8   8   8   8   8
#     4   9  18  35  60  86 115 153 191 230 281 342
#     4  11  23  39  60  84 111 149 198 248 296 348
#     4  11  23  39  59  85 121 158 196 246 294 347
#     4  12  24  39  60  85 114 152 197 243 295 350
#     4   9  20  37  56  85 119 150 189 236 286 339
#
# _framework density 18.781528999999999
#
# number of rings (size 3 to 8) (size 9 to 14) (size 15 to 20)
#    0.000    1.600    2.000    3.000    0.000    4.400 
#    0.000    2.000    0.000    0.000    0.000    0.000 
#    0.000    0.000    0.000    0.000    0.000    0.000 
#
# Total GULP energy -111737.148728 kJ/mol
# GULP energy per Si atom -5586.857436 kJ/mol
# Density = 1.873878 g / cm^3
# Si number density = 18.781529 Si / 1000 Ang^3
#
#
#
# Elastic Constant Matrix: (Units=GPa)
#
#
# Indices 1 2 3 4 5 6 
#
# 1 132.5797 -8.8340 52.4200 0.0000 11.4382 0.0000
# 2 -8.8340 22.2909 13.9173 0.0000 0.7497 0.0000
# 3 52.4200 13.9173 145.3384 0.0000 14.1081 0.0000
# 4 0.0000 0.0000 0.0000 27.2082 0.0000 4.7789
# 5 11.4382 0.7497 14.1081 0.0000 17.3505 0.0000
# 6 0.0000 0.0000 0.0000 4.7789 0.0000 28.8030
#
#
#
# Elastic Compliance Matrix: (Units=1/GPa)
#
#
# Indices 1 2 3 4 5 6 
#
# 1 0.009776 0.006357 -0.003781 0.000000 -0.003645 0.000000
# 2 0.006357 0.051900 -0.007207 0.000000 -0.000573 0.000000
# 3 -0.003781 -0.007207 0.009404 0.000000 -0.004843 0.000000
# 4 0.000000 0.000000 0.000000 0.037857 0.000000 -0.006281
# 5 -0.003645 -0.000573 -0.004843 0.000000 0.064001 0.000000
# 6 0.000000 0.000000 0.000000 -0.006281 0.000000 0.035761
#
#
# Mechanical properties :
#
#
# Convention : Reuss Voigt Hill
#
# Bulk Modulus (GPa) = 16.17644 46.13506 31.15575
# Shear Modulus (GPa) = 20.95863 30.85272 25.90568
#
# Velocity S-wave (km/s) = 3.34416 4.05744 3.71794
# Velocity P-wave (km/s) = 4.85210 6.82406 5.92075
#
# Compressibility (1/GPa) = 0.06181832
#
# Stress axis : x y z
#
# Youngs Moduli (GPa) = 102.29631 19.26798 106.33374
#
# Poissons Ratio (x) = -0.12249 0.40202
# Poissons Ratio (y) = -0.65031 0.76635
# Poissons Ratio (z) = 0.38675 0.13886
#
# Static dielectric constant tensor:
#      x y z
#    x 1.626110 0.000000 -0.002150 
#    y 0.000000 1.639480 0.000000 
#    z -0.002150 0.000000 1.627960 
# 
# From -- ./inp_files/211332.got.cif
#   From: 2010.05.17/outbox.cif.g08.bks.cpg/sg12_106_cif.got.tgz:211332.got - 2010.06.03 13:09:07.
