data_PCOD9221747
_publ_section_title
;
Structure prediction by ZEFSAII (Michael W. Deem and Ramdas Pophale) SiO2 
 PCOD9221747
Probable space group: C 2/M
;
_chemical_formula_sum "Si O2"
_cell_formula_units_Z 40
_cell_length_a 28.737602
_cell_length_b 9.686701
_cell_length_c 12.602143
_cell_angle_alpha 90.000000
_cell_angle_beta 146.510823
_cell_angle_gamma 90.000000
_cell_volume 1935.692427
_symmetry_space_group_name_H-M "C 2/M"
_symmetry_group_IT_number 12
_symmetry_cell_setting 'monoclinic'
loop_
_space_group_symop_operation_xyz
x,y,z
-x,y,-z
-x,-y,-z
x,-y,z
1/2+x,1/2+y,z
1/2-x,1/2+y,-z
1/2-x,1/2-y,-z
1/2+x,1/2-y,z
loop_
_atom_site_type_symbol
_atom_site_label
_atom_site_fract_x
_atom_site_fract_y
_atom_site_fract_z
Si Si1 0.337189 0.500000 0.064914
Si Si2 0.987250 0.000000 0.189641
Si Si3 0.229562 0.276800 0.134157
Si Si4 0.477244 0.205398 0.835343
Si Si5 0.910892 0.500000 0.094962
Si Si6 0.722259 0.161840 0.548588
Si Si7 0.870907 0.000000 0.360477
O O1 0.397070 0.500000 0.076028
O O2 0.391693 0.500000 0.275671
O O3 0.281209 0.637999 0.953953
O O4 0.002421 0.864763 0.148869
O O5 0.054418 0.000000 0.413641
O O6 0.150728 0.378705 0.972079
O O7 0.235115 0.227366 0.266945
O O8 0.312881 0.365630 0.270351
O O9 0.378489 0.175557 0.631128
O O10 0.500000 0.170564 0.000000
O O11 0.532239 0.118200 0.858039
O O12 0.750000 0.250000 0.500000
O O13 0.743787 0.000000 0.577664
#
# Coordination Sequence:
#
# PCOD9221747 Si02
#       7
#     4   4   8   8   4   8   4
#     4  12  24  45  72  97 126 172 229 276 330 391
#     4  12  25  45  67  99 132 167 222 280 321 392
#     4  11  24  44  68  99 135 166 222 276 327 393
#     4  12  25  42  67  94 136 179 217 257 328 399
#     4  11  23  43  65  95 130 180 212 262 330 387
#     4  12  27  41  67 100 138 176 216 267 324 392
#     4  11  25  45  70  96 132 176 214 279 343 382
#
# _framework density 20.664439000000002
#
# number of rings (size 3 to 8) (size 9 to 14) (size 15 to 20)
#    0.000    0.400    6.000    2.700    7.000    0.000 
#    0.000    0.000    0.000    1.200    0.000    0.000 
#    0.000    0.000    0.000    0.000    0.000    0.000 
#
# Total GULP energy -111383.741359 kJ/mol
# GULP energy per Si atom -5569.187068 kJ/mol
# Density = 2.061741 g / cm^3
# Si number density = 20.664439 Si / 1000 Ang^3
#
#
#
# Elastic Constant Matrix: (Units=GPa)
#
#
# Indices 1 2 3 4 5 6 
#
# 1 46.3312 14.5549 -1.4995 0.0000 -3.1940 0.0000
# 2 14.5549 176.4367 5.3161 0.0000 7.3566 0.0000
# 3 -1.4995 5.3161 41.7875 0.0000 2.8720 0.0000
# 4 0.0000 0.0000 0.0000 -15.3245 0.0000 -18.0578
# 5 -3.1940 7.3566 2.8720 0.0000 35.1001 0.0000
# 6 0.0000 0.0000 0.0000 -18.0578 0.0000 -4.6004
#
#
#
# Elastic Compliance Matrix: (Units=1/GPa)
#
#
# Indices 1 2 3 4 5 6 
#
# 1 0.022397 -0.001974 0.000891 0.000000 0.002379 0.000000
# 2 -0.001974 0.005909 -0.000729 0.000000 -0.001358 0.000000
# 3 0.000891 -0.000729 0.024175 0.000000 -0.001744 0.000000
# 4 0.000000 0.000000 0.000000 0.017999 0.000000 -0.070652
# 5 0.002379 -0.001358 -0.001744 0.000000 0.029134 0.000000
# 6 0.000000 0.000000 0.000000 -0.070652 0.000000 0.059958
#
#
# Mechanical properties :
#
#
# Convention : Reuss Voigt Hill
#
# Bulk Modulus (GPa) = 20.46755 33.47761 26.97258
# Shear Modulus (GPa) = 27.85808 19.44731 23.65270
#
# Velocity S-wave (km/s) = 3.67565 3.07106 3.38688
# Velocity P-wave (km/s) = 5.28584 5.36759 5.32687
#
# Compressibility (1/GPa) = 0.04885783
#
# Stress axis : x y z
#
# Youngs Moduli (GPa) = 44.64973 169.22826 41.36466
#
# Poissons Ratio (x) = 0.33399 -0.03687
# Poissons Ratio (y) = 0.08812 0.03016
# Poissons Ratio (z) = -0.03979 0.12340
#
# Static dielectric constant tensor:
#      x y z
#    x 1.723180 0.000000 -0.019630 
#    y 0.000000 1.744600 0.000000 
#    z -0.019630 0.000000 1.743510 
# 
# From -- ./inp_files/186220.got.cif
#   From: 2010.05.17/outbox.cif.g08.bks.cpg/sg12_94_cif.got.tgz:186220.got - 2010.06.03 13:09:07.
