data_PCOD9221156
_publ_section_title
;
Structure prediction by ZEFSAII (Michael W. Deem and Ramdas Pophale) SiO2 
 PCOD9221156
Probable space group: C 2/M
;
_chemical_formula_sum "Si O2"
_cell_formula_units_Z 48
_cell_length_a 14.114913
_cell_length_b 12.058415
_cell_length_c 27.635073
_cell_angle_alpha 90.000000
_cell_angle_beta 28.827572
_cell_angle_gamma 90.000000
_cell_volume 2267.952855
_symmetry_space_group_name_H-M "C 2/M"
_symmetry_group_IT_number 12
_symmetry_cell_setting 'monoclinic'
loop_
_space_group_symop_operation_xyz
x,y,z
-x,y,-z
-x,-y,-z
x,-y,z
1/2+x,1/2+y,z
1/2-x,1/2+y,-z
1/2-x,1/2-y,-z
1/2+x,1/2-y,z
loop_
_atom_site_type_symbol
_atom_site_label
_atom_site_fract_x
_atom_site_fract_y
_atom_site_fract_z
Si Si1 0.617158 0.868382 0.399289
Si Si2 0.922260 0.206090 0.667746
Si Si3 0.158295 0.795271 0.965412
Si Si4 0.498142 0.242007 0.744866
Si Si5 0.508116 0.872867 0.113485
Si Si6 0.572888 0.500000 0.546998
Si Si7 0.322466 0.000000 0.341398
O O1 0.500000 0.833497 0.500000
O O2 0.546409 0.807057 0.382914
O O3 0.834562 0.823252 0.310948
O O4 0.606688 0.000000 0.399259
O O5 0.968530 0.235883 0.701739
O O6 0.692938 0.167481 0.770829
O O7 0.056909 0.107026 0.587792
O O8 0.306010 0.735843 0.862291
O O9 0.304267 0.865487 0.934406
O O10 0.053562 0.709110 0.048554
O O11 0.000000 0.851312 0.000000
O O12 0.560543 0.112790 0.721490
O O13 0.480337 0.000000 0.110737
O O14 0.749108 0.500000 0.429907
O O15 0.373613 0.500000 0.603656
#
# Coordination Sequence:
#
# PCOD9221156 Si02
#       7
#     8   8   8   8   8   4   4
#     4  11  26  46  67  96 140 184 223 278 343 404
#     4  12  24  44  70 101 138 175 229 278 340 403
#     4  11  24  45  66  99 133 172 221 274 341 399
#     4  12  26  45  69 101 139 178 228 283 335 410
#     4  11  24  45  70  99 132 174 225 281 334 404
#     4  11  22  42  74  98 129 183 233 285 335 395
#     4  11  24  44  71  99 131 181 233 286 341 389
#
# _framework density 21.164459999999998
#
# number of rings (size 3 to 8) (size 9 to 14) (size 15 to 20)
#    0.000    0.667    5.833    1.000    3.500    4.000 
#    0.000    0.000    0.000    0.000    0.000    0.000 
#    0.000    0.000    0.000    0.000    0.000    0.000 
#
# Total GULP energy -134240.783191 kJ/mol
# GULP energy per Si atom -5593.365966 kJ/mol
# Density = 2.111629 g / cm^3
# Si number density = 21.164460 Si / 1000 Ang^3
#
#
#
# Elastic Constant Matrix: (Units=GPa)
#
#
# Indices 1 2 3 4 5 6 
#
# 1 88.0368 8.8095 -4.2236 -0.0069 18.9674 0.0054
# 2 8.8095 66.8065 14.1116 -0.0078 17.8302 0.0062
# 3 -4.2236 14.1116 97.1738 0.0005 27.6681 -0.0032
# 4 -0.0069 -0.0078 0.0005 466.2903 0.0001 -447.3593
# 5 18.9674 17.8302 27.6681 0.0001 43.9306 0.0001
# 6 0.0054 0.0062 -0.0032 -447.3593 0.0001 400.0367
#
#
#
# Elastic Compliance Matrix: (Units=1/GPa)
#
#
# Indices 1 2 3 4 5 6 
#
# 1 0.013068 -0.000373 0.002663 -0.000001 -0.007168 -0.000001
# 2 -0.000373 0.016827 -0.000684 0.000000 -0.006238 -0.000001
# 3 0.002663 -0.000684 0.013104 -0.000001 -0.009126 -0.000001
# 4 -0.000001 0.000000 -0.000001 -0.029421 0.000001 -0.032901
# 5 -0.007168 -0.006238 -0.009126 0.000001 0.034138 0.000002
# 6 -0.000001 -0.000001 -0.000001 -0.032901 0.000002 -0.034293
#
#
# Mechanical properties :
#
#
# Convention : Reuss Voigt Hill
#
# Bulk Modulus (GPa) = 21.63870 32.15690 26.89780
# Shear Modulus (GPa) = 195.20798 197.60617 196.40707
#
# Velocity S-wave (km/s) = 9.61426 9.67314 9.64375
# Velocity P-wave (km/s) = 11.55386 11.83158 11.69355
#
# Compressibility (1/GPa) = 0.04621349
#
# Stress axis : x y z
#
# Youngs Moduli (GPa) = 76.52062 59.42802 76.31158
#
# Poissons Ratio (x) = 0.02214 -0.20323
# Poissons Ratio (y) = 0.02851 0.05217
# Poissons Ratio (z) = -0.20379 0.04063
#
# Static dielectric constant tensor:
#      x y z
#    x 1.804350 0.000000 -0.042200 
#    y 0.000000 1.711980 0.000000 
#    z -0.042200 0.000000 1.766920 
# 
# From -- ./inp_files/245853.got.cif
#   From: 2010.05.17/outbox.cif.g08.bks.cpg/sg12_123_cif.got.tgz:245853.got - 2010.06.03 13:09:07.
