data_PCOD9221131
_publ_section_title
;
Structure prediction by ZEFSAII (Michael W. Deem and Ramdas Pophale) SiO2 
 PCOD9221131
Probable space group: C 2/M
;
_chemical_formula_sum "Si O2"
_cell_formula_units_Z 44
_cell_length_a 12.012388
_cell_length_b 22.675810
_cell_length_c 14.521381
_cell_angle_alpha 90.000000
_cell_angle_beta 148.750313
_cell_angle_gamma 90.000000
_cell_volume 2051.982970
_symmetry_space_group_name_H-M "C 2/M"
_symmetry_group_IT_number 12
_symmetry_cell_setting 'monoclinic'
loop_
_space_group_symop_operation_xyz
x,y,z
-x,y,-z
-x,-y,-z
x,-y,z
1/2+x,1/2+y,z
1/2-x,1/2+y,-z
1/2-x,1/2-y,-z
1/2+x,1/2-y,z
loop_
_atom_site_type_symbol
_atom_site_label
_atom_site_fract_x
_atom_site_fract_y
_atom_site_fract_z
Si Si1 0.731706 0.109923 0.198712
Si Si2 0.822716 0.239010 0.301968
Si Si3 0.630520 0.000000 0.819974
Si Si4 0.598757 0.411216 0.873980
Si Si5 0.251314 0.500000 0.697489
Si Si6 0.388669 0.299383 0.005718
Si Si7 0.248039 0.500000 0.337262
O O1 0.849893 0.169116 0.312976
O O2 0.860319 0.081500 0.204933
O O3 0.685498 0.059927 0.240599
O O4 0.500000 0.130396 0.000000
O O5 0.578471 0.253017 0.162643
O O6 0.000000 0.262141 0.500000
O O7 0.808108 0.268850 0.188643
O O8 0.743551 0.000000 0.802181
O O9 0.372930 0.000000 0.650090
O O10 0.722216 0.055125 0.940807
O O11 0.377468 0.442834 0.747520
O O12 0.632474 0.343094 0.925177
O O13 0.000000 0.500000 0.500000
O O14 0.500000 0.336266 0.000000
O O15 0.500000 0.500000 0.500000
#
# Coordination Sequence:
#
# PCOD9221131 Si02
#       7
#     8   8   4   8   4   8   4
#     4  12  22  43  66  97 132 174 224 267 340 404
#     4   9  20  41  64  92 133 171 218 284 323 393
#     4  11  23  41  70  90 134 176 215 269 337 392
#     4  11  22  42  68  94 131 182 220 271 329 410
#     4  11  26  43  65 101 137 164 228 276 336 392
#     4   8  19  38  64  90 128 170 227 262 328 384
#     4  12  26  41  66 102 136 168 222 274 331 407
#
# _framework density 21.442674
#
# number of rings (size 3 to 8) (size 9 to 14) (size 15 to 20)
#    1.091    0.364    3.636    4.091    2.545    1.455 
#    0.000    0.909    0.000    0.000    0.000    0.000 
#    0.000    0.000    0.000    0.000    0.000    0.000 
#
# Total GULP energy -122480.746492 kJ/mol
# GULP energy per Si atom -5567.306659 kJ/mol
# Density = 2.139387 g / cm^3
# Si number density = 21.442674 Si / 1000 Ang^3
#
#
#
# Elastic Constant Matrix: (Units=GPa)
#
#
# Indices 1 2 3 4 5 6 
#
# 1 117.7074 23.8526 25.5469 0.0018 18.5657 0.0030
# 2 23.8526 83.8747 18.1145 -0.0006 -5.5157 -0.0011
# 3 25.5469 18.1145 130.7834 0.0034 8.9681 0.0058
# 4 0.0018 -0.0006 0.0034 -46.2328 0.0023 -73.5990
# 5 18.5657 -5.5157 8.9681 0.0023 20.7503 0.0039
# 6 0.0030 -0.0011 0.0058 -73.5990 0.0039 -62.3509
#
#
#
# Elastic Compliance Matrix: (Units=1/GPa)
#
#
# Indices 1 2 3 4 5 6 
#
# 1 0.011092 -0.003640 -0.000944 0.000000 -0.010484 0.000000
# 2 -0.003640 0.013837 -0.001732 0.000000 0.007684 0.000000
# 3 -0.000944 -0.001732 0.008290 0.000001 -0.003199 0.000000
# 4 0.000000 0.000000 0.000001 0.024604 0.000003 -0.029043
# 5 -0.010484 0.007684 -0.003199 0.000003 0.060997 0.000000
# 6 0.000000 0.000000 0.000000 -0.029043 0.000000 0.018244
#
#
# Mechanical properties :
#
#
# Convention : Reuss Voigt Hill
#
# Bulk Modulus (GPa) = 48.57482 51.93261 50.25371
# Shear Modulus (GPa) = 31.93711 0.09008 16.01360
#
# Velocity S-wave (km/s) = 3.86349 0.20519 2.73575
# Velocity P-wave (km/s) = 6.52722 4.93234 5.78500
#
# Compressibility (1/GPa) = 0.02058680
#
# Stress axis : x y z
#
# Youngs Moduli (GPa) = 90.15853 72.26946 120.62928
#
# Poissons Ratio (x) = 0.26305 0.11382
# Poissons Ratio (y) = 0.32817 0.20898
# Poissons Ratio (z) = 0.08507 0.12520
#
# Static dielectric constant tensor:
#      x y z
#    x 1.895960 0.000000 -0.025400 
#    y 0.000000 1.464600 0.000000 
#    z -0.025400 0.000000 1.832370 
# 
# From -- ./inp_files/209239.got.cif
#   From: 2010.05.17/outbox.cif.g08.bks.cpg/sg12_105_cif.got.tgz:209239.got - 2010.06.03 13:09:07.
