data_PCOD9221929
_publ_section_title
;
Structure prediction by ZEFSAII (Michael W. Deem and Ramdas Pophale) SiO2 
 PCOD9221929
Probable space group: C 2/M
;
_chemical_formula_sum "Si O2"
_cell_formula_units_Z 48
_cell_length_a 23.068703
_cell_length_b 11.227973
_cell_length_c 25.918757
_cell_angle_alpha 90.000000
_cell_angle_beta 157.869764
_cell_angle_gamma 90.000000
_cell_volume 2529.003877
_symmetry_space_group_name_H-M "C 2/M"
_symmetry_group_IT_number 12
_symmetry_cell_setting 'monoclinic'
loop_
_space_group_symop_operation_xyz
x,y,z
-x,y,-z
-x,-y,-z
x,-y,z
1/2+x,1/2+y,z
1/2-x,1/2+y,-z
1/2-x,1/2-y,-z
1/2+x,1/2-y,z
loop_
_atom_site_type_symbol
_atom_site_label
_atom_site_fract_x
_atom_site_fract_y
_atom_site_fract_z
Si Si1 0.679768 0.368878 0.163060
Si Si2 0.459432 0.858451 0.731007
Si Si3 0.883492 0.636524 0.038893
Si Si4 0.778657 0.635654 0.734625
Si Si5 0.626296 0.217385 0.766624
Si Si6 0.865399 0.859730 0.494930
O O1 0.697164 0.500000 0.203156
O O2 0.729381 0.250917 0.235558
O O3 0.781091 0.368527 0.194875
O O4 0.500000 0.355453 0.000000
O O5 0.574458 0.811254 0.870170
O O6 0.522880 0.837220 0.726736
O O7 0.287619 0.813692 0.601422
O O8 0.451469 0.000000 0.734194
O O9 0.831518 0.500000 0.001766
O O10 0.046366 0.635476 0.142974
O O11 0.756217 0.705887 0.902478
O O12 0.750735 0.500000 0.732911
O O13 0.669295 0.652152 0.594620
O O14 0.513516 0.294044 0.637911
O O15 0.881797 0.000000 0.518919
#
# Coordination Sequence:
#
# PCOD9221929 Si02
#       6
#     8   8   8   8   8   8
#     4  11  24  40  57  85 122 155 189 239 288 338
#     4   9  19  36  54  78 114 153 185 233 292 345
#     4   9  18  33  56  83 110 140 191 247 289 330
#     4   9  19  40  62  83 112 155 194 235 290 340
#     4  12  20  33  57  86 110 152 194 230 282 348
#     4   9  20  37  59  85 116 143 185 247 295 334
#
# _framework density 18.979804000000001
#
# number of rings (size 3 to 8) (size 9 to 14) (size 15 to 20)
#    0.000    2.167    1.667    4.000    0.000    2.333 
#    0.000    4.167    0.000    4.000    0.000    0.000 
#    0.000    0.000    0.000    0.000    0.000    0.000 
#
# Total GULP energy -133816.071450 kJ/mol
# GULP energy per Si atom -5575.669644 kJ/mol
# Density = 1.893661 g / cm^3
# Si number density = 18.979804 Si / 1000 Ang^3
#
#
#
# Elastic Constant Matrix: (Units=GPa)
#
#
# Indices 1 2 3 4 5 6 
#
# 1 85.8520 46.4499 26.4759 0.0011 5.9954 0.0004
# 2 46.4499 92.8832 45.8531 0.0019 -8.9854 0.0009
# 3 26.4759 45.8531 124.2142 0.0021 -7.9516 0.0010
# 4 0.0011 0.0019 0.0021 30.2309 0.0008 5.7484
# 5 5.9954 -8.9854 -7.9516 0.0008 12.4895 0.0008
# 6 0.0004 0.0009 0.0010 5.7484 0.0008 33.7071
#
#
#
# Elastic Compliance Matrix: (Units=1/GPa)
#
#
# Indices 1 2 3 4 5 6 
#
# 1 0.018973 -0.010556 -0.001268 0.000000 -0.017510 0.000000
# 2 -0.010556 0.019590 -0.003915 -0.000001 0.016669 -0.000001
# 3 -0.001268 -0.003915 0.010034 0.000000 0.004181 0.000000
# 4 0.000000 -0.000001 0.000000 0.034187 -0.000003 -0.005830
# 5 -0.017510 0.016669 0.004181 -0.000003 0.103126 -0.000002
# 6 0.000000 -0.000001 0.000000 -0.005830 -0.000002 0.030662
#
#
# Mechanical properties :
#
#
# Convention : Reuss Voigt Hill
#
# Bulk Modulus (GPa) = 58.41390 60.05637 59.23514
# Shear Modulus (GPa) = 19.70396 27.56355 23.63375
#
# Velocity S-wave (km/s) = 3.22554 3.81498 3.53258
# Velocity P-wave (km/s) = 6.68699 7.14957 6.92215
#
# Compressibility (1/GPa) = 0.01711921
#
# Stress axis : x y z
#
# Youngs Moduli (GPa) = 52.70605 51.04593 99.66521
#
# Poissons Ratio (x) = 0.53884 0.12640
# Poissons Ratio (y) = 0.55637 0.39015
# Poissons Ratio (z) = 0.06684 0.19982
#
# Static dielectric constant tensor:
#      x y z
#    x 1.691020 0.000000 0.012640 
#    y 0.000000 1.651060 0.000000 
#    z 0.012640 0.000000 1.649270 
# 
# From -- ./inp_files/94410.got.cif
#   From: 2010.05.17/outbox.cif.g08.bks.cpg/sg12_48_cif.got.tgz:94410.got - 2010.06.03 13:09:07.
