data_PCOD9221301
_publ_section_title
;
Structure prediction by ZEFSAII (Michael W. Deem and Ramdas Pophale) SiO2 
 PCOD9221301
Probable space group: C 2/M
;
_chemical_formula_sum "Si O2"
_cell_formula_units_Z 48
_cell_length_a 8.173425
_cell_length_b 28.947001
_cell_length_c 18.114756
_cell_angle_alpha 90.000000
_cell_angle_beta 30.585821
_cell_angle_gamma 90.000000
_cell_volume 2180.778130
_symmetry_space_group_name_H-M "C 2/M"
_symmetry_group_IT_number 12
_symmetry_cell_setting 'monoclinic'
loop_
_space_group_symop_operation_xyz
x,y,z
-x,y,-z
-x,-y,-z
x,-y,z
1/2+x,1/2+y,z
1/2-x,1/2+y,-z
1/2-x,1/2-y,-z
1/2+x,1/2-y,z
loop_
_atom_site_type_symbol
_atom_site_label
_atom_site_fract_x
_atom_site_fract_y
_atom_site_fract_z
Si Si1 0.987728 0.946190 0.211623
Si Si2 0.391144 0.947517 0.920751
Si Si3 0.759711 0.893924 0.655572
Si Si4 0.158702 0.861354 0.640110
Si Si5 0.728150 0.813877 0.166687
Si Si6 0.379279 0.716916 0.842833
O O1 0.300040 0.947291 0.144212
O O2 0.782166 0.906593 0.330940
O O3 0.871320 0.000000 0.253143
O O4 0.107053 0.929293 0.084455
O O5 0.511130 0.925489 0.798568
O O6 0.303407 0.000000 0.939938
O O7 0.530823 0.853217 0.715169
O O8 0.000000 0.914047 0.500000
O O9 0.999854 0.875665 0.625489
O O10 0.500000 0.837414 0.500000
O O11 0.927978 0.824628 0.767341
O O12 0.532274 0.768833 0.214859
O O13 0.929693 0.797884 0.158996
O O14 0.000000 0.827916 0.000000
O O15 0.000000 0.720549 0.000000
#
# Coordination Sequence:
#
# PCOD9221301 Si02
#       6
#     8   8   8   8   8   8
#     4   8  16  32  58  89 121 159 210 258 303 361
#     4   8  16  33  59  89 119 162 209 255 306 363
#     4  11  23  39  59  91 129 167 205 254 311 364
#     4  11  23  37  60  92 127 165 209 256 308 361
#     4  11  23  41  64  93 123 161 202 253 305 369
#     4  11  23  41  66  93 123 157 206 249 306 366
#
# _framework density 22.010493
#
# number of rings (size 3 to 8) (size 9 to 14) (size 15 to 20)
#    0.000    2.000    0.000    6.000    7.000    1.333 
#    0.000    3.333    0.000    3.500    0.000    0.000 
#    0.000    0.000    0.000    0.000    0.000    0.000 
#
# Total GULP energy -133944.552583 kJ/mol
# GULP energy per Si atom -5581.023024 kJ/mol
# Density = 2.196040 g / cm^3
# Si number density = 22.010493 Si / 1000 Ang^3
#
#
#
# Elastic Constant Matrix: (Units=GPa)
#
#
# Indices 1 2 3 4 5 6 
#
# 1 85.5236 4.5500 25.1116 -0.0001 8.6547 0.0000
# 2 4.5500 46.5603 29.6585 -0.0001 8.9783 0.0000
# 3 25.1116 29.6585 60.4113 -0.0007 27.2340 0.0000
# 4 -0.0001 -0.0001 -0.0007 17.9522 0.0002 -8.6901
# 5 8.6547 8.9783 27.2340 0.0002 34.1040 0.0000
# 6 0.0000 0.0000 0.0000 -8.6901 0.0000 8.0553
#
#
#
# Elastic Compliance Matrix: (Units=1/GPa)
#
#
# Indices 1 2 3 4 5 6 
#
# 1 0.013786 0.003684 -0.008632 0.000000 0.002425 0.000000
# 2 0.003684 0.033122 -0.021000 -0.000001 0.007115 -0.000001
# 3 -0.008632 -0.021000 0.042143 0.000003 -0.025934 0.000003
# 4 0.000000 -0.000001 0.000003 0.116587 -0.000003 0.125776
# 5 0.002425 0.007115 -0.025934 -0.000003 0.047544 -0.000003
# 6 0.000000 -0.000001 0.000003 0.125776 -0.000003 0.259831
#
#
# Mechanical properties :
#
#
# Convention : Reuss Voigt Hill
#
# Bulk Modulus (GPa) = 26.91492 34.57058 30.74275
# Shear Modulus (GPa) = 8.66110 20.90062 14.78086
#
# Velocity S-wave (km/s) = 1.98583 3.08486 2.59421
# Velocity P-wave (km/s) = 4.18483 5.33188 4.79280
#
# Compressibility (1/GPa) = 0.03715411
#
# Stress axis : x y z
#
# Youngs Moduli (GPa) = 72.53777 30.19110 23.72894
#
# Poissons Ratio (x) = -0.11122 0.20484
# Poissons Ratio (y) = -0.26722 0.49831
# Poissons Ratio (z) = 0.62617 0.63401
#
# Static dielectric constant tensor:
#      x y z
#    x 1.807970 0.000000 0.039430 
#    y 0.000000 1.810360 0.000000 
#    z 0.039430 0.000000 1.837660 
# 
# From -- ./inp_files/260226.got.cif
#   From: 2010.05.17/outbox.cif.g08.bks.cpg/sg12_131_cif.got.tgz:260226.got - 2010.06.03 13:09:07.
