data_PCOD9221248
_publ_section_title
;
Structure prediction by ZEFSAII (Michael W. Deem and Ramdas Pophale) SiO2 
 PCOD9221248
Probable space group: C 2/M
;
_chemical_formula_sum "Si O2"
_cell_formula_units_Z 40
_cell_length_a 8.349202
_cell_length_b 17.501854
_cell_length_c 18.020578
_cell_angle_alpha 90.000000
_cell_angle_beta 41.136774
_cell_angle_gamma 90.000000
_cell_volume 1732.329133
_symmetry_space_group_name_H-M "C 2/M"
_symmetry_group_IT_number 12
_symmetry_cell_setting 'monoclinic'
loop_
_space_group_symop_operation_xyz
x,y,z
-x,y,-z
-x,-y,-z
x,-y,z
1/2+x,1/2+y,z
1/2-x,1/2+y,-z
1/2-x,1/2-y,-z
1/2+x,1/2-y,z
loop_
_atom_site_type_symbol
_atom_site_label
_atom_site_fract_x
_atom_site_fract_y
_atom_site_fract_z
Si Si1 0.247826 0.151790 0.131941
Si Si2 0.783385 0.370600 0.531127
Si Si3 0.236065 0.917918 0.292465
Si Si4 0.208174 0.289337 0.616293
Si Si5 0.002266 0.199149 0.081212
O O1 0.242247 0.094770 0.202352
O O2 0.031973 0.150918 0.145972
O O3 0.288210 0.237909 0.151731
O O4 0.500000 0.136159 0.000000
O O5 0.551369 0.418187 0.588318
O O6 0.899256 0.329712 0.418950
O O7 0.672509 0.301265 0.620601
O O8 0.000000 0.409021 0.500000
O O9 0.345674 0.843643 0.295405
O O10 0.344680 0.000000 0.275729
O O11 0.500000 0.294824 0.500000
O O12 0.250000 0.250000 0.000000
O O13 0.000000 0.160766 0.000000
#
# Coordination Sequence:
#
# PCOD9221248 Si02
#       5
#     8   8   8   8   8
#     4   9  18  33  52  78 108 138 178 224 264 313
#     4   9  18  36  57  79 104 138 181 227 267 312
#     4  11  23  34  52  83 113 147 178 214 275 327
#     4   8  17  35  56  78 104 138 182 222 266 320
#     4   7  13  29  51  75  96 128 180 225 261 296
#
# _framework density 23.090301
#
# number of rings (size 3 to 8) (size 9 to 14) (size 15 to 20)
#    0.000    3.600    0.000    1.200    2.800    4.400 
#    0.000    0.000    0.000    0.600    0.000    0.000 
#    0.000    0.800    0.000    0.000    0.000    0.000 
#
# Total GULP energy -111407.723067 kJ/mol
# GULP energy per Si atom -5570.386153 kJ/mol
# Density = 2.303775 g / cm^3
# Si number density = 23.090301 Si / 1000 Ang^3
#
#
#
# Elastic Constant Matrix: (Units=GPa)
#
#
# Indices 1 2 3 4 5 6 
#
# 1 97.5164 12.0461 16.0111 -0.0020 29.0823 0.0023
# 2 12.0461 101.0937 20.2122 -0.0014 14.9014 0.0015
# 3 16.0111 20.2122 57.8870 -0.0009 23.2799 0.0006
# 4 -0.0020 -0.0014 -0.0009 -0.7216 0.0013 -5.1364
# 5 29.0823 14.9014 23.2799 0.0013 42.3526 -0.0015
# 6 0.0023 0.0015 0.0006 -5.1364 -0.0015 4.5580
#
#
#
# Elastic Compliance Matrix: (Units=1/GPa)
#
#
# Indices 1 2 3 4 5 6 
#
# 1 0.012901 -0.000252 0.000060 0.000002 -0.008803 -0.000007
# 2 -0.000252 0.010799 -0.002879 0.000001 -0.002044 -0.000003
# 3 0.000060 -0.002879 0.022945 0.000000 -0.011640 -0.000006
# 4 0.000002 0.000001 0.000000 -0.153617 -0.000003 -0.173110
# 5 -0.008803 -0.002044 -0.011640 -0.000003 0.036774 0.000015
# 6 -0.000007 -0.000003 -0.000006 -0.173110 0.000015 0.024319
#
#
# Mechanical properties :
#
#
# Convention : Reuss Voigt Hill
#
# Bulk Modulus (GPa) = 24.68907 39.22621 31.95764
# Shear Modulus (GPa) = -190.57634 23.11965 -83.72834
#
# Velocity S-wave (km/s) = -9.09475 3.16772 -6.02827
# Velocity P-wave (km/s) = 9.97849 5.51401 5.88073
#
# Compressibility (1/GPa) = 0.04050376
#
# Stress axis : x y z
#
# Youngs Moduli (GPa) = 77.51113 92.60374 43.58249
#
# Poissons Ratio (x) = 0.02330 -0.00261
# Poissons Ratio (y) = 0.01950 0.12547
# Poissons Ratio (z) = -0.00464 0.26659
#
# Static dielectric constant tensor:
#      x y z
#    x 1.928520 0.000000 0.008060 
#    y 0.000000 1.914830 0.000000 
#    z 0.008060 0.000000 1.990690 
# 
# From -- ./inp_files/256092.got.cif
#   From: 2010.05.17/outbox.cif.g08.bks.cpg/sg12_129_cif.got.tgz:256092.got - 2010.06.03 13:09:07.
