data_PCOD9221943
_publ_section_title
;
Structure prediction by ZEFSAII (Michael W. Deem and Ramdas Pophale) SiO2 
 PCOD9221943
Probable space group: C 2/M
;
_chemical_formula_sum "Si O2"
_cell_formula_units_Z 48
_cell_length_a 16.444408
_cell_length_b 7.838999
_cell_length_c 30.457385
_cell_angle_alpha 90.000000
_cell_angle_beta 148.531781
_cell_angle_gamma 90.000000
_cell_volume 2049.572174
_symmetry_space_group_name_H-M "C 2/M"
_symmetry_group_IT_number 12
_symmetry_cell_setting 'monoclinic'
loop_
_space_group_symop_operation_xyz
x,y,z
-x,y,-z
-x,-y,-z
x,-y,z
1/2+x,1/2+y,z
1/2-x,1/2+y,-z
1/2-x,1/2-y,-z
1/2+x,1/2-y,z
loop_
_atom_site_type_symbol
_atom_site_label
_atom_site_fract_x
_atom_site_fract_y
_atom_site_fract_z
Si Si1 0.982272 0.694349 0.359083
Si Si2 0.176315 0.197375 0.896442
Si Si3 0.751260 0.000000 0.369077
Si Si4 0.004740 0.804648 0.051401
Si Si5 0.566670 0.500000 0.458126
Si Si6 0.017740 0.798060 0.273843
Si Si7 0.638413 0.803355 0.200805
O O1 0.034664 0.500000 0.389478
O O2 0.797922 0.707703 0.284817
O O3 0.995547 0.750988 0.314418
O O4 0.069708 0.831673 0.429510
O O5 0.133515 0.236140 0.825986
O O6 0.015309 0.228836 0.847528
O O7 0.219269 0.000000 0.920318
O O8 0.322464 0.302282 0.980906
O O9 0.902196 0.000000 0.408228
O O10 0.649542 0.170518 0.316416
O O11 0.807182 0.000000 0.445460
O O12 0.104727 0.708160 0.133326
O O13 0.060308 0.000000 0.075184
O O14 0.000000 0.732136 0.000000
O O15 0.053825 0.000000 0.286072
O O16 0.656398 0.000000 0.221637
#
# Coordination Sequence:
#
# PCOD9221943 Si02
#       7
#     8   8   4   8   4   8   8
#     4  12  24  44  71 102 137 181 226 282 341 410
#     4  11  24  40  63  93 130 173 225 278 336 401
#     4  11  26  46  74 102 140 181 221 287 340 410
#     4  11  24  40  60  89 125 173 224 280 337 395
#     4  11  26  48  70 106 140 175 231 277 346 410
#     4  11  24  44  70 104 136 180 229 280 340 410
#     4  12  24  40  64  92 132 174 223 280 336 402
#
# _framework density 23.419521
#
# number of rings (size 3 to 8) (size 9 to 14) (size 15 to 20)
#    0.000    0.667    2.500    5.000    2.333    7.333 
#    0.000    1.667    0.000    0.000    0.000    0.000 
#    0.000    0.000    0.000    0.000    0.000    0.000 
#
# Total GULP energy -134502.345995 kJ/mol
# GULP energy per Si atom -5604.264416 kJ/mol
# Density = 2.336622 g / cm^3
# Si number density = 23.419521 Si / 1000 Ang^3
#
#
#
# Elastic Constant Matrix: (Units=GPa)
#
#
# Indices 1 2 3 4 5 6 
#
# 1 74.3111 6.8143 -3.3140 0.0000 -4.0227 0.0001
# 2 6.8143 156.0100 37.8727 0.0000 -5.9734 0.0002
# 3 -3.3140 37.8727 91.9731 0.0000 -15.8225 0.0000
# 4 0.0000 0.0000 0.0000 26.1723 0.0000 0.6745
# 5 -4.0227 -5.9734 -15.8225 0.0000 44.9954 0.0000
# 6 0.0001 0.0002 0.0000 0.6745 0.0000 28.4264
#
#
#
# Elastic Compliance Matrix: (Units=1/GPa)
#
#
# Indices 1 2 3 4 5 6 
#
# 1 0.013659 -0.000801 0.001079 0.000000 0.001494 0.000000
# 2 -0.000801 0.007169 -0.003012 0.000000 -0.000179 0.000000
# 3 0.001079 -0.003012 0.012879 0.000000 0.004225 0.000000
# 4 0.000000 0.000000 0.000000 0.038232 0.000000 -0.000907
# 5 0.001494 -0.000179 0.004225 0.000000 0.023820 0.000000
# 6 0.000000 0.000000 0.000000 -0.000907 0.000000 0.035200
#
#
# Mechanical properties :
#
#
# Convention : Reuss Voigt Hill
#
# Bulk Modulus (GPa) = 35.41144 45.00446 40.20795
# Shear Modulus (GPa) = 34.28408 38.64690 36.46549
#
# Velocity S-wave (km/s) = 3.83026 4.06667 3.95023
# Velocity P-wave (km/s) = 5.89190 6.42719 6.16536
#
# Compressibility (1/GPa) = 0.02823946
#
# Stress axis : x y z
#
# Youngs Moduli (GPa) = 73.20937 139.48702 77.64745
#
# Poissons Ratio (x) = 0.11179 -0.08380
# Poissons Ratio (y) = 0.05867 0.23386
# Poissons Ratio (z) = -0.07901 0.42010
#
# Static dielectric constant tensor:
#      x y z
#    x 1.956190 0.000000 -0.007580 
#    y 0.000000 1.799230 0.000000 
#    z -0.007580 0.000000 1.842360 
# 
# From -- ./inp_files/378578.got.cif
#   From: 2010.05.17/outbox.cif.g08.bks.cpg/sg12_190_cif.got.tgz:378578.got - 2010.06.03 13:09:07.
