data_PCOD9221001
_publ_section_title
;
Structure prediction by ZEFSAII (Michael W. Deem and Ramdas Pophale) SiO2 
 PCOD9221001
Probable space group: C 2/M
;
_chemical_formula_sum "Si O2"
_cell_formula_units_Z 48
_cell_length_a 11.582786
_cell_length_b 16.557820
_cell_length_c 11.286251
_cell_angle_alpha 90.000000
_cell_angle_beta 77.887224
_cell_angle_gamma 90.000000
_cell_volume 2116.351057
_symmetry_space_group_name_H-M "C 2/M"
_symmetry_group_IT_number 12
_symmetry_cell_setting 'monoclinic'
loop_
_space_group_symop_operation_xyz
x,y,z
-x,y,-z
-x,-y,-z
x,-y,z
1/2+x,1/2+y,z
1/2-x,1/2+y,-z
1/2-x,1/2-y,-z
1/2+x,1/2-y,z
loop_
_atom_site_type_symbol
_atom_site_label
_atom_site_fract_x
_atom_site_fract_y
_atom_site_fract_z
Si Si1 0.562464 0.408808 0.818824
Si Si2 0.896303 0.823747 0.426959
Si Si3 0.196063 0.855286 0.116559
Si Si4 0.289944 0.832687 0.866237
Si Si5 0.958244 0.590780 0.636381
Si Si6 0.693752 0.848514 0.650463
O O1 0.604109 0.500000 0.831771
O O2 0.564025 0.387320 0.679494
O O3 0.426435 0.399467 0.883609
O O4 0.653381 0.346172 0.858629
O O5 0.784857 0.858269 0.523037
O O6 0.857497 0.742070 0.365164
O O7 0.000000 0.808028 0.500000
O O8 0.173152 0.758834 0.116809
O O9 0.240157 0.863193 0.240856
O O10 0.292083 0.875605 0.994383
O O11 0.365097 0.863620 0.738499
O O12 0.914541 0.500000 0.625244
O O13 0.000000 0.625179 0.500000
O O14 0.082126 0.593443 0.676559
#
# Coordination Sequence:
#
# PCOD9221001 Si02
#       6
#     8   8   8   8   8   8
#     4  12  25  44  70 102 139 178 228 287 346 405
#     4  11  22  40  68 101 136 181 226 284 342 403
#     4  11  25  44  69  99 133 177 228 282 333 401
#     4  11  25  46  70  96 134 181 230 272 334 411
#     4  11  25  44  68  97 136 179 223 277 338 410
#     4  11  23  40  68 101 132 175 231 281 334 407
#
# _framework density 22.680548000000002
#
# number of rings (size 3 to 8) (size 9 to 14) (size 15 to 20)
#    0.000    0.833    3.333    3.500    2.333    5.667 
#    0.000    0.833    0.000    0.000    0.000    0.000 
#    0.000    0.000    0.000    0.000    0.000    0.000 
#
# Total GULP energy -134070.812497 kJ/mol
# GULP energy per Si atom -5586.283854 kJ/mol
# Density = 2.262893 g / cm^3
# Si number density = 22.680548 Si / 1000 Ang^3
#
#
#
# Elastic Constant Matrix: (Units=GPa)
#
#
# Indices 1 2 3 4 5 6 
#
# 1 73.3784 -2.9841 11.1948 0.0000 -5.4168 0.0000
# 2 -2.9841 49.4714 12.4699 0.0000 -6.1265 0.0000
# 3 11.1948 12.4699 155.5097 0.0000 -19.3615 0.0000
# 4 0.0000 0.0000 0.0000 9.1316 0.0000 3.9523
# 5 -5.4168 -6.1265 -19.3615 0.0000 33.1309 0.0000
# 6 0.0000 0.0000 0.0000 3.9523 0.0000 73.4751
#
#
#
# Elastic Compliance Matrix: (Units=1/GPa)
#
#
# Indices 1 2 3 4 5 6 
#
# 1 0.013961 0.001309 -0.000858 0.000000 0.002023 0.000000
# 2 0.001309 0.021047 -0.001370 0.000000 0.003305 0.000000
# 3 -0.000858 -0.001370 0.007067 0.000000 0.003736 0.000000
# 4 0.000000 0.000000 0.000000 0.112121 0.000000 -0.006031
# 5 0.002023 0.003305 0.003736 0.000000 0.033309 0.000000
# 6 0.000000 0.000000 0.000000 -0.006031 0.000000 0.013934
#
#
# Mechanical properties :
#
#
# Convention : Reuss Voigt Hill
#
# Bulk Modulus (GPa) = 24.85274 35.52455 30.18864
# Shear Modulus (GPa) = 23.07425 40.32610 31.70018
#
# Velocity S-wave (km/s) = 3.19307 4.22121 3.74261
# Velocity P-wave (km/s) = 4.95739 6.28134 5.65822
#
# Compressibility (1/GPa) = 0.04023701
#
# Stress axis : x y z
#
# Youngs Moduli (GPa) = 71.62562 47.51181 141.49622
#
# Poissons Ratio (x) = -0.06219 0.12142
# Poissons Ratio (y) = -0.09376 0.19392
# Poissons Ratio (z) = 0.06146 0.06511
#
# Static dielectric constant tensor:
#      x y z
#    x 1.843390 0.000000 0.034860 
#    y 0.000000 1.850600 0.000000 
#    z 0.034860 0.000000 1.913970 
# 
# From -- ./inp_files/131679.got.cif
#   From: 2010.05.17/outbox.cif.g08.bks.cpg/sg12_66_cif.got.tgz:131679.got - 2010.06.03 13:09:07.
