data_PCOD9221783
_publ_section_title
;
Structure prediction by ZEFSAII (Michael W. Deem and Ramdas Pophale) SiO2 
 PCOD9221783
Probable space group: C 2/M
;
_chemical_formula_sum "Si O2"
_cell_formula_units_Z 50
_cell_length_a 19.551938
_cell_length_b 9.115163
_cell_length_c 14.955063
_cell_angle_alpha 90.000000
_cell_angle_beta 58.733123
_cell_angle_gamma 90.000000
_cell_volume 2278.170333
_symmetry_space_group_name_H-M "C 2/M"
_symmetry_group_IT_number 12
_symmetry_cell_setting 'monoclinic'
loop_
_space_group_symop_operation_xyz
x,y,z
-x,y,-z
-x,-y,-z
x,-y,z
1/2+x,1/2+y,z
1/2-x,1/2+y,-z
1/2-x,1/2-y,-z
1/2+x,1/2-y,z
loop_
_atom_site_type_symbol
_atom_site_label
_atom_site_fract_x
_atom_site_fract_y
_atom_site_fract_z
Si Si1 0.406808 0.328498 0.087700
Si Si2 0.500000 0.000000 0.500000
Si Si3 0.666812 0.174053 0.033647
Si Si4 0.434942 0.337229 0.756101
Si Si5 0.367203 0.742232 0.613092
Si Si6 0.377526 0.337590 0.403255
Si Si7 0.307238 0.175089 0.297793
O O1 0.384883 0.500000 0.111036
O O2 0.382435 0.239783 0.192567
O O3 0.500000 0.321625 0.000000
O O4 0.362246 0.247519 0.037701
O O5 0.429517 0.874467 0.560292
O O6 0.605445 0.217061 0.154023
O O7 0.674463 0.000000 0.019607
O O8 0.750000 0.250000 0.000000
O O9 0.422734 0.500000 0.804736
O O10 0.396055 0.335055 0.684135
O O11 0.529250 0.312082 0.681794
O O12 0.371751 0.663094 0.513999
O O13 0.271207 0.759916 0.685502
O O14 0.354654 0.500000 0.385454
O O15 0.324884 0.216626 0.388684
O O16 0.298027 0.000000 0.292335
#
# Coordination Sequence:
#
# PCOD9221783 Si02
#       7
#     8   2   8   8   8   8   8
#     4  11  25  48  73 102 141 185 232 289 351 415
#     4  12  28  44  74 104 138 182 236 292 352 412
#     4  12  26  43  68  99 135 177 230 288 347 413
#     4  11  23  43  70  97 135 180 229 282 349 414
#     4  12  26  45  69 101 140 181 233 286 345 409
#     4  11  24  44  68 100 139 185 227 280 340 411
#     4  12  27  44  72 105 142 185 233 289 349 413
#
# _framework density 21.947434999999999
#
# number of rings (size 3 to 8) (size 9 to 14) (size 15 to 20)
#    0.000    0.480    1.600    6.240    4.480    7.040 
#    0.000    0.000    0.000    0.000    0.000    0.000 
#    0.000    0.000    0.000    0.000    0.000    0.000 
#
# Total GULP energy -139571.772334 kJ/mol
# GULP energy per Si atom -5582.870893 kJ/mol
# Density = 2.189748 g / cm^3
# Si number density = 21.947435 Si / 1000 Ang^3
#
#
#
# Elastic Constant Matrix: (Units=GPa)
#
#
# Indices 1 2 3 4 5 6 
#
# 1 65.6796 6.4027 -0.3780 0.0000 15.7797 0.0000
# 2 6.4027 78.9116 20.0030 0.0000 1.0241 0.0000
# 3 -0.3780 20.0030 87.1409 0.0000 4.6016 0.0000
# 4 0.0000 0.0000 0.0000 65.8552 0.0000 15.6846
# 5 15.7797 1.0241 4.6016 0.0000 38.9214 0.0000
# 6 0.0000 0.0000 0.0000 15.6846 0.0000 22.2017
#
#
#
# Elastic Compliance Matrix: (Units=1/GPa)
#
#
# Indices 1 2 3 4 5 6 
#
# 1 0.017049 -0.001492 0.000784 0.000000 -0.006966 0.000000
# 2 -0.001492 0.013586 -0.003158 0.000000 0.000621 0.000000
# 3 0.000784 -0.003158 0.012293 0.000000 -0.001688 0.000000
# 4 0.000000 0.000000 0.000000 0.018257 0.000000 -0.012898
# 5 -0.006966 0.000621 -0.001688 0.000000 0.028700 0.000000
# 6 0.000000 0.000000 0.000000 -0.012898 0.000000 0.054153
#
#
# Mechanical properties :
#
#
# Convention : Reuss Voigt Hill
#
# Bulk Modulus (GPa) = 28.41142 31.53194 29.97168
# Shear Modulus (GPa) = 30.58087 39.10927 34.84507
#
# Velocity S-wave (km/s) = 3.73683 4.22590 3.98887
# Velocity P-wave (km/s) = 5.62067 6.18136 5.90767
#
# Compressibility (1/GPa) = 0.03519712
#
# Stress axis : x y z
#
# Youngs Moduli (GPa) = 58.65499 73.60591 81.34645
#
# Poissons Ratio (x) = 0.10980 -0.06379
# Poissons Ratio (y) = 0.08750 0.25688
# Poissons Ratio (z) = -0.04600 0.23244
#
# Static dielectric constant tensor:
#      x y z
#    x 1.859160 0.000000 0.028950 
#    y 0.000000 1.747360 0.000000 
#    z 0.028950 0.000000 1.875900 
# 
# From -- ./inp_files/274931.got.cif
#   From: 2010.05.17/outbox.cif.g08.bks.cpg/sg12_138_cif.got.tgz:274931.got - 2010.06.03 13:09:07.
