data_PCOD9221958
_publ_section_title
;
Structure prediction by ZEFSAII (Michael W. Deem and Ramdas Pophale) SiO2 
 PCOD9221958
Probable space group: C 2/M
;
_chemical_formula_sum "Si O2"
_cell_formula_units_Z 56
_cell_length_a 16.941175
_cell_length_b 13.795742
_cell_length_c 14.290996
_cell_angle_alpha 90.000000
_cell_angle_beta 50.127594
_cell_angle_gamma 90.000000
_cell_volume 2563.390412
_symmetry_space_group_name_H-M "C 2/M"
_symmetry_group_IT_number 12
_symmetry_cell_setting 'monoclinic'
loop_
_space_group_symop_operation_xyz
x,y,z
-x,y,-z
-x,-y,-z
x,-y,z
1/2+x,1/2+y,z
1/2-x,1/2+y,-z
1/2-x,1/2-y,-z
1/2+x,1/2-y,z
loop_
_atom_site_type_symbol
_atom_site_label
_atom_site_fract_x
_atom_site_fract_y
_atom_site_fract_z
Si Si1 0.177271 0.276463 0.468978
Si Si2 0.756264 0.112495 0.694915
Si Si3 0.529507 0.803640 0.872815
Si Si4 0.618904 0.392437 0.216855
Si Si5 0.269595 0.885653 0.754850
Si Si6 0.531513 0.814344 0.284889
Si Si7 0.406367 0.612668 0.971371
O O1 0.250000 0.250000 0.500000
O O2 0.161519 0.174144 0.427021
O O3 0.227692 0.341454 0.350018
O O4 0.077459 0.331673 0.583124
O O5 0.646380 0.163990 0.767530
O O6 0.791095 0.117849 0.776374
O O7 0.751107 0.000000 0.671432
O O8 0.470632 0.840976 0.823744
O O9 0.499471 0.688962 0.894736
O O10 0.500000 0.838974 0.000000
O O11 0.572787 0.500000 0.265537
O O12 0.544125 0.302031 0.284502
O O13 0.652336 0.386037 0.083537
O O14 0.373993 0.859171 0.730579
O O15 0.260706 0.000000 0.755795
O O16 0.173605 0.851834 0.890268
O O17 0.437104 0.500000 0.962339
#
# Coordination Sequence:
#
# PCOD9221958 Si02
#       7
#     8   8   8   8   8   8   8
#     4  12  25  46  66  96 135 174 222 273 332 396
#     4  11  24  43  67  97 135 175 220 275 333 397
#     4  11  24  40  66 100 137 176 218 271 340 397
#     4   9  20  40  68  97 129 169 220 275 331 393
#     4  11  25  45  71 100 132 176 225 277 336 395
#     4  11  24  41  70  97 131 174 225 277 327 397
#     4   9  21  42  69 100 132 171 221 276 335 399
#
# _framework density 21.846067000000001
#
# number of rings (size 3 to 8) (size 9 to 14) (size 15 to 20)
#    0.000    1.429    2.857    1.286    2.000    4.571 
#    0.000    2.143    0.000    0.000    0.000    0.000 
#    0.000    0.000    0.000    0.000    0.000    0.000 
#
# Total GULP energy -156330.360295 kJ/mol
# GULP energy per Si atom -5583.227153 kJ/mol
# Density = 2.179634 g / cm^3
# Si number density = 21.846067 Si / 1000 Ang^3
#
#
#
# Elastic Constant Matrix: (Units=GPa)
#
#
# Indices 1 2 3 4 5 6 
#
# 1 114.4363 0.4658 34.3047 0.0000 33.9730 0.0000
# 2 0.4658 55.2479 25.8665 0.0000 10.7684 0.0000
# 3 34.3047 25.8665 86.3537 0.0000 18.6614 0.0000
# 4 0.0000 0.0000 0.0000 19.2854 0.0000 1.3961
# 5 33.9730 10.7684 18.6614 0.0000 34.5197 0.0000
# 6 0.0000 0.0000 0.0000 1.3961 0.0000 22.4045
#
#
#
# Elastic Compliance Matrix: (Units=1/GPa)
#
#
# Indices 1 2 3 4 5 6 
#
# 1 0.013648 0.004193 -0.003954 0.000000 -0.012602 0.000000
# 2 0.004193 0.022738 -0.006852 0.000000 -0.007515 0.000000
# 3 -0.003954 -0.006852 0.015740 0.000000 -0.002480 0.000000
# 4 0.000000 0.000000 0.000000 0.052088 0.000000 -0.003246
# 5 -0.012602 -0.007515 -0.002480 0.000000 0.045056 0.000000
# 6 0.000000 0.000000 0.000000 -0.003246 0.000000 0.044836
#
#
# Mechanical properties :
#
#
# Convention : Reuss Voigt Hill
#
# Bulk Modulus (GPa) = 25.70891 41.92356 33.81623
# Shear Modulus (GPa) = 22.69636 28.26862 25.48249
#
# Velocity S-wave (km/s) = 3.22673 3.60111 3.41905
# Velocity P-wave (km/s) = 5.06716 6.04341 5.57669
#
# Compressibility (1/GPa) = 0.03889703
#
# Stress axis : x y z
#
# Youngs Moduli (GPa) = 73.27092 43.97949 63.53401
#
# Poissons Ratio (x) = -0.18439 0.25123
# Poissons Ratio (y) = -0.30719 0.43537
# Poissons Ratio (z) = 0.28973 0.30137
#
# Static dielectric constant tensor:
#      x y z
#    x 1.809140 0.000000 0.019560 
#    y 0.000000 1.808830 0.000000 
#    z 0.019560 0.000000 1.839230 
# 
# From -- ./inp_files/225171.got.cif
#   From: 2010.05.17/outbox.cif.g08.bks.cpg/sg12_113_cif.got.tgz:225171.got - 2010.06.03 13:09:07.
