data_PCOD9221204
_publ_section_title
;
Structure prediction by ZEFSAII (Michael W. Deem and Ramdas Pophale) SiO2 
 PCOD9221204
Probable space group: C 2/M
;
_chemical_formula_sum "Si O2"
_cell_formula_units_Z 40
_cell_length_a 13.126246
_cell_length_b 24.860425
_cell_length_c 5.405011
_cell_angle_alpha 90.000000
_cell_angle_beta 69.302258
_cell_angle_gamma 90.000000
_cell_volume 1649.946815
_symmetry_space_group_name_H-M "C 2/M"
_symmetry_group_IT_number 12
_symmetry_cell_setting 'monoclinic'
loop_
_space_group_symop_operation_xyz
x,y,z
-x,y,-z
-x,-y,-z
x,-y,z
1/2+x,1/2+y,z
1/2-x,1/2+y,-z
1/2-x,1/2-y,-z
1/2+x,1/2-y,z
loop_
_atom_site_type_symbol
_atom_site_label
_atom_site_fract_x
_atom_site_fract_y
_atom_site_fract_z
Si Si1 0.117603 0.558725 0.678828
Si Si2 0.593124 0.822475 0.719872
Si Si3 0.257417 0.079080 0.916937
Si Si4 0.068736 0.000000 0.190061
Si Si5 0.790535 0.808528 0.887611
Si Si6 0.500000 0.270733 0.500000
O O1 0.062181 0.500000 0.708906
O O2 0.062326 0.616425 0.673501
O O3 0.161031 0.565175 0.924267
O O4 0.206335 0.557835 0.381450
O O5 0.715773 0.823263 0.715725
O O6 0.582812 0.771966 0.550049
O O7 0.500000 0.808682 0.000000
O O8 0.147179 0.051592 0.104227
O O9 0.242350 0.143052 0.904092
O O10 0.000000 0.000000 0.500000
O O11 0.000000 0.000000 0.000000
O O12 0.919651 0.806331 0.733729
O O13 0.750000 0.750000 0.000000
#
# Coordination Sequence:
#
# PCOD9221204 Si02
#       6
#     8   8   8   4   8   4
#     4  11  22  44  72  98 138 187 235 288 355 424
#     4  11  25  44  72 102 144 187 238 298 360 424
#     4  11  24  45  69 101 139 187 235 292 357 426
#     4  12  24  42  68 102 141 179 236 298 360 419
#     4  11  24  46  71 103 140 187 235 295 358 428
#     4  12  24  46  71 101 144 184 240 290 366 426
#
# _framework density 24.243207000000002
#
# number of rings (size 3 to 8) (size 9 to 14) (size 15 to 20)
#    0.000    0.800    4.000    3.000    4.200    2.000 
#    3.600    0.500    0.000    0.000    0.000    0.000 
#    0.000    0.000    0.000    0.000    0.000    0.000 
#
# Total GULP energy -111705.401044 kJ/mol
# GULP energy per Si atom -5585.270052 kJ/mol
# Density = 2.418803 g / cm^3
# Si number density = 24.243207 Si / 1000 Ang^3
#
#
#
# Elastic Constant Matrix: (Units=GPa)
#
#
# Indices 1 2 3 4 5 6 
#
# 1 74.3820 8.7715 19.9590 0.0000 2.3663 0.0000
# 2 8.7715 164.1341 30.9189 0.0000 1.3870 0.0000
# 3 19.9590 30.9189 135.4837 0.0000 -24.8281 0.0000
# 4 0.0000 0.0000 0.0000 30.0651 0.0000 -19.5430
# 5 2.3663 1.3870 -24.8281 0.0000 36.3048 0.0000
# 6 0.0000 0.0000 0.0000 -19.5430 0.0000 54.1597
#
#
#
# Elastic Compliance Matrix: (Units=1/GPa)
#
#
# Indices 1 2 3 4 5 6 
#
# 1 0.014236 -0.000264 -0.002521 0.000000 -0.002642 0.000000
# 2 -0.000264 0.006435 -0.001683 0.000000 -0.001379 0.000000
# 3 -0.002521 -0.001683 0.009350 0.000000 0.006623 0.000000
# 4 0.000000 0.000000 0.000000 0.043453 0.000000 0.015680
# 5 -0.002642 -0.001379 0.006623 0.000000 0.032299 0.000000
# 6 0.000000 0.000000 0.000000 0.015680 0.000000 0.024122
#
#
# Mechanical properties :
#
#
# Convention : Reuss Voigt Hill
#
# Bulk Modulus (GPa) = 47.42359 54.81095 51.11727
# Shear Modulus (GPa) = 34.27982 45.06260 39.67121
#
# Velocity S-wave (km/s) = 3.76439 4.31603 4.04961
# Velocity P-wave (km/s) = 6.20470 6.89168 6.55719
#
# Compressibility (1/GPa) = 0.02108655
#
# Stress axis : x y z
#
# Youngs Moduli (GPa) = 70.24570 155.39366 106.95151
#
# Poissons Ratio (x) = 0.04095 0.26964
# Poissons Ratio (y) = 0.01851 0.17995
# Poissons Ratio (z) = 0.17710 0.26146
#
# Static dielectric constant tensor:
#      x y z
#    x 1.999670 0.000000 0.027640 
#    y 0.000000 1.936190 0.000000 
#    z 0.027640 0.000000 1.950200 
# 
# From -- ./inp_files/11556.got.cif
#   From: 2010.05.17/outbox.cif.g08.bks.cpg/sg12_6_cif.got.tgz:11556.got - 2010.06.03 13:09:07.
