data_PCOD9221615
_publ_section_title
;
Structure prediction by ZEFSAII (Michael W. Deem and Ramdas Pophale) SiO2 
 PCOD9221615
Probable space group: C 2/M
;
_chemical_formula_sum "Si O2"
_cell_formula_units_Z 58
_cell_length_a 12.371414
_cell_length_b 16.728429
_cell_length_c 24.891170
_cell_angle_alpha 90.000000
_cell_angle_beta 151.206760
_cell_angle_gamma 90.000000
_cell_volume 2481.142033
_symmetry_space_group_name_H-M "C 2/M"
_symmetry_group_IT_number 12
_symmetry_cell_setting 'monoclinic'
loop_
_space_group_symop_operation_xyz
x,y,z
-x,y,-z
-x,-y,-z
x,-y,z
1/2+x,1/2+y,z
1/2-x,1/2+y,-z
1/2-x,1/2-y,-z
1/2+x,1/2-y,z
loop_
_atom_site_type_symbol
_atom_site_label
_atom_site_fract_x
_atom_site_fract_y
_atom_site_fract_z
Si Si1 0.140447 0.359581 0.733598
Si Si2 0.667840 0.336545 0.983275
Si Si3 0.451629 0.086955 0.916272
Si Si4 0.500000 0.500000 0.500000
Si Si5 0.556615 0.090505 0.810937
Si Si6 0.018855 0.817026 0.707140
Si Si7 0.048212 0.858101 0.604799
Si Si8 0.617832 0.172742 0.605384
O O1 0.057875 0.412603 0.746946
O O2 0.020931 0.275825 0.694240
O O3 0.094209 0.374490 0.650833
O O4 0.407521 0.349286 0.858448
O O5 0.819249 0.397462 0.015039
O O6 0.749827 0.353980 0.079857
O O7 0.750000 0.250000 0.000000
O O8 0.271200 0.154417 0.825899
O O9 0.355711 0.000000 0.859800
O O10 0.500000 0.087931 0.000000
O O11 0.459871 0.427852 0.527883
O O12 0.315838 0.122920 0.724927
O O13 0.588343 0.000000 0.843451
O O14 0.942958 0.859379 0.618649
O O15 0.876468 0.828388 0.698786
O O16 0.039135 0.765562 0.580466
O O17 0.500000 0.142404 0.500000
#
# Coordination Sequence:
#
# PCOD9221615 Si02
#       8
#     8   8   8   2   8   8   8   8
#     4  11  25  41  69 102 135 185 232 278 354 417
#     4  12  23  40  68 100 139 181 225 282 337 420
#     4  11  24  39  64  98 134 179 225 277 341 414
#     4  12  24  40  68 100 138 176 230 300 358 406
#     4  12  25  44  69 101 148 181 230 288 355 424
#     4  11  23  42  70  96 139 178 232 293 347 415
#     4  11  23  41  68 103 133 179 229 293 349 415
#     4  11  24  46  71 102 135 180 241 297 346 415
#
# _framework density 23.376332999999999
#
# number of rings (size 3 to 8) (size 9 to 14) (size 15 to 20)
#    0.000    0.690    5.517    2.483    2.897    4.966 
#    0.000    0.690    0.000    0.828    0.000    0.000 
#    0.000    0.000    0.000    0.000    0.000    0.000 
#
# Total GULP energy -161910.240981 kJ/mol
# GULP energy per Si atom -5583.111758 kJ/mol
# Density = 2.332313 g / cm^3
# Si number density = 23.376333 Si / 1000 Ang^3
#
#
#
# Elastic Constant Matrix: (Units=GPa)
#
#
# Indices 1 2 3 4 5 6 
#
# 1 112.3759 15.5776 27.7777 0.0001 -31.7077 0.0000
# 2 15.5776 60.2916 20.9036 0.0005 -22.0023 0.0001
# 3 27.7777 20.9036 95.6250 0.0051 -21.9711 0.0030
# 4 0.0001 0.0005 0.0051 20.0349 0.0008 -17.4618
# 5 -31.7077 -22.0023 -21.9711 0.0008 53.7810 0.0003
# 6 0.0000 0.0001 0.0030 -17.4618 0.0003 13.1065
#
#
#
# Elastic Compliance Matrix: (Units=1/GPa)
#
#
# Indices 1 2 3 4 5 6 
#
# 1 0.010972 -0.000125 -0.001860 -0.000003 0.005658 -0.000003
# 2 -0.000125 0.020142 -0.002748 -0.000001 0.007043 -0.000001
# 3 -0.001860 -0.002748 0.012237 0.000035 0.002778 0.000043
# 4 -0.000003 -0.000001 0.000035 -0.309655 0.000019 -0.412553
# 5 0.005658 0.007043 0.002778 0.000019 0.025946 0.000024
# 6 -0.000003 -0.000001 0.000043 -0.412553 0.000024 -0.473345
#
#
# Mechanical properties :
#
#
# Convention : Reuss Voigt Hill
#
# Bulk Modulus (GPa) = 29.51268 44.09006 36.80137
# Shear Modulus (GPa) = -7.21562 30.98672 11.88555
#
# Velocity S-wave (km/s) = -1.75881 3.64477 2.25732
# Velocity P-wave (km/s) = 2.92025 6.05099 4.75091
#
# Compressibility (1/GPa) = 0.03388374
#
# Stress axis : x y z
#
# Youngs Moduli (GPa) = 91.13934 49.64832 81.72006
#
# Poissons Ratio (x) = 0.00622 0.15199
# Poissons Ratio (y) = 0.01143 0.22459
# Poissons Ratio (z) = 0.16951 0.13644
#
# Static dielectric constant tensor:
#      x y z
#    x 1.892620 0.000000 -0.011690 
#    y 0.000000 1.848150 0.000000 
#    z -0.011690 0.000000 1.951010 
# 
# From -- ./inp_files/306398.got.cif
#   From: 2010.05.17/outbox.cif.g08.bks.cpg/sg12_154_cif.got.tgz:306398.got - 2010.06.03 13:09:07.
