data_PCOD9221426
_publ_section_title
;
Structure prediction by ZEFSAII (Michael W. Deem and Ramdas Pophale) SiO2 
 PCOD9221426
Probable space group: C 2/M
;
_chemical_formula_sum "Si O2"
_cell_formula_units_Z 28
_cell_length_a 8.112242
_cell_length_b 14.444600
_cell_length_c 11.909799
_cell_angle_alpha 90.000000
_cell_angle_beta 68.278360
_cell_angle_gamma 90.000000
_cell_volume 1296.472245
_symmetry_space_group_name_H-M "C 2/M"
_symmetry_group_IT_number 12
_symmetry_cell_setting 'monoclinic'
loop_
_space_group_symop_operation_xyz
x,y,z
-x,y,-z
-x,-y,-z
x,-y,z
1/2+x,1/2+y,z
1/2-x,1/2+y,-z
1/2-x,1/2-y,-z
1/2+x,1/2-y,z
loop_
_atom_site_type_symbol
_atom_site_label
_atom_site_fract_x
_atom_site_fract_y
_atom_site_fract_z
Si Si1 0.114569 0.101280 0.085008
Si Si2 0.539042 0.109097 0.357917
Si Si3 0.614955 0.738189 0.752908
Si Si4 0.500000 0.846289 0.000000
O O1 0.056192 0.170413 0.198427
O O2 0.073390 0.000000 0.138815
O O3 0.322494 0.104731 0.000808
O O4 0.000000 0.114105 0.000000
O O5 0.500000 0.106257 0.500000
O O6 0.397590 0.178011 0.332920
O O7 0.721523 0.167088 0.294849
O O8 0.543176 0.000000 0.317725
O O9 0.581599 0.787633 0.879566
#
# Coordination Sequence:
#
# PCOD9221426 Si02
#       4
#     8   8   8   4
#     4  11  23  39  64  98 141 185 220 271 344 418
#     4  11  26  47  71  98 132 182 237 286 342 405
#     4  12  22  45  69  98 138 177 222 289 343 412
#     4  12  23  40  65 102 144 172 225 278 349 424
#
# _framework density 21.597069999999999
#
# number of rings (size 3 to 8) (size 9 to 14) (size 15 to 20)
#    0.000    0.571    4.286    4.714    0.000    4.571 
#    0.000    0.000    0.000    6.000    0.000    0.000 
#    0.000    0.000    0.000    0.000    0.000    0.000 
#
# Total GULP energy -77967.125574 kJ/mol
# GULP energy per Si atom -5569.080398 kJ/mol
# Density = 2.154791 g / cm^3
# Si number density = 21.597070 Si / 1000 Ang^3
#
#
#
# Elastic Constant Matrix: (Units=GPa)
#
#
# Indices 1 2 3 4 5 6 
#
# 1 77.8163 34.1150 -4.9875 0.0000 -2.4004 0.0000
# 2 34.1150 183.3529 35.4458 0.0000 16.6863 0.0000
# 3 -4.9875 35.4458 66.3709 0.0000 10.3691 0.0000
# 4 0.0000 0.0000 0.0000 27.9188 0.0000 53.1403
# 5 -2.4004 16.6863 10.3691 0.0000 18.7837 0.0000
# 6 0.0000 0.0000 0.0000 53.1403 0.0000 -137.1139
#
#
#
# Elastic Compliance Matrix: (Units=1/GPa)
#
#
# Indices 1 2 3 4 5 6 
#
# 1 0.014666 -0.003530 0.002413 0.000000 0.003678 0.000000
# 2 -0.003530 0.007212 -0.003333 0.000000 -0.005018 0.000000
# 3 0.002413 -0.003333 0.018076 0.000000 -0.006710 0.000000
# 4 0.000000 0.000000 0.000000 0.020613 0.000000 0.007989
# 5 0.003678 -0.005018 -0.006710 0.000000 0.061869 0.000000
# 6 0.000000 0.000000 0.000000 0.007989 0.000000 -0.004197
#
#
# Mechanical properties :
#
#
# Convention : Reuss Voigt Hill
#
# Bulk Modulus (GPa) = 32.20172 50.74296 41.47234
# Shear Modulus (GPa) = 36.36607 -0.55115 17.90746
#
# Velocity S-wave (km/s) = 4.10792 -0.50572 2.88264
# Velocity P-wave (km/s) = 6.11903 4.81719 5.50672
#
# Compressibility (1/GPa) = 0.03105425
#
# Stress axis : x y z
#
# Youngs Moduli (GPa) = 68.18279 138.66325 55.32102
#
# Poissons Ratio (x) = 0.48949 -0.13347
# Poissons Ratio (y) = 0.24069 0.18437
# Poissons Ratio (z) = -0.16451 0.46214
#
# Static dielectric constant tensor:
#      x y z
#    x 1.941040 0.000000 0.005360 
#    y 0.000000 1.876960 0.000000 
#    z 0.005360 0.000000 1.753290 
# 
# From -- ./inp_files/117314.got.cif
#   From: 2010.05.17/outbox.cif.g08.bks.cpg/sg12_59_cif.got.tgz:117314.got - 2010.06.03 13:09:07.
