data_PCOD9221722
_publ_section_title
;
Structure prediction by ZEFSAII (Michael W. Deem and Ramdas Pophale) SiO2 
 PCOD9221722
Probable space group: C 2/M
;
_chemical_formula_sum "Si O2"
_cell_formula_units_Z 40
_cell_length_a 13.047676
_cell_length_b 18.582271
_cell_length_c 12.138834
_cell_angle_alpha 90.000000
_cell_angle_beta 37.189448
_cell_angle_gamma 90.000000
_cell_volume 1778.979891
_symmetry_space_group_name_H-M "C 2/M"
_symmetry_group_IT_number 12
_symmetry_cell_setting 'monoclinic'
loop_
_space_group_symop_operation_xyz
x,y,z
-x,y,-z
-x,-y,-z
x,-y,z
1/2+x,1/2+y,z
1/2-x,1/2+y,-z
1/2-x,1/2-y,-z
1/2+x,1/2-y,z
loop_
_atom_site_type_symbol
_atom_site_label
_atom_site_fract_x
_atom_site_fract_y
_atom_site_fract_z
Si Si1 0.244855 0.500000 0.636140
Si Si2 0.292025 0.635713 0.992315
Si Si3 0.355928 0.284108 0.308364
Si Si4 0.451778 0.140472 0.162056
Si Si5 0.703349 0.917602 0.313739
Si Si6 0.615901 0.500000 0.233807
O O1 0.144051 0.573523 0.700679
O O2 0.415716 0.500000 0.421518
O O3 0.300210 0.500000 0.717252
O O4 0.449698 0.689634 0.843191
O O5 0.331051 0.568703 0.880369
O O6 0.266481 0.608368 0.139106
O O7 0.110692 0.660702 0.101850
O O8 0.250000 0.250000 0.500000
O O9 0.352783 0.215467 0.228943
O O10 0.268899 0.356376 0.339536
O O11 0.500000 0.113776 0.000000
O O12 0.500000 0.918543 0.500000
O O13 0.763356 0.000000 0.281895
#
# Coordination Sequence:
#
# PCOD9221722 Si02
#       6
#     4   8   8   8   8   4
#     4  11  24  45  68 106 148 200 255 305 368 442
#     4  12  24  46  75 108 144 200 248 306 386 440
#     4  12  28  48  70 108 145 192 248 311 382 451
#     4  12  24  44  70 103 144 192 247 306 367 445
#     4  11  26  49  77 109 149 195 253 315 375 451
#     4  11  23  42  71 105 144 197 254 311 364 449
#
# _framework density 22.484794999999998
#
# number of rings (size 3 to 8) (size 9 to 14) (size 15 to 20)
#    0.000    0.400    3.000    5.700    1.400    2.400 
#    5.400    0.000    0.000    0.000    0.000    0.000 
#    0.000    0.000    0.000    0.000    0.000    0.000 
#
# Total GULP energy -111857.688901 kJ/mol
# GULP energy per Si atom -5592.884445 kJ/mol
# Density = 2.243362 g / cm^3
# Si number density = 22.484795 Si / 1000 Ang^3
#
#
#
# Elastic Constant Matrix: (Units=GPa)
#
#
# Indices 1 2 3 4 5 6 
#
# 1 80.1150 54.2684 39.1495 -0.0022 -0.9479 -0.0216
# 2 54.2684 202.9133 60.1413 -0.0051 -15.5774 -0.0151
# 3 39.1495 60.1413 120.2429 0.0024 4.8477 -0.0240
# 4 -0.0022 -0.0051 0.0024 9.4761 -0.0019 -22.9952
# 5 -0.9479 -15.5774 4.8477 -0.0019 41.4784 0.0105
# 6 -0.0216 -0.0151 -0.0240 -22.9952 0.0105 248.6304
#
#
#
# Elastic Compliance Matrix: (Units=1/GPa)
#
#
# Indices 1 2 3 4 5 6 
#
# 1 0.016563 -0.003372 -0.003688 0.000006 -0.000457 0.000001
# 2 -0.003372 0.006748 -0.002387 0.000004 0.002736 0.000000
# 3 -0.003688 -0.002387 0.010802 -0.000005 -0.002243 0.000000
# 4 0.000006 0.000004 -0.000005 0.136067 0.000005 0.012584
# 5 -0.000457 0.002736 -0.002243 0.000005 0.025388 -0.000001
# 6 0.000001 0.000000 0.000000 0.012584 -0.000001 0.005186
#
#
# Mechanical properties :
#
#
# Convention : Reuss Voigt Hill
#
# Bulk Modulus (GPa) = 65.71073 78.93217 72.32145
# Shear Modulus (GPa) = 22.24993 76.56444 49.40719
#
# Velocity S-wave (km/s) = 3.14913 5.84171 4.69269
# Velocity P-wave (km/s) = 6.52002 8.98230 7.84832
#
# Compressibility (1/GPa) = 0.01521821
#
# Stress axis : x y z
#
# Youngs Moduli (GPa) = 60.37687 148.20049 92.57755
#
# Poissons Ratio (x) = 0.49968 0.34141
# Poissons Ratio (y) = 0.20357 0.22103
# Poissons Ratio (z) = 0.22266 0.35382
#
# Static dielectric constant tensor:
#      x y z
#    x 1.852070 0.000000 -0.006100 
#    y 0.000000 1.870190 0.000000 
#    z -0.006100 0.000000 1.866370 
# 
# From -- ./inp_files/216646.got.cif
#   From: 2010.05.17/outbox.cif.g08.bks.cpg/sg12_109_cif.got.tgz:216646.got - 2010.06.03 13:09:07.
