data_PCOD9221525
_publ_section_title
;
Structure prediction by ZEFSAII (Michael W. Deem and Ramdas Pophale) SiO2 
 PCOD9221525
Probable space group: C 2/M
;
_chemical_formula_sum "Si O2"
_cell_formula_units_Z 64
_cell_length_a 22.257846
_cell_length_b 23.753842
_cell_length_c 19.217026
_cell_angle_alpha 90.000000
_cell_angle_beta 162.286022
_cell_angle_gamma 90.000000
_cell_volume 3091.404510
_symmetry_space_group_name_H-M "C 2/M"
_symmetry_group_IT_number 12
_symmetry_cell_setting 'monoclinic'
loop_
_space_group_symop_operation_xyz
x,y,z
-x,y,-z
-x,-y,-z
x,-y,z
1/2+x,1/2+y,z
1/2-x,1/2+y,-z
1/2-x,1/2-y,-z
1/2+x,1/2-y,z
loop_
_atom_site_type_symbol
_atom_site_label
_atom_site_fract_x
_atom_site_fract_y
_atom_site_fract_z
Si Si1 0.234388 0.935995 0.248140
Si Si2 0.234401 0.830360 0.145644
Si Si3 0.343813 0.308491 0.632186
Si Si4 0.818717 0.789819 0.258190
Si Si5 0.463696 0.874702 0.884390
Si Si6 0.324134 0.065176 0.006111
Si Si7 0.525089 0.116859 0.359045
Si Si8 0.983142 0.153611 0.638972
O O1 0.258083 0.886493 0.217714
O O2 0.348624 0.917406 0.444175
O O3 0.291254 0.000000 0.290426
O O4 0.000000 0.937282 0.000000
O O5 0.300491 0.774721 0.259217
O O6 0.371828 0.843798 0.231253
O O7 0.015645 0.811588 0.879705
O O8 0.250000 0.250000 0.500000
O O9 0.167429 0.344869 0.469244
O O10 0.449221 0.336568 0.682443
O O11 0.000000 0.817390 0.500000
O O12 0.894606 0.795959 0.262582
O O13 0.615614 0.822318 0.045787
O O14 0.523813 0.913095 0.885285
O O15 0.238841 0.854240 0.633458
O O16 0.500000 0.901751 0.000000
O O17 0.411786 0.077484 0.179255
O O18 0.286927 0.000000 0.955492
O O19 0.122312 0.100474 0.777230
#
# Coordination Sequence:
#
# PCOD9221525 Si02
#       8
#     8   8   8   8   8   8   8   8
#     4  11  25  47  72  99 140 191 244 296 346 411
#     4  12  26  43  67 106 140 182 234 283 350 411
#     4  12  25  42  68 101 138 183 226 288 350 419
#     4  11  23  40  68 101 137 178 223 277 340 422
#     4  11  23  44  71 100 136 179 222 283 355 415
#     4  11  26  44  70 101 134 180 234 284 343 416
#     4  12  24  46  69 102 137 181 241 284 347 416
#     4  11  23  45  65 100 136 175 225 280 350 409
#
# _framework density 20.702563999999999
#
# number of rings (size 3 to 8) (size 9 to 14) (size 15 to 20)
#    0.000    0.625    5.000    3.000    1.750    3.750 
#    0.000    0.625    0.000    0.000    0.000    0.000 
#    0.000    0.000    0.000    0.000    0.000    0.000 
#
# Total GULP energy -178727.476552 kJ/mol
# GULP energy per Si atom -5585.233642 kJ/mol
# Density = 2.065544 g / cm^3
# Si number density = 20.702564 Si / 1000 Ang^3
#
#
#
# Elastic Constant Matrix: (Units=GPa)
#
#
# Indices 1 2 3 4 5 6 
#
# 1 90.0252 24.2268 23.9975 0.0003 11.0341 0.0004
# 2 24.2268 129.6055 41.3850 0.0003 6.0305 0.0003
# 3 23.9975 41.3850 129.8528 -0.0018 2.3771 0.0001
# 4 0.0003 0.0003 -0.0018 10.7745 -0.0008 -6.5326
# 5 11.0341 6.0305 2.3771 -0.0008 43.5891 0.0002
# 6 0.0004 0.0003 0.0001 -6.5326 0.0002 20.7480
#
#
#
# Elastic Compliance Matrix: (Units=1/GPa)
#
#
# Indices 1 2 3 4 5 6 
#
# 1 0.012347 -0.001631 -0.001711 -0.000001 -0.002807 -0.000001
# 2 -0.001631 0.008853 -0.002508 -0.000001 -0.000675 0.000000
# 3 -0.001711 -0.002508 0.008811 0.000002 0.000299 0.000001
# 4 -0.000001 -0.000001 0.000002 0.114709 0.000002 0.036116
# 5 -0.002807 -0.000675 0.000299 0.000002 0.023729 0.000001
# 6 -0.000001 0.000000 0.000001 0.036116 0.000001 0.059569
#
#
# Mechanical properties :
#
#
# Convention : Reuss Voigt Hill
#
# Bulk Modulus (GPa) = 54.60944 58.74469 56.67706
# Shear Modulus (GPa) = 20.34013 32.34728 26.34371
#
# Velocity S-wave (km/s) = 3.13788 3.95711 3.57106
# Velocity P-wave (km/s) = 6.28997 7.02249 6.66630
#
# Compressibility (1/GPa) = 0.01831185
#
# Stress axis : x y z
#
# Youngs Moduli (GPa) = 80.99188 112.95899 113.49631
#
# Poissons Ratio (x) = 0.18426 0.19414
# Poissons Ratio (y) = 0.13211 0.28461
# Poissons Ratio (z) = 0.13854 0.28326
#
# Static dielectric constant tensor:
#      x y z
#    x 1.780510 0.000000 -0.061110 
#    y 0.000000 1.727520 0.000000 
#    z -0.061110 0.000000 1.802380 
# 
# From -- ./inp_files/286460.got.cif
#   From: 2010.05.17/outbox.cif.g08.bks.cpg/sg12_144_cif.got.tgz:286460.got - 2010.06.03 13:09:07.
