data_PCOD9221440
_publ_section_title
;
Structure prediction by ZEFSAII (Michael W. Deem and Ramdas Pophale) SiO2 
 PCOD9221440
Probable space group: C 2/M
;
_chemical_formula_sum "Si O2"
_cell_formula_units_Z 42
_cell_length_a 19.994148
_cell_length_b 16.339582
_cell_length_c 6.856866
_cell_angle_alpha 90.000000
_cell_angle_beta 62.663843
_cell_angle_gamma 90.000000
_cell_volume 1989.952331
_symmetry_space_group_name_H-M "C 2/M"
_symmetry_group_IT_number 12
_symmetry_cell_setting 'monoclinic'
loop_
_space_group_symop_operation_xyz
x,y,z
-x,y,-z
-x,-y,-z
x,-y,z
1/2+x,1/2+y,z
1/2-x,1/2+y,-z
1/2-x,1/2-y,-z
1/2+x,1/2-y,z
loop_
_atom_site_type_symbol
_atom_site_label
_atom_site_fract_x
_atom_site_fract_y
_atom_site_fract_z
Si Si1 0.025500 0.865803 0.685892
Si Si2 0.500000 0.500000 0.000000
Si Si3 0.787470 0.401164 0.505444
Si Si4 0.076440 0.700562 0.821768
Si Si5 0.309927 0.298834 0.050424
Si Si6 0.674344 0.590478 0.321538
O O1 0.042514 0.776605 0.745604
O O2 0.107026 0.909932 0.568179
O O3 0.000000 0.861957 0.500000
O O4 0.975707 0.926685 0.879787
O O5 0.790208 0.500000 0.530918
O O6 0.868812 0.357973 0.376230
O O7 0.736871 0.354957 0.734649
O O8 0.746515 0.384906 0.352251
O O9 0.129301 0.743355 0.916743
O O10 0.000000 0.657472 0.000000
O O11 0.250000 0.250000 0.000000
O O12 0.345982 0.352776 0.830975
O O13 0.687727 0.500000 0.227272
#
# Coordination Sequence:
#
# PCOD9221440 Si02
#       6
#     8   2   8   8   8   8
#     4  12  25  42  66 101 146 188 226 282 355 427
#     4  12  26  44  60 102 154 184 228 276 360 428
#     4  11  25  47  70  99 137 184 237 291 346 416
#     4  12  25  45  70 103 142 184 231 293 355 424
#     4  12  23  43  72 100 135 180 233 291 350 414
#     4  11  23  39  67  96 133 182 231 282 342 412
#
# _framework density 21.106031000000002
#
# number of rings (size 3 to 8) (size 9 to 14) (size 15 to 20)
#    0.000    0.381    5.714    3.714    0.000    0.381 
#    0.000    0.000    0.000    1.714    0.000    0.000 
#    0.000    0.000    0.000    0.000    0.000    0.000 
#
# Total GULP energy -117018.949844 kJ/mol
# GULP energy per Si atom -5572.330945 kJ/mol
# Density = 2.105799 g / cm^3
# Si number density = 21.106031 Si / 1000 Ang^3
#
#
#
# Elastic Constant Matrix: (Units=GPa)
#
#
# Indices 1 2 3 4 5 6 
#
# 1 85.8324 38.5169 24.3283 0.0000 -3.3737 0.0000
# 2 38.5169 74.9294 35.7741 0.0000 4.9376 0.0000
# 3 24.3283 35.7741 74.9510 0.0000 0.8148 0.0000
# 4 0.0000 0.0000 0.0000 80.4432 0.0000 15.8638
# 5 -3.3737 4.9376 0.8148 0.0000 49.1257 0.0000
# 6 0.0000 0.0000 0.0000 15.8638 0.0000 4.5244
#
#
#
# Elastic Compliance Matrix: (Units=1/GPa)
#
#
# Indices 1 2 3 4 5 6 
#
# 1 0.015445 -0.007326 -0.001536 0.000000 0.001823 0.000000
# 2 -0.007326 0.020886 -0.007564 0.000000 -0.002477 0.000000
# 3 -0.001536 -0.007564 0.017447 0.000000 0.000365 0.000000
# 4 0.000000 0.000000 0.000000 0.040290 0.000000 -0.141268
# 5 0.001823 -0.002477 0.000365 0.000000 0.020724 0.000000
# 6 0.000000 0.000000 0.000000 -0.141268 0.000000 0.716350
#
#
# Mechanical properties :
#
#
# Convention : Reuss Voigt Hill
#
# Bulk Modulus (GPa) = 47.78867 48.10571 47.94719
# Shear Modulus (GPa) = 5.74071 35.95821 20.84946
#
# Velocity S-wave (km/s) = 1.65101 4.13206 3.14641
# Velocity P-wave (km/s) = 5.13087 6.75330 5.99720
#
# Compressibility (1/GPa) = 0.02092546
#
# Stress axis : x y z
#
# Youngs Moduli (GPa) = 64.74474 47.87789 57.31576
#
# Poissons Ratio (x) = 0.35076 0.08806
# Poissons Ratio (y) = 0.47432 0.43355
# Poissons Ratio (z) = 0.09948 0.36216
#
# Static dielectric constant tensor:
#      x y z
#    x 1.798010 0.000000 -0.065910 
#    y 0.000000 1.775480 0.000000 
#    z -0.065910 0.000000 1.824750 
# 
# From -- ./inp_files/20335.got.cif
#   From: 2010.05.17/outbox.cif.g08.bks.cpg/sg12_11_cif.got.tgz:20335.got - 2010.06.03 13:09:07.
