data_PCOD9221802
_publ_section_title
;
Structure prediction by ZEFSAII (Michael W. Deem and Ramdas Pophale) SiO2 
 PCOD9221802
Probable space group: C 2/M
;
_chemical_formula_sum "Si O2"
_cell_formula_units_Z 34
_cell_length_a 12.804461
_cell_length_b 20.958756
_cell_length_c 9.318989
_cell_angle_alpha 90.000000
_cell_angle_beta 34.918204
_cell_angle_gamma 90.000000
_cell_volume 1431.528837
_symmetry_space_group_name_H-M "C 2/M"
_symmetry_group_IT_number 12
_symmetry_cell_setting 'monoclinic'
loop_
_space_group_symop_operation_xyz
x,y,z
-x,y,-z
-x,-y,-z
x,-y,z
1/2+x,1/2+y,z
1/2-x,1/2+y,-z
1/2-x,1/2-y,-z
1/2+x,1/2-y,z
loop_
_atom_site_type_symbol
_atom_site_label
_atom_site_fract_x
_atom_site_fract_y
_atom_site_fract_z
Si Si1 0.746678 0.101631 0.455234
Si Si2 0.000000 0.000000 0.000000
Si Si3 0.477075 0.713120 0.867185
Si Si4 0.219965 0.928994 0.256687
Si Si5 0.379917 0.158513 0.833512
O O1 0.717030 0.075955 0.650176
O O2 0.552814 0.115520 0.600221
O O3 0.854102 0.167975 0.356592
O O4 0.876033 0.055108 0.220980
O O5 0.452107 0.770473 0.785128
O O6 0.500000 0.740531 0.000000
O O7 0.294734 0.669320 0.069914
O O8 0.000000 0.923561 0.500000
O O9 0.265548 0.000000 0.148055
O O10 0.300379 0.874098 0.066818
#
# Coordination Sequence:
#
# PCOD9221802 Si02
#       5
#     8   2   8   8   8
#     4  12  24  47  71 104 148 191 235 301 354 438
#     4  12  28  48  70 104 156 190 240 298 366 426
#     4  11  24  48  70 106 152 184 239 300 357 426
#     4  11  23  43  74 105 144 182 236 300 355 418
#     4  11  26  44  77 110 134 196 243 291 366 430
#
# _framework density 23.750831999999999
#
# number of rings (size 3 to 8) (size 9 to 14) (size 15 to 20)
#    0.000    0.706    4.706    2.824    1.647    1.882 
#    0.000    1.176    0.000    0.000    0.000    0.000 
#    0.000    0.000    0.000    0.000    0.000    0.000 
#
# Total GULP energy -94952.592721 kJ/mol
# GULP energy per Si atom -5585.446631 kJ/mol
# Density = 2.369677 g / cm^3
# Si number density = 23.750832 Si / 1000 Ang^3
#
#
#
# Elastic Constant Matrix: (Units=GPa)
#
#
# Indices 1 2 3 4 5 6 
#
# 1 90.9795 -5.3059 26.6767 0.0001 -22.3200 -0.0001
# 2 -5.3059 101.5606 33.5590 0.0001 0.0231 -0.0001
# 3 26.6767 33.5590 97.0190 0.0002 -10.2278 -0.0003
# 4 0.0001 0.0001 0.0002 12.4090 -0.0001 13.2791
# 5 -22.3200 0.0231 -10.2278 -0.0001 36.3304 0.0002
# 6 -0.0001 -0.0001 -0.0003 13.2791 0.0002 -1.6541
#
#
#
# Elastic Compliance Matrix: (Units=1/GPa)
#
#
# Indices 1 2 3 4 5 6 
#
# 1 0.014067 0.001973 -0.003751 0.000000 0.007585 0.000000
# 2 0.001973 0.011438 -0.004506 0.000000 -0.000064 0.000000
# 3 -0.003751 -0.004506 0.013041 0.000000 0.001370 0.000000
# 4 0.000000 0.000000 0.000000 0.008402 0.000000 0.067454
# 5 0.007585 -0.000064 0.001370 0.000000 0.032571 0.000000
# 6 0.000000 0.000000 0.000000 0.067454 0.000000 -0.063035
#
#
# Mechanical properties :
#
#
# Convention : Reuss Voigt Hill
#
# Bulk Modulus (GPa) = 38.49197 44.37984 41.43591
# Shear Modulus (GPa) = 132.58136 25.05903 78.82020
#
# Velocity S-wave (km/s) = 7.47950 3.25172 5.76700
# Velocity P-wave (km/s) = 9.53060 5.72926 7.86310
#
# Compressibility (1/GPa) = 0.02597944
#
# Stress axis : x y z
#
# Youngs Moduli (GPa) = 71.08769 87.42640 76.67853
#
# Poissons Ratio (x) = -0.17245 0.28759
# Poissons Ratio (y) = -0.14022 0.34548
# Poissons Ratio (z) = 0.26662 0.39391
#
# Static dielectric constant tensor:
#      x y z
#    x 1.920880 0.000000 -0.007890 
#    y 0.000000 1.864720 0.000000 
#    z -0.007890 0.000000 1.894690 
# 
# From -- ./inp_files/147444.got.cif
#   From: 2010.05.17/outbox.cif.g08.bks.cpg/sg12_74_cif.got.tgz:147444.got - 2010.06.03 13:09:07.
