data_PCOD9221936
_publ_section_title
;
Structure prediction by ZEFSAII (Michael W. Deem and Ramdas Pophale) SiO2 
 PCOD9221936
Probable space group: C 2/M
;
_chemical_formula_sum "Si O2"
_cell_formula_units_Z 48
_cell_length_a 18.934960
_cell_length_b 8.692288
_cell_length_c 32.537172
_cell_angle_alpha 90.000000
_cell_angle_beta 29.317188
_cell_angle_gamma 90.000000
_cell_volume 2622.157502
_symmetry_space_group_name_H-M "C 2/M"
_symmetry_group_IT_number 12
_symmetry_cell_setting 'monoclinic'
loop_
_space_group_symop_operation_xyz
x,y,z
-x,y,-z
-x,-y,-z
x,-y,z
1/2+x,1/2+y,z
1/2-x,1/2+y,-z
1/2-x,1/2-y,-z
1/2+x,1/2-y,z
loop_
_atom_site_type_symbol
_atom_site_label
_atom_site_fract_x
_atom_site_fract_y
_atom_site_fract_z
Si Si1 0.891053 0.685443 0.266596
Si Si2 0.427558 0.815787 0.580038
Si Si3 0.443407 0.185624 0.732363
Si Si4 0.910622 0.183131 0.422668
Si Si5 0.823809 0.685201 0.922256
Si Si6 0.162990 0.812704 0.920701
O O1 0.875830 0.500000 0.272620
O O2 0.738073 0.762323 0.336700
O O3 0.957231 0.721799 0.278156
O O4 0.012231 0.732169 0.171654
O O5 0.500000 0.768954 0.500000
O O6 0.512672 0.744441 0.575155
O O7 0.434857 0.000000 0.579491
O O8 0.501238 0.263307 0.662135
O O9 0.279989 0.232921 0.827051
O O10 0.446813 0.000000 0.725770
O O11 0.750000 0.250000 0.500000
O O12 0.903189 0.000000 0.428028
O O13 0.823376 0.500000 0.924399
O O14 0.729848 0.731808 0.930437
O O15 0.750000 0.750000 0.000000
O O16 0.159845 0.000000 0.921193
O O17 0.000000 0.756304 0.000000
#
# Coordination Sequence:
#
# PCOD9221936 Si02
#       6
#     8   8   8   8   8   8
#     4   9  19  36  56  79 111 149 186 227 276 326
#     4  11  24  40  59  84 110 139 182 229 272 325
#     4   9  18  35  58  82 111 147 186 227 272 322
#     4  12  25  40  59  83 113 145 179 221 271 327
#     4   9  18  32  51  78 110 144 183 225 270 320
#     4   8  15  30  53  79 107 142 183 223 264 315
#
# _framework density 18.305537000000001
#
# number of rings (size 3 to 8) (size 9 to 14) (size 15 to 20)
#    0.000    2.333    0.000    5.000    0.000    6.667 
#    0.000    4.167    0.000    1.000    0.000    0.000 
#    0.000    0.000    0.000    0.000    0.000    0.000 
#
# Total GULP energy -133954.945859 kJ/mol
# GULP energy per Si atom -5581.456077 kJ/mol
# Density = 1.826387 g / cm^3
# Si number density = 18.305537 Si / 1000 Ang^3
#
#
#
# Elastic Constant Matrix: (Units=GPa)
#
#
# Indices 1 2 3 4 5 6 
#
# 1 123.6420 53.3899 123.2101 0.0003 -1.9146 0.0053
# 2 53.3899 52.1559 60.1995 0.0019 2.3877 0.0006
# 3 123.2101 60.1995 216.8194 -0.0009 0.0547 0.0004
# 4 0.0003 0.0019 -0.0009 30.0480 -0.0007 -0.5173
# 5 -1.9146 2.3877 0.0547 -0.0007 40.9641 0.0001
# 6 0.0053 0.0006 0.0004 -0.5173 0.0001 19.5014
#
#
#
# Elastic Compliance Matrix: (Units=1/GPa)
#
#
# Indices 1 2 3 4 5 6 
#
# 1 0.023261 -0.012712 -0.009689 0.000000 0.001841 -0.000006
# 2 -0.012712 0.035272 -0.002569 -0.000002 -0.002647 0.000002
# 3 -0.009689 -0.002569 0.010832 0.000001 -0.000318 0.000003
# 4 0.000000 -0.000002 0.000001 0.033295 0.000001 0.000883
# 5 0.001841 -0.002647 -0.000318 0.000001 0.024652 0.000000
# 6 -0.000006 0.000002 0.000003 0.000883 0.000000 0.051302
#
#
# Mechanical properties :
#
#
# Convention : Reuss Voigt Hill
#
# Bulk Modulus (GPa) = 51.48168 96.24625 73.86397
# Shear Modulus (GPa) = 21.27392 28.49055 24.88223
#
# Velocity S-wave (km/s) = 3.41274 3.94939 3.69083
# Velocity P-wave (km/s) = 6.61163 8.57256 7.65514
#
# Compressibility (1/GPa) = 0.01942438
#
# Stress axis : x y z
#
# Youngs Moduli (GPa) = 42.99026 28.35090 92.32290
#
# Poissons Ratio (x) = 0.36040 0.89455
# Poissons Ratio (y) = 0.54649 0.23716
# Poissons Ratio (z) = 0.41655 0.07283
#
# Static dielectric constant tensor:
#      x y z
#    x 1.600560 0.000000 -0.003810 
#    y 0.000000 1.621500 0.000000 
#    z -0.003810 0.000000 1.629650 
# 
# From -- ./inp_files/274076.got.cif
#   From: 2010.05.17/outbox.cif.g08.bks.cpg/sg12_138_cif.got.tgz:274076.got - 2010.06.03 13:09:07.
