data_PCOD9221145
_publ_section_title
;
Structure prediction by ZEFSAII (Michael W. Deem and Ramdas Pophale) SiO2 
 PCOD9221145
Probable space group: C 2/M
;
_chemical_formula_sum "Si O2"
_cell_formula_units_Z 44
_cell_length_a 15.737895
_cell_length_b 21.977508
_cell_length_c 19.246341
_cell_angle_alpha 90.000000
_cell_angle_beta 161.573910
_cell_angle_gamma 90.000000
_cell_volume 2104.126124
_symmetry_space_group_name_H-M "C 2/M"
_symmetry_group_IT_number 12
_symmetry_cell_setting 'monoclinic'
loop_
_space_group_symop_operation_xyz
x,y,z
-x,y,-z
-x,-y,-z
x,-y,z
1/2+x,1/2+y,z
1/2-x,1/2+y,-z
1/2-x,1/2-y,-z
1/2+x,1/2-y,z
loop_
_atom_site_type_symbol
_atom_site_label
_atom_site_fract_x
_atom_site_fract_y
_atom_site_fract_z
Si Si1 0.334980 0.183511 0.090819
Si Si2 0.010208 0.500000 0.747335
Si Si3 0.882694 0.622285 0.976941
Si Si4 0.907827 0.000000 0.848302
Si Si5 0.723965 0.369529 0.310955
Si Si6 0.742655 0.622448 0.491205
Si Si7 0.680397 0.000000 0.244432
O O1 0.592930 0.174435 0.340331
O O2 0.250000 0.250000 0.000000
O O3 0.401839 0.149606 0.069749
O O4 0.075486 0.157572 0.931629
O O5 0.899849 0.560011 0.626027
O O6 0.920392 0.500000 0.755707
O O7 0.327421 0.500000 0.992914
O O8 0.562259 0.614856 0.718720
O O9 0.000000 0.656821 0.000000
O O10 0.055388 0.560319 0.113970
O O11 0.773408 0.936003 0.723849
O O12 0.000000 0.000000 0.000000
O O13 0.737380 0.369594 0.404746
O O14 0.000000 0.337654 0.500000
O O15 0.000000 0.000000 0.500000
#
# Coordination Sequence:
#
# PCOD9221145 Si02
#       7
#     8   4   8   4   8   8   4
#     4  11  26  48  67  94 130 181 237 285 339 407
#     4  12  18  36  66  92 126 188 198 272 352 396
#     4  11  24  42  65 103 133 176 225 277 350 416
#     4  12  22  38  66 102 145 174 222 278 347 431
#     4  11  24  42  65 103 133 176 225 277 350 416
#     4  11  22  42  70  91 144 174 231 286 343 418
#     4  12  22  38  66 102 145 174 222 278 347 431
#
# _framework density 20.911294000000002
#
# number of rings (size 3 to 8) (size 9 to 14) (size 15 to 20)
#    0.000    0.727    3.636    4.909    0.000    2.909 
#    6.545    0.000    0.000    0.000    0.000    0.000 
#    0.000    0.000    0.000    0.000    0.000    0.000 
#
# Total GULP energy -122793.161376 kJ/mol
# GULP energy per Si atom -5581.507335 kJ/mol
# Density = 2.086370 g / cm^3
# Si number density = 20.911294 Si / 1000 Ang^3
#
#
#
# Elastic Constant Matrix: (Units=GPa)
#
#
# Indices 1 2 3 4 5 6 
#
# 1 90.4604 5.3705 39.5231 0.1278 26.9217 -0.0934
# 2 5.3705 77.3522 29.4400 -0.8519 -8.2395 0.0293
# 3 39.5231 29.4400 145.3012 0.0375 8.1744 -0.1994
# 4 0.1278 -0.8519 0.0375 15.2303 0.0282 -1.0862
# 5 26.9217 -8.2395 8.1744 0.0282 39.2336 -0.0148
# 6 -0.0934 0.0293 -0.1994 -1.0862 -0.0148 2.2957
#
#
#
# Elastic Compliance Matrix: (Units=1/GPa)
#
#
# Indices 1 2 3 4 5 6 
#
# 1 0.015679 -0.000837 -0.003521 -0.000136 -0.010201 0.000213
# 2 -0.000837 0.014577 -0.002965 0.000817 0.004253 -0.000064
# 3 -0.003521 -0.002965 0.008440 -0.000116 0.000035 0.000573
# 4 -0.000136 0.000817 -0.000116 0.067998 0.000252 0.032149
# 5 -0.010201 0.004253 0.000035 0.000252 0.033373 -0.000132
# 6 0.000213 -0.000064 0.000573 0.032149 -0.000132 0.450872
#
#
# Mechanical properties :
#
#
# Convention : Reuss Voigt Hill
#
# Bulk Modulus (GPa) = 41.58181 51.30898 46.44540
# Shear Modulus (GPa) = 8.14862 27.27060 17.70961
#
# Velocity S-wave (km/s) = 1.97616 3.61516 2.91330
# Velocity P-wave (km/s) = 5.01348 6.48195 5.79442
#
# Compressibility (1/GPa) = 0.02404898
#
# Stress axis : x y z
#
# Youngs Moduli (GPa) = 63.78041 68.60315 118.48796
#
# Poissons Ratio (x) = 0.05739 0.41720
# Poissons Ratio (y) = 0.05336 0.35136
# Poissons Ratio (z) = 0.22458 0.20344
#
# Static dielectric constant tensor:
#      x y z
#    x 1.808370 -0.000110 -0.081550 
#    y -0.000110 1.686220 0.000410 
#    z -0.081550 0.000410 1.901300 
# 
# From -- ./inp_files/272928.got.cif
#   From: 2010.05.17/outbox.cif.g08.bks.cpg/sg12_137_cif.got.tgz:272928.got - 2010.06.03 13:09:07.
