data_PCOD9221789
_publ_section_title
;
Structure prediction by ZEFSAII (Michael W. Deem and Ramdas Pophale) SiO2 
 PCOD9221789
Probable space group: C 2/M
;
_chemical_formula_sum "Si O2"
_cell_formula_units_Z 56
_cell_length_a 17.888360
_cell_length_b 27.873991
_cell_length_c 8.489003
_cell_angle_alpha 90.000000
_cell_angle_beta 141.523415
_cell_angle_gamma 90.000000
_cell_volume 2633.617602
_symmetry_space_group_name_H-M "C 2/M"
_symmetry_group_IT_number 12
_symmetry_cell_setting 'monoclinic'
loop_
_space_group_symop_operation_xyz
x,y,z
-x,y,-z
-x,-y,-z
x,-y,z
1/2+x,1/2+y,z
1/2-x,1/2+y,-z
1/2-x,1/2-y,-z
1/2+x,1/2-y,z
loop_
_atom_site_type_symbol
_atom_site_label
_atom_site_fract_x
_atom_site_fract_y
_atom_site_fract_z
Si Si1 0.885692 0.000000 0.027943
Si Si2 0.316108 0.604400 0.048323
Si Si3 0.577654 0.173858 0.994530
Si Si4 0.106441 0.664226 0.566411
Si Si5 0.978144 0.833880 0.783544
Si Si6 0.777555 0.900061 0.358126
Si Si7 0.669526 0.500000 0.431219
Si Si8 0.784917 0.241010 0.374650
O O1 0.845100 0.950049 0.042248
O O2 0.837210 0.000000 0.768822
O O3 0.030775 0.000000 0.260783
O O4 0.185675 0.622552 0.773268
O O5 0.411478 0.641960 0.128667
O O6 0.315449 0.605481 0.237297
O O7 0.659427 0.130854 0.190288
O O8 0.678211 0.212478 0.109172
O O9 0.500000 0.199299 0.000000
O O10 0.476470 0.151142 0.717748
O O11 0.191694 0.707852 0.661548
O O12 0.000000 0.683609 0.500000
O O13 0.881715 0.876894 0.635150
O O14 0.905618 0.791504 0.575367
O O15 0.000000 0.818844 0.000000
O O16 0.766235 0.953955 0.392251
O O17 0.750000 0.250000 0.500000
#
# Coordination Sequence:
#
# PCOD9221789 Si02
#       8
#     4   8   8   8   8   8   4   8
#     4  11  25  43  73 107 140 174 231 285 343 418
#     4  12  25  44  71 101 141 184 223 287 354 409
#     4  11  25  45  69  97 138 184 234 280 342 412
#     4  12  27  46  69  98 144 182 231 289 344 412
#     4  11  24  40  67 101 138 176 233 284 342 405
#     4  11  24  44  68 102 140 179 225 284 348 408
#     4  11  23  43  71 107 136 171 231 288 341 407
#     4  11  25  42  69  98 133 185 234 287 337 410
#
# _framework density 21.263525999999999
#
# number of rings (size 3 to 8) (size 9 to 14) (size 15 to 20)
#    0.000    0.714    4.286    2.571    8.000    3.429 
#    0.000    1.429    0.000    0.000    0.000    0.000 
#    0.000    0.000    0.000    0.000    0.000    0.000 
#
# Total GULP energy -156433.268265 kJ/mol
# GULP energy per Si atom -5586.902438 kJ/mol
# Density = 2.121513 g / cm^3
# Si number density = 21.263526 Si / 1000 Ang^3
#
#
#
# Elastic Constant Matrix: (Units=GPa)
#
#
# Indices 1 2 3 4 5 6 
#
# 1 57.8554 79.1454 14.2933 0.0000 -21.3761 0.0000
# 2 79.1454 -5.5593 21.2513 0.0000 71.3589 0.0000
# 3 14.2933 21.2513 85.3809 0.0000 20.6697 0.0000
# 4 0.0000 0.0000 0.0000 -104.8736 0.0000 17.1101
# 5 -21.3761 71.3589 20.6697 0.0000 -2.1086 0.0000
# 6 0.0000 0.0000 0.0000 17.1101 0.0000 20.8305
#
#
#
# Elastic Compliance Matrix: (Units=1/GPa)
#
#
# Indices 1 2 3 4 5 6 
#
# 1 0.009785 0.002515 0.000340 0.000000 -0.010758 0.000000
# 2 0.002515 0.002298 -0.004045 0.000000 0.012608 0.000000
# 3 0.000340 -0.004045 0.013827 0.000000 -0.004810 0.000000
# 4 0.000000 0.000000 0.000000 -0.008408 0.000000 0.006907
# 5 -0.010758 0.012608 -0.004810 0.000000 0.014347 0.000000
# 6 0.000000 0.000000 0.000000 0.006907 0.000000 0.042333
#
#
# Mechanical properties :
#
#
# Convention : Reuss Voigt Hill
#
# Bulk Modulus (GPa) = 42.49974 40.78411 41.64193
# Shear Modulus (GPa) = 59.23837 -15.69787 21.77025
#
# Velocity S-wave (km/s) = 5.28390 -2.72003 3.20321
# Velocity P-wave (km/s) = 7.56682 3.05896 5.77122
#
# Compressibility (1/GPa) = 0.02352955
#
# Stress axis : x y z
#
# Youngs Moduli (GPa) = 102.19445 435.24022 72.32433
#
# Poissons Ratio (x) = -1.09451 -0.02462
# Poissons Ratio (y) = -0.25699 0.29256
# Poissons Ratio (z) = -0.03479 1.76061
#
# Static dielectric constant tensor:
#      x y z
#    x 2.514840 0.000000 -0.120600 
#    y 0.000000 1.732180 0.000000 
#    z -0.120600 0.000000 1.831020 
# 
# From -- ./inp_files/80151.got.cif
#   From: 2010.05.17/outbox.cif.g08.bks.cpg/sg12_41_cif.got.tgz:80151.got - 2010.06.03 13:09:07.
