data_PCOD9221776
_publ_section_title
;
Structure prediction by ZEFSAII (Michael W. Deem and Ramdas Pophale) SiO2 
 PCOD9221776
Probable space group: C 2/M
;
_chemical_formula_sum "Si O2"
_cell_formula_units_Z 58
_cell_length_a 18.582223
_cell_length_b 9.216736
_cell_length_c 21.596695
_cell_angle_alpha 90.000000
_cell_angle_beta 49.498220
_cell_angle_gamma 90.000000
_cell_volume 2812.523126
_symmetry_space_group_name_H-M "C 2/M"
_symmetry_group_IT_number 12
_symmetry_cell_setting 'monoclinic'
loop_
_space_group_symop_operation_xyz
x,y,z
-x,y,-z
-x,-y,-z
x,-y,z
1/2+x,1/2+y,z
1/2-x,1/2+y,-z
1/2-x,1/2-y,-z
1/2+x,1/2-y,z
loop_
_atom_site_type_symbol
_atom_site_label
_atom_site_fract_x
_atom_site_fract_y
_atom_site_fract_z
Si Si1 0.962830 0.171557 0.837938
Si Si2 0.882125 0.664015 0.771757
Si Si3 0.348437 0.329030 0.572301
Si Si4 0.152412 0.671227 0.739822
Si Si5 0.832313 0.231868 0.127976
Si Si6 0.504467 0.327713 0.396053
Si Si7 0.168401 0.665668 0.007554
Si Si8 0.500000 0.500000 0.000000
O O1 0.894377 0.227760 0.822375
O O2 0.926181 0.250092 0.919955
O O3 0.065788 0.231807 0.765593
O O4 0.960028 0.000000 0.847420
O O5 0.908957 0.500000 0.774242
O O6 0.773153 0.662316 0.811220
O O7 0.952183 0.729151 0.681339
O O8 0.335764 0.500000 0.567547
O O9 0.247641 0.275139 0.652371
O O10 0.404595 0.274398 0.480514
O O11 0.420602 0.318834 0.589486
O O12 0.138221 0.500000 0.735209
O O13 0.158321 0.691200 0.810854
O O14 0.920222 0.124604 0.066044
O O15 0.825240 0.328400 0.069833
O O16 0.498824 0.500000 0.381613
O O17 0.167777 0.500000 0.029337
O O18 0.250000 0.750000 0.000000
#
# Coordination Sequence:
#
# PCOD9221776 Si02
#       8
#     8   8   8   8   8   8   8   2
#     4  12  28  45  66  93 130 176 224 278 336 396
#     4  12  24  42  67  97 132 173 222 273 327 395
#     4   8  16  33  63  99 133 173 212 266 332 396
#     4  11  23  43  69  98 134 172 220 274 333 398
#     4  12  26  42  70  93 135 170 224 265 339 385
#     4   9  17  35  64  98 134 170 219 267 325 401
#     4  12  26  43  67  97 130 171 224 276 331 394
#     4  12  28  44  62  96 130 176 216 280 324 388
#
# _framework density 20.622053000000001
#
# number of rings (size 3 to 8) (size 9 to 14) (size 15 to 20)
#    0.000    1.103    3.448    4.138    4.828    1.103 
#    0.000    4.828    0.000    0.000    0.000    0.000 
#    0.000    0.000    0.000    0.000    0.000    0.000 
#
# Total GULP energy -161610.838590 kJ/mol
# GULP energy per Si atom -5572.787538 kJ/mol
# Density = 2.057512 g / cm^3
# Si number density = 20.622053 Si / 1000 Ang^3
#
#
#
# Elastic Constant Matrix: (Units=GPa)
#
#
# Indices 1 2 3 4 5 6 
#
# 1 53.6011 22.3742 25.1009 0.0000 -17.5638 0.0000
# 2 22.3742 131.2135 44.8612 0.0000 -11.0947 0.0000
# 3 25.1009 44.8612 165.7612 0.0000 -21.6672 0.0000
# 4 0.0000 0.0000 0.0000 20.8003 0.0000 -7.3017
# 5 -17.5638 -11.0947 -21.6672 0.0000 33.9529 0.0000
# 6 0.0000 0.0000 0.0000 -7.3017 0.0000 13.5839
#
#
#
# Elastic Compliance Matrix: (Units=1/GPa)
#
#
# Indices 1 2 3 4 5 6 
#
# 1 0.023938 -0.002669 -0.001525 0.000000 0.010537 0.000000
# 2 -0.002669 0.008758 -0.001934 0.000000 0.000247 0.000000
# 3 -0.001525 -0.001934 0.007202 0.000000 0.003175 0.000000
# 4 0.000000 0.000000 0.000000 0.059257 0.000000 0.031852
# 5 0.010537 0.000247 0.003175 0.000000 0.037011 0.000000
# 6 0.000000 0.000000 0.000000 0.031852 0.000000 0.090738
#
#
# Mechanical properties :
#
#
# Convention : Reuss Voigt Hill
#
# Bulk Modulus (GPa) = 36.17736 59.47206 47.82471
# Shear Modulus (GPa) = 20.13092 30.88341 25.50717
#
# Velocity S-wave (km/s) = 3.12778 3.87407 3.52076
# Velocity P-wave (km/s) = 5.53400 6.99378 6.30627
#
# Compressibility (1/GPa) = 0.02764160
#
# Stress axis : x y z
#
# Youngs Moduli (GPa) = 41.77530 114.17611 138.84800
#
# Poissons Ratio (x) = 0.30478 0.21174
# Poissons Ratio (y) = 0.11152 0.26851
# Poissons Ratio (z) = 0.06371 0.22080
#
# Static dielectric constant tensor:
#      x y z
#    x 1.759160 0.000000 -0.007430 
#    y 0.000000 1.710220 0.000000 
#    z -0.007430 0.000000 1.872240 
# 
# From -- ./inp_files/346480.got.cif
#   From: 2010.05.17/outbox.cif.g08.bks.cpg/sg12_174_cif.got.tgz:346480.got - 2010.06.03 13:09:07.
