data_PCOD9221056
_publ_section_title
;
Structure prediction by ZEFSAII (Michael W. Deem and Ramdas Pophale) SiO2 
 PCOD9221056
Probable space group: C 2/M
;
_chemical_formula_sum "Si O2"
_cell_formula_units_Z 52
_cell_length_a 18.496890
_cell_length_b 20.597911
_cell_length_c 10.090045
_cell_angle_alpha 90.000000
_cell_angle_beta 138.965093
_cell_angle_gamma 90.000000
_cell_volume 2523.841635
_symmetry_space_group_name_H-M "C 2/M"
_symmetry_group_IT_number 12
_symmetry_cell_setting 'monoclinic'
loop_
_space_group_symop_operation_xyz
x,y,z
-x,y,-z
-x,-y,-z
x,-y,z
1/2+x,1/2+y,z
1/2-x,1/2+y,-z
1/2-x,1/2-y,-z
1/2+x,1/2-y,z
loop_
_atom_site_type_symbol
_atom_site_label
_atom_site_fract_x
_atom_site_fract_y
_atom_site_fract_z
Si Si1 0.518454 0.171865 0.338226
Si Si2 0.184874 0.864447 0.605973
Si Si3 0.168319 0.573317 0.978368
Si Si4 0.685730 0.073889 0.698590
Si Si5 0.379336 0.380925 0.777229
Si Si6 0.000000 0.782320 0.500000
Si Si7 0.119245 0.725983 0.224613
O O1 0.429389 0.125509 0.146849
O O2 0.591801 0.125498 0.532460
O O3 0.459558 0.231580 0.331629
O O4 0.603467 0.204713 0.354355
O O5 0.138471 0.893693 0.404136
O O6 0.091698 0.826181 0.558279
O O7 0.281389 0.813973 0.699785
O O8 0.242016 0.914588 0.784806
O O9 0.124922 0.500000 0.928308
O O10 0.215949 0.581654 0.895190
O O11 0.787179 0.085943 0.740558
O O12 0.644908 0.000000 0.624886
O O13 0.366677 0.302773 0.772296
O O14 0.500000 0.398045 0.000000
O O15 0.000000 0.709569 0.000000
#
# Coordination Sequence:
#
# PCOD9221056 Si02
#       7
#     8   8   8   8   8   4   8
#     4  12  21  43  69 103 137 170 220 280 346 404
#     4  12  25  43  67  99 143 172 228 276 339 404
#     4  11  26  44  67 101 138 179 222 277 338 399
#     4  11  24  43  68  96 132 181 228 272 331 400
#     4  11  25  42  66  94 134 177 224 277 329 402
#     4  12  26  38  68 108 136 182 220 274 348 394
#     4  11  22  41  66 104 136 171 212 283 350 406
#
# _framework density 20.603511000000001
#
# number of rings (size 3 to 8) (size 9 to 14) (size 15 to 20)
#    0.000    0.615    6.154    1.846    2.154    2.769 
#    0.000    1.154    0.000    0.000    0.000    0.000 
#    0.000    0.000    0.000    0.000    0.000    0.000 
#
# Total GULP energy -145316.674634 kJ/mol
# GULP energy per Si atom -5589.102871 kJ/mol
# Density = 2.055662 g / cm^3
# Si number density = 20.603511 Si / 1000 Ang^3
#
#
#
# Elastic Constant Matrix: (Units=GPa)
#
#
# Indices 1 2 3 4 5 6 
#
# 1 109.8637 15.0445 20.2334 0.0000 -2.4842 0.0000
# 2 15.0445 40.8472 1.7758 0.0000 -5.8127 0.0000
# 3 20.2334 1.7758 124.8036 0.0000 -0.2318 0.0000
# 4 0.0000 0.0000 0.0000 30.4027 0.0000 -0.1308
# 5 -2.4842 -5.8127 -0.2318 0.0000 29.9049 0.0000
# 6 0.0000 0.0000 0.0000 -0.1308 0.0000 19.6292
#
#
#
# Elastic Compliance Matrix: (Units=1/GPa)
#
#
# Indices 1 2 3 4 5 6 
#
# 1 0.009877 -0.003554 -0.001551 0.000000 0.000118 0.000000
# 2 -0.003554 0.026472 0.000208 0.000000 0.004852 0.000000
# 3 -0.001551 0.000208 0.008261 0.000000 -0.000024 0.000000
# 4 0.000000 0.000000 0.000000 0.032893 0.000000 0.000219
# 5 0.000118 0.004852 -0.000024 0.000000 0.034392 0.000000
# 6 0.000000 0.000000 0.000000 0.000219 0.000000 0.050946
#
#
# Mechanical properties :
#
#
# Convention : Reuss Voigt Hill
#
# Bulk Modulus (GPa) = 28.72052 38.84686 33.78369
# Shear Modulus (GPa) = 27.13884 31.88474 29.51179
#
# Velocity S-wave (km/s) = 3.63326 3.93815 3.78877
# Velocity P-wave (km/s) = 5.61877 6.29079 5.96426
#
# Compressibility (1/GPa) = 0.03481831
#
# Stress axis : x y z
#
# Youngs Moduli (GPa) = 101.24493 37.77623 121.05142
#
# Poissons Ratio (x) = 0.13424 0.18769
# Poissons Ratio (y) = 0.35979 -0.02524
# Poissons Ratio (z) = 0.15698 -0.00788
#
# Static dielectric constant tensor:
#      x y z
#    x 1.721040 0.000000 -0.037310 
#    y 0.000000 1.702120 0.000000 
#    z -0.037310 0.000000 1.776940 
# 
# From -- ./inp_files/78082.got.cif
#   From: 2010.05.17/outbox.cif.g08.bks.cpg/sg12_40_cif.got.tgz:78082.got - 2010.06.03 13:09:07.
