data_PCOD9221964
_publ_section_title
;
Structure prediction by ZEFSAII (Michael W. Deem and Ramdas Pophale) SiO2 
 PCOD9221964
Probable space group: C 2/M
;
_chemical_formula_sum "Si O2"
_cell_formula_units_Z 42
_cell_length_a 13.665527
_cell_length_b 12.661248
_cell_length_c 13.881422
_cell_angle_alpha 90.000000
_cell_angle_beta 116.758401
_cell_angle_gamma 90.000000
_cell_volume 2144.598377
_symmetry_space_group_name_H-M "C 2/M"
_symmetry_group_IT_number 12
_symmetry_cell_setting 'monoclinic'
loop_
_space_group_symop_operation_xyz
x,y,z
-x,y,-z
-x,-y,-z
x,-y,z
1/2+x,1/2+y,z
1/2-x,1/2+y,-z
1/2-x,1/2-y,-z
1/2+x,1/2-y,z
loop_
_atom_site_type_symbol
_atom_site_label
_atom_site_fract_x
_atom_site_fract_y
_atom_site_fract_z
Si Si1 0.000000 0.000000 0.500000
Si Si2 0.677271 0.121502 0.563593
Si Si3 0.094044 0.821124 0.410465
Si Si4 0.653284 0.125588 0.152742
Si Si5 0.591045 0.874089 0.904706
Si Si6 0.862219 0.740549 0.263877
O O1 0.921023 0.093176 0.511932
O O2 0.808534 0.139480 0.614839
O O3 0.627166 0.206903 0.467647
O O4 0.634125 0.154775 0.649433
O O5 0.651373 0.000000 0.529813
O O6 0.973603 0.808426 0.312136
O O7 0.538342 0.153894 0.151708
O O8 0.757932 0.186152 0.237577
O O9 0.668341 0.000000 0.169695
O O10 0.636980 0.148187 0.031603
O O11 0.649183 0.814575 0.844258
O O12 0.598588 0.000000 0.894407
#
# Coordination Sequence:
#
# PCOD9221964 Si02
#       6
#     2   8   8   8   8   8
#     4  12  20  48  58  80 114 156 196 236 276 350
#     4  11  24  41  58  84 119 151 191 238 290 339
#     4  11  25  40  61  84 113 158 193 238 281 340
#     4   9  20  36  58  81 112 149 189 230 273 339
#     4   9  19  38  56  81 114 148 184 230 282 334
#     4  12  21  35  58  89 110 147 187 236 291 330
#
# _framework density 19.584087
#
# number of rings (size 3 to 8) (size 9 to 14) (size 15 to 20)
#    0.000    1.524    2.857    3.429    1.333    2.286 
#    0.000    1.905    0.000    0.000    0.000   12.000 
#    0.000    0.000    0.000    0.000    0.000    0.000 
#
# Total GULP energy -117047.224299 kJ/mol
# GULP energy per Si atom -5573.677348 kJ/mol
# Density = 1.953951 g / cm^3
# Si number density = 19.584087 Si / 1000 Ang^3
#
#
#
# Elastic Constant Matrix: (Units=GPa)
#
#
# Indices 1 2 3 4 5 6 
#
# 1 68.5977 15.4878 -3.5816 0.0000 5.6850 0.0000
# 2 15.4878 91.7534 15.1668 0.0000 9.9089 0.0000
# 3 -3.5816 15.1668 10.7758 0.0000 8.2115 0.0000
# 4 0.0000 0.0000 0.0000 14.1832 0.0000 5.7325
# 5 5.6850 9.9089 8.2115 0.0000 39.5897 0.0000
# 6 0.0000 0.0000 0.0000 5.7325 0.0000 18.3860
#
#
#
# Elastic Compliance Matrix: (Units=1/GPa)
#
#
# Indices 1 2 3 4 5 6 
#
# 1 0.016936 -0.005044 0.016177 0.000000 -0.004525 0.000000
# 2 -0.005044 0.015722 -0.025368 0.000000 0.002051 0.000000
# 3 0.016177 -0.025368 0.155371 0.000000 -0.028200 0.000000
# 4 0.000000 0.000000 0.000000 0.080672 0.000000 -0.025152
# 5 -0.004525 0.002051 -0.028200 0.000000 0.031245 0.000000
# 6 0.000000 0.000000 0.000000 -0.025152 0.000000 0.062231
#
#
# Mechanical properties :
#
#
# Convention : Reuss Voigt Hill
#
# Bulk Modulus (GPa) = 6.26727 25.03031 15.64879
# Shear Modulus (GPa) = 11.26548 24.03541 17.65044
#
# Velocity S-wave (km/s) = 2.40101 3.50707 3.00536
# Velocity P-wave (km/s) = 3.30055 5.40445 4.47782
#
# Compressibility (1/GPa) = 0.15955910
#
# Stress axis : x y z
#
# Youngs Moduli (GPa) = 59.04506 63.60506 6.43619
#
# Poissons Ratio (x) = 0.32083 -0.10412
# Poissons Ratio (y) = 0.29783 0.16327
# Poissons Ratio (z) = -0.95516 1.61353
#
# Static dielectric constant tensor:
#      x y z
#    x 1.686580 0.000000 0.004220 
#    y 0.000000 1.657930 0.000000 
#    z 0.004220 0.000000 1.699930 
# 
# From -- ./inp_files/212422.got.cif
#   From: 2010.05.17/outbox.cif.g08.bks.cpg/sg12_107_cif.got.tgz:212422.got - 2010.06.03 13:09:07.
