data_PCOD9221214
_publ_section_title
;
Structure prediction by ZEFSAII (Michael W. Deem and Ramdas Pophale) SiO2 
 PCOD9221214
Probable space group: C 2/M
;
_chemical_formula_sum "Si O2"
_cell_formula_units_Z 58
_cell_length_a 9.056803
_cell_length_b 27.956165
_cell_length_c 11.013629
_cell_angle_alpha 90.000000
_cell_angle_beta 93.210642
_cell_angle_gamma 90.000000
_cell_volume 2784.202031
_symmetry_space_group_name_H-M "C 2/M"
_symmetry_group_IT_number 12
_symmetry_cell_setting 'monoclinic'
loop_
_space_group_symop_operation_xyz
x,y,z
-x,y,-z
-x,-y,-z
x,-y,z
1/2+x,1/2+y,z
1/2-x,1/2+y,-z
1/2-x,1/2-y,-z
1/2+x,1/2-y,z
loop_
_atom_site_type_symbol
_atom_site_label
_atom_site_fract_x
_atom_site_fract_y
_atom_site_fract_z
Si Si1 0.038674 0.178712 0.127985
Si Si2 0.645633 0.555389 0.587628
Si Si3 0.819983 0.325678 0.268711
Si Si4 0.906162 0.658006 0.874872
Si Si5 0.649706 0.583235 0.865321
Si Si6 0.000000 0.000000 0.000000
Si Si7 0.324333 0.856780 0.516811
Si Si8 0.188688 0.215237 0.709156
O O1 0.211735 0.172939 0.149763
O O2 0.961653 0.127367 0.122892
O O3 0.972829 0.202783 0.245540
O O4 0.000000 0.204212 0.000000
O O5 0.500000 0.567460 0.500000
O O6 0.681485 0.500000 0.564160
O O7 0.618368 0.562101 0.729906
O O8 0.778509 0.591875 0.565927
O O9 0.758308 0.355227 0.378123
O O10 0.819410 0.271142 0.315227
O O11 0.976890 0.344058 0.229795
O O12 0.808729 0.609761 0.879281
O O13 0.795414 0.700379 0.827091
O O14 0.000000 0.667022 0.000000
O O15 0.616032 0.542093 0.959148
O O16 0.500000 0.848774 0.500000
O O17 0.247620 0.817079 0.600593
#
# Coordination Sequence:
#
# PCOD9221214 Si02
#       8
#     8   8   8   8   8   2   8   8
#     4  11  23  39  66  95 133 174 225 280 345 402
#     4  11  23  43  71 100 128 173 227 288 350 413
#     4  12  24  40  68  94 134 184 231 279 342 418
#     4  11  24  44  67  96 144 182 225 285 352 408
#     4  11  22  45  68 100 137 174 221 282 346 411
#     4  12  24  40  84 100 126 186 234 276 346 420
#     4  12  24  44  64  94 140 181 225 290 353 407
#     4  11  24  42  62  98 134 181 235 282 340 408
#
# _framework density 20.831823
#
# number of rings (size 3 to 8) (size 9 to 14) (size 15 to 20)
#    0.000    0.690    5.517    3.724    0.000    3.586 
#    0.000    0.345    0.000    0.000    0.000    0.000 
#    0.000    0.000    0.000    0.000    0.000    0.000 
#
# Total GULP energy -161650.873567 kJ/mol
# GULP energy per Si atom -5574.168054 kJ/mol
# Density = 2.078441 g / cm^3
# Si number density = 20.831823 Si / 1000 Ang^3
#
#
#
# Elastic Constant Matrix: (Units=GPa)
#
#
# Indices 1 2 3 4 5 6 
#
# 1 98.2750 29.3484 17.2217 0.0000 -21.2196 0.0000
# 2 29.3484 93.0103 8.1599 0.0000 -27.2968 0.0000
# 3 17.2217 8.1599 75.0591 0.0000 -12.4341 0.0000
# 4 0.0000 0.0000 0.0000 12.8845 0.0000 -5.8104
# 5 -21.2196 -27.2968 -12.4341 0.0000 36.3419 0.0000
# 6 0.0000 0.0000 0.0000 -5.8104 0.0000 22.1073
#
#
#
# Elastic Compliance Matrix: (Units=1/GPa)
#
#
# Indices 1 2 3 4 5 6 
#
# 1 0.012204 -0.002286 -0.001755 0.000000 0.004808 0.000000
# 2 -0.002286 0.014224 0.000559 0.000000 0.009540 0.000000
# 3 -0.001755 0.000559 0.014380 0.000000 0.004315 0.000000
# 4 0.000000 0.000000 0.000000 0.088048 0.000000 0.023141
# 5 0.004808 0.009540 0.004315 0.000000 0.038966 0.000000
# 6 0.000000 0.000000 0.000000 0.023141 0.000000 0.051316
#
#
# Mechanical properties :
#
#
# Convention : Reuss Voigt Hill
#
# Bulk Modulus (GPa) = 29.54860 41.75605 35.65232
# Shear Modulus (GPa) = 21.06308 28.37438 24.71873
#
# Velocity S-wave (km/s) = 3.18323 3.69463 3.44842
# Velocity P-wave (km/s) = 5.26553 6.18775 5.74517
#
# Compressibility (1/GPa) = 0.03384255
#
# Stress axis : x y z
#
# Youngs Moduli (GPa) = 81.94100 70.30618 69.54320
#
# Poissons Ratio (x) = 0.16069 0.12205
# Poissons Ratio (y) = 0.18729 -0.03884
# Poissons Ratio (z) = 0.14381 -0.03927
#
# Static dielectric constant tensor:
#      x y z
#    x 1.769060 0.000000 0.019400 
#    y 0.000000 1.684450 0.000000 
#    z 0.019400 0.000000 1.823280 
# 
# From -- ./inp_files/124317.got.cif
#   From: 2010.05.17/outbox.cif.g08.bks.cpg/sg12_63_cif.got.tgz:124317.got - 2010.06.03 13:09:07.
