data_PCOD9221519
_publ_section_title
;
Structure prediction by ZEFSAII (Michael W. Deem and Ramdas Pophale) SiO2 
 PCOD9221519
Probable space group: C 2/M
;
_chemical_formula_sum "Si O2"
_cell_formula_units_Z 50
_cell_length_a 14.956787
_cell_length_b 16.169192
_cell_length_c 27.488194
_cell_angle_alpha 90.000000
_cell_angle_beta 22.709622
_cell_angle_gamma 90.000000
_cell_volume 2566.425873
_symmetry_space_group_name_H-M "C 2/M"
_symmetry_group_IT_number 12
_symmetry_cell_setting 'monoclinic'
loop_
_space_group_symop_operation_xyz
x,y,z
-x,y,-z
-x,-y,-z
x,-y,z
1/2+x,1/2+y,z
1/2-x,1/2+y,-z
1/2-x,1/2-y,-z
1/2+x,1/2-y,z
loop_
_atom_site_type_symbol
_atom_site_label
_atom_site_fract_x
_atom_site_fract_y
_atom_site_fract_z
Si Si1 0.105086 0.194228 0.129471
Si Si2 0.408437 0.764280 0.132589
Si Si3 0.770850 0.900714 0.372351
Si Si4 0.909623 0.829687 0.407478
Si Si5 0.694286 0.403454 0.439831
Si Si6 0.678218 0.159486 0.163291
Si Si7 0.500000 0.500000 0.000000
O O1 0.122085 0.285905 0.144334
O O2 0.997055 0.202362 0.130257
O O3 0.944573 0.140257 0.245600
O O4 0.378641 0.174092 0.986650
O O5 0.329905 0.713847 0.124588
O O6 0.178065 0.806365 0.268160
O O7 0.500000 0.879220 0.500000
O O8 0.834929 0.868070 0.393620
O O9 0.792582 0.000000 0.358836
O O10 0.750000 0.750000 0.500000
O O11 0.880228 0.890925 0.467406
O O12 0.500000 0.371075 0.500000
O O13 0.728948 0.500000 0.411808
O O14 0.934012 0.357083 0.311538
O O15 0.804192 0.073453 0.090399
#
# Coordination Sequence:
#
# PCOD9221519 Si02
#       7
#     8   8   8   8   8   8   2
#     4  11  23  43  67  94 130 171 216 269 331 395
#     4  11  23  40  67  96 124 172 223 264 321 408
#     4  11  25  44  66  97 133 173 223 278 326 393
#     4  12  22  39  66  93 126 172 218 264 326 388
#     4  11  24  40  60  93 128 167 209 268 333 383
#     4  12  22  43  69  93 135 166 219 274 328 398
#     4  12  24  40  70 104 126 176 212 276 342 384
#
# _framework density 19.482348000000002
#
# number of rings (size 3 to 8) (size 9 to 14) (size 15 to 20)
#    0.000    0.640    5.600    2.400    0.000    1.280 
#    1.440    2.400    0.000    0.000    0.000    0.000 
#    0.000    0.000    0.000    0.000    0.000    0.000 
#
# Total GULP energy -139408.532527 kJ/mol
# GULP energy per Si atom -5576.341301 kJ/mol
# Density = 1.943801 g / cm^3
# Si number density = 19.482348 Si / 1000 Ang^3
#
#
#
# Elastic Constant Matrix: (Units=GPa)
#
#
# Indices 1 2 3 4 5 6 
#
# 1 110.4785 9.9567 46.8866 -0.0049 -1.1026 -0.0090
# 2 9.9567 45.9947 40.2024 -0.0087 -0.7667 0.0048
# 3 46.8866 40.2024 186.2227 0.0200 -2.9207 -0.0357
# 4 -0.0049 -0.0087 0.0200 34.5083 -0.0301 5.3882
# 5 -1.1026 -0.7667 -2.9207 -0.0301 36.7480 -0.0105
# 6 -0.0090 0.0048 -0.0357 5.3882 -0.0105 17.4142
#
#
#
# Elastic Compliance Matrix: (Units=1/GPa)
#
#
# Indices 1 2 3 4 5 6 
#
# 1 0.010135 0.000045 -0.002560 0.000003 0.000102 -0.000001
# 2 0.000045 0.026799 -0.005795 0.000014 0.000100 -0.000024
# 3 -0.002560 -0.005795 0.007272 -0.000009 0.000380 0.000018
# 4 0.000003 0.000014 -0.000009 0.030450 0.000022 -0.009422
# 5 0.000102 0.000100 0.000380 0.000022 0.027248 0.000010
# 6 -0.000001 -0.000024 0.000018 -0.009422 0.000010 0.060340
#
#
# Mechanical properties :
#
#
# Convention : Reuss Voigt Hill
#
# Bulk Modulus (GPa) = 36.25090 59.64303 47.94697
# Shear Modulus (GPa) = 26.58761 34.11078 30.34920
#
# Velocity S-wave (km/s) = 3.69820 4.18886 3.95115
# Velocity P-wave (km/s) = 6.07314 7.35362 6.74384
#
# Compressibility (1/GPa) = 0.02758552
#
# Stress axis : x y z
#
# Youngs Moduli (GPa) = 98.66913 37.31487 137.52295
#
# Poissons Ratio (x) = -0.00169 0.35205
# Poissons Ratio (y) = -0.00447 0.79698
# Poissons Ratio (z) = 0.25258 0.21625
#
# Static dielectric constant tensor:
#      x y z
#    x 1.663370 0.000010 0.003220 
#    y 0.000010 1.661060 0.000000 
#    z 0.003220 0.000000 1.742160 
# 
# From -- ./inp_files/376868.got.cif
#   From: 2010.05.17/outbox.cif.g08.bks.cpg/sg12_189_cif.got.tgz:376868.got - 2010.06.03 13:09:07.
