data_PCOD9221006
_publ_section_title
;
Structure prediction by ZEFSAII (Michael W. Deem and Ramdas Pophale) SiO2 
 PCOD9221006
Probable space group: C 2/M
;
_chemical_formula_sum "Si O2"
_cell_formula_units_Z 28
_cell_length_a 22.531552
_cell_length_b 10.232522
_cell_length_c 5.901655
_cell_angle_alpha 90.000000
_cell_angle_beta 125.371656
_cell_angle_gamma 90.000000
_cell_volume 1109.496449
_symmetry_space_group_name_H-M "C 2/M"
_symmetry_group_IT_number 12
_symmetry_cell_setting 'monoclinic'
loop_
_space_group_symop_operation_xyz
x,y,z
-x,y,-z
-x,-y,-z
x,-y,z
1/2+x,1/2+y,z
1/2-x,1/2+y,-z
1/2-x,1/2-y,-z
1/2+x,1/2-y,z
loop_
_atom_site_type_symbol
_atom_site_label
_atom_site_fract_x
_atom_site_fract_y
_atom_site_fract_z
Si Si1 0.861260 0.773753 0.351165
Si Si2 0.332636 0.500000 0.620886
Si Si3 0.079181 0.000000 0.803746
Si Si4 0.567855 0.000000 0.979982
Si Si5 0.805475 0.500000 0.371611
Si Si6 0.000000 0.694457 0.500000
O O1 0.819765 0.635046 0.265428
O O2 0.947594 0.748779 0.581750
O O3 0.826354 0.869755 0.457750
O O4 0.875928 0.871099 0.172338
O O5 0.270916 0.500000 0.672783
O O6 0.413114 0.500000 0.911030
O O7 0.000000 0.000000 0.500000
O O8 0.558370 0.882548 0.781258
O O9 0.500000 0.000000 0.000000
O O10 0.636968 0.000000 0.292826
#
# Coordination Sequence:
#
# PCOD9221006 Si02
#       6
#     8   4   4   4   4   4
#     4  11  25  47  71 105 138 181 235 289 344 413
#     4  11  29  49  65 101 146 192 224 277 360 418
#     4  11  26  47  71 102 140 186 231 283 349 415
#     4  11  22  40  68 108 139 172 227 296 351 392
#     4  12  25  47  73 101 142 182 232 291 345 417
#     4  11  22  41  68 110 130 174 234 292 344 396
#
# _framework density 25.236671000000001
#
# number of rings (size 3 to 8) (size 9 to 14) (size 15 to 20)
#    0.000    0.857    4.286    1.714    4.000    5.714 
#   10.286    0.000    0.000    0.000    0.000    0.000 
#    0.000    0.000    0.000    0.000    0.000    0.000 
#
# Total GULP energy -77980.427741 kJ/mol
# GULP energy per Si atom -5570.030553 kJ/mol
# Density = 2.517923 g / cm^3
# Si number density = 25.236671 Si / 1000 Ang^3
#
#
#
# Elastic Constant Matrix: (Units=GPa)
#
#
# Indices 1 2 3 4 5 6 
#
# 1 157.8501 49.1920 -13.1275 0.0000 0.3343 0.0000
# 2 49.1920 207.6899 8.2703 0.0000 -13.0002 0.0000
# 3 -13.1275 8.2703 84.9031 0.0000 20.1396 0.0000
# 4 0.0000 0.0000 0.0000 24.6206 0.0000 -15.7158
# 5 0.3343 -13.0002 20.1396 0.0000 28.6415 0.0000
# 6 0.0000 0.0000 0.0000 -15.7158 0.0000 53.0245
#
#
#
# Elastic Compliance Matrix: (Units=1/GPa)
#
#
# Indices 1 2 3 4 5 6 
#
# 1 0.007077 -0.001886 0.001801 0.000000 -0.002205 0.000000
# 2 -0.001886 0.005566 -0.001726 0.000000 0.003762 0.000000
# 3 0.001801 -0.001726 0.014901 0.000000 -0.011282 0.000000
# 4 0.000000 0.000000 0.000000 0.050093 0.000000 0.014847
# 5 -0.002205 0.003762 -0.011282 0.000000 0.044581 0.000000
# 6 0.000000 0.000000 0.000000 0.014847 0.000000 0.023260
#
#
# Mechanical properties :
#
#
# Convention : Reuss Voigt Hill
#
# Bulk Modulus (GPa) = 41.80279 59.90143 50.85211
# Shear Modulus (GPa) = 31.83204 48.33120 40.08162
#
# Velocity S-wave (km/s) = 3.55539 4.38095 3.98958
# Velocity P-wave (km/s) = 5.78400 7.02693 6.43554
#
# Compressibility (1/GPa) = 0.02392185
#
# Stress axis : x y z
#
# Youngs Moduli (GPa) = 141.29614 179.66852 67.10964
#
# Poissons Ratio (x) = 0.33886 -0.12087
# Poissons Ratio (y) = 0.26649 0.11584
# Poissons Ratio (z) = -0.25448 0.31014
#
# Static dielectric constant tensor:
#      x y z
#    x 2.005020 0.000000 0.084520 
#    y 0.000000 2.231120 0.000000 
#    z 0.084520 0.000000 2.136370 
# 
# From -- ./inp_files/19004.got.cif
#   From: 2010.05.17/outbox.cif.g08.bks.cpg/sg12_10_cif.got.tgz:19004.got - 2010.06.03 13:09:07.
