data_PCOD9221212
_publ_section_title
;
Structure prediction by ZEFSAII (Michael W. Deem and Ramdas Pophale) SiO2 
 PCOD9221212
Probable space group: C 2/M
;
_chemical_formula_sum "Si O2"
_cell_formula_units_Z 58
_cell_length_a 18.751134
_cell_length_b 12.548948
_cell_length_c 20.433054
_cell_angle_alpha 90.000000
_cell_angle_beta 140.656351
_cell_angle_gamma 90.000000
_cell_volume 3048.154627
_symmetry_space_group_name_H-M "C 2/M"
_symmetry_group_IT_number 12
_symmetry_cell_setting 'monoclinic'
loop_
_space_group_symop_operation_xyz
x,y,z
-x,y,-z
-x,-y,-z
x,-y,z
1/2+x,1/2+y,z
1/2-x,1/2+y,-z
1/2-x,1/2-y,-z
1/2+x,1/2-y,z
loop_
_atom_site_type_symbol
_atom_site_label
_atom_site_fract_x
_atom_site_fract_y
_atom_site_fract_z
Si Si1 0.659271 0.812555 0.081900
Si Si2 0.081636 0.378581 0.620457
Si Si3 0.000000 0.500000 0.000000
Si Si4 0.692239 0.255401 0.248174
Si Si5 0.264796 0.126981 0.588522
Si Si6 0.544033 0.624994 0.929200
Si Si7 0.883873 0.874806 0.166610
Si Si8 0.562406 0.749685 0.377919
O O1 0.689203 0.814621 0.179977
O O2 0.769436 0.831076 0.116728
O O3 0.569051 0.905956 0.008620
O O4 0.606147 0.698495 0.026229
O O5 0.094503 0.500000 0.652501
O O6 0.200346 0.331347 0.682781
O O7 0.000000 0.377472 0.500000
O O8 0.023838 0.307745 0.634974
O O9 0.705977 0.182703 0.321847
O O10 0.579404 0.325663 0.170056
O O11 0.358732 0.165312 0.603248
O O12 0.146402 0.173194 0.477978
O O13 0.261758 0.000000 0.592075
O O14 0.538882 0.500000 0.942595
O O15 0.609715 0.636682 0.906977
O O16 0.989810 0.815785 0.274124
O O17 0.891355 0.000000 0.187345
#
# Coordination Sequence:
#
# PCOD9221212 Si02
#       8
#     8   8   2   8   8   8   8   8
#     4  12  25  43  69  93 131 171 217 273 331 392
#     4  11  23  40  64  94 128 169 213 265 321 384
#     4  12  24  44  66  96 126 176 210 270 332 384
#     4  12  23  42  66  94 129 167 214 270 325 390
#     4  11  25  41  66  98 132 173 218 268 322 394
#     4  11  25  45  66  95 128 172 221 275 327 390
#     4  11  23  42  69  95 129 170 215 266 328 390
#     4  11  22  45  65  94 134 171 218 263 322 392
#
# _framework density 19.027906000000002
#
# number of rings (size 3 to 8) (size 9 to 14) (size 15 to 20)
#    0.000    0.690    6.207    1.655    0.966    1.655 
#    0.000    0.690    0.000    0.000    0.000    0.000 
#    0.000    0.000    0.000    0.000    0.000    0.000 
#
# Total GULP energy -161872.374914 kJ/mol
# GULP energy per Si atom -5581.806032 kJ/mol
# Density = 1.898460 g / cm^3
# Si number density = 19.027906 Si / 1000 Ang^3
#
#
#
# Elastic Constant Matrix: (Units=GPa)
#
#
# Indices 1 2 3 4 5 6 
#
# 1 96.6275 28.9663 17.5765 0.0000 9.5451 0.0000
# 2 28.9663 120.5504 24.8750 0.0000 -2.9151 0.0000
# 3 17.5765 24.8750 52.3602 0.0000 -1.5172 0.0000
# 4 0.0000 0.0000 0.0000 9.6540 0.0000 -6.1967
# 5 9.5451 -2.9151 -1.5172 0.0000 38.0982 0.0000
# 6 0.0000 0.0000 0.0000 -6.1967 0.0000 31.0515
#
#
#
# Elastic Compliance Matrix: (Units=1/GPa)
#
#
# Indices 1 2 3 4 5 6 
#
# 1 0.011914 -0.002325 -0.002990 0.000000 -0.003282 0.000000
# 2 -0.002325 0.009661 -0.003775 0.000000 0.001171 0.000000
# 3 -0.002990 -0.003775 0.021934 0.000000 0.001334 0.000000
# 4 0.000000 0.000000 0.000000 0.118802 0.000000 0.023708
# 5 -0.003282 0.001171 0.001334 0.000000 0.027213 0.000000
# 6 0.000000 0.000000 0.000000 0.023708 0.000000 0.036936
#
#
# Mechanical properties :
#
#
# Convention : Reuss Voigt Hill
#
# Bulk Modulus (GPa) = 39.48048 45.81929 42.64989
# Shear Modulus (GPa) = 19.75625 28.96876 24.36250
#
# Velocity S-wave (km/s) = 3.22573 3.90607 3.58209
# Velocity P-wave (km/s) = 5.88791 6.66900 6.29059
#
# Compressibility (1/GPa) = 0.02532897
#
# Stress axis : x y z
#
# Youngs Moduli (GPa) = 83.93429 103.50525 45.59063
#
# Poissons Ratio (x) = 0.24067 0.13631
# Poissons Ratio (y) = 0.19516 0.17212
# Poissons Ratio (z) = 0.25095 0.39077
#
# Static dielectric constant tensor:
#      x y z
#    x 1.658750 0.000000 0.004490 
#    y 0.000000 1.631980 0.000000 
#    z 0.004490 0.000000 1.662010 
# 
# From -- ./inp_files/315969.got.cif
#   From: 2010.05.17/outbox.cif.g08.bks.cpg/sg12_158_cif.got.tgz:315969.got - 2010.06.03 13:09:07.
