data_PCOD9221657
_publ_section_title
;
Structure prediction by ZEFSAII (Michael W. Deem and Ramdas Pophale) SiO2 
 PCOD9221657
Probable space group: C 2/M
;
_chemical_formula_sum "Si O2"
_cell_formula_units_Z 64
_cell_length_a 11.509262
_cell_length_b 25.407932
_cell_length_c 9.335366
_cell_angle_alpha 90.000000
_cell_angle_beta 107.321560
_cell_angle_gamma 90.000000
_cell_volume 2606.104283
_symmetry_space_group_name_H-M "C 2/M"
_symmetry_group_IT_number 12
_symmetry_cell_setting 'monoclinic'
loop_
_space_group_symop_operation_xyz
x,y,z
-x,y,-z
-x,-y,-z
x,-y,z
1/2+x,1/2+y,z
1/2-x,1/2+y,-z
1/2-x,1/2-y,-z
1/2+x,1/2-y,z
loop_
_atom_site_type_symbol
_atom_site_label
_atom_site_fract_x
_atom_site_fract_y
_atom_site_fract_z
Si Si1 0.353330 0.189385 0.321979
Si Si2 0.640787 0.330156 0.033003
Si Si3 0.859297 0.582829 0.460201
Si Si4 0.180746 0.443653 0.230151
Si Si5 0.347543 0.440224 0.834192
Si Si6 0.551588 0.584957 0.670675
Si Si7 0.324440 0.696587 0.277216
Si Si8 0.557859 0.165271 0.166724
O O1 0.224595 0.189340 0.192403
O O2 0.348302 0.146308 0.444222
O O3 0.377841 0.250101 0.360900
O O4 0.453722 0.167911 0.247355
O O5 0.654359 0.393854 0.049164
O O6 0.500000 0.317991 0.000000
O O7 0.680088 0.305096 0.898070
O O8 0.813769 0.562900 0.595433
O O9 0.778808 0.562025 0.300019
O O10 0.000000 0.568270 0.500000
O O11 0.127523 0.500000 0.171920
O O12 0.321385 0.441074 0.237955
O O13 0.103012 0.394141 0.150211
O O14 0.367743 0.500000 0.891158
O O15 0.449835 0.423426 0.754477
O O16 0.500000 0.564987 0.500000
O O17 0.593582 0.645572 0.660740
O O18 0.182644 0.691648 0.265053
O O19 0.500000 0.187987 0.000000
#
# Coordination Sequence:
#
# PCOD9221657 Si02
#       8
#     8   8   8   8   8   8   8   8
#     4  11  25  42  67  95 128 171 211 272 327 381
#     4  11  23  42  64  97 131 161 222 265 313 392
#     4  11  23  43  63  96 131 163 220 269 313 394
#     4  11  24  43  69  94 129 176 216 268 326 380
#     4  11  24  41  68  97 131 173 212 271 328 375
#     4  11  23  43  63  97 131 167 222 264 316 399
#     4  11  25  42  67  93 128 175 209 268 328 379
#     4  11  24  44  64  96 131 167 225 264 317 397
#
# _framework density 24.557728999999998
#
# number of rings (size 3 to 8) (size 9 to 14) (size 15 to 20)
#    0.000    1.000    5.000    1.125    1.750    2.500 
#    0.000    1.875    0.000    0.000    0.000    0.000 
#    0.000    0.000    0.000    0.000    0.000    0.000 
#
# Total GULP energy -179237.486213 kJ/mol
# GULP energy per Si atom -5601.171444 kJ/mol
# Density = 2.450183 g / cm^3
# Si number density = 24.557729 Si / 1000 Ang^3
#
#
#
# Elastic Constant Matrix: (Units=GPa)
#
#
# Indices 1 2 3 4 5 6 
#
# 1 133.5788 25.0705 27.9461 0.0000 25.1036 0.0000
# 2 25.0705 170.8560 -5.1345 0.0000 7.7252 0.0000
# 3 27.9461 -5.1345 70.1840 0.0000 17.3852 0.0000
# 4 0.0000 0.0000 0.0000 15.7172 0.0000 -23.3289
# 5 25.1036 7.7252 17.3852 0.0000 37.9253 0.0000
# 6 0.0000 0.0000 0.0000 -23.3289 0.0000 -7.1807
#
#
#
# Elastic Compliance Matrix: (Units=1/GPa)
#
#
# Indices 1 2 3 4 5 6 
#
# 1 0.009118 -0.001207 -0.002577 0.000000 -0.004608 0.000000
# 2 -0.001207 0.006110 0.001171 0.000000 -0.000982 0.000000
# 3 -0.002577 0.001171 0.016918 0.000000 -0.006288 0.000000
# 4 0.000000 0.000000 0.000000 0.010928 0.000000 -0.035503
# 5 -0.004608 -0.000982 -0.006288 0.000000 0.032500 0.000000
# 6 0.000000 0.000000 0.000000 -0.035503 0.000000 -0.023919
#
#
# Mechanical properties :
#
#
# Convention : Reuss Voigt Hill
#
# Bulk Modulus (GPa) = 37.14977 52.26477 44.70727
# Shear Modulus (GPa) = 75.92542 31.07482 53.50012
#
# Velocity S-wave (km/s) = 5.56635 3.56107 4.67255
# Velocity P-wave (km/s) = 7.51483 6.18360 6.88148
#
# Compressibility (1/GPa) = 0.02691807
#
# Stress axis : x y z
#
# Youngs Moduli (GPa) = 109.67338 163.67694 59.10958
#
# Poissons Ratio (x) = 0.19756 0.15235
# Poissons Ratio (y) = 0.13238 -0.06921
# Poissons Ratio (z) = 0.28268 -0.19165
#
# Static dielectric constant tensor:
#      x y z
#    x 1.934930 0.000000 -0.000520 
#    y 0.000000 2.001930 0.000000 
#    z -0.000520 0.000000 1.911080 
# 
# From -- ./inp_files/136003.got.cif
#   From: 2010.05.17/outbox.cif.g08.bks.cpg/sg12_69_cif.got.tgz:136003.got - 2010.06.03 13:09:07.
