data_PCOD9221872
_publ_section_title
;
Structure prediction by ZEFSAII (Michael W. Deem and Ramdas Pophale) SiO2 
 PCOD9221872
Probable space group: C 2/M
;
_chemical_formula_sum "Si O2"
_cell_formula_units_Z 48
_cell_length_a 18.855210
_cell_length_b 28.809355
_cell_length_c 9.711625
_cell_angle_alpha 90.000000
_cell_angle_beta 25.495941
_cell_angle_gamma 90.000000
_cell_volume 2270.788332
_symmetry_space_group_name_H-M "C 2/M"
_symmetry_group_IT_number 12
_symmetry_cell_setting 'monoclinic'
loop_
_space_group_symop_operation_xyz
x,y,z
-x,y,-z
-x,-y,-z
x,-y,z
1/2+x,1/2+y,z
1/2-x,1/2+y,-z
1/2-x,1/2-y,-z
1/2+x,1/2-y,z
loop_
_atom_site_type_symbol
_atom_site_label
_atom_site_fract_x
_atom_site_fract_y
_atom_site_fract_z
Si Si1 0.156447 0.500000 0.899333
Si Si2 0.309877 0.685382 0.808055
Si Si3 0.129203 0.080239 0.381196
Si Si4 0.898383 0.905412 0.047514
Si Si5 0.266452 0.000000 0.554411
Si Si6 0.753442 0.312257 0.771878
Si Si7 0.044823 0.730250 0.080516
O O1 0.220908 0.545986 0.859724
O O2 0.239652 0.500000 0.601308
O O3 0.961069 0.500000 0.238948
O O4 0.500000 0.700709 0.500000
O O5 0.317874 0.630399 0.766835
O O6 0.221160 0.694285 0.109386
O O7 0.209912 0.707319 0.856811
O O8 0.000000 0.059466 0.500000
O O9 0.028119 0.086919 0.698431
O O10 0.816002 0.953883 0.238236
O O11 0.771116 0.866214 0.220758
O O12 0.000000 0.887273 0.000000
O O13 0.897545 0.289990 0.429668
O O14 0.585120 0.284704 0.028664
O O15 0.000000 0.720805 0.000000
#
# Coordination Sequence:
#
# PCOD9221872 Si02
#       7
#     4   8   8   8   4   8   8
#     4  11  24  45  72 105 150 173 242 302 363 425
#     4  11  24  48  73 105 145 195 242 294 369 433
#     4  11  23  45  73 101 141 190 242 290 358 435
#     4  12  24  45  74 103 144 189 245 292 362 440
#     4  11  26  44  70 112 142 190 229 300 372 424
#     4  12  26  47  73 107 148 194 243 303 365 435
#     4  12  28  46  75 108 146 188 250 304 367 426
#
# _framework density 21.138031999999999
#
# number of rings (size 3 to 8) (size 9 to 14) (size 15 to 20)
#    0.000    0.500    5.000    4.000    4.667    0.000 
#    0.000    1.667    0.000    0.000    0.000    0.000 
#    0.000    0.000    0.000    0.000    0.000    0.000 
#
# Total GULP energy -134259.476346 kJ/mol
# GULP energy per Si atom -5594.144848 kJ/mol
# Density = 2.108992 g / cm^3
# Si number density = 21.138032 Si / 1000 Ang^3
#
#
#
# Elastic Constant Matrix: (Units=GPa)
#
#
# Indices 1 2 3 4 5 6 
#
# 1 159.9622 32.4008 36.3729 -0.0052 11.3916 -0.0051
# 2 32.4008 107.2897 27.7258 -0.0043 -8.4453 -0.0038
# 3 36.3729 27.7258 93.5349 -0.0191 12.3554 -0.0166
# 4 -0.0052 -0.0043 -0.0191 43.6074 0.0116 16.6426
# 5 11.3916 -8.4453 12.3554 0.0116 28.7720 0.0098
# 6 -0.0051 -0.0038 -0.0166 16.6426 0.0098 44.4946
#
#
#
# Elastic Compliance Matrix: (Units=1/GPa)
#
#
# Indices 1 2 3 4 5 6 
#
# 1 0.007258 -0.001903 -0.001914 0.000000 -0.002610 0.000000
# 2 -0.001903 0.011175 -0.003292 -0.000002 0.005447 -0.000001
# 3 -0.001914 -0.003292 0.013187 0.000005 -0.005871 0.000004
# 4 0.000000 -0.000002 0.000005 0.026751 -0.000010 -0.010006
# 5 -0.002610 0.005447 -0.005871 -0.000010 0.039910 -0.000007
# 6 0.000000 -0.000001 0.000004 -0.010006 -0.000007 0.026217
#
#
# Mechanical properties :
#
#
# Convention : Reuss Voigt Hill
#
# Bulk Modulus (GPa) = 57.46268 61.53177 59.49722
# Shear Modulus (GPa) = 34.59870 40.99395 37.79633
#
# Velocity S-wave (km/s) = 4.05013 4.40858 4.23315
# Velocity P-wave (km/s) = 7.00820 7.42205 7.21809
#
# Compressibility (1/GPa) = 0.01740260
#
# Stress axis : x y z
#
# Youngs Moduli (GPa) = 137.78083 89.48804 75.83395
#
# Poissons Ratio (x) = 0.17028 0.14511
# Poissons Ratio (y) = 0.26217 0.24964
# Poissons Ratio (z) = 0.26365 0.29459
#
# Static dielectric constant tensor:
#      x y z
#    x 1.756540 0.000000 -0.011500 
#    y 0.000000 1.766030 0.000000 
#    z -0.011500 0.000000 1.741380 
# 
# From -- ./inp_files/80662.got.cif
#   From: 2010.05.17/outbox.cif.g08.bks.cpg/sg12_41_cif.got.tgz:80662.got - 2010.06.03 13:09:07.
