data_PCOD9221255
_publ_section_title
;
Structure prediction by ZEFSAII (Michael W. Deem and Ramdas Pophale) SiO2 
 PCOD9221255
Probable space group: C 2/M
;
_chemical_formula_sum "Si O2"
_cell_formula_units_Z 40
_cell_length_a 16.976919
_cell_length_b 19.237560
_cell_length_c 14.446802
_cell_angle_alpha 90.000000
_cell_angle_beta 23.439601
_cell_angle_gamma 90.000000
_cell_volume 1876.833906
_symmetry_space_group_name_H-M "C 2/M"
_symmetry_group_IT_number 12
_symmetry_cell_setting 'monoclinic'
loop_
_space_group_symop_operation_xyz
x,y,z
-x,y,-z
-x,-y,-z
x,-y,z
1/2+x,1/2+y,z
1/2-x,1/2+y,-z
1/2-x,1/2-y,-z
1/2+x,1/2-y,z
loop_
_atom_site_type_symbol
_atom_site_label
_atom_site_fract_x
_atom_site_fract_y
_atom_site_fract_z
Si Si1 0.903791 0.819899 0.736001
Si Si2 0.833152 0.581204 0.754315
Si Si3 0.658286 0.176069 0.751628
Si Si4 0.059314 0.581051 0.148207
Si Si5 0.921386 0.204524 0.935307
O O1 0.766599 0.756643 0.849467
O O2 0.116326 0.829832 0.461674
O O3 0.764772 0.887608 0.887474
O O4 0.950005 0.802727 0.794418
O O5 0.781369 0.500000 0.799376
O O6 0.924443 0.590528 0.758830
O O7 0.644084 0.631203 0.953228
O O8 0.000000 0.599350 0.500000
O O9 0.610458 0.127732 0.714891
O O10 0.500000 0.154531 0.000000
O O11 0.604090 0.255320 0.783443
O O12 0.034448 0.500000 0.154421
#
# Coordination Sequence:
#
# PCOD9221255 Si02
#       5
#     8   8   8   8   8
#     4   9  19  37  57  80 110 150 194 232 280 329
#     4   9  18  34  60  86 109 145 187 228 283 339
#     4  11  23  35  54  88 115 146 192 233 277 337
#     4   9  20  39  59  82 114 152 188 230 283 335
#     4   9  19  35  57  79 110 152 187 234 277 331
#
# _framework density 21.312488999999999
#
# number of rings (size 3 to 8) (size 9 to 14) (size 15 to 20)
#    0.000    2.600    0.000    1.800    2.800    3.600 
#    0.000    1.000    0.000    1.800    0.000    0.000 
#    0.000    0.000    0.000    0.000    0.000    0.000 
#
# Total GULP energy -111781.310458 kJ/mol
# GULP energy per Si atom -5589.065523 kJ/mol
# Density = 2.126398 g / cm^3
# Si number density = 21.312489 Si / 1000 Ang^3
#
#
#
# Elastic Constant Matrix: (Units=GPa)
#
#
# Indices 1 2 3 4 5 6 
#
# 1 55.7859 28.2967 26.9844 -0.0117 -11.3736 0.0153
# 2 28.2967 88.4352 20.4365 -0.0014 -0.2558 0.0110
# 3 26.9844 20.4365 105.3575 -0.0067 -9.9388 0.0286
# 4 -0.0117 -0.0014 -0.0067 18.1777 0.0135 -0.1560
# 5 -11.3736 -0.2558 -9.9388 0.0135 31.0450 -0.0112
# 6 0.0153 0.0110 0.0286 -0.1560 -0.0112 18.8846
#
#
#
# Elastic Compliance Matrix: (Units=1/GPa)
#
#
# Indices 1 2 3 4 5 6 
#
# 1 0.025181 -0.007029 -0.004353 0.000008 0.007774 -0.000005
# 2 -0.007029 0.013813 -0.001146 -0.000002 -0.002828 -0.000002
# 3 -0.004353 -0.001146 0.011010 0.000000 0.001921 -0.000011
# 4 0.000008 -0.000002 0.000000 0.055016 -0.000021 0.000454
# 5 0.007774 -0.002828 0.001921 -0.000021 0.035651 0.000013
# 6 -0.000005 -0.000002 -0.000011 0.000454 0.000013 0.052957
#
#
# Mechanical properties :
#
#
# Convention : Reuss Voigt Hill
#
# Bulk Modulus (GPa) = 40.08122 44.55710 42.31916
# Shear Modulus (GPa) = 22.02638 25.21221 23.61930
#
# Velocity S-wave (km/s) = 3.21829 3.44318 3.33263
# Velocity P-wave (km/s) = 5.71464 6.06294 5.89137
#
# Compressibility (1/GPa) = 0.02494934
#
# Stress axis : x y z
#
# Youngs Moduli (GPa) = 39.71175 72.39340 90.82825
#
# Poissons Ratio (x) = 0.50885 0.39535
# Poissons Ratio (y) = 0.27913 0.10408
# Poissons Ratio (z) = 0.17286 0.08296
#
# Static dielectric constant tensor:
#      x y z
#    x 1.817650 -0.000010 0.031460 
#    y -0.000010 1.748070 0.000010 
#    z 0.031460 0.000010 1.772120 
# 
# From -- ./inp_files/21117.got.cif
#   From: 2010.05.17/outbox.cif.g08.bks.cpg/sg12_11_cif.got.tgz:21117.got - 2010.06.03 13:09:07.
