data_PCOD9221882
_publ_section_title
;
Structure prediction by ZEFSAII (Michael W. Deem and Ramdas Pophale) SiO2 
 PCOD9221882
Probable space group: C 2/M
;
_chemical_formula_sum "Si O2"
_cell_formula_units_Z 48
_cell_length_a 12.129964
_cell_length_b 21.672590
_cell_length_c 8.661283
_cell_angle_alpha 90.000000
_cell_angle_beta 74.589475
_cell_angle_gamma 90.000000
_cell_volume 2195.081180
_symmetry_space_group_name_H-M "C 2/M"
_symmetry_group_IT_number 12
_symmetry_cell_setting 'monoclinic'
loop_
_space_group_symop_operation_xyz
x,y,z
-x,y,-z
-x,-y,-z
x,-y,z
1/2+x,1/2+y,z
1/2-x,1/2+y,-z
1/2-x,1/2-y,-z
1/2+x,1/2-y,z
loop_
_atom_site_type_symbol
_atom_site_label
_atom_site_fract_x
_atom_site_fract_y
_atom_site_fract_z
Si Si1 0.208573 0.752528 0.836010
Si Si2 0.109879 0.343413 0.367239
Si Si3 0.717418 0.624031 0.212869
Si Si4 0.706413 0.427928 0.549666
Si Si5 0.973722 0.144609 0.173487
Si Si6 0.895633 0.569807 0.918898
O O1 0.306303 0.787655 0.704389
O O2 0.200446 0.682299 0.783978
O O3 0.095707 0.793292 0.846837
O O4 0.250000 0.750000 0.000000
O O5 0.178293 0.393710 0.441949
O O6 0.083578 0.379519 0.219051
O O7 0.000000 0.321926 0.500000
O O8 0.695226 0.583696 0.371605
O O9 0.596544 0.652626 0.205663
O O10 0.779410 0.586579 0.053645
O O11 0.708831 0.500000 0.582376
O O12 0.606340 0.394933 0.684262
O O13 0.000000 0.112183 0.000000
O O14 0.888235 0.500000 0.858739
O O15 0.000000 0.571334 0.000000
#
# Coordination Sequence:
#
# PCOD9221882 Si02
#       6
#     8   8   8   8   8   8
#     4  11  23  46  69 100 136 178 225 286 345 414
#     4  11  24  43  69 101 132 182 229 281 346 409
#     4  12  24  43  70 100 135 179 230 285 342 413
#     4  11  26  45  66  98 141 181 227 286 343 407
#     4  11  24  43  69 101 134 178 232 280 346 410
#     4  11  24  42  68 101 137 182 233 284 341 408
#
# _framework density 21.867072
#
# number of rings (size 3 to 8) (size 9 to 14) (size 15 to 20)
#    0.000    0.833    3.333    3.500    0.000   12.333 
#    0.000    0.000    0.000    0.000    0.000    0.000 
#    0.000    0.000    0.000    0.000    0.000    0.000 
#
# Total GULP energy -134304.838496 kJ/mol
# GULP energy per Si atom -5596.034937 kJ/mol
# Density = 2.181730 g / cm^3
# Si number density = 21.867072 Si / 1000 Ang^3
#
#
#
# Elastic Constant Matrix: (Units=GPa)
#
#
# Indices 1 2 3 4 5 6 
#
# 1 98.2454 -5.4328 15.2694 0.0000 -11.0365 0.0000
# 2 -5.4328 56.9513 -10.7167 0.0000 -3.7579 0.0000
# 3 15.2694 -10.7167 94.7603 0.0000 -19.2458 0.0000
# 4 0.0000 0.0000 0.0000 13.9981 0.0000 4.0328
# 5 -11.0365 -3.7579 -19.2458 0.0000 39.9432 0.0000
# 6 0.0000 0.0000 0.0000 4.0328 0.0000 12.9521
#
#
#
# Elastic Compliance Matrix: (Units=1/GPa)
#
#
# Indices 1 2 3 4 5 6 
#
# 1 0.010686 0.000978 -0.001101 0.000000 0.002514 0.000000
# 2 0.000978 0.018350 0.002575 0.000000 0.003238 0.000000
# 3 -0.001101 0.002575 0.012203 0.000000 0.005818 0.000000
# 4 0.000000 0.000000 0.000000 0.078478 0.000000 -0.024435
# 5 0.002514 0.003238 0.005818 0.000000 0.028838 0.000000
# 6 0.000000 0.000000 0.000000 -0.024435 0.000000 0.084815
#
#
# Mechanical properties :
#
#
# Convention : Reuss Voigt Hill
#
# Bulk Modulus (GPa) = 21.67070 27.57742 24.62406
# Shear Modulus (GPa) = 20.50462 30.10116 25.30289
#
# Velocity S-wave (km/s) = 3.06550 3.71422 3.40534
# Velocity P-wave (km/s) = 4.73935 5.57069 5.17175
#
# Compressibility (1/GPa) = 0.04614527
#
# Stress axis : x y z
#
# Youngs Moduli (GPa) = 93.57862 54.49477 81.94589
#
# Poissons Ratio (x) = -0.05331 0.09019
# Poissons Ratio (y) = -0.09154 -0.21103
# Poissons Ratio (z) = 0.10300 -0.14034
#
# Static dielectric constant tensor:
#      x y z
#    x 1.815590 0.000000 0.017510 
#    y 0.000000 1.764510 0.000000 
#    z 0.017510 0.000000 1.810580 
# 
# From -- ./inp_files/51319.got.cif
#   From: 2010.05.17/outbox.cif.g08.bks.cpg/sg12_26_cif.got.tgz:51319.got - 2010.06.03 13:09:07.
