data_PCOD9221599
_publ_section_title
;
Structure prediction by ZEFSAII (Michael W. Deem and Ramdas Pophale) SiO2 
 PCOD9221599
Probable space group: C 2/M
;
_chemical_formula_sum "Si O2"
_cell_formula_units_Z 48
_cell_length_a 11.881483
_cell_length_b 15.244781
_cell_length_c 27.722702
_cell_angle_alpha 90.000000
_cell_angle_beta 151.445252
_cell_angle_gamma 90.000000
_cell_volume 2400.234822
_symmetry_space_group_name_H-M "C 2/M"
_symmetry_group_IT_number 12
_symmetry_cell_setting 'monoclinic'
loop_
_space_group_symop_operation_xyz
x,y,z
-x,y,-z
-x,-y,-z
x,-y,z
1/2+x,1/2+y,z
1/2-x,1/2+y,-z
1/2-x,1/2-y,-z
1/2+x,1/2-y,z
loop_
_atom_site_type_symbol
_atom_site_label
_atom_site_fract_x
_atom_site_fract_y
_atom_site_fract_z
Si Si1 0.390957 0.000000 0.101919
Si Si2 0.528533 0.838073 0.709975
Si Si3 0.583457 0.653130 0.221623
Si Si4 0.260296 0.000000 0.940163
Si Si5 0.766842 0.681125 0.110214
Si Si6 0.795987 0.000000 0.384643
Si Si7 0.562128 0.500000 0.672588
Si Si8 0.721910 0.655363 0.385388
O O1 0.309275 0.087286 0.100231
O O2 0.674635 0.000000 0.206695
O O3 0.298351 0.000000 0.012220
O O4 0.685851 0.860243 0.723483
O O5 0.701654 0.822995 0.820347
O O6 0.374481 0.752599 0.640472
O O7 0.361938 0.915245 0.665328
O O8 0.389389 0.584046 0.132034
O O9 0.466744 0.749142 0.169770
O O10 0.655583 0.640466 0.304362
O O11 0.500000 0.000000 0.000000
O O12 0.500000 0.710717 0.000000
O O13 0.000000 0.000000 0.500000
O O14 0.899286 0.000000 0.370036
O O15 0.419077 0.584695 0.636278
O O16 0.000000 0.648811 0.500000
#
# Coordination Sequence:
#
# PCOD9221599 Si02
#       8
#     4   8   8   4   8   4   4   8
#     4  12  23  42  68  92 136 177 222 273 339 399
#     4  11  24  45  68 101 140 174 232 279 334 409
#     4  11  25  43  66  99 139 171 229 280 335 401
#     4  12  25  41  65  97 129 180 221 279 338 401
#     4  11  23  41  66  99 132 181 222 272 339 400
#     4  12  27  45  71 102 134 183 227 286 341 396
#     4  12  25  46  70 100 139 176 231 277 338 414
#     4  11  26  44  72 100 134 183 224 282 347 397
#
# _framework density 19.998042999999999
#
# number of rings (size 3 to 8) (size 9 to 14) (size 15 to 20)
#    0.000    0.667    1.667    5.500    4.667    6.000 
#    0.000    0.000    0.000    0.000    0.000    0.000 
#    0.000    0.000    0.000    0.000    0.000    0.000 
#
# Total GULP energy -134298.449359 kJ/mol
# GULP energy per Si atom -5595.768723 kJ/mol
# Density = 1.995253 g / cm^3
# Si number density = 19.998043 Si / 1000 Ang^3
#
#
#
# Elastic Constant Matrix: (Units=GPa)
#
#
# Indices 1 2 3 4 5 6 
#
# 1 162.8778 70.4404 54.5707 -0.0001 7.6068 0.0002
# 2 70.4404 125.2330 38.3056 -0.0002 -9.5374 0.0007
# 3 54.5707 38.3056 145.1130 0.0006 3.2561 0.0004
# 4 -0.0001 -0.0002 0.0006 33.7026 -0.0001 -8.9651
# 5 7.6068 -9.5374 3.2561 -0.0001 24.3259 0.0009
# 6 0.0002 0.0007 0.0004 -8.9651 0.0009 43.3389
#
#
#
# Elastic Compliance Matrix: (Units=1/GPa)
#
#
# Indices 1 2 3 4 5 6 
#
# 1 0.009135 -0.004852 -0.002054 0.000000 -0.004484 0.000000
# 2 -0.004852 0.011613 -0.001381 0.000000 0.006255 0.000000
# 3 -0.002054 -0.001381 0.008050 0.000000 -0.000977 0.000000
# 4 0.000000 0.000000 0.000000 0.031399 0.000000 0.006495
# 5 -0.004484 0.006255 -0.000977 0.000000 0.045094 -0.000001
# 6 0.000000 0.000000 0.000000 0.006495 -0.000001 0.024418
#
#
# Mechanical properties :
#
#
# Convention : Reuss Voigt Hill
#
# Bulk Modulus (GPa) = 81.80399 84.42858 83.11628
# Shear Modulus (GPa) = 33.25402 38.26729 35.76065
#
# Velocity S-wave (km/s) = 4.08225 4.37916 4.23331
# Velocity P-wave (km/s) = 7.95075 8.23890 8.09611
#
# Compressibility (1/GPa) = 0.01222434
#
# Stress axis : x y z
#
# Youngs Moduli (GPa) = 109.46441 86.11111 124.22048
#
# Poissons Ratio (x) = 0.41778 0.25517
# Poissons Ratio (y) = 0.53108 0.17159
# Poissons Ratio (z) = 0.22485 0.11895
#
# Static dielectric constant tensor:
#      x y z
#    x 1.672220 0.000000 -0.013310 
#    y 0.000000 1.716970 0.000000 
#    z -0.013310 0.000000 1.647810 
# 
# From -- ./inp_files/358378.got.cif
#   From: 2010.05.17/outbox.cif.g08.bks.cpg/sg12_180_cif.got.tgz:358378.got - 2010.06.03 13:09:07.
