data_PCOD9221755
_publ_section_title
;
Structure prediction by ZEFSAII (Michael W. Deem and Ramdas Pophale) SiO2 
 PCOD9221755
Probable space group: C 2/M
;
_chemical_formula_sum "Si O2"
_cell_formula_units_Z 32
_cell_length_a 14.262122
_cell_length_b 16.029599
_cell_length_c 10.709066
_cell_angle_alpha 90.000000
_cell_angle_beta 143.869260
_cell_angle_gamma 90.000000
_cell_volume 1443.569852
_symmetry_space_group_name_H-M "C 2/M"
_symmetry_group_IT_number 12
_symmetry_cell_setting 'monoclinic'
loop_
_space_group_symop_operation_xyz
x,y,z
-x,y,-z
-x,-y,-z
x,-y,z
1/2+x,1/2+y,z
1/2-x,1/2+y,-z
1/2-x,1/2-y,-z
1/2+x,1/2-y,z
loop_
_atom_site_type_symbol
_atom_site_label
_atom_site_fract_x
_atom_site_fract_y
_atom_site_fract_z
Si Si1 0.164572 0.823849 0.234367
Si Si2 0.392890 0.500000 0.190034
Si Si3 0.755855 0.000000 0.317325
Si Si4 0.711998 0.840020 0.899186
Si Si5 0.614668 0.143910 0.309468
O O1 0.284670 0.823789 0.246002
O O2 0.248238 0.868822 0.439083
O O3 0.125258 0.733726 0.253368
O O4 0.000000 0.856791 0.000000
O O5 0.300748 0.500000 0.222218
O O6 0.577749 0.500000 0.426835
O O7 0.336342 0.414733 0.061827
O O8 0.652657 0.078816 0.244026
O O9 0.547575 0.865570 0.788238
O O10 0.750000 0.750000 0.000000
#
# Coordination Sequence:
#
# PCOD9221755 Si02
#       5
#     8   4   4   8   8
#     4  11  23  43  68 102 136 183 229 282 343 412
#     4  11  27  44  71 106 137 185 231 289 352 412
#     4  11  25  46  67 102 143 175 237 293 341 417
#     4  12  24  44  71 102 141 182 232 284 348 412
#     4  11  25  43  70 101 139 182 232 283 350 410
#
# _framework density 22.167269000000001
#
# number of rings (size 3 to 8) (size 9 to 14) (size 15 to 20)
#    0.000    0.750    2.500    4.500    3.500    2.000 
#    0.000    5.000    0.000    0.000    0.000    0.000 
#    0.000    0.000    0.000    0.000    0.000    0.000 
#
# Total GULP energy -89440.173058 kJ/mol
# GULP energy per Si atom -5590.010816 kJ/mol
# Density = 2.211681 g / cm^3
# Si number density = 22.167269 Si / 1000 Ang^3
#
#
#
# Elastic Constant Matrix: (Units=GPa)
#
#
# Indices 1 2 3 4 5 6 
#
# 1 178.3379 13.5758 32.1449 0.0000 -2.6643 0.0000
# 2 13.5758 53.6870 24.0293 0.0000 -3.0079 0.0000
# 3 32.1449 24.0293 121.0936 0.0000 -2.7260 0.0000
# 4 0.0000 0.0000 0.0000 1203.8311 0.0000 -237.4202
# 5 -2.6643 -3.0079 -2.7260 0.0000 42.0345 0.0000
# 6 0.0000 0.0000 0.0000 -237.4202 0.0000 87.4438
#
#
#
# Elastic Compliance Matrix: (Units=1/GPa)
#
#
# Indices 1 2 3 4 5 6 
#
# 1 0.005928 -0.000861 -0.001398 0.000000 0.000223 0.000000
# 2 -0.000861 0.020628 -0.003838 0.000000 0.001173 0.000000
# 3 -0.001398 -0.003838 0.009396 0.000000 0.000246 0.000000
# 4 0.000000 0.000000 0.000000 0.001788 0.000000 0.004855
# 5 0.000223 0.001173 0.000246 0.000000 0.023904 0.000000
# 6 0.000000 0.000000 0.000000 0.004855 0.000000 0.024619
#
#
# Mechanical properties :
#
#
# Convention : Reuss Voigt Hill
#
# Bulk Modulus (GPa) = 42.09073 54.73541 48.41307
# Shear Modulus (GPa) = 47.00271 285.55309 166.27790
#
# Velocity S-wave (km/s) = 4.60974 11.36209 8.67026
# Velocity P-wave (km/s) = 6.88200 14.03122 11.05072
#
# Compressibility (1/GPa) = 0.02375820
#
# Stress axis : x y z
#
# Youngs Moduli (GPa) = 168.68649 48.47812 106.42446
#
# Poissons Ratio (x) = 0.04173 0.14876
# Poissons Ratio (y) = 0.14522 0.40850
# Poissons Ratio (z) = 0.23579 0.18608
#
# Static dielectric constant tensor:
#      x y z
#    x 1.784980 0.000000 0.029550 
#    y 0.000000 1.742090 0.000000 
#    z 0.029550 0.000000 1.842180 
# 
# From -- ./inp_files/143418.got.cif
#   From: 2010.05.17/outbox.cif.g08.bks.cpg/sg12_72_cif.got.tgz:143418.got - 2010.06.03 13:09:07.
