data_PCOD9221547
_publ_section_title
;
Structure prediction by ZEFSAII (Michael W. Deem and Ramdas Pophale) SiO2 
 PCOD9221547
Probable space group: C 2/M
;
_chemical_formula_sum "Si O2"
_cell_formula_units_Z 40
_cell_length_a 18.594446
_cell_length_b 24.770348
_cell_length_c 9.842331
_cell_angle_alpha 90.000000
_cell_angle_beta 151.757720
_cell_angle_gamma 90.000000
_cell_volume 2145.156325
_symmetry_space_group_name_H-M "C 2/M"
_symmetry_group_IT_number 12
_symmetry_cell_setting 'monoclinic'
loop_
_space_group_symop_operation_xyz
x,y,z
-x,y,-z
-x,-y,-z
x,-y,z
1/2+x,1/2+y,z
1/2-x,1/2+y,-z
1/2-x,1/2-y,-z
1/2+x,1/2-y,z
loop_
_atom_site_type_symbol
_atom_site_label
_atom_site_fract_x
_atom_site_fract_y
_atom_site_fract_z
Si Si1 0.843216 0.560926 0.910162
Si Si2 0.834839 0.732075 0.278593
Si Si3 0.605527 0.654192 0.057512
Si Si4 0.103888 0.149790 0.541473
Si Si5 0.305304 0.939373 0.520281
O O1 0.798051 0.500000 0.878768
O O2 0.744587 0.610280 0.798931
O O3 0.820027 0.562914 0.708249
O O4 0.020739 0.568099 0.238794
O O5 0.730090 0.691806 0.190521
O O6 0.855842 0.786867 0.400586
O O7 0.000000 0.712004 0.500000
O O8 0.750000 0.750000 0.000000
O O9 0.694689 0.605178 0.276397
O O10 0.500000 0.680445 0.000000
O O11 0.491439 0.634462 0.750100
O O12 0.000000 0.145352 0.500000
O O13 0.255243 0.000000 0.400353
#
# Coordination Sequence:
#
# PCOD9221547 Si02
#       5
#     8   8   8   8   8
#     4   9  19  39  62  91 126 162 203 250 312 371
#     4  11  24  46  64  86 129 173 201 248 324 378
#     4  12  24  40  65 100 122 157 218 262 300 366
#     4  11  23  41  62  89 126 166 206 249 318 375
#     4   9  20  38  63  91 125 163 199 254 317 364
#
# _framework density 18.646660000000001
#
# number of rings (size 3 to 8) (size 9 to 14) (size 15 to 20)
#    0.000    1.600    6.000    1.200    2.800    2.400 
#    3.600    0.000    0.000    3.000    0.000    0.000 
#    0.000    0.000    0.000    0.000    0.000    0.000 
#
# Total GULP energy -111549.367825 kJ/mol
# GULP energy per Si atom -5577.468391 kJ/mol
# Density = 1.860422 g / cm^3
# Si number density = 18.646660 Si / 1000 Ang^3
#
#
#
# Elastic Constant Matrix: (Units=GPa)
#
#
# Indices 1 2 3 4 5 6 
#
# 1 91.2214 44.8024 23.2537 0.0000 19.9097 0.0000
# 2 44.8024 85.6684 22.6708 0.0000 22.8885 0.0000
# 3 23.2537 22.6708 76.7920 0.0000 -1.3464 0.0000
# 4 0.0000 0.0000 0.0000 15.0893 0.0000 24.6982
# 5 19.9097 22.8885 -1.3464 0.0000 35.0578 0.0000
# 6 0.0000 0.0000 0.0000 24.6982 0.0000 -18.2229
#
#
#
# Elastic Compliance Matrix: (Units=1/GPa)
#
#
# Indices 1 2 3 4 5 6 
#
# 1 0.015874 -0.006108 -0.003094 0.000000 -0.005146 0.000000
# 2 -0.006108 0.018099 -0.003642 0.000000 -0.008487 0.000000
# 3 -0.003094 -0.003642 0.015117 0.000000 0.004716 0.000000
# 4 0.000000 0.000000 0.000000 0.020591 0.000000 0.027908
# 5 -0.005146 -0.008487 0.004716 0.000000 0.037169 0.000000
# 6 0.000000 0.000000 0.000000 0.027908 0.000000 -0.017051
#
#
# Mechanical properties :
#
#
# Convention : Reuss Voigt Hill
#
# Bulk Modulus (GPa) = 42.73273 48.34839 45.54056
# Shear Modulus (GPa) = 40.55504 17.24850 28.90177
#
# Velocity S-wave (km/s) = 4.66867 3.04471 3.94124
# Velocity P-wave (km/s) = 7.21310 6.19236 6.72213
#
# Compressibility (1/GPa) = 0.02340127
#
# Stress axis : x y z
#
# Youngs Moduli (GPa) = 62.99563 55.25220 66.15044
#
# Poissons Ratio (x) = 0.33749 0.20466
# Poissons Ratio (y) = 0.38478 0.24094
# Poissons Ratio (z) = 0.19490 0.20125
#
# Static dielectric constant tensor:
#      x y z
#    x 1.657670 0.000000 0.019800 
#    y 0.000000 1.665850 0.000000 
#    z 0.019800 0.000000 1.654890 
# 
# From -- ./inp_files/41426.got.cif
#   From: 2010.05.17/outbox.cif.g08.bks.cpg/sg12_21_cif.got.tgz:41426.got - 2010.06.03 13:09:07.
