data_PCOD9221997
_publ_section_title
;
Structure prediction by ZEFSAII (Michael W. Deem and Ramdas Pophale) SiO2 
 PCOD9221997
Probable space group: C 2/M
;
_chemical_formula_sum "Si O2"
_cell_formula_units_Z 32
_cell_length_a 13.608257
_cell_length_b 21.781814
_cell_length_c 10.035883
_cell_angle_alpha 90.000000
_cell_angle_beta 151.610012
_cell_angle_gamma 90.000000
_cell_volume 1414.411260
_symmetry_space_group_name_H-M "C 2/M"
_symmetry_group_IT_number 12
_symmetry_cell_setting 'monoclinic'
loop_
_space_group_symop_operation_xyz
x,y,z
-x,y,-z
-x,-y,-z
x,-y,z
1/2+x,1/2+y,z
1/2-x,1/2+y,-z
1/2-x,1/2-y,-z
1/2+x,1/2-y,z
loop_
_atom_site_type_symbol
_atom_site_label
_atom_site_fract_x
_atom_site_fract_y
_atom_site_fract_z
Si Si1 0.179118 0.571425 0.126028
Si Si2 0.450255 0.430042 0.218907
Si Si3 0.857550 0.827880 0.711845
Si Si4 0.485289 0.243819 0.328258
O O1 0.117115 0.500000 0.023802
O O2 0.367188 0.568508 0.454107
O O3 0.260433 0.596648 0.081554
O O4 0.000000 0.602453 0.000000
O O5 0.400760 0.500000 0.122830
O O6 0.538996 0.392756 0.200906
O O7 0.619143 0.818866 0.468022
O O8 0.891836 0.792203 0.614935
O O9 0.000000 0.800486 0.000000
O O10 0.500000 0.259775 0.500000
O O11 0.250000 0.250000 0.000000
#
# Coordination Sequence:
#
# PCOD9221997 Si02
#       4
#     8   8   8   8
#     4   8  15  31  53  83 122 167 218 264 303 369
#     4   9  19  35  57  90 132 172 213 260 321 395
#     4  11  24  41  65  97 132 171 220 275 335 401
#     4  11  24  46  70  94 128 171 224 284 341 392
#
# _framework density 22.624254000000001
#
# number of rings (size 3 to 8) (size 9 to 14) (size 15 to 20)
#    0.000    2.250    2.500    1.500    3.500    2.500 
#    0.000    0.000    0.000    0.750    0.000    0.000 
#    0.000    0.000    0.000    0.000    0.000    0.000 
#
# Total GULP energy -89169.700711 kJ/mol
# GULP energy per Si atom -5573.106294 kJ/mol
# Density = 2.257276 g / cm^3
# Si number density = 22.624254 Si / 1000 Ang^3
#
#
#
# Elastic Constant Matrix: (Units=GPa)
#
#
# Indices 1 2 3 4 5 6 
#
# 1 148.2162 46.2982 72.2189 0.0000 -4.9822 0.0000
# 2 46.2982 48.5001 12.6468 0.0000 0.8756 0.0000
# 3 72.2189 12.6468 109.3357 0.0000 9.3612 0.0000
# 4 0.0000 0.0000 0.0000 15.4525 0.0000 1.8861
# 5 -4.9822 0.8756 9.3612 0.0000 45.7979 0.0000
# 6 0.0000 0.0000 0.0000 1.8861 0.0000 32.9604
#
#
#
# Elastic Compliance Matrix: (Units=1/GPa)
#
#
# Indices 1 2 3 4 5 6 
#
# 1 0.014877 -0.011986 -0.008752 0.000000 0.003637 0.000000
# 2 -0.011986 0.030916 0.004583 0.000000 -0.002832 0.000000
# 3 -0.008752 0.004583 0.014744 0.000000 -0.004053 0.000000
# 4 0.000000 0.000000 0.000000 0.065170 0.000000 -0.003729
# 5 0.003637 -0.002832 -0.004053 0.000000 0.023113 0.000000
# 6 0.000000 0.000000 0.000000 -0.003729 0.000000 0.030553
#
#
# Mechanical properties :
#
#
# Convention : Reuss Voigt Hill
#
# Bulk Modulus (GPa) = 35.42491 63.15332 49.28912
# Shear Modulus (GPa) = 22.61507 30.50136 26.55821
#
# Velocity S-wave (km/s) = 3.16507 3.67573 3.42991
# Velocity P-wave (km/s) = 5.38969 6.78154 6.12528
#
# Compressibility (1/GPa) = 0.02822872
#
# Stress axis : x y z
#
# Youngs Moduli (GPa) = 67.21571 32.34580 67.82450
#
# Poissons Ratio (x) = 0.38768 0.59360
# Poissons Ratio (y) = 0.80562 -0.31085
# Poissons Ratio (z) = 0.58827 -0.14825
#
# Static dielectric constant tensor:
#      x y z
#    x 1.904660 0.000000 0.054130 
#    y 0.000000 1.986510 0.000000 
#    z 0.054130 0.000000 1.869440 
# 
# From -- ./inp_files/51106.got.cif
#   From: 2010.05.17/outbox.cif.g08.bks.cpg/sg12_26_cif.got.tgz:51106.got - 2010.06.03 13:09:07.
