data_PCOD9221175
_publ_section_title
;
Structure prediction by ZEFSAII (Michael W. Deem and Ramdas Pophale) SiO2 
 PCOD9221175
Probable space group: C 2/M
;
_chemical_formula_sum "Si O2"
_cell_formula_units_Z 44
_cell_length_a 17.242791
_cell_length_b 23.540827
_cell_length_c 6.633015
_cell_angle_alpha 90.000000
_cell_angle_beta 53.924292
_cell_angle_gamma 90.000000
_cell_volume 2176.107736
_symmetry_space_group_name_H-M "C 2/M"
_symmetry_group_IT_number 12
_symmetry_cell_setting 'monoclinic'
loop_
_space_group_symop_operation_xyz
x,y,z
-x,y,-z
-x,-y,-z
x,-y,z
1/2+x,1/2+y,z
1/2-x,1/2+y,-z
1/2-x,1/2-y,-z
1/2+x,1/2-y,z
loop_
_atom_site_type_symbol
_atom_site_label
_atom_site_fract_x
_atom_site_fract_y
_atom_site_fract_z
Si Si1 0.567120 0.000000 0.708296
Si Si2 0.391355 0.500000 0.081817
Si Si3 0.713432 0.287242 0.242343
Si Si4 0.587854 0.117862 0.487356
Si Si5 0.397377 0.218173 0.251383
Si Si6 0.241550 0.000000 0.333716
Si Si7 0.288091 0.405632 0.955192
O O1 0.555556 0.944513 0.596031
O O2 0.669763 0.000000 0.653599
O O3 0.500000 0.000000 0.000000
O O4 0.340876 0.500000 0.375686
O O5 0.355746 0.444512 0.001576
O O6 0.500000 0.500000 0.000000
O O7 0.635678 0.258089 0.510436
O O8 0.810244 0.287791 0.228282
O O9 0.750000 0.250000 0.000000
O O10 0.677136 0.346954 0.202611
O O11 0.500000 0.145121 0.500000
O O12 0.595596 0.155018 0.673067
O O13 0.690174 0.112155 0.220998
O O14 0.500000 0.235446 0.000000
O O15 0.238753 0.053400 0.189048
#
# Coordination Sequence:
#
# PCOD9221175 Si02
#       7
#     4   4   8   8   8   4   8
#     4  12  21  34  59 104 137 172 218 260 336 417
#     4  11  26  48  73  96 138 183 240 302 359 406
#     4  11  24  45  71  98 143 182 239 291 350 417
#     4  12  22  39  66 100 142 179 222 276 345 429
#     4  11  25  43  69 102 140 188 228 287 353 417
#     4  11  22  43  69  96 138 173 221 291 343 410
#     4  11  23  43  71 100 134 184 230 292 354 417
#
# _framework density 20.219587000000001
#
# number of rings (size 3 to 8) (size 9 to 14) (size 15 to 20)
#    0.000    0.727    3.636    4.636    0.000    1.455 
#    0.000    5.455    0.000    0.000    0.000    0.000 
#    0.000    0.000    0.000    0.000    0.000    0.000 
#
# Total GULP energy -122708.462639 kJ/mol
# GULP energy per Si atom -5577.657393 kJ/mol
# Density = 2.017357 g / cm^3
# Si number density = 20.219587 Si / 1000 Ang^3
#
#
#
# Elastic Constant Matrix: (Units=GPa)
#
#
# Indices 1 2 3 4 5 6 
#
# 1 112.0779 12.0921 48.2950 0.0000 -6.0719 0.0000
# 2 12.0921 109.5536 33.1018 0.0000 4.3742 0.0000
# 3 48.2950 33.1018 133.3785 0.0000 -16.7826 0.0000
# 4 0.0000 0.0000 0.0000 40.3858 0.0000 21.8171
# 5 -6.0719 4.3742 -16.7826 0.0000 44.0024 0.0000
# 6 0.0000 0.0000 0.0000 21.8171 0.0000 4.6453
#
#
#
# Elastic Compliance Matrix: (Units=1/GPa)
#
#
# Indices 1 2 3 4 5 6 
#
# 1 0.010572 -0.000011 -0.003825 0.000000 0.000001 0.000000
# 2 -0.000011 0.010040 -0.002745 0.000000 -0.002047 0.000000
# 3 -0.003825 -0.002745 0.010012 0.000000 0.003564 0.000000
# 4 0.000000 0.000000 0.000000 -0.016108 0.000000 0.075653
# 5 0.000001 -0.002047 0.003564 0.000000 0.024289 0.000000
# 6 0.000000 0.000000 0.000000 0.075653 0.000000 -0.140043
#
#
# Mechanical properties :
#
#
# Convention : Reuss Voigt Hill
#
# Bulk Modulus (GPa) = 57.26914 60.22086 58.74500
# Shear Modulus (GPa) = -60.78743 35.24144 -12.77299
#
# Velocity S-wave (km/s) = -5.48898 4.17938 -2.51612
# Velocity P-wave (km/s) = 3.43319 7.28956 4.54703
#
# Compressibility (1/GPa) = 0.01746141
#
# Stress axis : x y z
#
# Youngs Moduli (GPa) = 94.59065 99.59759 99.87789
#
# Poissons Ratio (x) = 0.00111 0.38204
# Poissons Ratio (y) = 0.00106 0.27420
# Poissons Ratio (z) = 0.36181 0.27343
#
# Static dielectric constant tensor:
#      x y z
#    x 1.703050 0.000000 0.017270 
#    y 0.000000 1.744620 0.000000 
#    z 0.017270 0.000000 1.732880 
# 
# From -- ./inp_files/16848.got.cif
#   From: 2010.05.17/outbox.cif.g08.bks.cpg/sg12_9_cif.got.tgz:16848.got - 2010.06.03 13:09:07.
