data_PCOD9221555
_publ_section_title
;
Structure prediction by ZEFSAII (Michael W. Deem and Ramdas Pophale) SiO2 
 PCOD9221555
Probable space group: C 2/M
;
_chemical_formula_sum "Si O2"
_cell_formula_units_Z 56
_cell_length_a 9.261951
_cell_length_b 22.642937
_cell_length_c 13.919714
_cell_angle_alpha 90.000000
_cell_angle_beta 71.219896
_cell_angle_gamma 90.000000
_cell_volume 2763.795845
_symmetry_space_group_name_H-M "C 2/M"
_symmetry_group_IT_number 12
_symmetry_cell_setting 'monoclinic'
loop_
_space_group_symop_operation_xyz
x,y,z
-x,y,-z
-x,-y,-z
x,-y,z
1/2+x,1/2+y,z
1/2-x,1/2+y,-z
1/2-x,1/2-y,-z
1/2+x,1/2-y,z
loop_
_atom_site_type_symbol
_atom_site_label
_atom_site_fract_x
_atom_site_fract_y
_atom_site_fract_z
Si Si1 0.048100 0.433564 0.600168
Si Si2 0.473468 0.802922 0.893215
Si Si3 0.016243 0.931607 0.385925
Si Si4 0.376729 0.677268 0.104509
Si Si5 0.736949 0.610104 0.696409
Si Si6 0.776912 0.650450 0.303250
Si Si7 0.665774 0.767313 0.421716
O O1 0.110612 0.500000 0.598672
O O2 0.155728 0.382221 0.616580
O O3 0.000000 0.425920 0.500000
O O4 0.888278 0.425886 0.689196
O O5 0.542116 0.736413 0.870895
O O6 0.294070 0.807367 0.901211
O O7 0.583648 0.840425 0.799788
O O8 0.500000 0.818849 0.000000
O O9 0.142094 0.893570 0.303045
O O10 0.000000 0.910025 0.500000
O O11 0.859740 0.923744 0.362611
O O12 0.058073 0.000000 0.380642
O O13 0.354430 0.628119 0.189847
O O14 0.500000 0.656959 0.000000
O O15 0.784367 0.672908 0.640028
O O16 0.697486 0.712830 0.343452
O O17 0.500000 0.774200 0.500000
O O18 0.750000 0.750000 0.500000
#
# Coordination Sequence:
#
# PCOD9221555 Si02
#       7
#     8   8   8   8   8   8   8
#     4  11  23  41  64  90 125 172 223 264 306 380
#     4  11  24  42  66  97 132 169 215 265 329 400
#     4  11  25  43  64  94 132 181 228 266 311 380
#     4  11  24  42  67  97 130 170 216 265 329 401
#     4  12  23  40  66  93 131 169 217 267 328 385
#     4  12  23  40  65  94 131 172 213 265 328 389
#     4  12  24  36  57  92 135 166 199 254 328 388
#
# _framework density 20.261990000000001
#
# number of rings (size 3 to 8) (size 9 to 14) (size 15 to 20)
#    0.000    0.571    2.857    7.714    4.000    2.286 
#    0.000    0.000    0.000    5.143    0.000    0.000 
#    0.000    0.000    0.000    0.000    0.000    0.000 
#
# Total GULP energy -156488.564362 kJ/mol
# GULP energy per Si atom -5588.877299 kJ/mol
# Density = 2.021587 g / cm^3
# Si number density = 20.261990 Si / 1000 Ang^3
#
#
#
# Elastic Constant Matrix: (Units=GPa)
#
#
# Indices 1 2 3 4 5 6 
#
# 1 61.9161 -0.8276 -2.3261 0.0000 -13.2834 0.0000
# 2 -0.8276 82.1209 26.0902 0.0000 -5.5538 0.0000
# 3 -2.3261 26.0902 101.6029 0.0000 -22.5869 0.0000
# 4 0.0000 0.0000 0.0000 9.0226 0.0000 6.0395
# 5 -13.2834 -5.5538 -22.5869 0.0000 35.3491 0.0000
# 6 0.0000 0.0000 0.0000 6.0395 0.0000 -33.7230
#
#
#
# Elastic Compliance Matrix: (Units=1/GPa)
#
#
# Indices 1 2 3 4 5 6 
#
# 1 0.017991 0.000028 0.002225 0.000000 0.008187 0.000000
# 2 0.000028 0.013259 -0.003425 0.000000 -0.000095 0.000000
# 3 0.002225 -0.003425 0.012633 0.000000 0.008370 0.000000
# 4 0.000000 0.000000 0.000000 0.098968 0.000000 0.017724
# 5 0.008187 -0.000095 0.008370 0.000000 0.036699 0.000000
# 6 0.000000 0.000000 0.000000 0.017724 0.000000 -0.026479
#
#
# Mechanical properties :
#
#
# Convention : Reuss Voigt Hill
#
# Bulk Modulus (GPa) = 24.07380 32.39033 28.23206
# Shear Modulus (GPa) = 29.53976 16.97663 23.25819
#
# Velocity S-wave (km/s) = 3.82238 2.89771 3.39170
# Velocity P-wave (km/s) = 5.60248 5.21691 5.41313
#
# Compressibility (1/GPa) = 0.04153894
#
# Stress axis : x y z
#
# Youngs Moduli (GPa) = 55.58289 75.41909 79.15492
#
# Poissons Ratio (x) = -0.00213 -0.17608
# Poissons Ratio (y) = -0.00157 0.27112
# Poissons Ratio (z) = -0.12365 0.25833
#
# Static dielectric constant tensor:
#      x y z
#    x 1.758530 0.000000 -0.003320 
#    y 0.000000 1.666530 0.000000 
#    z -0.003320 0.000000 1.736230 
# 
# From -- ./inp_files/198793.got.cif
#   From: 2010.05.17/outbox.cif.g08.bks.cpg/sg12_100_cif.got.tgz:198793.got - 2010.06.03 13:09:07.
