data_PCOD9221910
_publ_section_title
;
Structure prediction by ZEFSAII (Michael W. Deem and Ramdas Pophale) SiO2 
 PCOD9221910
Probable space group: C 2/M
;
_chemical_formula_sum "Si O2"
_cell_formula_units_Z 56
_cell_length_a 26.702672
_cell_length_b 17.091914
_cell_length_c 9.318056
_cell_angle_alpha 90.000000
_cell_angle_beta 39.648212
_cell_angle_gamma 90.000000
_cell_volume 2713.566720
_symmetry_space_group_name_H-M "C 2/M"
_symmetry_group_IT_number 12
_symmetry_cell_setting 'monoclinic'
loop_
_space_group_symop_operation_xyz
x,y,z
-x,y,-z
-x,-y,-z
x,-y,z
1/2+x,1/2+y,z
1/2-x,1/2+y,-z
1/2-x,1/2-y,-z
1/2+x,1/2-y,z
loop_
_atom_site_type_symbol
_atom_site_label
_atom_site_fract_x
_atom_site_fract_y
_atom_site_fract_z
Si Si1 0.288344 0.090272 0.296429
Si Si2 0.348803 0.133702 0.467844
Si Si3 0.222669 0.828630 0.978378
Si Si4 0.500000 0.878190 0.500000
Si Si5 0.358858 0.410985 0.579947
Si Si6 0.606594 0.217563 0.097444
Si Si7 0.537723 0.278435 0.766820
Si Si8 0.457422 0.000000 0.343995
O O1 0.297109 0.113437 0.442626
O O2 0.201949 0.094863 0.419219
O O3 0.316086 0.000000 0.215310
O O4 0.340554 0.152462 0.095511
O O5 0.392072 0.216972 0.358699
O O6 0.415270 0.068303 0.338787
O O7 0.292466 0.135195 0.730790
O O8 0.188852 0.886653 0.172310
O O9 0.155341 0.795467 0.021962
O O10 0.250000 0.750000 0.000000
O O11 0.425337 0.822175 0.686693
O O12 0.490451 0.932054 0.382301
O O13 0.386036 0.500000 0.531325
O O14 0.427291 0.349677 0.400533
O O15 0.530868 0.236425 0.170154
O O16 0.500000 0.304570 0.000000
#
# Coordination Sequence:
#
# PCOD9221910 Si02
#       8
#     8   8   8   4   8   8   8   4
#     4  11  25  41  68 102 138 176 222 281 343 407
#     4  12  24  43  66 102 144 178 224 277 340 411
#     4  12  24  44  72  98 132 174 226 286 337 401
#     4  11  24  38  62  96 139 186 209 270 340 418
#     4  11  27  49  71 101 134 178 235 287 344 401
#     4  12  24  41  67 100 133 177 230 274 337 410
#     4  12  25  43  69  99 137 186 228 282 339 407
#     4  11  24  38  61 100 145 175 217 271 343 413
#
# _framework density 20.637045000000001
#
# number of rings (size 3 to 8) (size 9 to 14) (size 15 to 20)
#    0.000    0.429    6.429    1.714    5.000    1.429 
#    0.000    3.214    0.000    0.000    0.000    0.000 
#    0.000    0.000    0.000    0.000    0.000    0.000 
#
# Total GULP energy -156130.281293 kJ/mol
# GULP energy per Si atom -5576.081475 kJ/mol
# Density = 2.059007 g / cm^3
# Si number density = 20.637045 Si / 1000 Ang^3
#
#
#
# Elastic Constant Matrix: (Units=GPa)
#
#
# Indices 1 2 3 4 5 6 
#
# 1 51.6946 -7.8804 -11.0112 0.0000 3.8159 0.0000
# 2 -7.8804 91.0202 0.7431 0.0000 -7.9880 0.0000
# 3 -11.0112 0.7431 52.3426 0.0000 4.0459 0.0000
# 4 0.0000 0.0000 0.0000 8.7617 0.0000 8.4696
# 5 3.8159 -7.9880 4.0459 0.0000 20.0683 0.0000
# 6 0.0000 0.0000 0.0000 8.4696 0.0000 33.6433
#
#
#
# Elastic Compliance Matrix: (Units=1/GPa)
#
#
# Indices 1 2 3 4 5 6 
#
# 1 0.020882 0.001386 0.004711 0.000000 -0.004369 0.000000
# 2 0.001386 0.011490 -0.000208 0.000000 0.004352 0.000000
# 3 0.004711 -0.000208 0.020494 0.000000 -0.005110 0.000000
# 4 0.000000 0.000000 0.000000 0.150841 0.000000 -0.037974
# 5 -0.004369 0.004352 -0.005110 0.000000 0.053423 0.000000
# 6 0.000000 0.000000 0.000000 -0.037974 0.000000 0.039283
#
#
# Mechanical properties :
#
#
# Convention : Reuss Voigt Hill
#
# Bulk Modulus (GPa) = 15.46947 17.64005 16.55476
# Shear Modulus (GPa) = 16.33012 26.70839 21.51926
#
# Velocity S-wave (km/s) = 2.81606 3.60140 3.23267
# Velocity P-wave (km/s) = 4.25274 5.08525 4.68751
#
# Compressibility (1/GPa) = 0.06464344
#
# Stress axis : x y z
#
# Youngs Moduli (GPa) = 47.88915 87.03076 48.79509
#
# Poissons Ratio (x) = -0.12063 -0.22986
# Poissons Ratio (y) = -0.06638 0.01015
# Poissons Ratio (z) = -0.22560 0.01810
#
# Static dielectric constant tensor:
#      x y z
#    x 1.762120 0.000000 0.002260 
#    y 0.000000 1.713030 0.000000 
#    z 0.002260 0.000000 1.751050 
# 
# From -- ./inp_files/106003.got.cif
#   From: 2010.05.17/outbox.cif.g08.bks.cpg/sg12_54_cif.got.tgz:106003.got - 2010.06.03 13:09:07.
