data_PCOD9221636
_publ_section_title
;
Structure prediction by ZEFSAII (Michael W. Deem and Ramdas Pophale) SiO2 
 PCOD9221636
Probable space group: C 2/M
;
_chemical_formula_sum "Si O2"
_cell_formula_units_Z 42
_cell_length_a 14.518608
_cell_length_b 14.787404
_cell_length_c 11.413819
_cell_angle_alpha 90.000000
_cell_angle_beta 124.688844
_cell_angle_gamma 90.000000
_cell_volume 2014.903972
_symmetry_space_group_name_H-M "C 2/M"
_symmetry_group_IT_number 12
_symmetry_cell_setting 'monoclinic'
loop_
_space_group_symop_operation_xyz
x,y,z
-x,y,-z
-x,-y,-z
x,-y,z
1/2+x,1/2+y,z
1/2-x,1/2+y,-z
1/2-x,1/2-y,-z
1/2+x,1/2-y,z
loop_
_atom_site_type_symbol
_atom_site_label
_atom_site_fract_x
_atom_site_fract_y
_atom_site_fract_z
Si Si1 0.101617 0.223044 0.334335
Si Si2 0.292559 0.166238 0.107204
Si Si3 0.665024 0.828939 0.593266
Si Si4 0.479736 0.103282 0.846699
Si Si5 0.448092 0.601877 0.084556
Si Si6 0.000000 0.500000 0.500000
O O1 0.210909 0.167179 0.374283
O O2 0.106057 0.252230 0.472059
O O3 0.099320 0.318020 0.260559
O O4 0.992920 0.167543 0.217286
O O5 0.319075 0.193350 0.259074
O O6 0.401773 0.119488 0.132270
O O7 0.250000 0.250000 0.000000
O O8 0.184560 0.102146 0.026972
O O9 0.592875 0.920076 0.536151
O O10 0.442244 0.000000 0.796874
O O11 0.500000 0.113994 0.000000
O O12 0.488908 0.500000 0.132944
O O13 0.500000 0.636745 0.000000
#
# Coordination Sequence:
#
# PCOD9221636 Si02
#       6
#     8   8   8   8   8   2
#     4  11  23  46  66 103 147 187 232 297 371 427
#     4  12  23  41  71 102 142 184 242 295 362 436
#     4  11  27  42  69 104 142 185 241 295 363 429
#     4  11  24  42  67 101 142 189 243 301 367 437
#     4  11  23  41  71 105 140 184 240 301 363 433
#     4  12  28  44  72 110 140 190 258 308 348 444
#
# _framework density 20.844664999999999
#
# number of rings (size 3 to 8) (size 9 to 14) (size 15 to 20)
#    0.000    0.762    3.810    3.429    8.000    0.000 
#    0.000    0.000    0.000    3.429    0.000    0.000 
#    0.000    0.000    0.000    0.000    0.000    0.000 
#
# Total GULP energy -117161.113499 kJ/mol
# GULP energy per Si atom -5579.100643 kJ/mol
# Density = 2.079722 g / cm^3
# Si number density = 20.844665 Si / 1000 Ang^3
#
#
#
# Elastic Constant Matrix: (Units=GPa)
#
#
# Indices 1 2 3 4 5 6 
#
# 1 116.0372 32.1702 42.7409 0.0000 5.8765 0.0000
# 2 32.1702 107.7117 53.4810 0.0000 -3.1586 0.0000
# 3 42.7409 53.4810 145.1827 0.0000 -21.0419 0.0000
# 4 0.0000 0.0000 0.0000 -3.1199 0.0000 16.5951
# 5 5.8765 -3.1586 -21.0419 0.0000 40.3385 0.0000
# 6 0.0000 0.0000 0.0000 16.5951 0.0000 23.4827
#
#
#
# Elastic Compliance Matrix: (Units=1/GPa)
#
#
# Indices 1 2 3 4 5 6 
#
# 1 0.010310 -0.001761 -0.002839 0.000000 -0.003121 0.000000
# 2 -0.001761 0.011737 -0.003932 0.000000 -0.000875 0.000000
# 3 -0.002839 -0.003932 0.009939 0.000000 0.005290 0.000000
# 4 0.000000 0.000000 0.000000 -0.067351 0.000000 0.047597
# 5 -0.003121 -0.000875 0.005290 0.000000 0.027936 0.000000
# 6 0.000000 0.000000 0.000000 0.047597 0.000000 0.008948
#
#
# Mechanical properties :
#
#
# Convention : Reuss Voigt Hill
#
# Bulk Modulus (GPa) = 67.01671 69.52398 68.27034
# Shear Modulus (GPa) = 212.26503 28.17622 120.22062
#
# Velocity S-wave (km/s) = 10.10212 3.68057 7.60261
# Velocity P-wave (km/s) = 12.97270 7.17551 10.48281
#
# Compressibility (1/GPa) = 0.01492165
#
# Stress axis : x y z
#
# Youngs Moduli (GPa) = 96.99467 85.20331 100.61786
#
# Poissons Ratio (x) = 0.15007 0.28562
# Poissons Ratio (y) = 0.17084 0.39561
# Poissons Ratio (z) = 0.27533 0.33500
#
# Static dielectric constant tensor:
#      x y z
#    x 1.772470 0.000000 0.002290 
#    y 0.000000 1.740890 0.000000 
#    z 0.002290 0.000000 1.772760 
# 
# From -- ./inp_files/143250.got.cif
#   From: 2010.05.17/outbox.cif.g08.bks.cpg/sg12_72_cif.got.tgz:143250.got - 2010.06.03 13:09:07.
