data_PCOD9221698
_publ_section_title
;
Structure prediction by ZEFSAII (Michael W. Deem and Ramdas Pophale) SiO2 
 PCOD9221698
Probable space group: C 2/M
;
_chemical_formula_sum "Si O2"
_cell_formula_units_Z 44
_cell_length_a 16.375288
_cell_length_b 32.313422
_cell_length_c 5.247233
_cell_angle_alpha 90.000000
_cell_angle_beta 128.972748
_cell_angle_gamma 90.000000
_cell_volume 2158.599320
_symmetry_space_group_name_H-M "C 2/M"
_symmetry_group_IT_number 12
_symmetry_cell_setting 'monoclinic'
loop_
_space_group_symop_operation_xyz
x,y,z
-x,y,-z
-x,-y,-z
x,-y,z
1/2+x,1/2+y,z
1/2-x,1/2+y,-z
1/2-x,1/2-y,-z
1/2+x,1/2-y,z
loop_
_atom_site_type_symbol
_atom_site_label
_atom_site_fract_x
_atom_site_fract_y
_atom_site_fract_z
Si Si1 0.000000 0.334820 0.500000
Si Si2 0.889511 0.288051 0.673593
Si Si3 0.120347 0.452231 0.332574
Si Si4 0.656925 0.307664 0.318446
Si Si5 0.613685 0.359147 0.730679
Si Si6 0.832434 0.403092 0.062421
O O1 0.089104 0.302706 0.571042
O O2 0.078072 0.367702 0.793062
O O3 0.783487 0.308519 0.561280
O O4 0.877669 0.239861 0.712722
O O5 0.000000 0.303588 0.000000
O O6 0.154592 0.500000 0.407262
O O7 0.130005 0.432348 0.630997
O O8 0.179760 0.426305 0.230726
O O9 0.000000 0.451336 0.000000
O O10 0.617786 0.332290 0.483236
O O11 0.619442 0.328538 0.984358
O O12 0.500000 0.381272 0.500000
O O13 0.719722 0.385727 0.930951
#
# Coordination Sequence:
#
# PCOD9221698 Si02
#       6
#     4   8   8   8   8   8
#     4  12  24  38  63  96 132 170 212 278 325 382
#     4  11  25  39  62  89 128 171 223 276 338 379
#     4  11  23  42  69 103 138 168 198 251 331 411
#     4  11  26  43  62  88 125 175 228 279 321 383
#     4  12  25  45  65  91 126 174 228 269 323 371
#     4  12  24  41  68  99 134 168 210 268 321 391
#
# _framework density 20.383589000000001
#
# number of rings (size 3 to 8) (size 9 to 14) (size 15 to 20)
#    0.000    0.545    3.636    4.364    6.364    2.909 
#    0.000    0.000    0.000    3.273    0.000    0.000 
#    0.000    0.000    0.000    0.000    0.000    0.000 
#
# Total GULP energy -122805.339785 kJ/mol
# GULP energy per Si atom -5582.060899 kJ/mol
# Density = 2.033719 g / cm^3
# Si number density = 20.383589 Si / 1000 Ang^3
#
#
#
# Elastic Constant Matrix: (Units=GPa)
#
#
# Indices 1 2 3 4 5 6 
#
# 1 139.4410 42.7491 11.2209 0.0000 15.3094 0.0000
# 2 42.7491 80.6518 25.2082 0.0000 -5.5815 0.0000
# 3 11.2209 25.2082 92.1795 0.0000 -0.3605 0.0000
# 4 0.0000 0.0000 0.0000 12.2220 0.0000 -12.0594
# 5 15.3094 -5.5815 -0.3605 0.0000 62.6584 0.0000
# 6 0.0000 0.0000 0.0000 -12.0594 0.0000 21.1059
#
#
#
# Elastic Compliance Matrix: (Units=1/GPa)
#
#
# Indices 1 2 3 4 5 6 
#
# 1 0.008981 -0.005028 0.000271 0.000000 -0.002641 0.000000
# 2 -0.005028 0.016461 -0.003879 0.000000 0.002673 0.000000
# 3 0.000271 -0.003879 0.011875 0.000000 -0.000344 0.000000
# 4 0.000000 0.000000 0.000000 0.187564 0.000000 0.107170
# 5 -0.002641 0.002673 -0.000344 0.000000 0.016841 0.000000
# 6 0.000000 0.000000 0.000000 0.107170 0.000000 0.108614
#
#
# Mechanical properties :
#
#
# Convention : Reuss Voigt Hill
#
# Bulk Modulus (GPa) = 49.88556 52.29207 51.08882
# Shear Modulus (GPa) = 13.35863 34.73687 24.04775
#
# Velocity S-wave (km/s) = 2.56278 4.13262 3.43849
# Velocity P-wave (km/s) = 5.76920 6.96284 6.39393
#
# Compressibility (1/GPa) = 0.02004588
#
# Stress axis : x y z
#
# Youngs Moduli (GPa) = 111.34618 60.74812 84.21160
#
# Poissons Ratio (x) = 0.30544 -0.02285
# Poissons Ratio (y) = 0.55984 0.32667
# Poissons Ratio (z) = -0.03022 0.23565
#
# Static dielectric constant tensor:
#      x y z
#    x 1.828970 0.000000 -0.034620 
#    y 0.000000 1.703720 0.000000 
#    z -0.034620 0.000000 1.720640 
# 
# From -- ./inp_files/18216.got.cif
#   From: 2010.05.17/outbox.cif.g08.bks.cpg/sg12_10_cif.got.tgz:18216.got - 2010.06.03 13:09:07.
