data_PCOD9221767
_publ_section_title
;
Structure prediction by ZEFSAII (Michael W. Deem and Ramdas Pophale) SiO2 
 PCOD9221767
Probable space group: C 2/M
;
_chemical_formula_sum "Si O2"
_cell_formula_units_Z 42
_cell_length_a 19.826091
_cell_length_b 15.493894
_cell_length_c 17.577172
_cell_angle_alpha 90.000000
_cell_angle_beta 21.051644
_cell_angle_gamma 90.000000
_cell_volume 1939.519913
_symmetry_space_group_name_H-M "C 2/M"
_symmetry_group_IT_number 12
_symmetry_cell_setting 'monoclinic'
loop_
_space_group_symop_operation_xyz
x,y,z
-x,y,-z
-x,-y,-z
x,-y,z
1/2+x,1/2+y,z
1/2-x,1/2+y,-z
1/2-x,1/2-y,-z
1/2+x,1/2-y,z
loop_
_atom_site_type_symbol
_atom_site_label
_atom_site_fract_x
_atom_site_fract_y
_atom_site_fract_z
Si Si1 0.424318 0.312015 0.793057
Si Si2 0.500000 0.500000 0.500000
Si Si3 0.408368 0.095950 0.900198
Si Si4 0.830221 0.638028 0.136192
Si Si5 0.273418 0.603023 0.414486
Si Si6 0.870544 0.715187 0.564278
O O1 0.579134 0.338908 0.692639
O O2 0.517944 0.271347 0.618302
O O3 0.250000 0.250000 0.000000
O O4 0.303785 0.398841 0.906144
O O5 0.654045 0.575382 0.316795
O O6 0.571640 0.114295 0.668955
O O7 0.448485 0.000000 0.887240
O O8 0.406135 0.160434 0.973046
O O9 0.773212 0.720120 0.244831
O O10 0.000000 0.593560 0.000000
O O11 0.318116 0.500000 0.368314
O O12 0.234978 0.640199 0.370953
O O13 0.000000 0.686525 0.500000
#
# Coordination Sequence:
#
# PCOD9221767 Si02
#       6
#     8   2   8   8   8   8
#     4  12  24  45  73 104 141 187 241 297 356 431
#     4  12  22  44  60 102 154 184 228 294 368 440
#     4  11  23  43  69 101 142 185 233 294 359 421
#     4  12  25  41  67 103 147 188 229 294 370 434
#     4  11  27  49  74 105 142 194 248 296 352 430
#     4  12  25  45  74 107 145 190 238 303 361 431
#
# _framework density 21.654843
#
# number of rings (size 3 to 8) (size 9 to 14) (size 15 to 20)
#    0.000    0.381    5.714    2.571    2.667    0.381 
#    5.143    0.000    0.000    1.714    0.000    0.000 
#    0.000    0.000    0.000    0.000    0.000    0.000 
#
# Total GULP energy -116925.492190 kJ/mol
# GULP energy per Si atom -5567.880580 kJ/mol
# Density = 2.160556 g / cm^3
# Si number density = 21.654843 Si / 1000 Ang^3
#
#
#
# Elastic Constant Matrix: (Units=GPa)
#
#
# Indices 1 2 3 4 5 6 
#
# 1 167.0369 56.3711 39.1750 -0.0183 -5.2564 0.0013
# 2 56.3711 103.4624 36.3573 -0.0938 13.0582 0.0060
# 3 39.1750 36.3573 55.3817 -0.0447 9.1064 0.0072
# 4 -0.0183 -0.0938 -0.0447 205.8342 -0.0054 -20.0639
# 5 -5.2564 13.0582 9.1064 -0.0054 36.6324 0.0000
# 6 0.0013 0.0060 0.0072 -20.0639 0.0000 27.2442
#
#
#
# Elastic Compliance Matrix: (Units=1/GPa)
#
#
# Indices 1 2 3 4 5 6 
#
# 1 0.008231 -0.003476 -0.004106 -0.000002 0.003441 0.000000
# 2 -0.003476 0.014261 -0.006241 0.000005 -0.004031 0.000002
# 3 -0.004106 -0.006241 0.025845 0.000002 -0.004790 -0.000004
# 4 -0.000002 0.000005 0.000002 0.005234 -0.000002 0.003855
# 5 0.003441 -0.004031 -0.004790 -0.000002 0.030420 0.000001
# 6 0.000000 0.000002 -0.000004 0.003855 0.000001 0.039544
#
#
# Mechanical properties :
#
#
# Convention : Reuss Voigt Hill
#
# Bulk Modulus (GPa) = 48.32773 65.52089 56.92431
# Shear Modulus (GPa) = 31.63004 66.87401 49.25203
#
# Velocity S-wave (km/s) = 3.82599 5.56317 4.77425
# Velocity P-wave (km/s) = 6.47173 8.46095 7.53230
#
# Compressibility (1/GPa) = 0.02069205
#
# Stress axis : x y z
#
# Youngs Moduli (GPa) = 121.49072 70.12157 38.69149
#
# Poissons Ratio (x) = 0.24374 0.15888
# Poissons Ratio (y) = 0.42230 0.24145
# Poissons Ratio (z) = 0.49887 0.43759
#
# Static dielectric constant tensor:
#      x y z
#    x 1.933490 0.000060 -0.019620 
#    y 0.000060 -1.734000 0.000060 
#    z -0.019620 0.000060 1.771750 
# 
# From -- ./inp_files/285138.got.cif
#   From: 2010.05.17/outbox.cif.g08.bks.cpg/sg12_143_cif.got.tgz:285138.got - 2010.06.03 13:09:07.
