data_PCOD9221656
_publ_section_title
;
Structure prediction by ZEFSAII (Michael W. Deem and Ramdas Pophale) SiO2 
 PCOD9221656
Probable space group: C 2/M
;
_chemical_formula_sum "Si O2"
_cell_formula_units_Z 40
_cell_length_a 14.526020
_cell_length_b 28.212100
_cell_length_c 9.448353
_cell_angle_alpha 90.000000
_cell_angle_beta 28.890839
_cell_angle_gamma 90.000000
_cell_volume 1870.739493
_symmetry_space_group_name_H-M "C 2/M"
_symmetry_group_IT_number 12
_symmetry_cell_setting 'monoclinic'
loop_
_space_group_symop_operation_xyz
x,y,z
-x,y,-z
-x,-y,-z
x,-y,z
1/2+x,1/2+y,z
1/2-x,1/2+y,-z
1/2-x,1/2-y,-z
1/2+x,1/2-y,z
loop_
_atom_site_type_symbol
_atom_site_label
_atom_site_fract_x
_atom_site_fract_y
_atom_site_fract_z
Si Si1 0.282149 0.551320 0.743357
Si Si2 0.935535 0.323111 0.251909
Si Si3 0.150365 0.391886 0.171694
Si Si4 0.419792 0.637148 0.372869
Si Si5 0.528441 0.741282 0.309061
O O1 0.500000 0.547611 0.500000
O O2 0.224945 0.500000 0.760247
O O3 0.299462 0.596326 0.616345
O O4 0.163848 0.564539 0.042683
O O5 0.727978 0.347170 0.549009
O O6 0.081327 0.349859 0.160100
O O7 0.932933 0.269811 0.311238
O O8 0.000000 0.324850 0.000000
O O9 0.000000 0.397759 0.500000
O O10 0.365534 0.381918 0.939031
O O11 0.456188 0.687118 0.404784
O O12 0.500000 0.763834 0.500000
O O13 0.750000 0.750000 0.000000
#
# Coordination Sequence:
#
# PCOD9221656 Si02
#       5
#     8   8   8   8   8
#     4   9  19  40  72  99 127 176 228 277 338 399
#     4  12  24  41  65  97 133 183 233 263 334 404
#     4  11  23  42  64  96 138 173 218 280 339 394
#     4  11  23  43  67  92 138 177 225 279 326 404
#     4  12  24  42  65  93 138 182 222 276 332 395
#
# _framework density 21.381919
#
# number of rings (size 3 to 8) (size 9 to 14) (size 15 to 20)
#    0.000    1.000    4.000    4.200    0.000    1.200 
#    0.000    2.000    0.000    0.000    0.000    7.000 
#    0.000    0.000    0.000    0.000    0.000    0.000 
#
# Total GULP energy -111472.713800 kJ/mol
# GULP energy per Si atom -5573.635690 kJ/mol
# Density = 2.133325 g / cm^3
# Si number density = 21.381919 Si / 1000 Ang^3
#
#
#
# Elastic Constant Matrix: (Units=GPa)
#
#
# Indices 1 2 3 4 5 6 
#
# 1 56.9601 33.1621 51.5388 0.0000 -14.7765 0.0000
# 2 33.1621 146.0847 39.0776 0.0000 5.2290 0.0000
# 3 51.5388 39.0776 155.1323 0.0000 11.2694 0.0000
# 4 0.0000 0.0000 0.0000 1.8428 0.0000 5.6676
# 5 -14.7765 5.2290 11.2694 0.0000 36.9585 0.0000
# 6 0.0000 0.0000 0.0000 5.6676 0.0000 26.4381
#
#
#
# Elastic Compliance Matrix: (Units=1/GPa)
#
#
# Indices 1 2 3 4 5 6 
#
# 1 0.037065 -0.005830 -0.012253 0.000000 0.019380 0.000000
# 2 -0.005830 0.008265 0.000112 0.000000 -0.003534 0.000000
# 3 -0.012253 0.000112 0.011092 0.000000 -0.008297 0.000000
# 4 0.000000 0.000000 0.000000 1.592779 0.000000 -0.341445
# 5 0.019380 -0.003534 -0.008297 0.000000 0.037836 0.000000
# 6 0.000000 0.000000 0.000000 -0.341445 0.000000 0.111020
#
#
# Mechanical properties :
#
#
# Convention : Reuss Voigt Hill
#
# Bulk Modulus (GPa) = 48.83115 67.30378 58.06746
# Shear Modulus (GPa) = 2.71617 28.67445 15.69531
#
# Velocity S-wave (km/s) = 1.12830 3.66602 2.71227
# Velocity P-wave (km/s) = 4.95829 7.03313 6.08480
#
# Compressibility (1/GPa) = 0.02047873
#
# Stress axis : x y z
#
# Youngs Moduli (GPa) = 26.97974 120.98562 90.15887
#
# Poissons Ratio (x) = 0.70534 1.10473
# Poissons Ratio (y) = 0.15729 -0.01006
# Poissons Ratio (z) = 0.33059 -0.01349
#
# Static dielectric constant tensor:
#      x y z
#    x 1.784720 0.000000 -0.013330 
#    y 0.000000 1.895430 0.000000 
#    z -0.013330 0.000000 1.777560 
# 
# From -- ./inp_files/41451.got.cif
#   From: 2010.05.17/outbox.cif.g08.bks.cpg/sg12_21_cif.got.tgz:41451.got - 2010.06.03 13:09:07.
