data_PCOD9221472
_publ_section_title
;
Structure prediction by ZEFSAII (Michael W. Deem and Ramdas Pophale) SiO2 
 PCOD9221472
Probable space group: C 2/M
;
_chemical_formula_sum "Si O2"
_cell_formula_units_Z 40
_cell_length_a 14.882658
_cell_length_b 8.607156
_cell_length_c 31.044346
_cell_angle_alpha 90.000000
_cell_angle_beta 146.999522
_cell_angle_gamma 90.000000
_cell_volume 2165.893187
_symmetry_space_group_name_H-M "C 2/M"
_symmetry_group_IT_number 12
_symmetry_cell_setting 'monoclinic'
loop_
_space_group_symop_operation_xyz
x,y,z
-x,y,-z
-x,-y,-z
x,-y,z
1/2+x,1/2+y,z
1/2-x,1/2+y,-z
1/2-x,1/2-y,-z
1/2+x,1/2-y,z
loop_
_atom_site_type_symbol
_atom_site_label
_atom_site_fract_x
_atom_site_fract_y
_atom_site_fract_z
Si Si1 0.648434 0.186960 0.499672
Si Si2 0.423177 0.682928 0.086787
Si Si3 0.722373 0.811856 0.627069
Si Si4 0.119324 0.316822 0.088751
Si Si5 0.536018 0.183846 0.803247
O O1 0.750000 0.250000 0.500000
O O2 0.455007 0.232675 0.423790
O O3 0.720089 0.232032 0.575472
O O4 0.652523 0.000000 0.499512
O O5 0.405259 0.500000 0.087761
O O6 0.555037 0.717536 0.102801
O O7 0.473994 0.767903 0.150908
O O8 0.250000 0.750000 0.000000
O O9 0.873099 0.736243 0.712633
O O10 0.734655 0.000000 0.634223
O O11 0.106717 0.500000 0.093732
O O12 0.304248 0.271616 0.151020
O O13 0.000000 0.286298 0.000000
O O14 0.560375 0.000000 0.809321
#
# Coordination Sequence:
#
# PCOD9221472 Si02
#       5
#     8   8   8   8   8
#     4   9  19  37  64  90 118 157 196 241 298 358
#     4  12  24  40  62  87 117 156 202 252 303 359
#     4   9  20  40  60  85 122 161 198 241 299 360
#     4  11  23  40  63  87 115 156 203 252 305 356
#     4  12  25  40  61  90 124 162 204 252 304 359
#
# _framework density 18.468132000000001
#
# number of rings (size 3 to 8) (size 9 to 14) (size 15 to 20)
#    0.000    1.400    2.000    5.400    0.000    4.000 
#    0.000    6.000    0.000    0.000    0.000    0.000 
#    0.000    0.000    0.000    0.000    0.000    0.000 
#
# Total GULP energy -111787.589352 kJ/mol
# GULP energy per Si atom -5589.379468 kJ/mol
# Density = 1.842610 g / cm^3
# Si number density = 18.468132 Si / 1000 Ang^3
#
#
#
# Elastic Constant Matrix: (Units=GPa)
#
#
# Indices 1 2 3 4 5 6 
#
# 1 115.6371 3.0203 49.5465 0.0000 0.7237 0.0000
# 2 3.0203 36.8260 23.7973 0.0000 -0.2076 0.0000
# 3 49.5465 23.7973 147.0394 0.0000 0.4409 0.0000
# 4 0.0000 0.0000 0.0000 29.5959 0.0000 1.4930
# 5 0.7237 -0.2076 0.4409 0.0000 16.4495 0.0000
# 6 0.0000 0.0000 0.0000 1.4930 0.0000 37.8670
#
#
#
# Elastic Compliance Matrix: (Units=1/GPa)
#
#
# Indices 1 2 3 4 5 6 
#
# 1 0.010187 0.001541 -0.003681 0.000000 -0.000330 0.000000
# 2 0.001541 0.030564 -0.005467 0.000000 0.000464 0.000000
# 3 -0.003681 -0.005467 0.008927 0.000000 -0.000146 0.000000
# 4 0.000000 0.000000 0.000000 0.033856 0.000000 -0.001335
# 5 -0.000330 0.000464 -0.000146 0.000000 0.060816 0.000000
# 6 0.000000 0.000000 0.000000 -0.001335 0.000000 0.026461
#
#
# Mechanical properties :
#
#
# Convention : Reuss Voigt Hill
#
# Bulk Modulus (GPa) = 29.01638 50.24787 39.63213
# Shear Modulus (GPa) = 25.31493 31.65838 28.48665
#
# Velocity S-wave (km/s) = 3.70636 4.14480 3.93170
# Velocity P-wave (km/s) = 5.83625 7.08328 6.48979
#
# Compressibility (1/GPa) = 0.03446329
#
# Stress axis : x y z
#
# Youngs Moduli (GPa) = 98.16690 32.71825 112.02546
#
# Poissons Ratio (x) = -0.05043 0.41237
# Poissons Ratio (y) = -0.15131 0.61248
# Poissons Ratio (z) = 0.36135 0.17888
#
# Static dielectric constant tensor:
#      x y z
#    x 1.624910 0.000000 0.004110 
#    y 0.000000 1.618920 0.000000 
#    z 0.004110 0.000000 1.604680 
# 
# From -- ./inp_files/211230.got.cif
#   From: 2010.05.17/outbox.cif.g08.bks.cpg/sg12_106_cif.got.tgz:211230.got - 2010.06.03 13:09:07.
