data_PCOD9221792
_publ_section_title
;
Structure prediction by ZEFSAII (Michael W. Deem and Ramdas Pophale) SiO2 
 PCOD9221792
Probable space group: C 2/M
;
_chemical_formula_sum "Si O2"
_cell_formula_units_Z 40
_cell_length_a 10.298983
_cell_length_b 15.246508
_cell_length_c 22.866010
_cell_angle_alpha 90.000000
_cell_angle_beta 145.009270
_cell_angle_gamma 90.000000
_cell_volume 2058.951189
_symmetry_space_group_name_H-M "C 2/M"
_symmetry_group_IT_number 12
_symmetry_cell_setting 'monoclinic'
loop_
_space_group_symop_operation_xyz
x,y,z
-x,y,-z
-x,-y,-z
x,-y,z
1/2+x,1/2+y,z
1/2-x,1/2+y,-z
1/2-x,1/2-y,-z
1/2+x,1/2-y,z
loop_
_atom_site_type_symbol
_atom_site_label
_atom_site_fract_x
_atom_site_fract_y
_atom_site_fract_z
Si Si1 0.589148 0.658958 0.598405
Si Si2 0.755981 0.764902 0.933307
Si Si3 0.283116 0.318971 0.739379
Si Si4 0.389646 0.897882 0.206590
Si Si5 0.322381 0.500000 0.559001
Si Si6 0.219201 0.500000 0.650809
O O1 0.500000 0.678111 0.500000
O O2 0.620578 0.747049 0.648576
O O3 0.426489 0.586595 0.567656
O O4 0.840076 0.616313 0.689370
O O5 0.539531 0.713874 0.828657
O O6 0.707421 0.862853 0.890889
O O7 0.750000 0.750000 0.000000
O O8 0.000000 0.736409 0.000000
O O9 0.217610 0.337059 0.782410
O O10 0.270093 0.411571 0.703354
O O11 0.338218 0.000000 0.196980
O O12 0.357438 0.500000 0.641407
O O13 0.052386 0.500000 0.455032
#
# Coordination Sequence:
#
# PCOD9221792 Si02
#       6
#     8   8   8   8   4   4
#     4  11  25  41  67  96 136 181 223 268 330 400
#     4  11  24  46  71  98 132 172 224 282 342 397
#     4  11  25  43  69  97 137 173 223 275 340 396
#     4  11  23  43  71  99 131 176 223 277 331 403
#     4  11  25  42  64  94 137 180 224 271 325 399
#     4  11  26  42  63  97 137 174 224 274 328 395
#
# _framework density 19.427368000000001
#
# number of rings (size 3 to 8) (size 9 to 14) (size 15 to 20)
#    0.000    1.000    4.000    1.500    8.400    2.000 
#    1.800    0.500    0.000    0.000    0.000    0.000 
#    0.000    0.000    0.000    0.000    0.000    0.000 
#
# Total GULP energy -111722.654265 kJ/mol
# GULP energy per Si atom -5586.132713 kJ/mol
# Density = 1.938315 g / cm^3
# Si number density = 19.427368 Si / 1000 Ang^3
#
#
#
# Elastic Constant Matrix: (Units=GPa)
#
#
# Indices 1 2 3 4 5 6 
#
# 1 123.4835 45.8483 46.1374 0.0000 -6.6294 0.0000
# 2 45.8483 145.7684 47.5124 0.0000 -14.5336 0.0000
# 3 46.1374 47.5124 93.6564 -0.0002 -10.3329 -0.0002
# 4 0.0000 0.0000 -0.0002 22.1132 0.0000 -0.6934
# 5 -6.6294 -14.5336 -10.3329 0.0000 39.7515 0.0000
# 6 0.0000 0.0000 -0.0002 -0.6934 0.0000 36.8165
#
#
#
# Elastic Compliance Matrix: (Units=1/GPa)
#
#
# Indices 1 2 3 4 5 6 
#
# 1 0.010350 -0.001913 -0.004134 0.000000 -0.000048 0.000000
# 2 -0.001913 0.008727 -0.003261 0.000000 0.002024 0.000000
# 3 -0.004134 -0.003261 0.014579 0.000000 0.001908 0.000000
# 4 0.000000 0.000000 0.000000 0.045249 0.000000 0.000852
# 5 -0.000048 0.002024 0.001908 0.000000 0.026384 0.000000
# 6 0.000000 0.000000 0.000000 0.000852 0.000000 0.027178
#
#
# Mechanical properties :
#
#
# Convention : Reuss Voigt Hill
#
# Bulk Modulus (GPa) = 66.49080 71.32271 68.90676
# Shear Modulus (GPa) = 32.03161 34.63026 33.33094
#
# Velocity S-wave (km/s) = 4.06493 4.22661 4.14656
# Velocity P-wave (km/s) = 7.50541 7.78531 7.64664
#
# Compressibility (1/GPa) = 0.01503967
#
# Stress axis : x y z
#
# Youngs Moduli (GPa) = 96.61449 114.59087 68.59306
#
# Poissons Ratio (x) = 0.21920 0.28354
# Poissons Ratio (y) = 0.18481 0.22372
# Poissons Ratio (z) = 0.39938 0.37374
#
# Static dielectric constant tensor:
#      x y z
#    x 1.684070 0.000000 -0.022970 
#    y 0.000000 1.663050 0.000000 
#    z -0.022970 0.000000 1.696570 
# 
# From -- ./inp_files/300996.got.cif
#   From: 2010.05.17/outbox.cif.g08.bks.cpg/sg12_151_cif.got.tgz:300996.got - 2010.06.03 13:09:07.
