data_PCOD9221195
_publ_section_title
;
Structure prediction by ZEFSAII (Michael W. Deem and Ramdas Pophale) SiO2 
 PCOD9221195
Probable space group: C 2/M
;
_chemical_formula_sum "Si O2"
_cell_formula_units_Z 32
_cell_length_a 14.676264
_cell_length_b 14.480765
_cell_length_c 14.315714
_cell_angle_alpha 90.000000
_cell_angle_beta 29.822428
_cell_angle_gamma 90.000000
_cell_volume 1513.039874
_symmetry_space_group_name_H-M "C 2/M"
_symmetry_group_IT_number 12
_symmetry_cell_setting 'monoclinic'
loop_
_space_group_symop_operation_xyz
x,y,z
-x,y,-z
-x,-y,-z
x,-y,z
1/2+x,1/2+y,z
1/2-x,1/2+y,-z
1/2-x,1/2-y,-z
1/2+x,1/2-y,z
loop_
_atom_site_type_symbol
_atom_site_label
_atom_site_fract_x
_atom_site_fract_y
_atom_site_fract_z
Si Si1 0.236516 0.799567 0.870840
Si Si2 0.639023 0.396394 0.770844
Si Si3 0.131966 0.657019 0.601685
Si Si4 0.075354 0.398699 0.037939
O O1 0.222825 0.825161 0.772709
O O2 0.430519 0.828076 0.738226
O O3 0.066225 0.858592 0.063416
O O4 0.201045 0.692522 0.927078
O O5 0.641548 0.500000 0.808084
O O6 0.753451 0.399860 0.574893
O O7 0.250000 0.750000 0.500000
O O8 0.089222 0.617262 0.741899
O O9 0.159135 0.500000 0.984069
O O10 0.000000 0.400812 0.000000
#
# Coordination Sequence:
#
# PCOD9221195 Si02
#       4
#     8   8   8   8
#     4  11  22  44  67  95 136 168 210 274 332 384
#     4  11  24  42  70 102 129 165 220 277 333 389
#     4  12  24  42  67  96 133 173 216 267 328 388
#     4  11  23  42  66  92 127 175 219 260 316 386
#
# _framework density 21.149474999999999
#
# number of rings (size 3 to 8) (size 9 to 14) (size 15 to 20)
#    0.000    0.750    5.000    3.750    0.000    5.000 
#    0.000    1.250    0.000    4.500    0.000    0.000 
#    0.000    0.000    0.000    0.000    0.000    0.000 
#
# Total GULP energy -89354.402613 kJ/mol
# GULP energy per Si atom -5584.650163 kJ/mol
# Density = 2.110134 g / cm^3
# Si number density = 21.149475 Si / 1000 Ang^3
#
#
#
# Elastic Constant Matrix: (Units=GPa)
#
#
# Indices 1 2 3 4 5 6 
#
# 1 81.0591 17.8010 74.0809 0.0017 7.0095 -0.0006
# 2 17.8010 133.9338 30.8736 0.0052 14.7315 -0.0013
# 3 74.0809 30.8736 127.4841 0.0060 28.0886 -0.0010
# 4 0.0017 0.0052 0.0060 -0.9054 -0.0020 -0.1370
# 5 7.0095 14.7315 28.0886 -0.0020 53.2260 0.0005
# 6 -0.0006 -0.0013 -0.0010 -0.1370 0.0005 -10.2518
#
#
#
# Elastic Compliance Matrix: (Units=1/GPa)
#
#
# Indices 1 2 3 4 5 6 
#
# 1 0.027662 -0.000316 -0.017216 -0.000078 0.005530 0.000001
# 2 -0.000316 0.007996 -0.001442 0.000039 -0.001410 -0.000001
# 3 -0.017216 -0.001442 0.019927 0.000110 -0.007850 -0.000003
# 4 -0.000078 0.000039 0.000110 -1.106697 -0.000100 0.014791
# 5 0.005530 -0.001410 -0.007850 -0.000100 0.022592 0.000003
# 6 0.000001 -0.000001 -0.000003 0.014791 0.000003 -0.097741
#
#
# Mechanical properties :
#
#
# Convention : Reuss Voigt Hill
#
# Bulk Modulus (GPa) = 56.70077 65.33199 61.01638
# Shear Modulus (GPa) = -4.61922 23.06185 9.22131
#
# Velocity S-wave (km/s) = -1.47947 3.30574 2.09034
# Velocity P-wave (km/s) = 4.89380 6.74746 5.89396
#
# Compressibility (1/GPa) = 0.01763644
#
# Stress axis : x y z
#
# Youngs Moduli (GPa) = 36.15060 125.06377 50.18270
#
# Poissons Ratio (x) = 0.03954 0.86396
# Poissons Ratio (y) = 0.01143 0.07236
# Poissons Ratio (z) = 0.62238 0.18033
#
# Static dielectric constant tensor:
#      x y z
#    x 1.774430 0.000000 0.051140 
#    y 0.000000 1.819830 0.000000 
#    z 0.051140 0.000000 1.738300 
# 
# From -- ./inp_files/214528.got.cif
#   From: 2010.05.17/outbox.cif.g08.bks.cpg/sg12_108_cif.got.tgz:214528.got - 2010.06.03 13:09:07.
