data_PCOD9221274
_publ_section_title
;
Structure prediction by ZEFSAII (Michael W. Deem and Ramdas Pophale) SiO2 
 PCOD9221274
Probable space group: C 2/M
;
_chemical_formula_sum "Si O2"
_cell_formula_units_Z 42
_cell_length_a 12.858316
_cell_length_b 26.254847
_cell_length_c 9.546033
_cell_angle_alpha 90.000000
_cell_angle_beta 39.226606
_cell_angle_gamma 90.000000
_cell_volume 2037.984545
_symmetry_space_group_name_H-M "C 2/M"
_symmetry_group_IT_number 12
_symmetry_cell_setting 'monoclinic'
loop_
_space_group_symop_operation_xyz
x,y,z
-x,y,-z
-x,-y,-z
x,-y,z
1/2+x,1/2+y,z
1/2-x,1/2+y,-z
1/2-x,1/2-y,-z
1/2+x,1/2-y,z
loop_
_atom_site_type_symbol
_atom_site_label
_atom_site_fract_x
_atom_site_fract_y
_atom_site_fract_z
Si Si1 0.311782 0.679200 0.728802
Si Si2 0.845170 0.405623 0.306408
Si Si3 0.116198 0.353199 0.192574
Si Si4 0.801465 0.281025 0.581282
Si Si5 0.500000 0.000000 0.000000
Si Si6 0.826286 0.885439 0.233548
O O1 0.500000 0.665631 0.500000
O O2 0.207593 0.642991 0.732579
O O3 0.295265 0.738823 0.708583
O O4 0.256033 0.669750 0.946112
O O5 0.728310 0.411128 0.564487
O O6 0.018056 0.392816 0.199805
O O7 0.871365 0.455240 0.188042
O O8 0.193301 0.382186 0.245648
O O9 0.976033 0.310650 0.376196
O O10 0.750000 0.250000 0.500000
O O11 0.668227 0.325276 0.737961
O O12 0.000000 0.905001 0.000000
#
# Coordination Sequence:
#
# PCOD9221274 Si02
#       6
#     8   8   8   8   2   8
#     4  12  23  38  65  95 134 177 218 270 325 384
#     4  11  23  45  70  95 126 170 222 276 332 402
#     4  11  23  42  63  95 140 176 223 270 320 397
#     4  11  23  36  59  95 135 187 222 258 312 389
#     4  12  24  48  78 100 114 176 224 284 338 410
#     4  11  24  42  66  98 141 176 218 274 329 393
#
# _framework density 20.608595999999999
#
# number of rings (size 3 to 8) (size 9 to 14) (size 15 to 20)
#    0.000    0.762    5.714    4.571    2.667    1.524 
#    0.000    2.857    0.000    0.000    0.000    0.000 
#    0.000    0.000    0.000    0.000    0.000    0.000 
#
# Total GULP energy -116926.854234 kJ/mol
# GULP energy per Si atom -5567.945440 kJ/mol
# Density = 2.056169 g / cm^3
# Si number density = 20.608596 Si / 1000 Ang^3
#
#
#
# Elastic Constant Matrix: (Units=GPa)
#
#
# Indices 1 2 3 4 5 6 
#
# 1 54.0262 0.7959 6.2527 0.0000 6.3525 0.0000
# 2 0.7959 80.5322 17.7431 0.0000 1.2932 0.0000
# 3 6.2527 17.7431 165.4187 0.0000 -4.8070 0.0000
# 4 0.0000 0.0000 0.0000 20.5134 0.0000 -9.9544
# 5 6.3525 1.2932 -4.8070 0.0000 29.2853 0.0000
# 6 0.0000 0.0000 0.0000 -9.9544 0.0000 -3.5761
#
#
#
# Elastic Compliance Matrix: (Units=1/GPa)
#
#
# Indices 1 2 3 4 5 6 
#
# 1 0.019112 0.000068 -0.000854 0.000000 -0.004289 0.000000
# 2 0.000068 0.012736 -0.001392 0.000000 -0.000806 0.000000
# 3 -0.000854 -0.001392 0.006264 0.000000 0.001275 0.000000
# 4 0.000000 0.000000 0.000000 0.020737 0.000000 -0.057724
# 5 -0.004289 -0.000806 0.001275 0.000000 0.035322 0.000000
# 6 0.000000 0.000000 0.000000 -0.057724 0.000000 -0.118954
#
#
# Mechanical properties :
#
#
# Convention : Reuss Voigt Hill
#
# Bulk Modulus (GPa) = 29.62477 38.84005 34.23241
# Shear Modulus (GPa) = -545.01526 27.59022 -258.71252
#
# Velocity S-wave (km/s) = -16.27987 3.66289 -11.21645
# Velocity P-wave (km/s) = 18.41122 6.06436 12.29220
#
# Compressibility (1/GPa) = 0.03375554
#
# Stress axis : x y z
#
# Youngs Moduli (GPa) = 52.32391 78.51525 159.64419
#
# Poissons Ratio (x) = -0.00536 0.13639
# Poissons Ratio (y) = -0.00357 0.22224
# Poissons Ratio (z) = 0.04470 0.10930
#
# Static dielectric constant tensor:
#      x y z
#    x 1.812690 0.000000 0.037290 
#    y 0.000000 1.707010 0.000000 
#    z 0.037290 0.000000 1.855190 
# 
# From -- ./inp_files/66702.got.cif
#   From: 2010.05.17/outbox.cif.g08.bks.cpg/sg12_34_cif.got.tgz:66702.got - 2010.06.03 13:09:07.
