data_PCOD9221889
_publ_section_title
;
Structure prediction by ZEFSAII (Michael W. Deem and Ramdas Pophale) SiO2 
 PCOD9221889
Probable space group: C 2/M
;
_chemical_formula_sum "Si O2"
_cell_formula_units_Z 42
_cell_length_a 9.643754
_cell_length_b 14.569649
_cell_length_c 18.720567
_cell_angle_alpha 90.000000
_cell_angle_beta 56.379070
_cell_angle_gamma 90.000000
_cell_volume 2190.345890
_symmetry_space_group_name_H-M "C 2/M"
_symmetry_group_IT_number 12
_symmetry_cell_setting 'monoclinic'
loop_
_space_group_symop_operation_xyz
x,y,z
-x,y,-z
-x,-y,-z
x,-y,z
1/2+x,1/2+y,z
1/2-x,1/2+y,-z
1/2-x,1/2-y,-z
1/2+x,1/2-y,z
loop_
_atom_site_type_symbol
_atom_site_label
_atom_site_fract_x
_atom_site_fract_y
_atom_site_fract_z
Si Si1 0.980795 0.000000 0.591275
Si Si2 0.620362 0.196756 0.588661
Si Si3 0.649357 0.104305 0.859295
Si Si4 0.264492 0.860108 0.002744
Si Si5 0.648101 0.000000 0.514086
Si Si6 0.797038 0.188475 0.682055
Si Si7 0.000000 0.000000 0.000000
O O1 0.000000 0.000000 0.500000
O O2 0.886170 0.091894 0.639295
O O3 0.166221 0.000000 0.571318
O O4 0.750000 0.250000 0.500000
O O5 0.664141 0.208111 0.658814
O O6 0.437108 0.235310 0.631444
O O7 0.632999 0.090911 0.565029
O O8 0.449975 0.113937 0.922605
O O9 0.719412 0.176532 0.782169
O O10 0.685405 0.000000 0.824957
O O11 0.730724 0.117393 0.913936
O O12 0.250000 0.750000 0.000000
O O13 0.123555 0.918887 0.001563
O O14 0.500000 0.000000 0.500000
#
# Coordination Sequence:
#
# PCOD9221889 Si02
#       7
#     4   8   8   8   4   8   2
#     4  12  20  42  66  91 124 181 222 266 357 404
#     4  12  24  43  66  96 134 178 231 282 348 415
#     4  11  23  47  69  94 144 181 222 283 355 416
#     4  11  24  45  74 106 140 186 229 286 364 439
#     4  12  24  40  66  92 130 175 231 284 336 411
#     4  12  25  41  69  98 132 178 230 288 340 416
#     4  12  20  42  80 106 132 186 250 280 344 454
#
# _framework density 19.175052999999998
#
# number of rings (size 3 to 8) (size 9 to 14) (size 15 to 20)
#    0.000    0.381    6.667    3.429    2.667    0.000 
#    0.000    0.000    4.190    0.000    0.000    0.000 
#    0.000    0.000    0.000    0.000    0.000    0.000 
#
# Total GULP energy -117079.327937 kJ/mol
# GULP energy per Si atom -5575.206092 kJ/mol
# Density = 1.913141 g / cm^3
# Si number density = 19.175053 Si / 1000 Ang^3
#
#
#
# Elastic Constant Matrix: (Units=GPa)
#
#
# Indices 1 2 3 4 5 6 
#
# 1 126.2830 17.3662 11.1709 0.0000 14.9752 0.0000
# 2 17.3662 128.1632 4.2622 0.0000 2.6549 0.0000
# 3 11.1709 4.2622 88.8212 0.0000 12.7123 0.0000
# 4 0.0000 0.0000 0.0000 19.5990 0.0000 -5.7436
# 5 14.9752 2.6549 12.7123 0.0000 13.0918 0.0000
# 6 0.0000 0.0000 0.0000 -5.7436 0.0000 35.1328
#
#
#
# Elastic Compliance Matrix: (Units=1/GPa)
#
#
# Indices 1 2 3 4 5 6 
#
# 1 0.009313 -0.001051 0.000434 0.000000 -0.010860 0.000000
# 2 -0.001051 0.007956 -0.000222 0.000000 -0.000196 0.000000
# 3 0.000434 -0.000222 0.013100 0.000000 -0.013171 0.000000
# 4 0.000000 0.000000 0.000000 0.053591 0.000000 0.008761
# 5 -0.010860 -0.000196 -0.013171 0.000000 0.101635 0.000000
# 6 0.000000 0.000000 0.000000 0.008761 0.000000 0.029896
#
#
# Mechanical properties :
#
#
# Convention : Reuss Voigt Hill
#
# Bulk Modulus (GPa) = 34.85502 45.42958 40.14230
# Shear Modulus (GPa) = 22.05242 34.26259 28.15751
#
# Velocity S-wave (km/s) = 3.39493 4.23168 3.83619
# Velocity P-wave (km/s) = 5.79518 6.90070 6.37196
#
# Compressibility (1/GPa) = 0.02869027
#
# Stress axis : x y z
#
# Youngs Moduli (GPa) = 107.37895 125.68450 76.33745
#
# Poissons Ratio (x) = 0.13214 -0.03310
# Poissons Ratio (y) = 0.11289 0.01691
# Poissons Ratio (z) = -0.04655 0.02785
#
# Static dielectric constant tensor:
#      x y z
#    x 1.634410 0.000000 -0.003750 
#    y 0.000000 1.615620 0.000000 
#    z -0.003750 0.000000 1.655570 
# 
# From -- ./inp_files/255719.got.cif
#   From: 2010.05.17/outbox.cif.g08.bks.cpg/sg12_128_cif.got.tgz:255719.got - 2010.06.03 13:09:07.
