data_PCOD9221004
_publ_section_title
;
Structure prediction by ZEFSAII (Michael W. Deem and Ramdas Pophale) SiO2 
 PCOD9221004
Probable space group: C 2/M
;
_chemical_formula_sum "Si O2"
_cell_formula_units_Z 32
_cell_length_a 8.119708
_cell_length_b 19.472866
_cell_length_c 9.440429
_cell_angle_alpha 90.000000
_cell_angle_beta 65.988040
_cell_angle_gamma 90.000000
_cell_volume 1363.489526
_symmetry_space_group_name_H-M "C 2/M"
_symmetry_group_IT_number 12
_symmetry_cell_setting 'monoclinic'
loop_
_space_group_symop_operation_xyz
x,y,z
-x,y,-z
-x,-y,-z
x,-y,z
1/2+x,1/2+y,z
1/2-x,1/2+y,-z
1/2-x,1/2-y,-z
1/2+x,1/2-y,z
loop_
_atom_site_type_symbol
_atom_site_label
_atom_site_fract_x
_atom_site_fract_y
_atom_site_fract_z
Si Si1 0.191639 0.000000 0.611072
Si Si2 0.677489 0.850460 0.773729
Si Si3 0.016609 0.223252 0.156739
Si Si4 0.205853 0.350036 0.436633
Si Si5 0.230450 0.000000 0.255984
O O1 0.279180 0.071797 0.627567
O O2 0.215911 0.000000 0.432330
O O3 0.978633 0.000000 0.720679
O O4 0.811656 0.809115 0.828424
O O5 0.494943 0.806190 0.834324
O O6 0.672742 0.929580 0.819875
O O7 0.245845 0.850547 0.413710
O O8 0.845037 0.196410 0.304447
O O9 0.000000 0.201433 0.000000
O O10 0.000000 0.326246 0.500000
#
# Coordination Sequence:
#
# PCOD9221004 Si02
#       5
#     4   8   8   8   4
#     4   9  17  36  66  96 133 163 217 277 325 376
#     4  11  23  43  68  95 132 175 221 270 323 391
#     4  12  25  42  65  98 138 175 213 271 333 390
#     4  11  22  40  68 103 130 170 224 274 322 388
#     4   9  18  38  67  94 127 169 218 270 330 377
#
# _framework density 23.469193000000001
#
# number of rings (size 3 to 8) (size 9 to 14) (size 15 to 20)
#    0.000    1.250    2.500    4.125    0.000    0.000 
#    0.000    3.125    0.000    3.000    0.000    0.000 
#    0.000    0.000    0.000    0.000    0.000    0.000 
#
# Total GULP energy -89576.692685 kJ/mol
# GULP energy per Si atom -5598.543293 kJ/mol
# Density = 2.341578 g / cm^3
# Si number density = 23.469193 Si / 1000 Ang^3
#
#
#
# Elastic Constant Matrix: (Units=GPa)
#
#
# Indices 1 2 3 4 5 6 
#
# 1 80.4775 48.5422 35.4024 0.0000 1.8017 0.0000
# 2 48.5422 186.3804 31.6101 0.0000 -6.3969 0.0000
# 3 35.4024 31.6101 99.3553 0.0000 -0.9411 0.0000
# 4 0.0000 0.0000 0.0000 -2.0987 0.0000 -3.5282
# 5 1.8017 -6.3969 -0.9411 0.0000 38.9544 0.0000
# 6 0.0000 0.0000 0.0000 -3.5282 0.0000 39.1530
#
#
#
# Elastic Compliance Matrix: (Units=1/GPa)
#
#
# Indices 1 2 3 4 5 6 
#
# 1 0.016757 -0.003594 -0.004841 0.000000 -0.001482 0.000000
# 2 -0.003594 0.006473 -0.000767 0.000000 0.001211 0.000000
# 3 -0.004841 -0.000767 0.012038 0.000000 0.000389 0.000000
# 4 0.000000 0.000000 0.000000 -0.413797 0.000000 -0.037289
# 5 -0.001482 0.001211 0.000389 0.000000 0.025948 0.000000
# 6 0.000000 0.000000 0.000000 -0.037289 0.000000 0.022181
#
#
# Mechanical properties :
#
#
# Convention : Reuss Voigt Hill
#
# Bulk Modulus (GPa) = 59.30451 66.36915 62.83683
# Shear Modulus (GPa) = -16.31985 31.91231 7.79623
#
# Velocity S-wave (km/s) = -2.63985 3.69148 1.82458
# Velocity P-wave (km/s) = 4.00402 6.81983 5.59206
#
# Compressibility (1/GPa) = 0.01686212
#
# Stress axis : x y z
#
# Youngs Moduli (GPa) = 59.67822 154.48538 83.07185
#
# Poissons Ratio (x) = 0.55522 0.40218
# Poissons Ratio (y) = 0.21448 0.06375
# Poissons Ratio (z) = 0.28892 0.11855
#
# Static dielectric constant tensor:
#      x y z
#    x 1.885430 0.000000 0.012060 
#    y 0.000000 1.920150 0.000000 
#    z 0.012060 0.000000 1.867800 
# 
# From -- ./inp_files/119565.got.cif
#   From: 2010.05.17/outbox.cif.g08.bks.cpg/sg12_60_cif.got.tgz:119565.got - 2010.06.03 13:09:07.
