data_PCOD9221640
_publ_section_title
;
Structure prediction by ZEFSAII (Michael W. Deem and Ramdas Pophale) SiO2 
 PCOD9221640
Probable space group: C 2/M
;
_chemical_formula_sum "Si O2"
_cell_formula_units_Z 58
_cell_length_a 20.542617
_cell_length_b 18.061994
_cell_length_c 10.279424
_cell_angle_alpha 90.000000
_cell_angle_beta 139.322664
_cell_angle_gamma 90.000000
_cell_volume 2486.014032
_symmetry_space_group_name_H-M "C 2/M"
_symmetry_group_IT_number 12
_symmetry_cell_setting 'monoclinic'
loop_
_space_group_symop_operation_xyz
x,y,z
-x,y,-z
-x,-y,-z
x,-y,z
1/2+x,1/2+y,z
1/2-x,1/2+y,-z
1/2-x,1/2-y,-z
1/2+x,1/2-y,z
loop_
_atom_site_type_symbol
_atom_site_label
_atom_site_fract_x
_atom_site_fract_y
_atom_site_fract_z
Si Si1 0.145132 0.875147 0.832301
Si Si2 0.000000 0.000000 0.500000
Si Si3 0.455737 0.706805 0.632874
Si Si4 0.084689 0.418627 0.018115
Si Si5 0.239558 0.297950 0.186027
Si Si6 0.232187 0.122821 0.227386
Si Si7 0.090126 0.920108 0.236054
Si Si8 0.962559 0.373400 0.592155
O O1 0.086391 0.935826 0.659125
O O2 0.247058 0.835400 0.936103
O O3 0.061022 0.813057 0.729514
O O4 0.174055 0.910203 0.015840
O O5 0.354705 0.693810 0.400830
O O6 0.439850 0.649696 0.724456
O O7 0.459131 0.793830 0.659635
O O8 0.132268 0.500000 0.109142
O O9 0.032639 0.417938 0.796729
O O10 0.163733 0.351906 0.144760
O O11 0.000000 0.409886 0.000000
O O12 0.217724 0.211960 0.181160
O O13 0.185385 0.098123 0.292584
O O14 0.348072 0.101980 0.406319
O O15 0.099936 0.000000 0.322371
O O16 0.000000 0.927517 0.000000
O O17 0.000000 0.365873 0.500000
#
# Coordination Sequence:
#
# PCOD9221640 Si02
#       8
#     8   2   8   8   8   8   8   8
#     4  12  23  44  66 108 142 180 230 295 372 436
#     4  12  28  36  72 106 148 188 224 288 388 440
#     4  11  23  41  73 100 145 176 233 289 368 435
#     4  11  28  48  68  98 144 196 247 302 361 424
#     4  11  24  43  73 101 133 185 239 300 360 428
#     4  11  25  42  74 102 140 184 239 295 363 433
#     4  11  26  43  64 105 145 192 233 291 370 452
#     4  11  25  48  74 107 140 189 251 305 356 426
#
# _framework density 23.33052
#
# number of rings (size 3 to 8) (size 9 to 14) (size 15 to 20)
#    0.000    0.828    2.759    3.724    6.759    2.483 
#    0.000    0.000    0.000    0.000    0.000    0.000 
#    0.000    0.000    0.000    0.000    0.000    0.000 
#
# Total GULP energy -161740.797097 kJ/mol
# GULP energy per Si atom -5577.268865 kJ/mol
# Density = 2.327742 g / cm^3
# Si number density = 23.330520 Si / 1000 Ang^3
#
#
#
# Elastic Constant Matrix: (Units=GPa)
#
#
# Indices 1 2 3 4 5 6 
#
# 1 92.6062 21.8640 2.9539 0.0000 12.5973 0.0000
# 2 21.8640 92.8135 20.2483 0.0000 0.9475 0.0000
# 3 2.9539 20.2483 40.1260 0.0000 14.5902 0.0000
# 4 0.0000 0.0000 0.0000 27.6171 0.0000 22.7902
# 5 12.5973 0.9475 14.5902 0.0000 38.7293 0.0000
# 6 0.0000 0.0000 0.0000 22.7902 0.0000 44.0535
#
#
#
# Elastic Compliance Matrix: (Units=1/GPa)
#
#
# Indices 1 2 3 4 5 6 
#
# 1 0.012173 -0.003379 0.002571 0.000000 -0.004845 0.000000
# 2 -0.003379 0.013228 -0.007773 0.000000 0.003704 0.000000
# 3 0.002571 -0.007773 0.033475 0.000000 -0.013257 0.000000
# 4 0.000000 0.000000 0.000000 0.063183 0.000000 -0.032687
# 5 -0.004845 0.003704 -0.013257 0.000000 0.032300 0.000000
# 6 0.000000 0.000000 0.000000 -0.032687 0.000000 0.039609
#
#
# Mechanical properties :
#
#
# Convention : Reuss Voigt Hill
#
# Bulk Modulus (GPa) = 23.97293 35.07532 29.52412
# Shear Modulus (GPa) = 22.21862 34.11193 28.16527
#
# Velocity S-wave (km/s) = 3.08935 3.82791 3.47829
# Velocity P-wave (km/s) = 4.79824 5.88251 5.36782
#
# Compressibility (1/GPa) = 0.04171372
#
# Stress axis : x y z
#
# Youngs Moduli (GPa) = 82.14692 75.59553 29.87301
#
# Poissons Ratio (x) = 0.25544 -0.07680
# Poissons Ratio (y) = 0.27758 0.23221
# Poissons Ratio (z) = -0.21118 0.58762
#
# Static dielectric constant tensor:
#      x y z
#    x 2.037660 0.000000 -0.104840 
#    y 0.000000 1.955680 0.000000 
#    z -0.104840 0.000000 1.910920 
# 
# From -- ./inp_files/169001.got.cif
#   From: 2010.05.17/outbox.cif.g08.bks.cpg/sg12_85_cif.got.tgz:169001.got - 2010.06.03 13:09:07.
