data_PCOD9221670
_publ_section_title
;
Structure prediction by ZEFSAII (Michael W. Deem and Ramdas Pophale) SiO2 
 PCOD9221670
Probable space group: C 2/M
;
_chemical_formula_sum "Si O2"
_cell_formula_units_Z 48
_cell_length_a 11.916073
_cell_length_b 19.208365
_cell_length_c 15.153462
_cell_angle_alpha 90.000000
_cell_angle_beta 37.711442
_cell_angle_gamma 90.000000
_cell_volume 2121.598868
_symmetry_space_group_name_H-M "C 2/M"
_symmetry_group_IT_number 12
_symmetry_cell_setting 'monoclinic'
loop_
_space_group_symop_operation_xyz
x,y,z
-x,y,-z
-x,-y,-z
x,-y,z
1/2+x,1/2+y,z
1/2-x,1/2+y,-z
1/2-x,1/2-y,-z
1/2+x,1/2-y,z
loop_
_atom_site_type_symbol
_atom_site_label
_atom_site_fract_x
_atom_site_fract_y
_atom_site_fract_z
Si Si1 0.998300 0.368038 0.289046
Si Si2 0.685342 0.072457 0.441647
Si Si3 0.718997 0.081153 0.847720
Si Si4 0.179976 0.175434 0.777681
Si Si5 0.284984 0.334176 0.976886
Si Si6 0.788485 0.181859 0.651887
O O1 0.159374 0.347669 0.256626
O O2 0.879615 0.423147 0.417315
O O3 0.837011 0.317093 0.357311
O O4 0.117215 0.375965 0.126439
O O5 0.500000 0.068158 0.500000
O O6 0.775354 0.141448 0.345998
O O7 0.790782 0.000000 0.360071
O O8 0.805974 0.132632 0.867093
O O9 0.771085 0.111127 0.718955
O O10 0.772747 0.000000 0.823733
O O11 0.500000 0.085273 0.000000
O O12 0.199120 0.257900 0.765893
O O13 0.968758 0.155116 0.920027
O O14 0.250000 0.250000 0.000000
O O15 0.000000 0.196971 0.500000
#
# Coordination Sequence:
#
# PCOD9221670 Si02
#       6
#     8   8   8   8   8   8
#     4  11  23  42  66  98 130 179 224 275 341 397
#     4   9  21  41  63  93 133 174 218 274 336 400
#     4  11  25  47  70  98 141 184 228 283 345 403
#     4  11  24  42  70 100 137 177 228 284 341 400
#     4  12  23  43  70  99 137 180 230 285 335 402
#     4  12  26  43  69 102 138 178 230 283 339 411
#
# _framework density 22.624445999999999
#
# number of rings (size 3 to 8) (size 9 to 14) (size 15 to 20)
#    0.000    1.000    3.333    3.000    2.333    3.667 
#    0.000    0.000    0.000    5.000    0.000    0.000 
#    0.000    0.000    0.000    0.000    0.000    0.000 
#
# Total GULP energy -133714.691702 kJ/mol
# GULP energy per Si atom -5571.445488 kJ/mol
# Density = 2.257295 g / cm^3
# Si number density = 22.624446 Si / 1000 Ang^3
#
#
#
# Elastic Constant Matrix: (Units=GPa)
#
#
# Indices 1 2 3 4 5 6 
#
# 1 118.5277 18.4066 22.9938 -0.0008 -21.2802 0.0012
# 2 18.4066 92.0538 -2.0566 -0.0063 12.0020 0.0023
# 3 22.9938 -2.0566 60.1246 -0.0067 -6.4859 -0.0017
# 4 -0.0008 -0.0063 -0.0067 22.3022 0.0007 1.2294
# 5 -21.2802 12.0020 -6.4859 0.0007 44.2704 0.0003
# 6 0.0012 0.0023 -0.0017 1.2294 0.0003 -3.6727
#
#
#
# Elastic Compliance Matrix: (Units=1/GPa)
#
#
# Indices 1 2 3 4 5 6 
#
# 1 0.010528 -0.002878 -0.003551 -0.000002 0.005321 0.000003
# 2 -0.002878 0.012048 0.001027 0.000003 -0.004499 0.000007
# 3 -0.003551 0.001027 0.018097 0.000006 0.000666 -0.000007
# 4 -0.000002 0.000003 0.000006 0.044026 -0.000002 0.014738
# 5 0.005321 -0.004499 0.000666 -0.000002 0.026463 0.000000
# 6 0.000003 0.000007 -0.000007 0.014738 0.000000 -0.267343
#
#
# Mechanical properties :
#
#
# Convention : Reuss Voigt Hill
#
# Bulk Modulus (GPa) = 33.47796 38.82153 36.14975
# Shear Modulus (GPa) = -36.92210 28.00411 -4.45900
#
# Velocity S-wave (km/s) = -4.04413 3.52203 -1.40540
# Velocity P-wave (km/s) = 2.64145 5.80826 3.65778
#
# Compressibility (1/GPa) = 0.02987039
#
# Stress axis : x y z
#
# Youngs Moduli (GPa) = 94.98577 82.99934 55.25767
#
# Poissons Ratio (x) = 0.23888 0.19620
# Poissons Ratio (y) = 0.27338 -0.05678
# Poissons Ratio (z) = 0.33727 -0.08528
#
# Static dielectric constant tensor:
#      x y z
#    x 1.894840 0.000000 0.055360 
#    y 0.000000 1.869770 0.000000 
#    z 0.055360 0.000000 1.912150 
# 
# From -- ./inp_files/207926.got.cif
#   From: 2010.05.17/outbox.cif.g08.bks.cpg/sg12_104_cif.got.tgz:207926.got - 2010.06.03 13:09:07.
