data_PCOD9221573
_publ_section_title
;
Structure prediction by ZEFSAII (Michael W. Deem and Ramdas Pophale) SiO2 
 PCOD9221573
Probable space group: C 2/M
;
_chemical_formula_sum "Si O2"
_cell_formula_units_Z 36
_cell_length_a 15.458988
_cell_length_b 24.629115
_cell_length_c 7.868390
_cell_angle_alpha 90.000000
_cell_angle_beta 34.558064
_cell_angle_gamma 90.000000
_cell_volume 1699.352410
_symmetry_space_group_name_H-M "C 2/M"
_symmetry_group_IT_number 12
_symmetry_cell_setting 'monoclinic'
loop_
_space_group_symop_operation_xyz
x,y,z
-x,y,-z
-x,-y,-z
x,-y,z
1/2+x,1/2+y,z
1/2-x,1/2+y,-z
1/2-x,1/2-y,-z
1/2+x,1/2-y,z
loop_
_atom_site_type_symbol
_atom_site_label
_atom_site_fract_x
_atom_site_fract_y
_atom_site_fract_z
Si Si1 0.000000 0.829491 0.500000
Si Si2 0.199809 0.644068 0.857474
Si Si3 0.948743 0.561434 0.387491
Si Si4 0.683992 0.632910 0.713781
Si Si5 0.904807 0.764594 0.979859
O O1 0.150234 0.866008 0.272178
O O2 0.008682 0.791691 0.318769
O O3 0.251130 0.640747 0.579452
O O4 0.155385 0.706001 0.972050
O O5 0.063129 0.603025 0.110807
O O6 0.960232 0.500000 0.302805
O O7 0.778038 0.584286 0.643912
O O8 0.000000 0.561506 0.500000
O O9 0.713325 0.688502 0.771559
O O10 0.500000 0.625321 0.000000
O O11 0.000000 0.756545 0.000000
#
# Coordination Sequence:
#
# PCOD9221573 Si02
#       5
#     4   8   8   8   8
#     4  12  24  40  65 106 139 194 232 284 358 420
#     4  12  25  42  72  99 145 187 236 294 346 428
#     4  11  27  48  71 103 140 185 241 299 351 415
#     4  11  23  45  72 100 145 183 232 292 349 424
#     4  11  23  41  65 103 146 182 234 284 354 419
#
# _framework density 21.184539999999998
#
# number of rings (size 3 to 8) (size 9 to 14) (size 15 to 20)
#    0.000    0.667    4.444    4.667    4.667    2.222 
#    0.000    0.556    0.000    0.000    0.000    0.000 
#    0.000    0.000    0.000    0.000    0.000    0.000 
#
# Total GULP energy -100653.864245 kJ/mol
# GULP energy per Si atom -5591.881347 kJ/mol
# Density = 2.113632 g / cm^3
# Si number density = 21.184540 Si / 1000 Ang^3
#
#
#
# Elastic Constant Matrix: (Units=GPa)
#
#
# Indices 1 2 3 4 5 6 
#
# 1 70.8248 33.6224 19.8201 0.0000 -14.2209 0.0000
# 2 33.6224 142.3862 62.9106 0.0000 -20.0640 0.0000
# 3 19.8201 62.9106 105.6552 0.0000 -0.8464 0.0000
# 4 0.0000 0.0000 0.0000 -9.5501 0.0000 -73.9838
# 5 -14.2209 -20.0640 -0.8464 0.0000 46.0788 0.0000
# 6 0.0000 0.0000 0.0000 -73.9838 0.0000 -115.3163
#
#
#
# Elastic Compliance Matrix: (Units=1/GPa)
#
#
# Indices 1 2 3 4 5 6 
#
# 1 0.016607 -0.002724 -0.001462 0.000000 0.003912 0.000000
# 2 -0.002724 0.010796 -0.005887 0.000000 0.003752 0.000000
# 3 -0.001462 -0.005887 0.013222 0.000000 -0.002772 0.000000
# 4 0.000000 0.000000 0.000000 0.026374 0.000000 -0.016921
# 5 0.003912 0.003752 -0.002772 0.000000 0.024492 0.000000
# 6 0.000000 0.000000 0.000000 -0.016921 0.000000 0.002184
#
#
# Mechanical properties :
#
#
# Convention : Reuss Voigt Hill
#
# Bulk Modulus (GPa) = 48.83112 61.28584 55.05848
# Shear Modulus (GPa) = 41.44205 -2.25664 19.59271
#
# Velocity S-wave (km/s) = 4.42774 -1.03322 3.04445
# Velocity P-wave (km/s) = 7.01714 5.25061 6.19714
#
# Compressibility (1/GPa) = 0.02047874
#
# Stress axis : x y z
#
# Youngs Moduli (GPa) = 60.21438 92.62295 75.62950
#
# Poissons Ratio (x) = 0.25234 0.11056
# Poissons Ratio (y) = 0.16405 0.44526
# Poissons Ratio (z) = 0.08803 0.54531
#
# Static dielectric constant tensor:
#      x y z
#    x 1.816290 0.000000 -0.020920 
#    y 0.000000 1.750530 0.000000 
#    z -0.020920 0.000000 1.779130 
# 
# From -- ./inp_files/39543.got.cif
#   From: 2010.05.17/outbox.cif.g08.bks.cpg/sg12_20_cif.got.tgz:39543.got - 2010.06.03 13:09:07.
