data_PCOD9221276
_publ_section_title
;
Structure prediction by ZEFSAII (Michael W. Deem and Ramdas Pophale) SiO2 
 PCOD9221276
Probable space group: C 2/M
;
_chemical_formula_sum "Si O2"
_cell_formula_units_Z 36
_cell_length_a 14.352841
_cell_length_b 24.183531
_cell_length_c 5.466518
_cell_angle_alpha 90.000000
_cell_angle_beta 112.657894
_cell_angle_gamma 90.000000
_cell_volume 1750.999585
_symmetry_space_group_name_H-M "C 2/M"
_symmetry_group_IT_number 12
_symmetry_cell_setting 'monoclinic'
loop_
_space_group_symop_operation_xyz
x,y,z
-x,y,-z
-x,-y,-z
x,-y,z
1/2+x,1/2+y,z
1/2-x,1/2+y,-z
1/2-x,1/2-y,-z
1/2+x,1/2-y,z
loop_
_atom_site_type_symbol
_atom_site_label
_atom_site_fract_x
_atom_site_fract_y
_atom_site_fract_z
Si Si1 0.729900 0.126750 0.203954
Si Si2 0.110797 0.218893 0.495425
Si Si3 0.906892 0.940070 0.220578
Si Si4 0.619117 0.848578 0.582917
Si Si5 0.000000 0.843270 0.000000
O O1 0.802276 0.180235 0.312016
O O2 0.804960 0.074823 0.259523
O O3 0.661206 0.123793 0.377255
O O4 0.672270 0.133317 0.888543
O O5 0.134938 0.282769 0.554240
O O6 0.084587 0.197180 0.198886
O O7 0.000000 0.208442 0.500000
O O8 0.000000 0.942749 0.500000
O O9 0.898554 0.000000 0.086048
O O10 0.933783 0.887293 0.085056
O O11 0.500000 0.857341 0.500000
#
# Coordination Sequence:
#
# PCOD9221276 Si02
#       5
#     8   8   8   8   4
#     4  12  22  44  64  95 129 174 228 267 326 385
#     4  11  23  36  62  97 138 174 209 259 331 410
#     4  11  24  41  66  99 133 170 212 273 341 402
#     4  11  27  41  64  91 133 180 226 272 314 380
#     4  12  19  40  62  96 146 170 203 254 332 412
#
# _framework density 20.559683
#
# number of rings (size 3 to 8) (size 9 to 14) (size 15 to 20)
#    0.000    0.667    4.444    3.667    6.222    0.000 
#    0.000    0.000    0.000    4.000    0.000    0.000 
#    0.000    0.000    0.000    0.000    0.000    0.000 
#
# Total GULP energy -100505.172849 kJ/mol
# GULP energy per Si atom -5583.620714 kJ/mol
# Density = 2.051289 g / cm^3
# Si number density = 20.559683 Si / 1000 Ang^3
#
#
#
# Elastic Constant Matrix: (Units=GPa)
#
#
# Indices 1 2 3 4 5 6 
#
# 1 114.1684 39.8963 52.3290 0.0000 -11.2586 0.0000
# 2 39.8963 51.7215 39.6824 0.0000 9.1460 0.0000
# 3 52.3290 39.6824 138.3953 0.0000 9.3527 0.0000
# 4 0.0000 0.0000 0.0000 49.4237 0.0000 69.3475
# 5 -11.2586 9.1460 9.3527 0.0000 37.3590 0.0000
# 6 0.0000 0.0000 0.0000 69.3475 0.0000 116.6964
#
#
#
# Elastic Compliance Matrix: (Units=1/GPa)
#
#
# Indices 1 2 3 4 5 6 
#
# 1 0.014464 -0.010144 -0.003075 0.000000 0.007612 0.000000
# 2 -0.010144 0.032621 -0.004854 0.000000 -0.009828 0.000000
# 3 -0.003075 -0.004854 0.009930 0.000000 -0.002224 0.000000
# 4 0.000000 0.000000 0.000000 0.121751 0.000000 -0.072351
# 5 0.007612 -0.009828 -0.002224 0.000000 0.032024 0.000000
# 6 0.000000 0.000000 0.000000 -0.072351 0.000000 0.051564
#
#
# Mechanical properties :
#
#
# Convention : Reuss Voigt Hill
#
# Bulk Modulus (GPa) = 47.91534 63.12229 55.51881
# Shear Modulus (GPa) = 16.36897 52.18764 34.27830
#
# Velocity S-wave (km/s) = 2.82471 5.04367 4.08764
# Velocity P-wave (km/s) = 5.83050 8.04281 7.02430
#
# Compressibility (1/GPa) = 0.02087014
#
# Stress axis : x y z
#
# Youngs Moduli (GPa) = 69.13853 30.65532 100.70145
#
# Poissons Ratio (x) = 0.31096 0.30963
# Poissons Ratio (y) = 0.70133 0.48878
# Poissons Ratio (z) = 0.21258 0.14879
#
# Static dielectric constant tensor:
#      x y z
#    x 1.825410 0.000000 -0.093880 
#    y 0.000000 1.703790 0.000000 
#    z -0.093880 0.000000 1.848200 
# 
# From -- ./inp_files/11442.got.cif
#   From: 2010.05.17/outbox.cif.g08.bks.cpg/sg12_6_cif.got.tgz:11442.got - 2010.06.03 13:09:07.
