data_PCOD9221291
_publ_section_title
;
Structure prediction by ZEFSAII (Michael W. Deem and Ramdas Pophale) SiO2 
 PCOD9221291
Probable space group: C 2/M
;
_chemical_formula_sum "Si O2"
_cell_formula_units_Z 56
_cell_length_a 17.177097
_cell_length_b 25.440136
_cell_length_c 8.659807
_cell_angle_alpha 90.000000
_cell_angle_beta 59.725108
_cell_angle_gamma 90.000000
_cell_volume 3268.122835
_symmetry_space_group_name_H-M "C 2/M"
_symmetry_group_IT_number 12
_symmetry_cell_setting 'monoclinic'
loop_
_space_group_symop_operation_xyz
x,y,z
-x,y,-z
-x,-y,-z
x,-y,z
1/2+x,1/2+y,z
1/2-x,1/2+y,-z
1/2-x,1/2-y,-z
1/2+x,1/2-y,z
loop_
_atom_site_type_symbol
_atom_site_label
_atom_site_fract_x
_atom_site_fract_y
_atom_site_fract_z
Si Si1 0.891660 0.000000 0.422093
Si Si2 0.391660 0.500000 0.794587
Si Si3 0.838603 0.889167 0.977277
Si Si4 0.500000 0.212691 0.179447
Si Si5 0.500000 0.675525 0.678372
Si Si6 0.804917 0.699622 0.877689
Si Si7 0.338603 0.610833 0.345517
Si Si8 0.304917 0.199622 0.512476
O O1 0.844210 0.948684 0.398367
O O2 0.885002 0.000000 0.614998
O O3 0.000000 0.000000 0.276067
O O4 0.344210 0.448684 0.913212
O O5 0.914164 0.859182 0.803801
O O6 0.749299 0.854468 0.040785
O O7 0.858574 0.887433 0.141425
O O8 0.499999 0.275119 0.208984
O O9 0.594299 0.194817 0.158365
O O10 0.405701 0.194817 0.346963
O O11 0.500000 0.200236 0.000000
O O12 0.500000 0.692658 0.500000
O O13 0.585835 0.640817 0.632131
O O14 0.809745 0.708597 0.690255
O O15 0.750000 0.750000 0.000000
O O16 0.249299 0.645532 0.460617
O O17 0.250000 0.250000 0.500000
#
# Coordination Sequence:
#
# PCOD9221291 Si02
#       8
#     4   4   8   8   8   8   8   8
#     4  11  23  37  57  86 118 155 194 236 289 345
#     4  11  23  37  57  86 118 155 194 236 289 345
#     4  11  23  38  58  84 117 155 195 238 290 348
#     4  12  24  38  57  84 119 158 198 237 290 349
#     4  12  22  33  55  84 119 155 193 239 286 341
#     4  11  23  38  59  86 118 154 195 241 293 346
#     4  11  23  38  58  84 117 155 195 238 290 348
#     4  11  23  38  59  86 118 154 195 241 293 346
#
# _framework density 17.13522
#
# number of rings (size 3 to 8) (size 9 to 14) (size 15 to 20)
#    0.000    0.714    4.286    4.714    0.000    4.000 
#    0.000    0.000    0.000    0.857    0.000    6.000 
#    0.000    0.000    0.000    0.000    0.000    0.000 
#
# Total GULP energy -156398.022950 kJ/mol
# GULP energy per Si atom -5585.643677 kJ/mol
# Density = 1.709622 g / cm^3
# Si number density = 17.135220 Si / 1000 Ang^3
#
#
#
# Elastic Constant Matrix: (Units=GPa)
#
#
# Indices 1 2 3 4 5 6 
#
# 1 129.1079 51.3831 69.8313 0.0000 -12.3006 0.0000
# 2 51.3831 102.3799 45.5591 0.0000 -6.5542 0.0000
# 3 69.8313 45.5591 107.6091 0.0000 -11.8968 0.0000
# 4 0.0000 0.0000 0.0000 28.2931 0.0000 0.7335
# 5 -12.3006 -6.5542 -11.8968 0.0000 24.6284 0.0000
# 6 0.0000 0.0000 0.0000 0.7335 0.0000 27.6416
#
#
#
# Elastic Compliance Matrix: (Units=1/GPa)
#
#
# Indices 1 2 3 4 5 6 
#
# 1 0.012935 -0.003354 -0.006717 0.000000 0.002323 0.000000
# 2 -0.003354 0.012919 -0.003273 0.000000 0.000182 0.000000
# 3 -0.006717 -0.003273 0.015392 0.000000 0.003209 0.000000
# 4 0.000000 0.000000 0.000000 0.035369 0.000000 -0.000939
# 5 0.002323 0.000182 0.003209 0.000000 0.043363 0.000000
# 6 0.000000 0.000000 0.000000 -0.000939 0.000000 0.036202
#
#
# Mechanical properties :
#
#
# Convention : Reuss Voigt Hill
#
# Bulk Modulus (GPa) = 68.69007 74.73822 71.71415
# Shear Modulus (GPa) = 26.63546 27.60085 27.11815
#
# Velocity S-wave (km/s) = 3.94690 4.01779 3.98250
# Velocity P-wave (km/s) = 7.80671 8.07681 7.94291
#
# Compressibility (1/GPa) = 0.01455815
#
# Stress axis : x y z
#
# Youngs Moduli (GPa) = 77.31185 77.40556 64.96777
#
# Poissons Ratio (x) = 0.25962 0.43638
# Poissons Ratio (y) = 0.25930 0.21264
# Poissons Ratio (z) = 0.51930 0.25334
#
# Static dielectric constant tensor:
#      x y z
#    x 1.602760 0.000000 -0.016250 
#    y 0.000000 1.581590 0.000000 
#    z -0.016250 0.000000 1.588320 
# 
# From -- ./inp_files/65816.got.cif
#   From: 2010.05.17/outbox.cif.g08.bks.cpg/sg12_33_cif.got.tgz:65816.got - 2010.06.03 13:09:07.
