data_PCOD9221333
_publ_section_title
;
Structure prediction by ZEFSAII (Michael W. Deem and Ramdas Pophale) SiO2 
 PCOD9221333
Probable space group: C 2/M
;
_chemical_formula_sum "Si O2"
_cell_formula_units_Z 40
_cell_length_a 9.239119
_cell_length_b 25.874850
_cell_length_c 11.988741
_cell_angle_alpha 90.000000
_cell_angle_beta 137.725054
_cell_angle_gamma 90.000000
_cell_volume 1927.952471
_symmetry_space_group_name_H-M "C 2/M"
_symmetry_group_IT_number 12
_symmetry_cell_setting 'monoclinic'
loop_
_space_group_symop_operation_xyz
x,y,z
-x,y,-z
-x,-y,-z
x,-y,z
1/2+x,1/2+y,z
1/2-x,1/2+y,-z
1/2-x,1/2-y,-z
1/2+x,1/2-y,z
loop_
_atom_site_type_symbol
_atom_site_label
_atom_site_fract_x
_atom_site_fract_y
_atom_site_fract_z
Si Si1 0.211243 0.593292 0.041369
Si Si2 0.186185 0.940198 0.342305
Si Si3 0.468738 0.218984 0.608735
Si Si4 0.538911 0.895652 0.701056
Si Si5 0.262470 0.209871 0.906836
O O1 0.427150 0.563077 0.199123
O O2 0.302198 0.652366 0.097124
O O3 0.126315 0.582663 0.867831
O O4 0.000000 0.587294 0.000000
O O5 0.316765 0.919218 0.524855
O O6 0.282993 0.908022 0.292607
O O7 0.245031 0.000000 0.359259
O O8 0.500000 0.202209 0.500000
O O9 0.250000 0.250000 0.500000
O O10 0.498878 0.165938 0.693850
O O11 0.638778 0.262516 0.736972
O O12 0.500000 0.204136 0.000000
O O13 0.250000 0.250000 0.000000
#
# Coordination Sequence:
#
# PCOD9221333 Si02
#       5
#     8   8   8   8   8
#     4  11  26  44  65 101 141 176 220 276 341 407
#     4  11  25  47  74  99 128 170 233 294 338 390
#     4  12  24  39  63  97 134 179 220 267 324 397
#     4  11  23  44  70  98 133 176 228 280 330 396
#     4  11  23  38  61  91 133 175 212 258 317 390
#
# _framework density 20.747399999999999
#
# number of rings (size 3 to 8) (size 9 to 14) (size 15 to 20)
#    0.000    0.800    4.000    4.200    5.600    3.600 
#    0.000    1.000    0.000    0.000    0.000    0.000 
#    0.000    0.000    0.000    0.000    0.000    0.000 
#
# Total GULP energy -111658.370219 kJ/mol
# GULP energy per Si atom -5582.918511 kJ/mol
# Density = 2.070018 g / cm^3
# Si number density = 20.747400 Si / 1000 Ang^3
#
#
#
# Elastic Constant Matrix: (Units=GPa)
#
#
# Indices 1 2 3 4 5 6 
#
# 1 50.1386 16.8812 32.3583 0.0000 7.2233 0.0000
# 2 16.8812 99.9775 20.5690 0.0000 17.5471 0.0000
# 3 32.3583 20.5690 140.1299 0.0000 10.7939 0.0000
# 4 0.0000 0.0000 0.0000 16.3337 0.0000 8.6155
# 5 7.2233 17.5471 10.7939 0.0000 38.8304 0.0000
# 6 0.0000 0.0000 0.0000 8.6155 0.0000 18.8919
#
#
#
# Elastic Compliance Matrix: (Units=1/GPa)
#
#
# Indices 1 2 3 4 5 6 
#
# 1 0.024428 -0.002746 -0.005092 0.000000 -0.001888 0.000000
# 2 -0.002746 0.011389 -0.000696 0.000000 -0.004442 0.000000
# 3 -0.005092 -0.000696 0.008499 0.000000 -0.001101 0.000000
# 4 0.000000 0.000000 0.000000 0.080615 0.000000 -0.036764
# 5 -0.001888 -0.004442 -0.001101 0.000000 0.028418 0.000000
# 6 0.000000 0.000000 0.000000 -0.036764 0.000000 0.069699
#
#
# Mechanical properties :
#
#
# Convention : Reuss Voigt Hill
#
# Bulk Modulus (GPa) = 36.69938 47.76255 42.23097
# Shear Modulus (GPa) = 20.06453 29.50704 24.78579
#
# Velocity S-wave (km/s) = 3.11318 3.77530 3.46011
# Velocity P-wave (km/s) = 5.53620 6.48651 6.03011
#
# Compressibility (1/GPa) = 0.02724842
#
# Stress axis : x y z
#
# Youngs Moduli (GPa) = 40.93736 87.80704 117.66055
#
# Poissons Ratio (x) = 0.24108 0.59916
# Poissons Ratio (y) = 0.11240 0.08183
# Poissons Ratio (z) = 0.20847 0.06107
#
# Static dielectric constant tensor:
#      x y z
#    x 1.859110 0.000000 0.171560 
#    y 0.000000 2.298610 0.000000 
#    z 0.171560 0.000000 1.992050 
# 
# From -- ./inp_files/125478.got.cif
#   From: 2010.05.17/outbox.cif.g08.bks.cpg/sg12_63_cif.got.tgz:125478.got - 2010.06.03 13:09:07.
