data_PCOD9221037
_publ_section_title
;
Structure prediction by ZEFSAII (Michael W. Deem and Ramdas Pophale) SiO2 
 PCOD9221037
Probable space group: C 2/M
;
_chemical_formula_sum "Si O2"
_cell_formula_units_Z 64
_cell_length_a 12.162180
_cell_length_b 30.217702
_cell_length_c 18.605815
_cell_angle_alpha 90.000000
_cell_angle_beta 151.091842
_cell_angle_gamma 90.000000
_cell_volume 3305.479905
_symmetry_space_group_name_H-M "C 2/M"
_symmetry_group_IT_number 12
_symmetry_cell_setting 'monoclinic'
loop_
_space_group_symop_operation_xyz
x,y,z
-x,y,-z
-x,-y,-z
x,-y,z
1/2+x,1/2+y,z
1/2-x,1/2+y,-z
1/2-x,1/2-y,-z
1/2+x,1/2-y,z
loop_
_atom_site_type_symbol
_atom_site_label
_atom_site_fract_x
_atom_site_fract_y
_atom_site_fract_z
Si Si1 0.845596 0.131032 0.206785
Si Si2 0.229068 0.377199 0.860442
Si Si3 0.020751 0.748102 0.149605
Si Si4 0.405260 0.948050 0.329590
Si Si5 0.818870 0.207641 0.622552
Si Si6 0.867882 0.948034 0.685192
Si Si7 0.595576 0.213656 0.709329
Si Si8 0.482675 0.852034 0.111654
O O1 0.697533 0.125821 0.194339
O O2 0.053210 0.165005 0.335713
O O3 0.938675 0.084599 0.231191
O O4 0.693669 0.152278 0.055768
O O5 0.123409 0.417954 0.756078
O O6 0.137087 0.332039 0.772685
O O7 0.145812 0.375631 0.895712
O O8 0.500000 0.378385 0.000000
O O9 0.068218 0.696086 0.187433
O O10 0.121755 0.785186 0.260642
O O11 0.162702 0.761889 0.160980
O O12 0.750000 0.750000 0.000000
O O13 0.649024 0.942747 0.507872
O O14 0.219541 0.936147 0.284733
O O15 0.377047 0.000000 0.296991
O O16 0.558313 0.205874 0.449710
O O17 0.936045 0.252244 0.660199
O O18 0.929744 0.000000 0.720465
#
# Coordination Sequence:
#
# PCOD9221037 Si02
#       8
#     8   8   8   8   8   8   8   8
#     4  11  22  41  63  86 120 162 209 252 314 375
#     4  12  24  40  60  90 126 159 203 256 314 370
#     4  12  22  39  60  83 121 165 211 259 302 360
#     4   9  20  40  66  94 123 153 198 254 311 372
#     4  11  23  39  59  84 123 162 211 255 304 365
#     4   9  19  40  68  94 119 155 200 253 309 368
#     4  11  25  38  56  89 120 162 209 259 306 362
#     4  11  24  39  58  89 123 162 205 253 308 372
#
# _framework density 19.361788000000001
#
# number of rings (size 3 to 8) (size 9 to 14) (size 15 to 20)
#    0.000    1.250    3.750    3.375    1.750    0.250 
#    0.000    5.000    0.000    1.500    0.000    0.000 
#    0.000    0.000    0.000    0.000    0.000    0.000 
#
# Total GULP energy -178482.298020 kJ/mol
# GULP energy per Si atom -5577.571813 kJ/mol
# Density = 1.931772 g / cm^3
# Si number density = 19.361788 Si / 1000 Ang^3
#
#
#
# Elastic Constant Matrix: (Units=GPa)
#
#
# Indices 1 2 3 4 5 6 
#
# 1 123.7976 44.5293 39.9425 -0.0003 11.4150 -0.0001
# 2 44.5293 62.9550 12.3264 0.0000 3.7337 0.0001
# 3 39.9425 12.3264 64.9275 -0.0002 11.5760 0.0003
# 4 -0.0003 0.0000 -0.0002 25.3987 -0.0002 5.4855
# 5 11.4150 3.7337 11.5760 -0.0002 29.2585 0.0000
# 6 -0.0001 0.0001 0.0003 5.4855 0.0000 17.7971
#
#
#
# Elastic Compliance Matrix: (Units=1/GPa)
#
#
# Indices 1 2 3 4 5 6 
#
# 1 0.013108 -0.007948 -0.006266 0.000000 -0.001621 0.000000
# 2 -0.007948 0.021341 0.000829 0.000000 0.000049 0.000000
# 3 -0.006266 0.000829 0.020100 0.000000 -0.005614 0.000000
# 4 0.000000 0.000000 0.000000 0.042180 0.000000 -0.013001
# 5 -0.001621 0.000049 -0.005614 0.000000 0.037025 0.000000
# 6 0.000000 0.000000 0.000000 -0.013001 0.000000 0.060196
#
#
# Mechanical properties :
#
#
# Convention : Reuss Voigt Hill
#
# Bulk Modulus (GPa) = 35.99842 49.47516 42.73679
# Shear Modulus (GPa) = 21.74109 24.81631 23.27870
#
# Velocity S-wave (km/s) = 3.35458 3.58399 3.47118
# Velocity P-wave (km/s) = 5.79976 6.53721 6.17949
#
# Compressibility (1/GPa) = 0.02777900
#
# Stress axis : x y z
#
# Youngs Moduli (GPa) = 76.29073 46.85790 49.75164
#
# Poissons Ratio (x) = 0.37245 0.31173
# Poissons Ratio (y) = 0.60639 -0.04126
# Poissons Ratio (z) = 0.47802 -0.03886
#
# Static dielectric constant tensor:
#      x y z
#    x 1.482540 0.000000 -0.709430 
#    y 0.000000 1.641810 0.000000 
#    z -0.709430 0.000000 0.132790 
# 
# From -- ./inp_files/80762.got.cif
#   From: 2010.05.17/outbox.cif.g08.bks.cpg/sg12_41_cif.got.tgz:80762.got - 2010.06.03 13:09:07.
