data_PCOD9221116
_publ_section_title
;
Structure prediction by ZEFSAII (Michael W. Deem and Ramdas Pophale) SiO2 
 PCOD9221116
Probable space group: C 2/M
;
_chemical_formula_sum "Si O2"
_cell_formula_units_Z 40
_cell_length_a 11.544007
_cell_length_b 18.944232
_cell_length_c 17.540588
_cell_angle_alpha 90.000000
_cell_angle_beta 147.149577
_cell_angle_gamma 90.000000
_cell_volume 2080.825379
_symmetry_space_group_name_H-M "C 2/M"
_symmetry_group_IT_number 12
_symmetry_cell_setting 'monoclinic'
loop_
_space_group_symop_operation_xyz
x,y,z
-x,y,-z
-x,-y,-z
x,-y,z
1/2+x,1/2+y,z
1/2-x,1/2+y,-z
1/2-x,1/2-y,-z
1/2+x,1/2-y,z
loop_
_atom_site_type_symbol
_atom_site_label
_atom_site_fract_x
_atom_site_fract_y
_atom_site_fract_z
Si Si1 0.238916 0.638688 0.151582
Si Si2 0.000000 0.618211 0.500000
Si Si3 0.166069 0.000000 0.897371
Si Si4 0.155596 0.770677 0.365030
Si Si5 0.448271 0.000000 0.206019
Si Si6 0.804936 0.500000 0.291707
Si Si7 0.754972 0.874521 0.339814
O O1 0.290306 0.569863 0.128744
O O2 0.417283 0.698711 0.238461
O O3 0.244362 0.617867 0.243168
O O4 0.000000 0.663220 0.000000
O O5 0.803859 0.667451 0.414343
O O6 0.932874 0.567815 0.393430
O O7 0.318259 0.000000 0.055344
O O8 0.924344 0.000000 0.794441
O O9 0.250000 0.750000 0.500000
O O10 0.178941 0.702650 0.324392
O O11 0.601698 0.067798 0.292309
O O12 0.298602 0.000000 0.197303
O O13 0.000000 0.883830 0.500000
#
# Coordination Sequence:
#
# PCOD9221116 Si02
#       7
#     8   4   4   8   4   4   8
#     4  12  25  46  73 101 140 185 229 283 348 413
#     4  11  22  42  66 103 136 174 232 281 348 408
#     4  12  24  48  69  95 142 184 226 288 346 410
#     4  12  23  44  71 102 143 178 225 289 344 412
#     4  12  26  45  66 101 138 181 233 284 346 417
#     4  11  25  40  71 101 134 182 231 285 347 411
#     4  12  25  43  71 105 134 181 233 286 345 407
#
# _framework density 19.223140999999998
#
# number of rings (size 3 to 8) (size 9 to 14) (size 15 to 20)
#    0.000    0.200    7.000    2.700    0.000    0.800 
#    0.000    0.000    0.000    0.000    0.000    0.000 
#    0.000    0.000    0.000    0.000    0.000    0.000 
#
# Total GULP energy -111918.334342 kJ/mol
# GULP energy per Si atom -5595.916717 kJ/mol
# Density = 1.917939 g / cm^3
# Si number density = 19.223141 Si / 1000 Ang^3
#
#
#
# Elastic Constant Matrix: (Units=GPa)
#
#
# Indices 1 2 3 4 5 6 
#
# 1 131.4115 54.7610 58.7375 -0.0001 -7.7273 0.0000
# 2 54.7610 133.3844 51.9731 -0.0005 3.6229 -0.0001
# 3 58.7375 51.9731 137.5080 -0.0027 9.1057 -0.0015
# 4 -0.0001 -0.0005 -0.0027 26.9503 -0.0008 3.1204
# 5 -7.7273 3.6229 9.1057 -0.0008 45.1422 -0.0007
# 6 0.0000 -0.0001 -0.0015 3.1204 -0.0007 10.1299
#
#
#
# Elastic Compliance Matrix: (Units=1/GPa)
#
#
# Indices 1 2 3 4 5 6 
#
# 1 0.010645 -0.003052 -0.003578 0.000000 0.002789 0.000000
# 2 -0.003052 0.009667 -0.002295 0.000000 -0.000835 0.000000
# 3 -0.003578 -0.002295 0.009828 0.000001 -0.002411 0.000001
# 4 0.000000 0.000000 0.000001 0.038478 0.000000 -0.011853
# 5 0.002789 -0.000835 -0.002411 0.000000 0.023183 0.000001
# 6 0.000000 0.000000 0.000001 -0.011853 0.000001 0.102369
#
#
# Mechanical properties :
#
#
# Convention : Reuss Voigt Hill
#
# Bulk Modulus (GPa) = 81.36807 81.47190 81.41998
# Shear Modulus (GPa) = 23.13581 32.23328 27.68455
#
# Velocity S-wave (km/s) = 3.47297 4.09931 3.79907
# Velocity P-wave (km/s) = 7.64867 8.05481 7.85437
#
# Compressibility (1/GPa) = 0.01228983
#
# Stress axis : x y z
#
# Youngs Moduli (GPa) = 93.94326 103.44595 101.75242
#
# Poissons Ratio (x) = 0.31569 0.36409
# Poissons Ratio (y) = 0.28669 0.23351
# Poissons Ratio (z) = 0.33615 0.23740
#
# Static dielectric constant tensor:
#      x y z
#    x 1.657660 0.000000 0.005230 
#    y 0.000000 1.644620 0.000000 
#    z 0.005230 0.000000 1.660200 
# 
# From -- ./inp_files/265204.got.cif
#   From: 2010.05.17/outbox.cif.g08.bks.cpg/sg12_133_cif.got.tgz:265204.got - 2010.06.03 13:09:07.
