data_PCOD9221448
_publ_section_title
;
Structure prediction by ZEFSAII (Michael W. Deem and Ramdas Pophale) SiO2 
 PCOD9221448
Probable space group: C 2/M
;
_chemical_formula_sum "Si O2"
_cell_formula_units_Z 48
_cell_length_a 12.262624
_cell_length_b 21.106799
_cell_length_c 11.277200
_cell_angle_alpha 90.000000
_cell_angle_beta 58.480779
_cell_angle_gamma 90.000000
_cell_volume 2488.190007
_symmetry_space_group_name_H-M "C 2/M"
_symmetry_group_IT_number 12
_symmetry_cell_setting 'monoclinic'
loop_
_space_group_symop_operation_xyz
x,y,z
-x,y,-z
-x,-y,-z
x,-y,z
1/2+x,1/2+y,z
1/2-x,1/2+y,-z
1/2-x,1/2-y,-z
1/2+x,1/2-y,z
loop_
_atom_site_type_symbol
_atom_site_label
_atom_site_fract_x
_atom_site_fract_y
_atom_site_fract_z
Si Si1 0.298663 0.574298 0.248586
Si Si2 0.137653 0.215286 0.416804
Si Si3 0.336957 0.153170 0.466702
Si Si4 0.796124 0.747234 0.107120
Si Si5 0.000000 0.140879 0.000000
Si Si6 0.000000 0.362321 0.000000
Si Si7 0.558415 0.074534 0.218848
O O1 0.294606 0.500000 0.281049
O O2 0.240423 0.615747 0.388046
O O3 0.443627 0.595038 0.133850
O O4 0.201435 0.582928 0.191091
O O5 0.243585 0.168782 0.410332
O O6 0.126689 0.277614 0.505155
O O7 0.180995 0.241742 0.265077
O O8 0.000000 0.183306 0.500000
O O9 0.460464 0.114320 0.355653
O O10 0.882429 0.685943 0.085018
O O11 0.750000 0.750000 0.000000
O O12 0.882819 0.809538 0.066272
O O13 0.964360 0.402092 0.902934
O O14 0.528848 0.000000 0.243843
#
# Coordination Sequence:
#
# PCOD9221448 Si02
#       7
#     8   8   8   8   4   4   8
#     4  11  23  40  65  92 121 166 211 254 305 368
#     4  11  24  39  65  94 125 160 202 259 315 370
#     4  11  23  41  62  92 127 158 207 259 310 362
#     4  11  24  39  64  92 123 162 202 251 316 373
#     4  11  23  40  58  92 127 155 198 262 306 363
#     4  11  23  40  62  92 127 159 204 258 310 367
#     4  11  23  42  65  91 122 165 213 256 303 365
#
# _framework density 19.291131
#
# number of rings (size 3 to 8) (size 9 to 14) (size 15 to 20)
#    0.000    1.000    3.333    3.500    4.667    1.333 
#    0.000    0.000    0.000    4.000    0.000    0.000 
#    0.000    0.000    0.000    0.000    0.000    0.000 
#
# Total GULP energy -133919.071262 kJ/mol
# GULP energy per Si atom -5579.961303 kJ/mol
# Density = 1.924722 g / cm^3
# Si number density = 19.291131 Si / 1000 Ang^3
#
#
#
# Elastic Constant Matrix: (Units=GPa)
#
#
# Indices 1 2 3 4 5 6 
#
# 1 49.4156 9.7104 29.3144 0.0000 5.9792 0.0000
# 2 9.7104 87.1069 8.8872 0.0000 -0.9206 0.0000
# 3 29.3144 8.8872 96.2574 0.0000 -2.1304 0.0000
# 4 0.0000 0.0000 0.0000 28.2966 0.0000 3.1555
# 5 5.9792 -0.9206 -2.1304 0.0000 34.6369 0.0000
# 6 0.0000 0.0000 0.0000 3.1555 0.0000 14.2642
#
#
#
# Elastic Compliance Matrix: (Units=1/GPa)
#
#
# Indices 1 2 3 4 5 6 
#
# 1 0.025889 -0.002143 -0.007797 0.000000 -0.005006 0.000000
# 2 -0.002143 0.011769 -0.000419 0.000000 0.000657 0.000000
# 3 -0.007797 -0.000419 0.012849 0.000000 0.002125 0.000000
# 4 0.000000 0.000000 0.000000 0.036234 0.000000 -0.008016
# 5 -0.005006 0.000657 0.002125 0.000000 0.029883 0.000000
# 6 0.000000 0.000000 0.000000 -0.008016 0.000000 0.071879
#
#
# Mechanical properties :
#
#
# Convention : Reuss Voigt Hill
#
# Bulk Modulus (GPa) = 33.57159 36.51157 35.04158
# Shear Modulus (GPa) = 22.81533 27.76407 25.28970
#
# Velocity S-wave (km/s) = 3.44275 3.79781 3.62463
# Velocity P-wave (km/s) = 5.76574 6.18052 5.97673
#
# Compressibility (1/GPa) = 0.02978710
#
# Stress axis : x y z
#
# Youngs Moduli (GPa) = 38.62679 84.97039 77.82646
#
# Poissons Ratio (x) = 0.18212 0.60682
# Poissons Ratio (y) = 0.08279 0.03263
# Poissons Ratio (z) = 0.30118 0.03563
#
# Static dielectric constant tensor:
#      x y z
#    x 1.708010 0.000000 0.000780 
#    y 0.000000 3.723710 0.000000 
#    z 0.000780 0.000000 1.641200 
# 
# From -- ./inp_files/133027.got.cif
#   From: 2010.05.17/outbox.cif.g08.bks.cpg/sg12_67_cif.got.tgz:133027.got - 2010.06.03 13:09:07.
