data_PCOD9221082
_publ_section_title
;
Structure prediction by ZEFSAII (Michael W. Deem and Ramdas Pophale) SiO2 
 PCOD9221082
Probable space group: C 2/M
;
_chemical_formula_sum "Si O2"
_cell_formula_units_Z 40
_cell_length_a 15.974721
_cell_length_b 9.940684
_cell_length_c 31.191784
_cell_angle_alpha 90.000000
_cell_angle_beta 156.441027
_cell_angle_gamma 90.000000
_cell_volume 1979.775975
_symmetry_space_group_name_H-M "C 2/M"
_symmetry_group_IT_number 12
_symmetry_cell_setting 'monoclinic'
loop_
_space_group_symop_operation_xyz
x,y,z
-x,y,-z
-x,-y,-z
x,-y,z
1/2+x,1/2+y,z
1/2-x,1/2+y,-z
1/2-x,1/2-y,-z
1/2+x,1/2-y,z
loop_
_atom_site_type_symbol
_atom_site_label
_atom_site_fract_x
_atom_site_fract_y
_atom_site_fract_z
Si Si1 0.496125 0.500000 0.409371
Si Si2 0.963185 0.296628 0.932188
Si Si3 0.607529 0.500000 0.737645
Si Si4 0.701998 0.500000 0.934985
Si Si5 0.881228 0.000000 0.714132
Si Si6 0.298529 0.716415 0.375226
Si Si7 0.593418 0.000000 0.338886
Si Si8 0.888094 0.000000 0.866027
O O1 0.479380 0.500000 0.350907
O O2 0.371665 0.626832 0.369919
O O3 0.724225 0.500000 0.539268
O O4 0.752963 0.371182 0.817067
O O5 0.954355 0.137944 0.920308
O O6 0.149093 0.369766 0.993184
O O7 0.000000 0.322542 0.000000
O O8 0.413394 0.500000 0.678494
O O9 0.602989 0.500000 0.841416
O O10 0.511956 0.500000 0.879140
O O11 0.774286 0.860283 0.674897
O O12 0.500000 0.732819 0.500000
O O13 0.134878 0.629372 0.327206
O O14 0.365030 0.000000 0.252487
#
# Coordination Sequence:
#
# PCOD9221082 Si02
#       8
#     4   8   4   4   4   8   4   4
#     4   9  21  43  68  93 126 172 209 258 308 383
#     4  11  23  47  65  91 124 173 212 264 319 375
#     4  11  22  41  68  91 128 173 207 252 332 374
#     4  11  25  43  61  90 137 161 206 269 317 371
#     4  12  21  38  62  94 130 166 205 259 326 368
#     4   9  20  41  65  92 129 169 212 256 314 377
#     4   9  20  43  66  96 130 164 213 259 312 379
#     4  12  25  41  69  97 123 162 223 263 307 375
#
# _framework density 20.204305000000002
#
# number of rings (size 3 to 8) (size 9 to 14) (size 15 to 20)
#    0.000    1.600    2.000    4.200    2.800    0.000 
#    3.600    3.000    0.000    0.000    0.000    0.000 
#    0.000    0.000    0.000    0.000    0.000    0.000 
#
# Total GULP energy -111699.945143 kJ/mol
# GULP energy per Si atom -5584.997257 kJ/mol
# Density = 2.015832 g / cm^3
# Si number density = 20.204305 Si / 1000 Ang^3
#
#
#
# Elastic Constant Matrix: (Units=GPa)
#
#
# Indices 1 2 3 4 5 6 
#
# 1 86.0541 16.0156 45.3870 0.0003 13.3054 -0.0015
# 2 16.0156 169.0060 44.9971 0.0011 15.7379 -0.0012
# 3 45.3870 44.9971 50.2178 0.0044 9.6172 0.0006
# 4 0.0003 0.0011 0.0044 20.7296 -0.0007 -0.3755
# 5 13.3054 15.7379 9.6172 -0.0007 41.8540 -0.0012
# 6 -0.0015 -0.0012 0.0006 -0.3755 -0.0012 23.6414
#
#
#
# Elastic Compliance Matrix: (Units=1/GPa)
#
#
# Indices 1 2 3 4 5 6 
#
# 1 0.025375 0.005073 -0.026747 0.000005 -0.003829 0.000003
# 2 0.005073 0.008862 -0.012112 0.000002 -0.002162 0.000001
# 3 -0.026747 -0.012112 0.054853 -0.000011 0.000453 -0.000004
# 4 0.000005 0.000002 -0.000011 0.048254 0.000001 0.000766
# 5 -0.003829 -0.002162 0.000453 0.000001 0.025819 0.000001
# 6 0.000003 0.000001 -0.000004 0.000766 0.000001 0.042311
#
#
# Mechanical properties :
#
#
# Convention : Reuss Voigt Hill
#
# Bulk Modulus (GPa) = 46.46968 57.56413 52.01691
# Shear Modulus (GPa) = 17.84322 30.50355 24.17338
#
# Velocity S-wave (km/s) = 2.97499 3.88977 3.46272
# Velocity P-wave (km/s) = 5.90344 6.98045 6.46441
#
# Compressibility (1/GPa) = 0.02151941
#
# Stress axis : x y z
#
# Youngs Moduli (GPa) = 39.40845 112.83766 18.23052
#
# Poissons Ratio (x) = -0.57243 0.48761
# Poissons Ratio (y) = -0.19992 0.22081
# Poissons Ratio (z) = 1.05405 1.36668
#
# Static dielectric constant tensor:
#      x y z
#    x 1.712540 0.000000 0.017660 
#    y 0.000000 1.810970 0.000000 
#    z 0.017660 0.000000 1.690600 
# 
# From -- ./inp_files/375798.got.cif
#   From: 2010.05.17/outbox.cif.g08.bks.cpg/sg12_188_cif.got.tgz:375798.got - 2010.06.03 13:09:07.
