data_PCOD9221606
_publ_section_title
;
Structure prediction by ZEFSAII (Michael W. Deem and Ramdas Pophale) SiO2 
 PCOD9221606
Probable space group: C 2/M
;
_chemical_formula_sum "Si O2"
_cell_formula_units_Z 64
_cell_length_a 10.365746
_cell_length_b 17.430267
_cell_length_c 32.446339
_cell_angle_alpha 90.000000
_cell_angle_beta 37.012917
_cell_angle_gamma 90.000000
_cell_volume 3529.094016
_symmetry_space_group_name_H-M "C 2/M"
_symmetry_group_IT_number 12
_symmetry_cell_setting 'monoclinic'
loop_
_space_group_symop_operation_xyz
x,y,z
-x,y,-z
-x,-y,-z
x,-y,z
1/2+x,1/2+y,z
1/2-x,1/2+y,-z
1/2-x,1/2-y,-z
1/2+x,1/2-y,z
loop_
_atom_site_type_symbol
_atom_site_label
_atom_site_fract_x
_atom_site_fract_y
_atom_site_fract_z
Si Si1 0.215616 0.910629 0.918487
Si Si2 0.129169 0.908245 0.287242
Si Si3 0.786750 0.591278 0.080514
Si Si4 0.860677 0.341290 0.151387
Si Si5 0.640915 0.660480 0.848250
Si Si6 0.933910 0.591646 0.287921
Si Si7 0.036818 0.093548 0.444145
Si Si8 0.743074 0.906425 0.443577
O O1 0.407122 0.863687 0.890069
O O2 0.169735 0.882723 0.884218
O O3 0.280103 0.000000 0.901233
O O4 0.000000 0.903233 0.000000
O O5 0.192046 0.866148 0.229489
O O6 0.310347 0.894488 0.276082
O O7 0.904232 0.884943 0.365481
O O8 0.124477 0.000000 0.281204
O O9 0.750545 0.500000 0.086045
O O10 0.822091 0.614211 0.118795
O O11 0.582148 0.635408 0.114933
O O12 0.000000 0.610340 0.000000
O O13 0.851027 0.250903 0.146564
O O14 0.841932 0.634778 0.769149
O O15 0.970140 0.500000 0.281515
O O16 0.766493 0.614707 0.366179
O O17 0.000000 0.120444 0.500000
O O18 0.854373 0.117698 0.458071
O O19 0.033034 0.000000 0.445494
O O20 0.500000 0.879822 0.500000
O O21 0.740800 0.000000 0.444547
#
# Coordination Sequence:
#
# PCOD9221606 Si02
#       8
#     8   8   8   8   8   8   8   8
#     4  11  23  41  67  89 106 145 202 241 273 344
#     4   9  17  33  58  81 107 149 196 236 273 328
#     4  11  25  43  59  81 118 153 182 233 301 348
#     4  12  24  38  59  87 118 152 189 237 288 339
#     4  12  24  38  59  87 118 152 189 237 288 339
#     4   9  17  33  58  81 107 149 196 236 273 328
#     4   8  14  26  47  77 109 139 178 231 281 322
#     4   8  14  26  47  77 109 139 178 231 281 322
#
# _framework density 18.134967
#
# number of rings (size 3 to 8) (size 9 to 14) (size 15 to 20)
#    0.000    2.000    1.250    5.250    0.000    5.000 
#    2.250    0.000    0.000    0.750    0.000    3.500 
#    0.000    0.000    0.000    0.000    0.000    0.000 
#
# Total GULP energy -178678.653828 kJ/mol
# GULP energy per Si atom -5583.707932 kJ/mol
# Density = 1.809369 g / cm^3
# Si number density = 18.134967 Si / 1000 Ang^3
#
#
#
# Elastic Constant Matrix: (Units=GPa)
#
#
# Indices 1 2 3 4 5 6 
#
# 1 35.3356 -10.9686 32.6508 -0.0180 -5.4261 0.0044
# 2 -10.9686 24.0327 24.0476 -0.0023 -4.7213 -0.0019
# 3 32.6508 24.0476 115.0078 0.0057 -0.7357 0.0092
# 4 -0.0180 -0.0023 0.0057 -11.8931 0.0015 -10.4939
# 5 -5.4261 -4.7213 -0.7357 0.0015 33.7891 0.0006
# 6 0.0044 -0.0019 0.0092 -10.4939 0.0006 21.7782
#
#
#
# Elastic Compliance Matrix: (Units=1/GPa)
#
#
# Indices 1 2 3 4 5 6 
#
# 1 0.150499 0.151433 -0.074111 -0.000209 0.043714 -0.000088
# 2 0.151433 0.206758 -0.085896 -0.000227 0.051338 -0.000087
# 3 -0.074111 -0.085896 0.047549 0.000112 -0.022868 0.000042
# 4 -0.000209 -0.000227 0.000112 -0.058998 -0.000060 -0.028428
# 5 0.043714 0.051338 -0.022868 -0.000060 0.043291 -0.000025
# 6 -0.000088 -0.000087 0.000042 -0.028428 -0.000025 0.032219
#
#
# Mechanical properties :
#
#
# Convention : Reuss Voigt Hill
#
# Bulk Modulus (GPa) = 2.57959 29.53732 16.05845
# Shear Modulus (GPa) = 8.80768 17.31124 13.05946
#
# Velocity S-wave (km/s) = 2.20619 3.09298 2.68643
# Velocity P-wave (km/s) = 2.81340 5.39242 4.30078
#
# Compressibility (1/GPa) = 0.38765897
#
# Stress axis : x y z
#
# Youngs Moduli (GPa) = 6.64456 4.83656 21.03081
#
# Poissons Ratio (x) = -0.73241 1.55861
# Poissons Ratio (y) = -1.00620 1.80645
# Poissons Ratio (z) = 0.49243 0.41544
#
# Static dielectric constant tensor:
#      x y z
#    x 1.592670 0.000000 0.000090 
#    y 0.000000 1.592910 0.000000 
#    z 0.000090 0.000000 1.629940 
# 
# From -- ./inp_files/372957.got.cif
#   From: 2010.05.17/outbox.cif.g08.bks.cpg/sg12_187_cif.got.tgz:372957.got - 2010.06.03 13:09:07.
