data_PCOD9221013
_publ_section_title
;
Structure prediction by ZEFSAII (Michael W. Deem and Ramdas Pophale) SiO2 
 PCOD9221013
Probable space group: C 2/M
;
_chemical_formula_sum "Si O2"
_cell_formula_units_Z 48
_cell_length_a 19.592729
_cell_length_b 17.896908
_cell_length_c 17.195989
_cell_angle_alpha 90.000000
_cell_angle_beta 20.626626
_cell_angle_gamma 90.000000
_cell_volume 2124.143738
_symmetry_space_group_name_H-M "C 2/M"
_symmetry_group_IT_number 12
_symmetry_cell_setting 'monoclinic'
loop_
_space_group_symop_operation_xyz
x,y,z
-x,y,-z
-x,-y,-z
x,-y,z
1/2+x,1/2+y,z
1/2-x,1/2+y,-z
1/2-x,1/2-y,-z
1/2+x,1/2-y,z
loop_
_atom_site_type_symbol
_atom_site_label
_atom_site_fract_x
_atom_site_fract_y
_atom_site_fract_z
Si Si1 0.225348 0.152832 0.243919
Si Si2 0.398247 0.350493 0.361802
Si Si3 0.786029 0.180360 0.192868
Si Si4 0.107112 0.299970 0.548977
Si Si5 0.912685 0.413970 0.196230
Si Si6 0.718622 0.086395 0.114084
O O1 0.258565 0.238288 0.183374
O O2 0.324308 0.138027 0.222416
O O3 0.000000 0.135912 0.500000
O O4 0.358103 0.103758 0.044507
O O5 0.308346 0.313821 0.379943
O O6 0.453507 0.283186 0.361305
O O7 0.221569 0.396009 0.587780
O O8 0.581586 0.399534 0.144334
O O9 0.646277 0.185646 0.416585
O O10 0.751099 0.115580 0.167936
O O11 0.000000 0.173867 0.000000
O O12 0.945108 0.359358 0.745550
O O13 0.888031 0.500000 0.200190
O O14 0.662543 0.000000 0.171920
#
# Coordination Sequence:
#
# PCOD9221013 Si02
#       6
#     8   8   8   8   8   8
#     4  11  22  40  68  96 133 177 230 281 335 409
#     4  11  24  46  71 100 138 185 228 281 351 423
#     4  12  22  46  73 100 133 183 239 290 342 406
#     4  11  24  45  73 100 133 181 237 287 339 418
#     4  11  24  41  64  99 138 174 225 288 349 411
#     4  12  28  45  71 107 143 182 234 295 355 412
#
# _framework density 22.597339999999999
#
# number of rings (size 3 to 8) (size 9 to 14) (size 15 to 20)
#    0.000    0.667    5.000    3.500    2.333    5.667 
#    0.000    0.000    0.000    0.000    0.000    0.000 
#    0.000    0.000    0.000    0.000    0.000    0.000 
#
# Total GULP energy -134247.890931 kJ/mol
# GULP energy per Si atom -5593.662122 kJ/mol
# Density = 2.254591 g / cm^3
# Si number density = 22.597340 Si / 1000 Ang^3
#
#
#
# Elastic Constant Matrix: (Units=GPa)
#
#
# Indices 1 2 3 4 5 6 
#
# 1 52.4356 2.5798 34.7774 -0.0044 3.0881 -0.0007
# 2 2.5798 106.4365 36.0631 -0.0034 3.8278 -0.0028
# 3 34.7774 36.0631 128.1727 -0.0536 -1.4535 0.0113
# 4 -0.0044 -0.0034 -0.0536 38.5750 0.0043 4.6017
# 5 3.0881 3.8278 -1.4535 0.0043 42.6420 0.0062
# 6 -0.0007 -0.0028 0.0113 4.6017 0.0062 10.6465
#
#
#
# Elastic Compliance Matrix: (Units=1/GPa)
#
#
# Indices 1 2 3 4 5 6 
#
# 1 0.023742 0.001870 -0.006992 -0.000008 -0.002126 0.000014
# 2 0.001870 0.010578 -0.003497 -0.000005 -0.001204 0.000009
# 3 -0.006992 -0.003497 0.010697 0.000016 0.001185 -0.000020
# 4 -0.000008 -0.000005 0.000016 0.027333 0.000001 -0.011814
# 5 -0.002126 -0.001204 0.001185 0.000001 0.023753 -0.000016
# 6 0.000014 0.000009 -0.000020 -0.011814 -0.000016 0.099034
#
#
# Mechanical properties :
#
#
# Convention : Reuss Voigt Hill
#
# Bulk Modulus (GPa) = 36.00021 48.20947 42.10484
# Shear Modulus (GPa) = 22.55960 32.61433 27.58697
#
# Velocity S-wave (km/s) = 3.16306 3.80318 3.49779
# Velocity P-wave (km/s) = 5.41348 6.37699 5.91488
#
# Compressibility (1/GPa) = 0.02777762
#
# Stress axis : x y z
#
# Youngs Moduli (GPa) = 42.12009 94.53358 93.48712
#
# Poissons Ratio (x) = -0.17679 0.65368
# Poissons Ratio (y) = -0.07877 0.32696
# Poissons Ratio (z) = 0.29451 0.33062
#
# Static dielectric constant tensor:
#      x y z
#    x 1.898930 -0.000010 0.011570 
#    y -0.000010 1.773310 0.000010 
#    z 0.011570 0.000010 1.866990 
# 
# From -- ./inp_files/285330.got.cif
#   From: 2010.05.17/outbox.cif.g08.bks.cpg/sg12_143_cif.got.tgz:285330.got - 2010.06.03 13:09:07.
