data_PCOD9221293
_publ_section_title
;
Structure prediction by ZEFSAII (Michael W. Deem and Ramdas Pophale) SiO2 
 PCOD9221293
Probable space group: C 2/M
;
_chemical_formula_sum "Si O2"
_cell_formula_units_Z 52
_cell_length_a 29.991813
_cell_length_b 15.673592
_cell_length_c 5.449070
_cell_angle_alpha 90.000000
_cell_angle_beta 67.057835
_cell_angle_gamma 90.000000
_cell_volume 2358.878368
_symmetry_space_group_name_H-M "C 2/M"
_symmetry_group_IT_number 12
_symmetry_cell_setting 'monoclinic'
loop_
_space_group_symop_operation_xyz
x,y,z
-x,y,-z
-x,-y,-z
x,-y,z
1/2+x,1/2+y,z
1/2-x,1/2+y,-z
1/2-x,1/2-y,-z
1/2+x,1/2-y,z
loop_
_atom_site_type_symbol
_atom_site_label
_atom_site_fract_x
_atom_site_fract_y
_atom_site_fract_z
Si Si1 0.346368 0.500000 0.741782
Si Si2 0.454959 0.408474 0.278033
Si Si3 0.300146 0.664390 0.575660
Si Si4 0.695031 0.099622 0.764520
Si Si5 0.881462 0.855678 0.042185
Si Si6 0.553604 0.238016 0.400737
Si Si7 0.349031 0.833958 0.639600
O O1 0.315421 0.575592 0.667871
O O2 0.373837 0.423943 0.845619
O O3 0.455429 0.500000 0.406253
O O4 0.407437 0.402605 0.213652
O O5 0.457012 0.325872 0.435372
O O6 0.500000 0.406855 0.000000
O O7 0.243137 0.657732 0.657507
O O8 0.329559 0.671904 0.256674
O O9 0.320444 0.743463 0.689661
O O10 0.664332 0.120388 0.586224
O O11 0.708480 0.000000 0.725151
O O12 0.667891 0.117731 0.078998
O O13 0.916153 0.775886 0.897192
O O14 0.500000 0.197262 0.500000
O O15 0.593774 0.184603 0.459427
#
# Coordination Sequence:
#
# PCOD9221293 Si02
#       7
#     4   8   8   8   8   8   8
#     4  12  24  38  68  99 158 196 240 284 344 420
#     4  11  23  37  57  92 138 194 249 289 337 415
#     4  12  26  44  69 107 146 196 239 282 353 430
#     4  12  29  51  78 108 145 186 237 305 383 431
#     4  12  23  38  61  97 146 195 241 286 336 418
#     4  12  26  42  67  97 139 191 241 300 368 420
#     4  12  27  48  78 109 145 184 247 304 351 443
#
# _framework density 22.044374999999999
#
# number of rings (size 3 to 8) (size 9 to 14) (size 15 to 20)
#    0.000    0.154    6.154    2.769    5.385    0.308 
#    0.000    0.000    0.000    2.769    0.000    0.000 
#    0.000    0.000    0.000    0.000    0.000    0.000 
#
# Total GULP energy -144954.970265 kJ/mol
# GULP energy per Si atom -5575.191164 kJ/mol
# Density = 2.199420 g / cm^3
# Si number density = 22.044375 Si / 1000 Ang^3
#
#
#
# Elastic Constant Matrix: (Units=GPa)
#
#
# Indices 1 2 3 4 5 6 
#
# 1 177.4873 24.8009 50.6957 0.0000 -7.9194 0.0000
# 2 24.8009 69.9882 14.8745 0.0000 4.2540 0.0000
# 3 50.6957 14.8745 94.1800 0.0000 -4.2596 0.0000
# 4 0.0000 0.0000 0.0000 20.9501 0.0000 7.9468
# 5 -7.9194 4.2540 -4.2596 0.0000 36.2524 0.0000
# 6 0.0000 0.0000 0.0000 7.9468 0.0000 25.1789
#
#
#
# Elastic Compliance Matrix: (Units=1/GPa)
#
#
# Indices 1 2 3 4 5 6 
#
# 1 0.006910 -0.001812 -0.003373 0.000000 0.001326 0.000000
# 2 -0.001812 0.015408 -0.001566 0.000000 -0.002388 0.000000
# 3 -0.003373 -0.001566 0.012724 0.000000 0.000942 0.000000
# 4 0.000000 0.000000 0.000000 0.054224 0.000000 -0.017114
# 5 0.001326 -0.002388 0.000942 0.000000 0.028265 0.000000
# 6 0.000000 0.000000 0.000000 -0.017114 0.000000 0.045117
#
#
# Mechanical properties :
#
#
# Convention : Reuss Voigt Hill
#
# Bulk Modulus (GPa) = 46.42804 58.04418 52.23611
# Shear Modulus (GPa) = 27.27297 33.22856 30.25076
#
# Velocity S-wave (km/s) = 3.52118 3.88667 3.70843
# Velocity P-wave (km/s) = 6.13502 6.82124 6.48721
#
# Compressibility (1/GPa) = 0.02153871
#
# Stress axis : x y z
#
# Youngs Moduli (GPa) = 144.71449 64.90014 78.59303
#
# Poissons Ratio (x) = 0.11762 0.26513
# Poissons Ratio (y) = 0.26227 0.12308
# Poissons Ratio (z) = 0.48819 0.10163
#
# Static dielectric constant tensor:
#      x y z
#    x 1.856180 0.000000 -0.030210 
#    y 0.000000 1.767490 0.000000 
#    z -0.030210 0.000000 1.901460 
# 
# From -- ./inp_files/31453.got.cif
#   From: 2010.05.17/outbox.cif.g08.bks.cpg/sg12_16_cif.got.tgz:31453.got - 2010.06.03 13:09:07.
