data_PCOD9221308
_publ_section_title
;
Structure prediction by ZEFSAII (Michael W. Deem and Ramdas Pophale) SiO2 
 PCOD9221308
Probable space group: C 2/M
;
_chemical_formula_sum "Si O2"
_cell_formula_units_Z 56
_cell_length_a 13.604005
_cell_length_b 27.469018
_cell_length_c 8.679582
_cell_angle_alpha 90.000000
_cell_angle_beta 118.224679
_cell_angle_gamma 90.000000
_cell_volume 2857.813241
_symmetry_space_group_name_H-M "C 2/M"
_symmetry_group_IT_number 12
_symmetry_cell_setting 'monoclinic'
loop_
_space_group_symop_operation_xyz
x,y,z
-x,y,-z
-x,-y,-z
x,-y,z
1/2+x,1/2+y,z
1/2-x,1/2+y,-z
1/2-x,1/2-y,-z
1/2+x,1/2-y,z
loop_
_atom_site_type_symbol
_atom_site_label
_atom_site_fract_x
_atom_site_fract_y
_atom_site_fract_z
Si Si1 0.202538 0.337081 0.703344
Si Si2 0.608794 0.391512 0.975328
Si Si3 0.545986 0.784033 0.788198
Si Si4 0.683820 0.770508 0.191928
Si Si5 0.776490 0.855822 0.449366
Si Si6 0.125920 0.944693 0.663103
Si Si7 0.995870 0.179727 0.326262
O O1 0.089376 0.327977 0.716135
O O2 0.258592 0.282142 0.745039
O O3 0.183335 0.354080 0.512924
O O4 0.282477 0.376975 0.845682
O O5 0.623471 0.428387 0.841612
O O6 0.579793 0.342214 0.861564
O O7 0.500000 0.404124 0.000000
O O8 0.428077 0.780191 0.789675
O O9 0.535888 0.735186 0.682463
O O10 0.641494 0.777480 0.987945
O O11 0.760522 0.814444 0.308552
O O12 0.801659 0.906495 0.383970
O O13 0.880580 0.836604 0.628931
O O14 0.000000 0.944540 0.500000
O O15 0.167465 0.000000 0.681689
O O16 0.000000 0.157611 0.500000
#
# Coordination Sequence:
#
# PCOD9221308 Si02
#       7
#     8   8   8   8   8   8   8
#     4  12  23  34  58  86 118 161 200 236 283 346
#     4  12  20  37  58  85 118 154 193 238 293 348
#     4  11  24  36  51  84 121 164 203 241 269 341
#     4  11  23  38  54  82 124 163 201 234 286 344
#     4  12  22  39  58  83 115 161 196 238 294 347
#     4  11  23  40  61  85 114 152 198 246 302 361
#     4  12  21  34  54  79 117 161 196 227 281 339
#
# _framework density 19.595402
#
# number of rings (size 3 to 8) (size 9 to 14) (size 15 to 20)
#    0.000    0.429    7.143    2.571    2.000    0.286 
#    0.000    0.714    0.000    0.000    0.000   10.000 
#    0.000    0.000    0.000    0.000    0.000    0.000 
#
# Total GULP energy -156084.576262 kJ/mol
# GULP energy per Si atom -5574.449152 kJ/mol
# Density = 1.955080 g / cm^3
# Si number density = 19.595402 Si / 1000 Ang^3
#
#
#
# Elastic Constant Matrix: (Units=GPa)
#
#
# Indices 1 2 3 4 5 6 
#
# 1 98.7793 30.4018 17.4107 0.0000 -24.4449 0.0000
# 2 30.4018 108.2465 40.2871 0.0000 -10.6733 0.0000
# 3 17.4107 40.2871 91.0314 0.0000 -19.5837 0.0000
# 4 0.0000 0.0000 0.0000 13.2308 0.0000 5.9455
# 5 -24.4449 -10.6733 -19.5837 0.0000 32.8389 0.0000
# 6 0.0000 0.0000 0.0000 5.9455 0.0000 12.8580
#
#
#
# Elastic Compliance Matrix: (Units=1/GPa)
#
#
# Indices 1 2 3 4 5 6 
#
# 1 0.013248 -0.003118 0.000860 0.000000 0.009361 0.000000
# 2 -0.003118 0.011811 -0.004938 0.000000 -0.001427 0.000000
# 3 0.000860 -0.004938 0.014682 0.000000 0.007791 0.000000
# 4 0.000000 0.000000 0.000000 0.095405 0.000000 -0.044115
# 5 0.009361 -0.001427 0.007791 0.000000 0.041603 0.000000
# 6 0.000000 0.000000 0.000000 -0.044115 0.000000 0.098171
#
#
# Mechanical properties :
#
#
# Convention : Reuss Voigt Hill
#
# Bulk Modulus (GPa) = 39.44785 52.69514 46.07149
# Shear Modulus (GPa) = 16.79194 25.78271 21.28733
#
# Velocity S-wave (km/s) = 2.93052 3.63127 3.29955
# Velocity P-wave (km/s) = 5.62365 6.67319 6.17077
#
# Compressibility (1/GPa) = 0.02534993
#
# Stress axis : x y z
#
# Youngs Moduli (GPa) = 75.48163 84.66783 68.11029
#
# Poissons Ratio (x) = 0.26398 -0.05857
# Poissons Ratio (y) = 0.23534 0.33631
# Poissons Ratio (z) = -0.06491 0.41806
#
# Static dielectric constant tensor:
#      x y z
#    x 1.949920 0.000000 0.005880 
#    y 0.000000 1.661590 0.000000 
#    z 0.005880 0.000000 1.688180 
# 
# From -- ./inp_files/67910.got.cif
#   From: 2010.05.17/outbox.cif.g08.bks.cpg/sg12_34_cif.got.tgz:67910.got - 2010.06.03 13:09:07.
