data_PCOD9221122
_publ_section_title
;
Structure prediction by ZEFSAII (Michael W. Deem and Ramdas Pophale) SiO2 
 PCOD9221122
Probable space group: C 2/M
;
_chemical_formula_sum "Si O2"
_cell_formula_units_Z 40
_cell_length_a 21.156163
_cell_length_b 11.925813
_cell_length_c 12.855671
_cell_angle_alpha 90.000000
_cell_angle_beta 146.167975
_cell_angle_gamma 90.000000
_cell_volume 1805.874958
_symmetry_space_group_name_H-M "C 2/M"
_symmetry_group_IT_number 12
_symmetry_cell_setting 'monoclinic'
loop_
_space_group_symop_operation_xyz
x,y,z
-x,y,-z
-x,-y,-z
x,-y,z
1/2+x,1/2+y,z
1/2-x,1/2+y,-z
1/2-x,1/2-y,-z
1/2+x,1/2-y,z
loop_
_atom_site_type_symbol
_atom_site_label
_atom_site_fract_x
_atom_site_fract_y
_atom_site_fract_z
Si Si1 0.238403 0.742603 0.169009
Si Si2 0.628829 0.000000 0.304855
Si Si3 0.991959 0.133307 0.108775
Si Si4 0.916878 0.373795 0.287237
Si Si5 0.620848 0.789727 0.429367
Si Si6 0.646997 0.000000 0.085952
O O1 0.128673 0.821570 0.017191
O O2 0.322754 0.785426 0.194590
O O3 0.299976 0.761382 0.364878
O O4 0.200578 0.613322 0.112642
O O5 0.665433 0.108867 0.419572
O O6 0.668592 0.000000 0.240292
O O7 0.490066 0.000000 0.111999
O O8 0.997204 0.000000 0.118805
O O9 0.000000 0.172564 0.000000
O O10 0.089371 0.187443 0.311921
O O11 0.872887 0.500000 0.206618
O O12 0.000000 0.382747 0.500000
O O13 0.000706 0.332134 0.312532
#
# Coordination Sequence:
#
# PCOD9221122 Si02
#       6
#     8   4   8   8   8   4
#     4  11  24  42  65  94 127 168 214 261 317 380
#     4  11  22  42  67  87 127 171 218 262 308 377
#     4  11  25  43  61  91 133 168 207 263 321 379
#     4   9  19  39  66  94 125 163 215 263 314 380
#     4  11  23  42  67  96 122 169 215 263 315 379
#     4  11  24  42  61  93 131 167 210 272 316 363
#
# _framework density 22.149926000000001
#
# number of rings (size 3 to 8) (size 9 to 14) (size 15 to 20)
#    0.000    1.400    3.000    1.800    4.200    4.000 
#    1.800    1.500    0.000    0.000    0.000    0.000 
#    0.000    0.000    0.000    0.000    0.000    0.000 
#
# Total GULP energy -111982.629024 kJ/mol
# GULP energy per Si atom -5599.131451 kJ/mol
# Density = 2.209951 g / cm^3
# Si number density = 22.149926 Si / 1000 Ang^3
#
#
#
# Elastic Constant Matrix: (Units=GPa)
#
#
# Indices 1 2 3 4 5 6 
#
# 1 95.6169 40.1045 5.2815 0.0000 11.8370 0.0000
# 2 40.1045 122.5106 34.9493 0.0000 5.3122 0.0000
# 3 5.2815 34.9493 116.2668 0.0000 -14.0781 0.0000
# 4 0.0000 0.0000 0.0000 -8.6215 0.0000 16.9289
# 5 11.8370 5.3122 -14.0781 0.0000 33.8053 0.0000
# 6 0.0000 0.0000 0.0000 16.9289 0.0000 59.3311
#
#
#
# Elastic Compliance Matrix: (Units=1/GPa)
#
#
# Indices 1 2 3 4 5 6 
#
# 1 0.012590 -0.004014 0.000187 0.000000 -0.003700 0.000000
# 2 -0.004014 0.010440 -0.003143 0.000000 -0.001544 0.000000
# 3 0.000187 -0.003143 0.010098 0.000000 0.004634 0.000000
# 4 0.000000 0.000000 0.000000 -0.074340 0.000000 0.021211
# 5 -0.003700 -0.001544 0.004634 0.000000 0.033049 0.000000
# 6 0.000000 0.000000 0.000000 0.021211 0.000000 0.010802
#
#
# Mechanical properties :
#
#
# Convention : Reuss Voigt Hill
#
# Bulk Modulus (GPa) = 52.11697 55.00723 53.56210
# Shear Modulus (GPa) = 217.61644 33.84025 125.72834
#
# Velocity S-wave (km/s) = 9.92272 3.91292 7.54226
# Velocity P-wave (km/s) = 12.44430 6.73072 10.00408
#
# Compressibility (1/GPa) = 0.01918761
#
# Stress axis : x y z
#
# Youngs Moduli (GPa) = 79.42957 95.78409 99.02723
#
# Poissons Ratio (x) = 0.38450 -0.01850
# Poissons Ratio (y) = 0.31884 0.31123
# Poissons Ratio (z) = -0.01483 0.30104
#
# Static dielectric constant tensor:
#      x y z
#    x 1.811920 0.000000 -0.018190 
#    y 0.000000 1.775200 0.000000 
#    z -0.018190 0.000000 1.830610 
# 
# From -- ./inp_files/165896.got.cif
#   From: 2010.05.17/outbox.cif.g08.bks.cpg/sg12_83_cif.got.tgz:165896.got - 2010.06.03 13:09:07.
