data_PCOD9221781
_publ_section_title
;
Structure prediction by ZEFSAII (Michael W. Deem and Ramdas Pophale) SiO2 
 PCOD9221781
Probable space group: C 2/M
;
_chemical_formula_sum "Si O2"
_cell_formula_units_Z 36
_cell_length_a 19.945684
_cell_length_b 10.217022
_cell_length_c 12.381207
_cell_angle_alpha 90.000000
_cell_angle_beta 141.266152
_cell_angle_gamma 90.000000
_cell_volume 1578.719221
_symmetry_space_group_name_H-M "C 2/M"
_symmetry_group_IT_number 12
_symmetry_cell_setting 'monoclinic'
loop_
_space_group_symop_operation_xyz
x,y,z
-x,y,-z
-x,-y,-z
x,-y,z
1/2+x,1/2+y,z
1/2-x,1/2+y,-z
1/2-x,1/2-y,-z
1/2+x,1/2-y,z
loop_
_atom_site_type_symbol
_atom_site_label
_atom_site_fract_x
_atom_site_fract_y
_atom_site_fract_z
Si Si1 0.274070 0.500000 0.952737
Si Si2 0.446616 0.000000 0.549662
Si Si3 0.994596 0.000000 0.862471
Si Si4 0.991197 0.500000 0.139436
Si Si5 0.286747 0.785808 0.288013
Si Si6 0.758500 0.000000 0.189691
Si Si7 0.639048 0.746944 0.293646
O O1 0.223913 0.369160 0.835512
O O2 0.393395 0.500000 0.056253
O O3 0.269413 0.500000 0.074451
O O4 0.500000 0.000000 0.500000
O O5 0.373044 0.129379 0.462325
O O6 0.522152 0.000000 0.747236
O O7 0.929561 0.872009 0.748199
O O8 0.000000 0.000000 0.000000
O O9 0.064585 0.374945 0.202729
O O10 0.869559 0.500000 0.943532
O O11 0.309742 0.633898 0.297933
O O12 0.177499 0.786650 0.220117
O O13 0.750000 0.750000 0.500000
#
# Coordination Sequence:
#
# PCOD9221781 Si02
#       7
#     4   4   4   4   8   4   8
#     4  11  23  43  70  95 134 179 227 271 331 404
#     4  11  24  46  71  92 134 192 227 260 345 416
#     4  12  23  42  72  94 127 181 227 271 338 401
#     4  12  25  42  69 104 134 180 222 279 337 406
#     4  11  23  45  69  96 139 177 218 286 332 398
#     4  12  27  43  68 106 138 170 231 284 331 392
#     4  12  24  43  69 101 136 171 226 281 339 393
#
# _framework density 22.803294999999999
#
# number of rings (size 3 to 8) (size 9 to 14) (size 15 to 20)
#    0.000    0.444    4.444    5.333    0.000    2.667 
#    0.000    0.556    0.000    0.000    0.000    0.000 
#    0.000    0.000    0.000    0.000    0.000    0.000 
#
# Total GULP energy -100742.907045 kJ/mol
# GULP energy per Si atom -5596.828169 kJ/mol
# Density = 2.275139 g / cm^3
# Si number density = 22.803295 Si / 1000 Ang^3
#
#
#
# Elastic Constant Matrix: (Units=GPa)
#
#
# Indices 1 2 3 4 5 6 
#
# 1 96.1926 12.6101 -2.6079 0.0000 -0.8690 0.0000
# 2 12.6101 205.9180 37.9364 0.0000 14.8992 0.0000
# 3 -2.6079 37.9364 71.9250 0.0000 8.8028 0.0000
# 4 0.0000 0.0000 0.0000 -30.4103 0.0000 38.9652
# 5 -0.8690 14.8992 8.8028 0.0000 32.2257 0.0000
# 6 0.0000 0.0000 0.0000 38.9652 0.0000 -0.7929
#
#
#
# Elastic Compliance Matrix: (Units=1/GPa)
#
#
# Indices 1 2 3 4 5 6 
#
# 1 0.010528 -0.000817 0.000757 0.000000 0.000455 0.000000
# 2 -0.000817 0.005542 -0.002728 0.000000 -0.001839 0.000000
# 3 0.000757 -0.002728 0.015739 0.000000 -0.003018 0.000000
# 4 0.000000 0.000000 0.000000 0.000531 0.000000 0.026078
# 5 0.000455 -0.001839 -0.003018 0.000000 0.032718 0.000000
# 6 0.000000 0.000000 0.000000 0.026078 0.000000 0.020353
#
#
# Mechanical properties :
#
#
# Convention : Reuss Voigt Hill
#
# Bulk Modulus (GPa) = 38.11994 52.21253 45.16624
# Shear Modulus (GPa) = 50.13574 21.94430 36.04002
#
# Velocity S-wave (km/s) = 4.69403 3.10551 3.97983
# Velocity P-wave (km/s) = 6.79203 5.98377 6.40067
#
# Compressibility (1/GPa) = 0.02623299
#
# Stress axis : x y z
#
# Youngs Moduli (GPa) = 94.98881 180.44292 63.53728
#
# Poissons Ratio (x) = 0.14743 -0.04810
# Poissons Ratio (y) = 0.07761 0.17330
# Poissons Ratio (z) = -0.07191 0.49217
#
# Static dielectric constant tensor:
#      x y z
#    x 1.841070 0.000000 -0.018910 
#    y 0.000000 1.818430 0.000000 
#    z -0.018910 0.000000 1.878730 
# 
# From -- ./inp_files/230833.got.cif
#   From: 2010.05.17/outbox.cif.g08.bks.cpg/sg12_116_cif.got.tgz:230833.got - 2010.06.03 13:09:07.
