data_PCOD9221228
_publ_section_title
;
Structure prediction by ZEFSAII (Michael W. Deem and Ramdas Pophale) SiO2 
 PCOD9221228
Probable space group: C 2/M
;
_chemical_formula_sum "Si O2"
_cell_formula_units_Z 40
_cell_length_a 23.864248
_cell_length_b 9.102406
_cell_length_c 17.009050
_cell_angle_alpha 90.000000
_cell_angle_beta 29.473706
_cell_angle_gamma 90.000000
_cell_volume 1817.901628
_symmetry_space_group_name_H-M "C 2/M"
_symmetry_group_IT_number 12
_symmetry_cell_setting 'monoclinic'
loop_
_space_group_symop_operation_xyz
x,y,z
-x,y,-z
-x,-y,-z
x,-y,z
1/2+x,1/2+y,z
1/2-x,1/2+y,-z
1/2-x,1/2-y,-z
1/2+x,1/2-y,z
loop_
_atom_site_type_symbol
_atom_site_label
_atom_site_fract_x
_atom_site_fract_y
_atom_site_fract_z
Si Si1 0.764282 0.000000 0.233458
Si Si2 0.388623 0.000000 0.737033
Si Si3 0.800740 0.247646 0.567397
Si Si4 0.478916 0.500000 0.868825
Si Si5 0.173154 0.000000 0.103443
Si Si6 0.090325 0.664653 0.727190
Si Si7 0.984998 0.808103 0.609216
O O1 0.738858 0.858567 0.316846
O O2 0.687399 0.000000 0.248911
O O3 0.893619 0.000000 0.046291
O O4 0.470781 0.136434 0.634963
O O5 0.302009 0.000000 0.916589
O O6 0.853962 0.330594 0.427278
O O7 0.691397 0.164992 0.667377
O O8 0.903096 0.153291 0.478725
O O9 0.404818 0.500000 0.879211
O O10 0.537784 0.334435 0.798390
O O11 0.130440 0.132575 0.210238
O O12 0.030937 0.500000 0.806447
O O13 0.000000 0.845665 0.500000
#
# Coordination Sequence:
#
# PCOD9221228 Si02
#       7
#     4   4   8   4   4   8   8
#     4  11  22  46  69  99 143 178 222 296 345 402
#     4  11  24  41  68 100 128 186 226 268 342 422
#     4  11  23  39  69 102 131 178 232 285 335 415
#     4  11  25  45  75 100 138 190 229 279 354 415
#     4  11  25  43  63  96 147 170 222 287 339 409
#     4  11  25  44  72 103 139 182 234 284 346 409
#     4  12  23  41  69  98 129 176 227 278 339 402
#
# _framework density 22.003391000000001
#
# number of rings (size 3 to 8) (size 9 to 14) (size 15 to 20)
#    0.000    0.800    5.000    2.400    5.600    1.600 
#    0.000    2.000    0.000    0.000    0.000    0.000 
#    0.000    0.000    0.000    0.000    0.000    0.000 
#
# Total GULP energy -111517.586026 kJ/mol
# GULP energy per Si atom -5575.879301 kJ/mol
# Density = 2.195331 g / cm^3
# Si number density = 22.003391 Si / 1000 Ang^3
#
#
#
# Elastic Constant Matrix: (Units=GPa)
#
#
# Indices 1 2 3 4 5 6 
#
# 1 83.8057 11.1636 26.3045 0.0000 8.6741 0.0001
# 2 11.1636 196.4793 53.1912 0.0047 0.1528 -0.0037
# 3 26.3045 53.1912 134.7868 0.0029 25.8610 -0.0024
# 4 0.0000 0.0047 0.0029 15.3879 -0.0006 5.9605
# 5 8.6741 0.1528 25.8610 -0.0006 29.6482 0.0003
# 6 0.0001 -0.0037 -0.0024 5.9605 0.0003 -14.6980
#
#
#
# Elastic Compliance Matrix: (Units=1/GPa)
#
#
# Indices 1 2 3 4 5 6 
#
# 1 0.012803 -0.000169 -0.002058 0.000000 -0.001950 0.000000
# 2 -0.000169 0.005837 -0.002731 -0.000001 0.002402 -0.000001
# 3 -0.002058 -0.002731 0.010545 -0.000001 -0.008582 -0.000002
# 4 0.000000 -0.000001 -0.000001 0.056164 0.000002 0.022776
# 5 -0.001950 0.002402 -0.008582 0.000002 0.041773 0.000002
# 6 0.000000 -0.000001 -0.000002 0.022776 0.000002 -0.058800
#
#
# Mechanical properties :
#
#
# Convention : Reuss Voigt Hill
#
# Bulk Modulus (GPa) = 51.89738 66.26560 59.08149
# Shear Modulus (GPa) = 59.06002 27.69510 43.37756
#
# Velocity S-wave (km/s) = 5.18648 3.55163 4.44487
# Velocity P-wave (km/s) = 7.71385 6.85567 7.29738
#
# Compressibility (1/GPa) = 0.01926880
#
# Stress axis : x y z
#
# Youngs Moduli (GPa) = 78.10948 171.32922 94.83063
#
# Poissons Ratio (x) = 0.02892 0.19514
# Poissons Ratio (y) = 0.01319 0.25900
# Poissons Ratio (z) = 0.16073 0.46793
#
# Static dielectric constant tensor:
#      x y z
#    x 1.799270 0.000000 -0.019440 
#    y 0.000000 1.926920 0.000000 
#    z -0.019440 0.000000 1.766830 
# 
# From -- ./inp_files/292103.got.cif
#   From: 2010.05.17/outbox.cif.g08.bks.cpg/sg12_147_cif.got.tgz:292103.got - 2010.06.03 13:09:07.
