data_PCOD9221527
_publ_section_title
;
Structure prediction by ZEFSAII (Michael W. Deem and Ramdas Pophale) SiO2 
 PCOD9221527
Probable space group: C 2/M
;
_chemical_formula_sum "Si O2"
_cell_formula_units_Z 42
_cell_length_a 9.845970
_cell_length_b 20.477466
_cell_length_c 11.593603
_cell_angle_alpha 90.000000
_cell_angle_beta 109.204870
_cell_angle_gamma 90.000000
_cell_volume 2207.422178
_symmetry_space_group_name_H-M "C 2/M"
_symmetry_group_IT_number 12
_symmetry_cell_setting 'monoclinic'
loop_
_space_group_symop_operation_xyz
x,y,z
-x,y,-z
-x,-y,-z
x,-y,z
1/2+x,1/2+y,z
1/2-x,1/2+y,-z
1/2-x,1/2-y,-z
1/2+x,1/2-y,z
loop_
_atom_site_type_symbol
_atom_site_label
_atom_site_fract_x
_atom_site_fract_y
_atom_site_fract_z
Si Si1 0.500000 0.500000 0.000000
Si Si2 0.128845 0.777363 0.297579
Si Si3 0.091965 0.892728 0.834204
Si Si4 0.130358 0.663929 0.467870
Si Si5 0.169714 0.294617 0.070907
Si Si6 0.647037 0.425997 0.592138
O O1 0.530378 0.442393 0.910235
O O2 0.071158 0.723933 0.373600
O O3 0.257265 0.810701 0.404935
O O4 0.184107 0.738064 0.201155
O O5 0.015767 0.831647 0.222184
O O6 0.244834 0.862239 0.913335
O O7 0.122610 0.926113 0.720829
O O8 0.218419 0.616350 0.409438
O O9 0.000000 0.631783 0.500000
O O10 0.250000 0.250000 0.000000
O O11 0.000000 0.300089 0.000000
O O12 0.500000 0.396235 0.500000
O O13 0.661409 0.500000 0.551683
#
# Coordination Sequence:
#
# PCOD9221527 Si02
#       6
#     2   8   8   8   8   8
#     4  12  28  48  68  96 132 196 240 280 324 406
#     4  11  23  40  68 102 137 174 216 283 343 410
#     4  12  23  44  69  95 132 179 234 273 332 408
#     4  11  24  38  68 106 138 169 217 282 351 402
#     4  12  24  40  66 100 137 174 220 281 343 398
#     4  11  23  43  69  94 130 183 226 267 333 410
#
# _framework density 19.026719
#
# number of rings (size 3 to 8) (size 9 to 14) (size 15 to 20)
#    0.000    0.571    6.667    2.286    2.667    0.381 
#    0.000    0.476    4.190    0.000    0.000    0.000 
#    0.000    0.000    0.000    0.000    0.000    0.000 
#
# Total GULP energy -117014.569777 kJ/mol
# GULP energy per Si atom -5572.122370 kJ/mol
# Density = 1.898341 g / cm^3
# Si number density = 19.026719 Si / 1000 Ang^3
#
#
#
# Elastic Constant Matrix: (Units=GPa)
#
#
# Indices 1 2 3 4 5 6 
#
# 1 122.6023 56.4244 53.7161 0.0000 -14.4071 0.0000
# 2 56.4244 96.5147 36.3644 0.0000 -1.4003 0.0000
# 3 53.7161 36.3644 110.3275 0.0000 -21.6314 0.0000
# 4 0.0000 0.0000 0.0000 -78.0331 0.0000 -131.5143
# 5 -14.4071 -1.4003 -21.6314 0.0000 31.8505 0.0000
# 6 0.0000 0.0000 0.0000 -131.5143 0.0000 -132.7727
#
#
#
# Elastic Compliance Matrix: (Units=1/GPa)
#
#
# Indices 1 2 3 4 5 6 
#
# 1 0.012960 -0.006146 -0.003677 0.000000 0.003094 0.000000
# 2 -0.006146 0.014914 -0.002699 0.000000 -0.003958 0.000000
# 3 -0.003677 -0.002699 0.013145 0.000000 0.007145 0.000000
# 4 0.000000 0.000000 0.000000 0.019144 0.000000 -0.018963
# 5 0.003094 -0.003958 0.007145 0.000000 0.037475 0.000000
# 6 0.000000 0.000000 0.000000 -0.018963 0.000000 0.011252
#
#
# Mechanical properties :
#
#
# Convention : Reuss Voigt Hill
#
# Bulk Modulus (GPa) = 62.60449 69.16158 65.88303
# Shear Modulus (GPa) = 35.90415 -23.59509 6.15453
#
# Velocity S-wave (km/s) = 4.34872 -3.52533 1.80047
# Velocity P-wave (km/s) = 7.62824 4.45623 6.24692
#
# Compressibility (1/GPa) = 0.01597330
#
# Stress axis : x y z
#
# Youngs Moduli (GPa) = 77.16130 67.05175 76.07463
#
# Poissons Ratio (x) = 0.41211 0.27975
# Poissons Ratio (y) = 0.47425 0.20534
# Poissons Ratio (z) = 0.28375 0.18099
#
# Static dielectric constant tensor:
#      x y z
#    x 1.658660 0.000000 0.006700 
#    y 0.000000 1.679850 0.000000 
#    z 0.006700 0.000000 1.707230 
# 
# From -- ./inp_files/120609.got.cif
#   From: 2010.05.17/outbox.cif.g08.bks.cpg/sg12_61_cif.got.tgz:120609.got - 2010.06.03 13:09:07.
