data_PCOD9221385
_publ_section_title
;
Structure prediction by ZEFSAII (Michael W. Deem and Ramdas Pophale) SiO2 
 PCOD9221385
Probable space group: C 2/M
;
_chemical_formula_sum "Si O2"
_cell_formula_units_Z 48
_cell_length_a 9.314176
_cell_length_b 12.521291
_cell_length_c 15.576933
_cell_angle_alpha 90.000000
_cell_angle_beta 92.285634
_cell_angle_gamma 90.000000
_cell_volume 1815.222433
_symmetry_space_group_name_H-M "C 2/M"
_symmetry_group_IT_number 12
_symmetry_cell_setting 'monoclinic'
loop_
_space_group_symop_operation_xyz
x,y,z
-x,y,-z
-x,-y,-z
x,-y,z
1/2+x,1/2+y,z
1/2-x,1/2+y,-z
1/2-x,1/2-y,-z
1/2+x,1/2-y,z
loop_
_atom_site_type_symbol
_atom_site_label
_atom_site_fract_x
_atom_site_fract_y
_atom_site_fract_z
Si Si1 0.009906 0.500000 0.632552
Si Si2 0.300116 0.623916 0.178987
Si Si3 0.600240 0.299790 0.570080
Si Si4 0.923719 0.877962 0.905207
Si Si5 0.383545 0.775932 0.681604
Si Si6 0.153757 0.620765 0.990497
Si Si7 0.252302 0.500000 0.508328
O O1 0.975555 0.387390 0.677841
O O2 0.883507 0.500000 0.558807
O O3 0.170941 0.500000 0.597598
O O4 0.306051 0.500000 0.215209
O O5 0.460132 0.665614 0.158922
O O6 0.206804 0.703188 0.234466
O O7 0.223384 0.610821 0.085294
O O8 0.500000 0.233499 0.500000
O O9 0.498693 0.311550 0.651511
O O10 0.751351 0.260791 0.610996
O O11 0.650032 0.400626 0.516052
O O12 0.898870 0.000000 0.874481
O O13 0.768471 0.831735 0.926966
O O14 0.000000 0.889218 0.000000
O O15 0.125574 0.500000 0.957419
O O16 0.000000 0.674173 0.000000
#
# Coordination Sequence:
#
# PCOD9221385 Si02
#       7
#     4   8   8   8   8   8   4
#     4   9  20  36  64  90 118 156 202 238 314 376
#     4   9  16  31  52  80 119 161 198 240 296 361
#     4  11  25  42  63  89 117 158 208 257 309 367
#     4   7  11  21  42  71 105 148 192 226 269 339
#     4  11  23  39  61  89 123 163 200 252 313 371
#     4   8  13  23  46  81 118 155 199 245 288 343
#     4   9  21  40  64  90 114 150 204 262 300 374
#
# _framework density 26.443041000000001
#
# number of rings (size 3 to 8) (size 9 to 14) (size 15 to 20)
#    0.000    2.833    0.833    2.750    7.000    0.000 
#    0.000    1.667    0.000    0.000    0.000   15.167 
#    0.000    0.000    0.000    6.917    0.000    0.000 
#
# Total GULP energy -133932.745014 kJ/mol
# GULP energy per Si atom -5580.531042 kJ/mol
# Density = 2.638286 g / cm^3
# Si number density = 26.443041 Si / 1000 Ang^3
#
#
#
# Elastic Constant Matrix: (Units=GPa)
#
#
# Indices 1 2 3 4 5 6 
#
# 1 249.2045 45.3957 69.3360 0.0000 -75.1805 0.0000
# 2 45.3957 108.6250 28.0755 0.0000 -23.8317 0.0000
# 3 69.3360 28.0755 113.4106 0.0000 -64.4409 0.0000
# 4 0.0000 0.0000 0.0000 19.7495 0.0000 -20.8908
# 5 -75.1805 -23.8317 -64.4409 0.0000 59.3194 0.0000
# 6 0.0000 0.0000 0.0000 -20.8908 0.0000 39.9761
#
#
#
# Elastic Compliance Matrix: (Units=1/GPa)
#
#
# Indices 1 2 3 4 5 6 
#
# 1 0.006762 -0.001081 0.001976 0.000000 0.010282 0.000000
# 2 -0.001081 0.010280 -0.000825 0.000000 0.001864 0.000000
# 3 0.001976 -0.000825 0.023641 0.000000 0.027856 0.000000
# 4 0.000000 0.000000 0.000000 0.113221 0.000000 0.059167
# 5 0.010282 0.001864 0.027856 0.000000 0.060899 0.000000
# 6 0.000000 0.000000 0.000000 0.059167 0.000000 0.055935
#
#
# Mechanical properties :
#
#
# Convention : Reuss Voigt Hill
#
# Bulk Modulus (GPa) = 24.49538 84.09494 54.29516
# Shear Modulus (GPa) = 17.59297 45.70452 31.64874
#
# Velocity S-wave (km/s) = 2.58217 4.16193 3.46333
# Velocity P-wave (km/s) = 4.26306 7.41397 6.04734
#
# Compressibility (1/GPa) = 0.04082403
#
# Stress axis : x y z
#
# Youngs Moduli (GPa) = 147.88894 97.27799 42.29865
#
# Poissons Ratio (x) = 0.10513 -0.08358
# Poissons Ratio (y) = 0.15982 0.03489
# Poissons Ratio (z) = -0.29224 0.08024
#
# Static dielectric constant tensor:
#      x y z
#    x 2.097100 0.000000 0.023370 
#    y 0.000000 2.157750 0.000000 
#    z 0.023370 0.000000 2.157670 
# 
# From -- ./inp_files/255811.got.cif
#   From: 2010.05.17/outbox.cif.g08.bks.cpg/sg12_128_cif.got.tgz:255811.got - 2010.06.03 13:09:07.
