data_PCOD9221874
_publ_section_title
;
Structure prediction by ZEFSAII (Michael W. Deem and Ramdas Pophale) SiO2 
 PCOD9221874
Probable space group: C 2/M
;
_chemical_formula_sum "Si O2"
_cell_formula_units_Z 38
_cell_length_a 12.142429
_cell_length_b 21.871112
_cell_length_c 11.225308
_cell_angle_alpha 90.000000
_cell_angle_beta 34.099115
_cell_angle_gamma 90.000000
_cell_volume 1671.275692
_symmetry_space_group_name_H-M "C 2/M"
_symmetry_group_IT_number 12
_symmetry_cell_setting 'monoclinic'
loop_
_space_group_symop_operation_xyz
x,y,z
-x,y,-z
-x,-y,-z
x,-y,z
1/2+x,1/2+y,z
1/2-x,1/2+y,-z
1/2-x,1/2-y,-z
1/2+x,1/2-y,z
loop_
_atom_site_type_symbol
_atom_site_label
_atom_site_fract_x
_atom_site_fract_y
_atom_site_fract_z
Si Si1 0.209865 0.896790 0.956059
Si Si2 0.817692 0.186500 0.592618
Si Si3 0.772352 0.568878 0.174512
Si Si4 0.000000 0.000000 0.000000
Si Si5 0.609381 0.697718 0.751486
Si Si6 0.500000 0.868794 0.500000
O O1 0.403873 0.903907 0.699561
O O2 0.248324 0.906404 0.061120
O O3 0.058269 0.947006 0.044999
O O4 0.098721 0.832630 0.031057
O O5 0.793853 0.119970 0.671250
O O6 0.630015 0.231081 0.766028
O O7 0.875013 0.187062 0.403850
O O8 0.000000 0.215408 0.500000
O O9 0.686731 0.500000 0.258532
O O10 0.000000 0.562985 0.000000
O O11 0.808205 0.665780 0.621688
#
# Coordination Sequence:
#
# PCOD9221874 Si02
#       6
#     8   8   8   2   8   4
#     4  12  25  47  73 104 150 195 246 312 360 448
#     4  11  23  45  74 107 143 193 243 299 377 436
#     4  11  25  47  71 108 146 192 248 304 369 438
#     4  12  24  46  70 110 142 200 250 296 384 432
#     4  11  24  46  71 108 148 186 247 304 364 443
#     4  12  24  43  70 102 141 194 248 296 372 432
#
# _framework density 22.737123
#
# number of rings (size 3 to 8) (size 9 to 14) (size 15 to 20)
#    0.000    0.632    6.316    1.263    0.000    2.526 
#    1.895    4.211    0.000    0.000    0.000    0.000 
#    0.000    0.000    0.000    0.000    0.000    0.000 
#
# Total GULP energy -105823.158077 kJ/mol
# GULP energy per Si atom -5569.639899 kJ/mol
# Density = 2.268537 g / cm^3
# Si number density = 22.737123 Si / 1000 Ang^3
#
#
#
# Elastic Constant Matrix: (Units=GPa)
#
#
# Indices 1 2 3 4 5 6 
#
# 1 167.6091 33.0609 32.6798 -0.0001 18.6686 0.0005
# 2 33.0609 138.0469 48.1863 0.0000 11.8589 0.0000
# 3 32.6798 48.1863 100.9224 -0.0002 14.6895 0.0005
# 4 -0.0001 0.0000 -0.0002 24.3732 0.0001 25.5343
# 5 18.6686 11.8589 14.6895 0.0001 34.1307 -0.0004
# 6 0.0005 0.0000 0.0005 25.5343 -0.0004 29.4170
#
#
#
# Elastic Compliance Matrix: (Units=1/GPa)
#
#
# Indices 1 2 3 4 5 6 
#
# 1 0.006715 -0.000902 -0.001339 0.000002 -0.002784 -0.000002
# 2 -0.000902 0.008870 -0.003804 -0.000001 -0.000951 0.000001
# 3 -0.001339 -0.003804 0.012652 0.000004 -0.003391 -0.000004
# 4 0.000002 -0.000001 0.000004 0.452686 -0.000008 -0.392937
# 5 -0.002784 -0.000951 -0.003391 -0.000008 0.032612 0.000008
# 6 -0.000002 0.000001 -0.000004 -0.392937 0.000008 0.375069
#
#
# Mechanical properties :
#
#
# Convention : Reuss Voigt Hill
#
# Bulk Modulus (GPa) = 61.93092 70.49248 66.21170
# Shear Modulus (GPa) = 5.51830 37.09428 21.30629
#
# Velocity S-wave (km/s) = 1.55957 4.04349 3.06448
# Velocity P-wave (km/s) = 5.52630 7.27120 6.45795
#
# Compressibility (1/GPa) = 0.01614702
#
# Stress axis : x y z
#
# Youngs Moduli (GPa) = 148.91589 112.74538 79.03805
#
# Poissons Ratio (x) = 0.10168 0.10581
# Poissons Ratio (y) = 0.13429 0.30069
# Poissons Ratio (z) = 0.19936 0.42893
#
# Static dielectric constant tensor:
#      x y z
#    x 1.817690 0.000000 0.007500 
#    y 0.000000 1.864120 0.000000 
#    z 0.007500 0.000000 1.962400 
# 
# From -- ./inp_files/133671.got.cif
#   From: 2010.05.17/outbox.cif.g08.bks.cpg/sg12_67_cif.got.tgz:133671.got - 2010.06.03 13:09:07.
