data_PCOD9221549
_publ_section_title
;
Structure prediction by ZEFSAII (Michael W. Deem and Ramdas Pophale) SiO2 
 PCOD9221549
Probable space group: C 2/M
;
_chemical_formula_sum "Si O2"
_cell_formula_units_Z 40
_cell_length_a 9.711719
_cell_length_b 27.591812
_cell_length_c 8.955784
_cell_angle_alpha 90.000000
_cell_angle_beta 56.187883
_cell_angle_gamma 90.000000
_cell_volume 1993.936616
_symmetry_space_group_name_H-M "C 2/M"
_symmetry_group_IT_number 12
_symmetry_cell_setting 'monoclinic'
loop_
_space_group_symop_operation_xyz
x,y,z
-x,y,-z
-x,-y,-z
x,-y,z
1/2+x,1/2+y,z
1/2-x,1/2+y,-z
1/2-x,1/2-y,-z
1/2+x,1/2-y,z
loop_
_atom_site_type_symbol
_atom_site_label
_atom_site_fract_x
_atom_site_fract_y
_atom_site_fract_z
Si Si1 0.993032 0.442118 0.330544
Si Si2 0.683160 0.605758 0.343724
Si Si3 0.329449 0.396881 0.010496
Si Si4 0.883577 0.209908 0.950065
Si Si5 0.375303 0.708579 0.465205
O O1 0.974857 0.500000 0.338188
O O2 0.839660 0.420120 0.327925
O O3 0.000000 0.426075 0.500000
O O4 0.171477 0.426918 0.158886
O O5 0.500000 0.586993 0.500000
O O6 0.688938 0.661071 0.407651
O O7 0.678291 0.601014 0.166547
O O8 0.500000 0.410321 0.000000
O O9 0.306424 0.339647 0.058465
O O10 0.009555 0.194086 0.743291
O O11 0.750000 0.250000 0.000000
O O12 0.000000 0.234244 0.000000
O O13 0.500000 0.735078 0.500000
O O14 0.250000 0.750000 0.500000
#
# Coordination Sequence:
#
# PCOD9221549 Si02
#       5
#     8   8   8   8   8
#     4  11  27  47  73 105 133 174 228 282 349 412
#     4  11  23  45  70  99 139 180 225 279 340 406
#     4  11  24  45  70  99 139 179 227 282 339 404
#     4  11  24  39  62  97 134 178 227 271 330 395
#     4  11  23  41  62  96 135 178 227 272 332 398
#
# _framework density 20.06082
#
# number of rings (size 3 to 8) (size 9 to 14) (size 15 to 20)
#    0.000    1.000    4.000    3.000    5.600    3.200 
#    0.000    0.000    0.000    0.000    0.000    0.000 
#    0.000    0.000    0.000    0.000    0.000    0.000 
#
# Total GULP energy -111423.022522 kJ/mol
# GULP energy per Si atom -5571.151126 kJ/mol
# Density = 2.001516 g / cm^3
# Si number density = 20.060820 Si / 1000 Ang^3
#
#
#
# Elastic Constant Matrix: (Units=GPa)
#
#
# Indices 1 2 3 4 5 6 
#
# 1 237.8656 70.1486 66.9305 0.0000 12.8301 0.0000
# 2 70.1486 54.8603 31.4591 0.0000 -1.4633 0.0000
# 3 66.9305 31.4591 125.8670 0.0000 17.7064 0.0000
# 4 0.0000 0.0000 0.0000 63.9590 0.0000 -16.5548
# 5 12.8301 -1.4633 17.7064 0.0000 31.7936 0.0000
# 6 0.0000 0.0000 0.0000 -16.5548 0.0000 39.8380
#
#
#
# Elastic Compliance Matrix: (Units=1/GPa)
#
#
# Indices 1 2 3 4 5 6 
#
# 1 0.007248 -0.008559 -0.001354 0.000000 -0.002565 0.000000
# 2 -0.008559 0.031936 -0.004474 0.000000 0.007415 0.000000
# 3 -0.001354 -0.004474 0.010563 0.000000 -0.005542 0.000000
# 4 0.000000 0.000000 0.000000 0.017519 0.000000 0.007280
# 5 -0.002565 0.007415 -0.005542 0.000000 0.035916 0.000000
# 6 0.000000 0.000000 0.000000 0.007280 0.000000 0.028127
#
#
# Mechanical properties :
#
#
# Convention : Reuss Voigt Hill
#
# Bulk Modulus (GPa) = 47.68194 83.96324 65.82259
# Shear Modulus (GPa) = 29.92709 43.78842 36.85776
#
# Velocity S-wave (km/s) = 3.86660 4.67710 4.29102
# Velocity P-wave (km/s) = 6.61471 8.43280 7.57847
#
# Compressibility (1/GPa) = 0.02097230
#
# Stress axis : x y z
#
# Youngs Moduli (GPa) = 137.97765 31.31267 94.67375
#
# Poissons Ratio (x) = 0.26802 0.12817
# Poissons Ratio (y) = 1.18100 0.42354
# Poissons Ratio (z) = 0.18680 0.14008
#
# Static dielectric constant tensor:
#      x y z
#    x 1.692790 0.000000 -0.044510 
#    y 0.000000 1.668920 0.000000 
#    z -0.044510 0.000000 1.563080 
# 
# From -- ./inp_files/41417.got.cif
#   From: 2010.05.17/outbox.cif.g08.bks.cpg/sg12_21_cif.got.tgz:41417.got - 2010.06.03 13:09:07.
