data_PCOD9221129
_publ_section_title
;
Structure prediction by ZEFSAII (Michael W. Deem and Ramdas Pophale) SiO2 
 PCOD9221129
Probable space group: C 2/M
;
_chemical_formula_sum "Si O2"
_cell_formula_units_Z 40
_cell_length_a 11.789052
_cell_length_b 27.529013
_cell_length_c 4.796104
_cell_angle_alpha 90.000000
_cell_angle_beta 82.916416
_cell_angle_gamma 90.000000
_cell_volume 1544.651697
_symmetry_space_group_name_H-M "C 2/M"
_symmetry_group_IT_number 12
_symmetry_cell_setting 'monoclinic'
loop_
_space_group_symop_operation_xyz
x,y,z
-x,y,-z
-x,-y,-z
x,-y,z
1/2+x,1/2+y,z
1/2-x,1/2+y,-z
1/2-x,1/2-y,-z
1/2+x,1/2-y,z
loop_
_atom_site_type_symbol
_atom_site_label
_atom_site_fract_x
_atom_site_fract_y
_atom_site_fract_z
Si Si1 0.854312 0.500000 0.235717
Si Si2 0.201006 0.633280 0.529913
Si Si3 0.000000 0.815321 0.000000
Si Si4 0.621068 0.237233 0.639592
Si Si5 0.308066 0.500000 0.200029
Si Si6 0.500000 0.924098 0.500000
Si Si7 0.344707 0.605797 0.986374
O O1 0.740034 0.500000 0.469962
O O2 0.936520 0.543894 0.293614
O O3 0.810062 0.500000 0.937837
O O4 0.141857 0.680359 0.682617
O O5 0.252611 0.602859 0.769344
O O6 0.102743 0.609226 0.371186
O O7 0.300995 0.635114 0.271067
O O8 0.937902 0.856548 0.829007
O O9 0.096024 0.776039 0.886623
O O10 0.500000 0.241768 0.500000
O O11 0.750000 0.250000 0.500000
O O12 0.368110 0.550865 0.092055
#
# Coordination Sequence:
#
# PCOD9221129 Si02
#       7
#     4   8   4   8   4   4   8
#     4  11  24  38  70 105 150 197 250 312 388 460
#     4  12  26  45  73 110 154 195 255 316 395 469
#     4  12  30  49  80 106 158 203 268 330 386 458
#     4  12  27  49  79 114 155 206 263 324 397 473
#     4  12  22  46  70 104 150 200 251 314 379 467
#     4  11  22  42  68 110 146 200 244 317 392 462
#     4  12  27  48  74 109 151 202 256 321 386 461
#
# _framework density 25.895807000000001
#
# number of rings (size 3 to 8) (size 9 to 14) (size 15 to 20)
#    0.000    0.200    7.000    1.200    2.800    6.000 
#    0.000    0.000    0.000    3.600    0.000    0.000 
#    0.000    0.000    0.000    0.000    0.000    0.000 
#
# Total GULP energy -111388.548312 kJ/mol
# GULP energy per Si atom -5569.427416 kJ/mol
# Density = 2.583687 g / cm^3
# Si number density = 25.895807 Si / 1000 Ang^3
#
#
#
# Elastic Constant Matrix: (Units=GPa)
#
#
# Indices 1 2 3 4 5 6 
#
# 1 122.2666 38.5133 22.0683 0.0000 -21.8827 0.0000
# 2 38.5133 178.8883 22.3256 0.0000 -18.6159 0.0000
# 3 22.0683 22.3256 86.2577 0.0000 -16.4484 0.0000
# 4 0.0000 0.0000 0.0000 17.9371 0.0000 -6.5765
# 5 -21.8827 -18.6159 -16.4484 0.0000 41.6468 0.0000
# 6 0.0000 0.0000 0.0000 -6.5765 0.0000 58.9258
#
#
#
# Elastic Compliance Matrix: (Units=1/GPa)
#
#
# Indices 1 2 3 4 5 6 
#
# 1 0.009577 -0.001496 -0.001331 0.000000 0.003838 0.000000
# 2 -0.001496 0.006195 -0.000911 0.000000 0.001623 0.000000
# 3 -0.001331 -0.000911 0.012932 0.000000 0.004001 0.000000
# 4 0.000000 0.000000 0.000000 0.058129 0.000000 0.006488
# 5 0.003838 0.001623 0.004001 0.000000 0.028334 0.000000
# 6 0.000000 0.000000 0.000000 0.006488 0.000000 0.017695
#
#
# Mechanical properties :
#
#
# Convention : Reuss Voigt Hill
#
# Bulk Modulus (GPa) = 47.10900 61.46966 54.28933
# Shear Modulus (GPa) = 33.91791 44.00229 38.96010
#
# Velocity S-wave (km/s) = 3.62302 4.12661 3.88299
# Velocity P-wave (km/s) = 5.97770 6.81866 6.41198
#
# Compressibility (1/GPa) = 0.02122737
#
# Stress axis : x y z
#
# Youngs Moduli (GPa) = 104.41323 161.42450 77.32462
#
# Poissons Ratio (x) = 0.24156 0.10293
# Poissons Ratio (y) = 0.15625 0.07045
# Poissons Ratio (z) = 0.13899 0.14707
#
# Static dielectric constant tensor:
#      x y z
#    x 2.691100 0.000000 -0.065140 
#    y 0.000000 2.151700 0.000000 
#    z -0.065140 0.000000 2.091300 
# 
# From -- ./inp_files/8150.got.cif
#   From: 2010.05.17/outbox.cif.g08.bks.cpg/sg12_5_cif.got.tgz:8150.got - 2010.06.03 13:09:07.
