data_PCOD9221335
_publ_section_title
;
Structure prediction by ZEFSAII (Michael W. Deem and Ramdas Pophale) SiO2 
 PCOD9221335
Probable space group: C 2/M
;
_chemical_formula_sum "Si O2"
_cell_formula_units_Z 40
_cell_length_a 9.141251
_cell_length_b 26.674163
_cell_length_c 10.742695
_cell_angle_alpha 90.000000
_cell_angle_beta 50.122523
_cell_angle_gamma 90.000000
_cell_volume 2010.209104
_symmetry_space_group_name_H-M "C 2/M"
_symmetry_group_IT_number 12
_symmetry_cell_setting 'monoclinic'
loop_
_space_group_symop_operation_xyz
x,y,z
-x,y,-z
-x,-y,-z
x,-y,z
1/2+x,1/2+y,z
1/2-x,1/2+y,-z
1/2-x,1/2-y,-z
1/2+x,1/2-y,z
loop_
_atom_site_type_symbol
_atom_site_label
_atom_site_fract_x
_atom_site_fract_y
_atom_site_fract_z
Si Si1 0.452932 0.149336 0.171377
Si Si2 0.943801 0.055973 0.177513
Si Si3 0.207555 0.554564 0.819860
Si Si4 0.294486 0.655928 0.178775
Si Si5 0.787663 0.243191 0.622730
O O1 0.314303 0.101209 0.260938
O O2 0.637097 0.145211 0.158706
O O3 0.353006 0.201630 0.250448
O O4 0.500000 0.150128 0.000000
O O5 0.817511 0.106303 0.252340
O O6 0.129433 0.062327 0.164471
O O7 0.863566 0.000000 0.249014
O O8 0.000000 0.054766 0.000000
O O9 0.242980 0.500000 0.741537
O O10 0.000000 0.551281 0.000000
O O11 0.233430 0.705066 0.289407
O O12 0.500000 0.664989 0.000000
O O13 0.750000 0.250000 0.500000
O O14 0.000000 0.222905 0.500000
#
# Coordination Sequence:
#
# PCOD9221335 Si02
#       5
#     8   8   8   8   8
#     4  11  23  38  62  90 118 154 196 243 289 344
#     4   9  17  30  53  85 118 150 187 237 289 338
#     4   9  17  30  53  85 118 150 188 236 288 339
#     4  11  23  38  62  90 118 154 197 241 290 347
#     4  12  27  44  61  84 116 156 199 245 297 351
#
# _framework density 19.898427000000002
#
# number of rings (size 3 to 8) (size 9 to 14) (size 15 to 20)
#    0.000    1.600    2.000    5.400    5.600    4.000 
#    0.000    0.000    0.000    2.400    0.000    0.000 
#    0.000    0.000    0.000    0.000    0.000    0.000 
#
# Total GULP energy -111460.896541 kJ/mol
# GULP energy per Si atom -5573.044827 kJ/mol
# Density = 1.985314 g / cm^3
# Si number density = 19.898427 Si / 1000 Ang^3
#
#
#
# Elastic Constant Matrix: (Units=GPa)
#
#
# Indices 1 2 3 4 5 6 
#
# 1 170.4963 62.3527 20.4410 0.0000 -2.4062 0.0000
# 2 62.3527 173.7889 28.1300 0.0000 3.7491 0.0000
# 3 20.4410 28.1300 24.1545 0.0000 2.2817 0.0000
# 4 0.0000 0.0000 0.0000 -29.1726 0.0000 -22.1856
# 5 -2.4062 3.7491 2.2817 0.0000 23.8982 0.0000
# 6 0.0000 0.0000 0.0000 -22.1856 0.0000 11.9850
#
#
#
# Elastic Compliance Matrix: (Units=1/GPa)
#
#
# Indices 1 2 3 4 5 6 
#
# 1 0.007054 -0.001939 -0.003842 0.000000 0.001381 0.000000
# 2 -0.001939 0.007626 -0.007174 0.000000 -0.000707 0.000000
# 3 -0.003842 -0.007174 0.053418 0.000000 -0.004362 0.000000
# 4 0.000000 0.000000 0.000000 -0.014237 0.000000 -0.026354
# 5 0.001381 -0.000707 -0.004362 0.000000 0.042511 0.000000
# 6 0.000000 0.000000 0.000000 -0.026354 0.000000 0.034654
#
#
# Mechanical properties :
#
#
# Convention : Reuss Voigt Hill
#
# Bulk Modulus (GPa) = 23.70299 65.58747 44.64523
# Shear Modulus (GPa) = 29.23990 18.50986 23.87488
#
# Velocity S-wave (km/s) = 3.83751 3.05325 3.46762
# Velocity P-wave (km/s) = 5.61900 6.74259 6.20627
#
# Compressibility (1/GPa) = 0.04218878
#
# Stress axis : x y z
#
# Youngs Moduli (GPa) = 141.75407 131.12760 18.72021
#
# Poissons Ratio (x) = 0.25424 0.07193
# Poissons Ratio (y) = 0.27485 0.13429
# Poissons Ratio (z) = 0.54468 0.94068
#
# Static dielectric constant tensor:
#      x y z
#    x 1.651320 0.000000 -0.009450 
#    y 0.000000 1.680360 0.000000 
#    z -0.009450 0.000000 1.667080 
# 
# From -- ./inp_files/123413.got.cif
#   From: 2010.05.17/outbox.cif.g08.bks.cpg/sg12_62_cif.got.tgz:123413.got - 2010.06.03 13:09:07.
