data_PCOD9221877
_publ_section_title
;
Structure prediction by ZEFSAII (Michael W. Deem and Ramdas Pophale) SiO2 
 PCOD9221877
Probable space group: C 2/M
;
_chemical_formula_sum "Si O2"
_cell_formula_units_Z 28
_cell_length_a 14.910193
_cell_length_b 7.804811
_cell_length_c 17.500733
_cell_angle_alpha 90.000000
_cell_angle_beta 146.691642
_cell_angle_gamma 90.000000
_cell_volume 1118.378267
_symmetry_space_group_name_H-M "C 2/M"
_symmetry_group_IT_number 12
_symmetry_cell_setting 'monoclinic'
loop_
_space_group_symop_operation_xyz
x,y,z
-x,y,-z
-x,-y,-z
x,-y,z
1/2+x,1/2+y,z
1/2-x,1/2+y,-z
1/2-x,1/2-y,-z
1/2+x,1/2-y,z
loop_
_atom_site_type_symbol
_atom_site_label
_atom_site_fract_x
_atom_site_fract_y
_atom_site_fract_z
Si Si1 0.826964 0.704641 0.473265
Si Si2 0.323714 0.206317 0.223725
Si Si3 0.925635 0.690480 0.833456
Si Si4 0.250000 0.250000 0.000000
O O1 0.823718 0.500000 0.458590
O O2 0.750000 0.750000 0.500000
O O3 0.716324 0.787790 0.329765
O O4 0.015711 0.758714 0.614006
O O5 0.165480 0.283691 0.151861
O O6 0.314804 0.000000 0.220809
O O7 0.342862 0.258867 0.149486
O O8 0.001881 0.500000 0.879035
O O9 0.080671 0.804996 0.924494
#
# Coordination Sequence:
#
# PCOD9221877 Si02
#       4
#     8   8   8   4
#     4  11  23  45  75 105 140 185 234 291 352 416
#     4  11  26  48  72 104 142 186 236 289 354 422
#     4  12  27  47  72 108 142 183 239 292 351 421
#     4  12  26  46  70  98 142 190 234 288 344 422
#
# _framework density 25.036254
#
# number of rings (size 3 to 8) (size 9 to 14) (size 15 to 20)
#    0.000    0.571    2.857    4.286    0.000   14.857 
#    0.000    0.000    0.000    0.000    0.000    0.000 
#    0.000    0.000    0.000    0.000    0.000    0.000 
#
# Total GULP energy -77959.291378 kJ/mol
# GULP energy per Si atom -5568.520813 kJ/mol
# Density = 2.497927 g / cm^3
# Si number density = 25.036254 Si / 1000 Ang^3
#
#
#
# Elastic Constant Matrix: (Units=GPa)
#
#
# Indices 1 2 3 4 5 6 
#
# 1 115.6377 -9.1276 13.4380 0.0000 4.7677 0.0000
# 2 -9.1276 63.9037 3.0771 0.0000 -3.7761 0.0000
# 3 13.4380 3.0771 146.8137 0.0000 8.4627 0.0000
# 4 0.0000 0.0000 0.0000 -24.3999 0.0000 -10.8455
# 5 4.7677 -3.7761 8.4627 0.0000 60.4576 0.0000
# 6 0.0000 0.0000 0.0000 -10.8455 0.0000 9.6421
#
#
#
# Elastic Compliance Matrix: (Units=1/GPa)
#
#
# Indices 1 2 3 4 5 6 
#
# 1 0.008863 0.001275 -0.000809 0.000000 -0.000506 0.000000
# 2 0.001275 0.015912 -0.000506 0.000000 0.000964 0.000000
# 3 -0.000809 -0.000506 0.006950 0.000000 -0.000941 0.000000
# 4 0.000000 0.000000 0.000000 -0.027323 0.000000 -0.030733
# 5 -0.000506 0.000964 -0.000941 0.000000 0.016772 0.000000
# 6 0.000000 0.000000 0.000000 -0.030733 0.000000 0.069143
#
#
# Mechanical properties :
#
#
# Convention : Reuss Voigt Hill
#
# Bulk Modulus (GPa) = 31.59935 37.90334 34.75134
# Shear Modulus (GPa) = 49.53175 30.40446 39.96810
#
# Velocity S-wave (km/s) = 4.45275 3.48863 3.99984
# Velocity P-wave (km/s) = 6.25178 5.60354 5.93651
#
# Compressibility (1/GPa) = 0.03164622
#
# Stress axis : x y z
#
# Youngs Moduli (GPa) = 112.82611 62.84575 143.88061
#
# Poissons Ratio (x) = -0.08013 0.11637
# Poissons Ratio (y) = -0.14385 0.07277
# Poissons Ratio (z) = 0.09125 0.03179
#
# Static dielectric constant tensor:
#      x y z
#    x 1.873830 0.000000 0.010430 
#    y 0.000000 2.057350 0.000000 
#    z 0.010430 0.000000 1.951120 
# 
# From -- ./inp_files/309155.got.cif
#   From: 2010.05.17/outbox.cif.g08.bks.cpg/sg12_155_cif.got.tgz:309155.got - 2010.06.03 13:09:07.
