data_PCOD9221258
_publ_section_title
;
Structure prediction by ZEFSAII (Michael W. Deem and Ramdas Pophale) SiO2 
 PCOD9221258
Probable space group: C 2/M
;
_chemical_formula_sum "Si O2"
_cell_formula_units_Z 58
_cell_length_a 9.749066
_cell_length_b 23.177612
_cell_length_c 21.646912
_cell_angle_alpha 90.000000
_cell_angle_beta 142.400541
_cell_angle_gamma 90.000000
_cell_volume 2984.389470
_symmetry_space_group_name_H-M "C 2/M"
_symmetry_group_IT_number 12
_symmetry_cell_setting 'monoclinic'
loop_
_space_group_symop_operation_xyz
x,y,z
-x,y,-z
-x,-y,-z
x,-y,z
1/2+x,1/2+y,z
1/2-x,1/2+y,-z
1/2-x,1/2-y,-z
1/2+x,1/2-y,z
loop_
_atom_site_type_symbol
_atom_site_label
_atom_site_fract_x
_atom_site_fract_y
_atom_site_fract_z
Si Si1 0.408342 0.130540 0.794516
Si Si2 0.651604 0.931032 0.994740
Si Si3 0.453534 0.685525 0.253804
Si Si4 0.389795 0.093619 0.648544
Si Si5 0.785747 0.788234 0.880417
Si Si6 0.746747 0.222106 0.431730
Si Si7 0.870383 0.122258 0.800880
Si Si8 0.000000 0.000000 0.500000
O O1 0.170053 0.149464 0.737267
O O2 0.378157 0.097768 0.719125
O O3 0.565261 0.185425 0.834578
O O4 0.539876 0.094555 0.893300
O O5 0.903025 0.908190 0.094945
O O6 0.653906 0.000000 0.991533
O O7 0.500000 0.914480 0.000000
O O8 0.258787 0.721503 0.149369
O O9 0.609376 0.734684 0.338798
O O10 0.583747 0.646919 0.250903
O O11 0.349566 0.157629 0.606497
O O12 0.650501 0.081758 0.725047
O O13 0.196303 0.050189 0.559572
O O14 0.823648 0.824593 0.831281
O O15 0.000000 0.796343 0.000000
O O16 0.750000 0.250000 0.500000
O O17 0.000000 0.218126 0.500000
#
# Coordination Sequence:
#
# PCOD9221258 Si02
#       8
#     8   8   8   8   8   8   8   2
#     4  11  23  42  63  97 135 174 223 269 338 406
#     4  11  24  43  65  95 133 186 232 276 327 398
#     4  12  24  39  65  96 138 180 208 271 348 409
#     4  11  26  46  69  99 132 172 229 289 338 404
#     4  11  23  35  60  98 141 172 212 256 323 412
#     4  12  24  42  68  98 131 171 222 286 353 414
#     4  11  23  42  64  99 135 173 222 270 333 405
#     4  12  28  52  76  92 132 180 232 292 348 386
#
# _framework density 19.434460000000001
#
# number of rings (size 3 to 8) (size 9 to 14) (size 15 to 20)
#    0.000    0.690    6.207    2.483    3.862    1.103 
#    0.000    2.759    0.000    0.828    0.000    0.000 
#    0.000    0.000    0.000    0.000    0.000    0.000 
#
# Total GULP energy -161875.176977 kJ/mol
# GULP energy per Si atom -5581.902654 kJ/mol
# Density = 1.939023 g / cm^3
# Si number density = 19.434460 Si / 1000 Ang^3
#
#
#
# Elastic Constant Matrix: (Units=GPa)
#
#
# Indices 1 2 3 4 5 6 
#
# 1 110.4662 25.1166 21.2113 0.0019 7.8334 -0.0002
# 2 25.1166 72.9542 31.0939 0.0004 1.6301 -0.0001
# 3 21.2113 31.0939 79.3965 -0.0005 13.3524 0.0008
# 4 0.0019 0.0004 -0.0005 -23.8544 0.0007 27.1734
# 5 7.8334 1.6301 13.3524 0.0007 43.2046 0.0002
# 6 -0.0002 -0.0001 0.0008 27.1734 0.0002 12.6258
#
#
#
# Elastic Compliance Matrix: (Units=1/GPa)
#
#
# Indices 1 2 3 4 5 6 
#
# 1 0.010053 -0.002857 -0.001348 0.000000 -0.001298 0.000000
# 2 -0.002857 0.017352 -0.006339 0.000000 0.001822 0.000000
# 3 -0.001348 -0.006339 0.016198 -0.000001 -0.004522 0.000000
# 4 0.000000 0.000000 -0.000001 -0.012145 0.000000 0.026139
# 5 -0.001298 0.001822 -0.004522 0.000000 0.024710 -0.000001
# 6 0.000000 0.000000 0.000000 0.026139 -0.000001 0.022946
#
#
# Mechanical properties :
#
#
# Convention : Reuss Voigt Hill
#
# Bulk Modulus (GPa) = 44.41591 46.40671 45.41131
# Shear Modulus (GPa) = 46.42188 18.75488 32.58838
#
# Velocity S-wave (km/s) = 4.89267 3.10987 4.09936
# Velocity P-wave (km/s) = 7.40415 6.06840 6.76930
#
# Compressibility (1/GPa) = 0.02251445
#
# Stress axis : x y z
#
# Youngs Moduli (GPa) = 99.47087 57.63090 61.73536
#
# Poissons Ratio (x) = 0.16467 0.08325
# Poissons Ratio (y) = 0.28423 0.39131
# Poissons Ratio (z) = 0.13413 0.36530
#
# Static dielectric constant tensor:
#      x y z
#    x 1.669040 0.000000 0.000530 
#    y 0.000000 1.657930 0.000000 
#    z 0.000530 0.000000 1.698950 
# 
# From -- ./inp_files/302477.got.cif
#   From: 2010.05.17/outbox.cif.g08.bks.cpg/sg12_152_cif.got.tgz:302477.got - 2010.06.03 13:09:07.
