data_PCOD9221407
_publ_section_title
;
Structure prediction by ZEFSAII (Michael W. Deem and Ramdas Pophale) SiO2 
 PCOD9221407
Probable space group: C 2/M
;
_chemical_formula_sum "Si O2"
_cell_formula_units_Z 48
_cell_length_a 15.890382
_cell_length_b 11.827492
_cell_length_c 18.779102
_cell_angle_alpha 90.000000
_cell_angle_beta 140.385015
_cell_angle_gamma 90.000000
_cell_volume 2250.440262
_symmetry_space_group_name_H-M "C 2/M"
_symmetry_group_IT_number 12
_symmetry_cell_setting 'monoclinic'
loop_
_space_group_symop_operation_xyz
x,y,z
-x,y,-z
-x,-y,-z
x,-y,z
1/2+x,1/2+y,z
1/2-x,1/2+y,-z
1/2-x,1/2-y,-z
1/2+x,1/2-y,z
loop_
_atom_site_type_symbol
_atom_site_label
_atom_site_fract_x
_atom_site_fract_y
_atom_site_fract_z
Si Si1 0.109694 0.628379 0.172952
Si Si2 0.809493 0.245850 0.643078
Si Si3 0.091426 0.500000 0.671050
Si Si4 0.088202 0.726124 0.754926
Si Si5 0.187109 0.628729 0.056885
Si Si6 0.456048 0.365836 0.550869
Si Si7 0.203370 0.500000 0.584052
O O1 0.139813 0.500000 0.217637
O O2 0.185011 0.716683 0.270814
O O3 0.148889 0.633982 0.115931
O O4 0.951716 0.646018 0.073388
O O5 0.685531 0.309601 0.527972
O O6 0.948323 0.286265 0.702687
O O7 0.784760 0.112791 0.620485
O O8 0.934747 0.500000 0.549385
O O9 0.123659 0.610491 0.738362
O O10 0.164031 0.500000 0.642101
O O11 0.200761 0.777630 0.878730
O O12 0.058372 0.818920 0.674494
O O13 0.232789 0.500000 0.071427
O O14 0.500000 0.331740 0.500000
O O15 0.447703 0.500000 0.548697
#
# Coordination Sequence:
#
# PCOD9221407 Si02
#       7
#     8   8   4   8   8   8   4
#     4   9  19  39  66  89 114 153 200 250 304 362
#     4  12  25  37  61  89 126 159 198 253 303 357
#     4  11  24  42  61  83 123 174 206 233 295 378
#     4  12  25  37  61  89 126 159 198 253 303 357
#     4   9  19  39  66  89 114 153 200 250 304 362
#     4  11  23  39  63  89 117 155 203 255 301 359
#     4  11  24  42  61  83 123 174 206 233 295 378
#
# _framework density 21.329159000000001
#
# number of rings (size 3 to 8) (size 9 to 14) (size 15 to 20)
#    0.000    1.333    1.667    5.500    4.667    3.333 
#    0.000    0.833    0.000    3.000    0.000    0.000 
#    0.000    0.000    0.000    0.000    0.000    0.000 
#
# Total GULP energy -134312.069341 kJ/mol
# GULP energy per Si atom -5596.336223 kJ/mol
# Density = 2.128061 g / cm^3
# Si number density = 21.329159 Si / 1000 Ang^3
#
#
#
# Elastic Constant Matrix: (Units=GPa)
#
#
# Indices 1 2 3 4 5 6 
#
# 1 53.8513 11.0434 -2.7703 0.0000 11.8891 0.0000
# 2 11.0434 81.7394 37.0892 0.0000 5.7705 0.0000
# 3 -2.7703 37.0892 76.0096 0.0000 7.5503 0.0000
# 4 0.0000 0.0000 0.0000 15.6412 0.0000 4.1690
# 5 11.8891 5.7705 7.5503 0.0000 32.3683 0.0000
# 6 0.0000 0.0000 0.0000 4.1690 0.0000 17.9774
#
#
#
# Elastic Compliance Matrix: (Units=1/GPa)
#
#
# Indices 1 2 3 4 5 6 
#
# 1 0.021297 -0.003888 0.003462 0.000000 -0.007937 0.000000
# 2 -0.003888 0.016457 -0.008213 0.000000 0.000410 0.000000
# 3 0.003462 -0.008213 0.017680 0.000000 -0.003932 0.000000
# 4 0.000000 0.000000 0.000000 0.068146 0.000000 -0.015803
# 5 -0.007937 0.000410 -0.003932 0.000000 0.034654 0.000000
# 6 0.000000 0.000000 0.000000 -0.015803 0.000000 0.059290
#
#
# Mechanical properties :
#
#
# Convention : Reuss Voigt Hill
#
# Bulk Modulus (GPa) = 26.20744 33.59164 29.89954
# Shear Modulus (GPa) = 20.20033 24.27991 22.24012
#
# Velocity S-wave (km/s) = 3.08080 3.37760 3.23260
# Velocity P-wave (km/s) = 4.99689 5.56725 5.28976
#
# Compressibility (1/GPa) = 0.03815711
#
# Stress axis : x y z
#
# Youngs Moduli (GPa) = 46.95422 60.76522 56.56011
#
# Poissons Ratio (x) = 0.23624 -0.19579
# Poissons Ratio (y) = 0.18255 0.46450
# Poissons Ratio (z) = -0.16254 0.49904
#
# Static dielectric constant tensor:
#      x y z
#    x 1.823310 0.000000 0.000970 
#    y 0.000000 1.731400 0.000000 
#    z 0.000970 0.000000 1.754420 
# 
# From -- ./inp_files/310288.got.cif
#   From: 2010.05.17/outbox.cif.g08.bks.cpg/sg12_156_cif.got.tgz:310288.got - 2010.06.03 13:09:07.
