data_PCOD9221593
_publ_section_title
;
Structure prediction by ZEFSAII (Michael W. Deem and Ramdas Pophale) SiO2 
 PCOD9221593
Probable space group: C 2/M
;
_chemical_formula_sum "Si O2"
_cell_formula_units_Z 38
_cell_length_a 11.589846
_cell_length_b 22.958553
_cell_length_c 7.190173
_cell_angle_alpha 90.000000
_cell_angle_beta 80.379718
_cell_angle_gamma 90.000000
_cell_volume 1886.299531
_symmetry_space_group_name_H-M "C 2/M"
_symmetry_group_IT_number 12
_symmetry_cell_setting 'monoclinic'
loop_
_space_group_symop_operation_xyz
x,y,z
-x,y,-z
-x,-y,-z
x,-y,z
1/2+x,1/2+y,z
1/2-x,1/2+y,-z
1/2-x,1/2-y,-z
1/2+x,1/2-y,z
loop_
_atom_site_type_symbol
_atom_site_label
_atom_site_fract_x
_atom_site_fract_y
_atom_site_fract_z
Si Si1 0.728196 0.674873 0.312678
Si Si2 0.620084 0.795771 0.371233
Si Si3 0.157847 0.612243 0.067971
Si Si4 0.500000 0.394420 0.500000
Si Si5 0.000000 0.500000 0.000000
Si Si6 0.103606 0.066746 0.846229
O O1 0.693614 0.741307 0.272843
O O2 0.801789 0.677107 0.484024
O O3 0.605240 0.642720 0.382752
O O4 0.801794 0.642298 0.134716
O O5 0.500000 0.775163 0.500000
O O6 0.591079 0.842026 0.218084
O O7 0.277017 0.599471 0.148077
O O8 0.089433 0.552406 0.050027
O O9 0.439548 0.430515 0.352668
O O10 0.120981 0.000000 0.900667
O O11 0.000000 0.092431 0.000000
#
# Coordination Sequence:
#
# PCOD9221593 Si02
#       6
#     8   8   8   4   2   8
#     4  11  24  42  70 100 137 177 225 289 345 405
#     4  11  24  44  67 100 139 177 233 283 339 413
#     4  12  24  46  68  98 137 188 222 277 347 404
#     4  12  21  42  68 102 130 169 226 282 344 408
#     4  12  28  48  68  96 148 182 240 276 326 432
#     4  11  23  41  66  95 132 172 227 281 335 399
#
# _framework density 20.145263
#
# number of rings (size 3 to 8) (size 9 to 14) (size 15 to 20)
#    0.000    0.632    6.316    2.211    0.000    0.000 
#    1.895    4.737    0.000    0.000    0.000    0.000 
#    0.000    0.000    0.000    0.000    0.000    0.000 
#
# Total GULP energy -105874.588429 kJ/mol
# GULP energy per Si atom -5572.346759 kJ/mol
# Density = 2.009941 g / cm^3
# Si number density = 20.145263 Si / 1000 Ang^3
#
#
#
# Elastic Constant Matrix: (Units=GPa)
#
#
# Indices 1 2 3 4 5 6 
#
# 1 86.8837 19.6124 23.3810 0.0000 13.4670 0.0000
# 2 19.6124 114.7745 55.3084 0.0000 -1.5260 0.0000
# 3 23.3810 55.3084 86.3586 0.0000 2.2337 0.0000
# 4 0.0000 0.0000 0.0000 4.5708 0.0000 -13.7906
# 5 13.4670 -1.5260 2.2337 0.0000 22.1735 0.0000
# 6 0.0000 0.0000 0.0000 -13.7906 0.0000 1.1199
#
#
#
# Elastic Compliance Matrix: (Units=1/GPa)
#
#
# Indices 1 2 3 4 5 6 
#
# 1 0.013782 -0.001110 -0.002809 0.000000 -0.008163 0.000000
# 2 -0.001110 0.012754 -0.007929 0.000000 0.002350 0.000000
# 3 -0.002809 -0.007929 0.017434 0.000000 -0.000596 0.000000
# 4 0.000000 0.000000 0.000000 -0.006051 0.000000 -0.074519
# 5 -0.008163 0.002350 -0.000596 0.000000 0.050279 0.000000
# 6 0.000000 0.000000 0.000000 -0.074519 0.000000 -0.024699
#
#
# Mechanical properties :
#
#
# Convention : Reuss Voigt Hill
#
# Bulk Modulus (GPa) = 49.32512 53.84671 51.58591
# Shear Modulus (GPa) = 53.21857 18.22052 35.71954
#
# Velocity S-wave (km/s) = 5.14536 3.01068 4.21539
# Velocity P-wave (km/s) = 7.73547 6.23481 7.02533
#
# Compressibility (1/GPa) = 0.02027365
#
# Stress axis : x y z
#
# Youngs Moduli (GPa) = 72.56103 78.40390 57.35995
#
# Poissons Ratio (x) = 0.08700 0.16115
# Poissons Ratio (y) = 0.08052 0.45480
# Poissons Ratio (z) = 0.20385 0.62166
#
# Static dielectric constant tensor:
#      x y z
#    x 1.720460 0.000000 -0.004860 
#    y 0.000000 1.698660 0.000000 
#    z -0.004860 0.000000 1.703320 
# 
# From -- ./inp_files/7624.got.cif
#   From: 2010.05.17/outbox.cif.g08.bks.cpg/sg12_4_cif.got.tgz:7624.got - 2010.06.03 13:09:07.
