data_PCOD9221590
_publ_section_title
;
Structure prediction by ZEFSAII (Michael W. Deem and Ramdas Pophale) SiO2 
 PCOD9221590
Probable space group: C 2/M
;
_chemical_formula_sum "Si O2"
_cell_formula_units_Z 40
_cell_length_a 23.350113
_cell_length_b 8.733810
_cell_length_c 9.675365
_cell_angle_alpha 90.000000
_cell_angle_beta 69.475414
_cell_angle_gamma 90.000000
_cell_volume 1847.897967
_symmetry_space_group_name_H-M "C 2/M"
_symmetry_group_IT_number 12
_symmetry_cell_setting 'monoclinic'
loop_
_space_group_symop_operation_xyz
x,y,z
-x,y,-z
-x,-y,-z
x,-y,z
1/2+x,1/2+y,z
1/2-x,1/2+y,-z
1/2-x,1/2-y,-z
1/2+x,1/2-y,z
loop_
_atom_site_type_symbol
_atom_site_label
_atom_site_fract_x
_atom_site_fract_y
_atom_site_fract_z
Si Si1 0.927702 0.680584 0.803746
Si Si2 0.345156 0.320309 0.093245
Si Si3 0.440022 0.178718 0.222011
Si Si4 0.739710 0.321699 0.357322
Si Si5 0.905141 0.176796 0.536270
O O1 0.925768 0.500000 0.776190
O O2 0.933825 0.771921 0.656330
O O3 0.987597 0.709472 0.847099
O O4 0.868307 0.733235 0.937810
O O5 0.343101 0.500000 0.068059
O O6 0.395958 0.281505 0.166842
O O7 0.281596 0.262321 0.209985
O O8 0.423607 0.214094 0.394967
O O9 0.429193 0.000000 0.197320
O O10 0.757748 0.500000 0.346625
O O11 0.750000 0.250000 0.500000
O O12 0.668108 0.312106 0.385119
O O13 0.920396 0.000000 0.490369
#
# Coordination Sequence:
#
# PCOD9221590 Si02
#       5
#     8   8   8   8   8
#     4  11  25  43  63  92 129 169 209 256 317 376
#     4  12  25  41  65  95 126 166 211 261 316 369
#     4  11  23  41  66  93 126 168 212 257 310 375
#     4  11  23  41  66  94 125 163 209 258 312 374
#     4  11  24  41  65  96 127 164 209 258 313 372
#
# _framework density 21.646217
#
# number of rings (size 3 to 8) (size 9 to 14) (size 15 to 20)
#    0.000    0.800    2.000    5.400    0.000   11.200 
#    0.000    0.000    0.000    0.000    0.000    0.000 
#    0.000    0.000    0.000    0.000    0.000    0.000 
#
# Total GULP energy -112014.304501 kJ/mol
# GULP energy per Si atom -5600.715225 kJ/mol
# Density = 2.159695 g / cm^3
# Si number density = 21.646217 Si / 1000 Ang^3
#
#
#
# Elastic Constant Matrix: (Units=GPa)
#
#
# Indices 1 2 3 4 5 6 
#
# 1 45.2736 20.5634 -13.8466 0.0000 -9.5253 0.0000
# 2 20.5634 66.1566 -20.1064 0.0000 -5.4357 0.0000
# 3 -13.8466 -20.1064 53.0457 0.0000 -12.3901 0.0000
# 4 0.0000 0.0000 0.0000 34.1328 0.0000 -1.7376
# 5 -9.5253 -5.4357 -12.3901 0.0000 41.6574 0.0000
# 6 0.0000 0.0000 0.0000 -1.7376 0.0000 28.9931
#
#
#
# Elastic Compliance Matrix: (Units=1/GPa)
#
#
# Indices 1 2 3 4 5 6 
#
# 1 0.028661 -0.006144 0.006981 0.000000 0.007828 0.000000
# 2 -0.006144 0.019210 0.006378 0.000000 0.002999 0.000000
# 3 0.006981 0.006378 0.025425 0.000000 0.009991 0.000000
# 4 0.000000 0.000000 0.000000 0.029387 0.000000 0.001761
# 5 0.007828 0.002999 0.009991 0.000000 0.029158 0.000000
# 6 0.000000 0.000000 0.000000 0.001761 0.000000 0.034597
#
#
# Mechanical properties :
#
#
# Convention : Reuss Voigt Hill
#
# Bulk Modulus (GPa) = 11.39898 15.29960 13.34929
# Shear Modulus (GPa) = 27.58644 32.81437 30.20041
#
# Velocity S-wave (km/s) = 3.57378 3.89773 3.73927
# Velocity P-wave (km/s) = 4.72299 5.22875 4.98229
#
# Compressibility (1/GPa) = 0.08772718
#
# Stress axis : x y z
#
# Youngs Moduli (GPa) = 34.89120 52.05580 39.33119
#
# Poissons Ratio (x) = 0.31981 -0.27457
# Poissons Ratio (y) = 0.21436 -0.25086
# Poissons Ratio (z) = -0.24358 -0.33202
#
# Static dielectric constant tensor:
#      x y z
#    x 1.793750 0.000000 -0.010430 
#    y 0.000000 1.718220 0.000000 
#    z -0.010430 0.000000 1.768430 
# 
# From -- ./inp_files/92758.got.cif
#   From: 2010.05.17/outbox.cif.g08.bks.cpg/sg12_47_cif.got.tgz:92758.got - 2010.06.03 13:09:07.
