data_PCOD9221474
_publ_section_title
;
Structure prediction by ZEFSAII (Michael W. Deem and Ramdas Pophale) SiO2 
 PCOD9221474
Probable space group: C 2/M
;
_chemical_formula_sum "Si O2"
_cell_formula_units_Z 40
_cell_length_a 9.337169
_cell_length_b 17.086783
_cell_length_c 25.125783
_cell_angle_alpha 90.000000
_cell_angle_beta 148.637321
_cell_angle_gamma 90.000000
_cell_volume 2086.301620
_symmetry_space_group_name_H-M "C 2/M"
_symmetry_group_IT_number 12
_symmetry_cell_setting 'monoclinic'
loop_
_space_group_symop_operation_xyz
x,y,z
-x,y,-z
-x,-y,-z
x,-y,z
1/2+x,1/2+y,z
1/2-x,1/2+y,-z
1/2-x,1/2-y,-z
1/2+x,1/2-y,z
loop_
_atom_site_type_symbol
_atom_site_label
_atom_site_fract_x
_atom_site_fract_y
_atom_site_fract_z
Si Si1 0.790405 0.907250 0.234655
Si Si2 0.128313 0.675486 0.597392
Si Si3 0.051919 0.322595 0.260732
Si Si4 0.463755 0.213482 0.927519
Si Si5 0.673449 0.091940 0.405021
O O1 0.669526 0.879566 0.253001
O O2 0.624870 0.858780 0.137503
O O3 0.105392 0.878586 0.328993
O O4 0.770255 0.000000 0.222267
O O5 0.231830 0.752887 0.660135
O O6 0.000000 0.696341 0.500000
O O7 0.918417 0.631123 0.569224
O O8 0.021724 0.366870 0.307280
O O9 0.773375 0.279503 0.154032
O O10 0.500000 0.189578 0.000000
O O11 0.750000 0.250000 0.000000
O O12 0.000000 0.100606 0.500000
O O13 0.608801 0.000000 0.385551
#
# Coordination Sequence:
#
# PCOD9221474 Si02
#       5
#     8   8   8   8   8
#     4  11  24  41  64  95 126 159 203 258 312 362
#     4  11  23  40  63  91 125 167 209 249 300 367
#     4  11  23  41  66  89 123 162 209 253 300 373
#     4  11  23  44  68  91 122 162 207 256 307 366
#     4  11  24  40  60  90 128 165 201 251 310 364
#
# _framework density 19.172682999999999
#
# number of rings (size 3 to 8) (size 9 to 14) (size 15 to 20)
#    0.000    1.000    2.000    5.400    2.800    6.000 
#    0.000    3.000    0.000    0.000    0.000    0.000 
#    0.000    0.000    0.000    0.000    0.000    0.000 
#
# Total GULP energy -111926.390113 kJ/mol
# GULP energy per Si atom -5596.319506 kJ/mol
# Density = 1.912905 g / cm^3
# Si number density = 19.172683 Si / 1000 Ang^3
#
#
#
# Elastic Constant Matrix: (Units=GPa)
#
#
# Indices 1 2 3 4 5 6 
#
# 1 82.5289 5.4081 18.8053 -0.0006 -5.7961 -0.0007
# 2 5.4081 80.4897 17.7666 -0.0017 14.6505 -0.0016
# 3 18.8053 17.7666 92.9925 0.0000 -2.9592 -0.0019
# 4 -0.0006 -0.0017 0.0000 2.5873 0.0000 -1.8041
# 5 -5.7961 14.6505 -2.9592 0.0000 32.6793 0.0000
# 6 -0.0007 -0.0016 -0.0019 -1.8041 0.0000 18.6037
#
#
#
# Elastic Compliance Matrix: (Units=1/GPa)
#
#
# Indices 1 2 3 4 5 6 
#
# 1 0.012880 -0.000781 -0.002379 0.000003 0.002419 0.000000
# 2 -0.000781 0.014335 -0.002798 0.000011 -0.006818 0.000002
# 3 -0.002379 -0.002798 0.011830 -0.000002 0.001904 0.000001
# 4 0.000003 0.000011 -0.000002 0.414528 -0.000005 0.040200
# 5 0.002419 -0.006818 0.001904 -0.000005 0.034259 -0.000001
# 6 0.000000 0.000002 0.000001 0.040200 -0.000001 0.057651
#
#
# Mechanical properties :
#
#
# Convention : Reuss Voigt Hill
#
# Bulk Modulus (GPa) = 36.85878 37.77454 37.31666
# Shear Modulus (GPa) = 8.82706 25.04282 16.93494
#
# Velocity S-wave (km/s) = 2.14802 3.61802 2.97524
# Velocity P-wave (km/s) = 5.04166 6.09906 5.59539
#
# Compressibility (1/GPa) = 0.02713057
#
# Stress axis : x y z
#
# Youngs Moduli (GPa) = 77.63979 69.75912 84.53324
#
# Poissons Ratio (x) = 0.05446 0.20106
# Poissons Ratio (y) = 0.06061 0.23651
# Poissons Ratio (z) = 0.18467 0.19518
#
# Static dielectric constant tensor:
#      x y z
#    x 1.714560 0.000000 -0.016720 
#    y 0.000000 1.636790 0.000000 
#    z -0.016720 0.000000 1.661230 
# 
# From -- ./inp_files/119064.got.cif
#   From: 2010.05.17/outbox.cif.g08.bks.cpg/sg12_60_cif.got.tgz:119064.got - 2010.06.03 13:09:07.
