data_PCOD9221900
_publ_section_title
;
Structure prediction by ZEFSAII (Michael W. Deem and Ramdas Pophale) SiO2 
 PCOD9221900
Probable space group: C 2/M
;
_chemical_formula_sum "Si O2"
_cell_formula_units_Z 40
_cell_length_a 15.079868
_cell_length_b 27.144721
_cell_length_c 14.996182
_cell_angle_alpha 90.000000
_cell_angle_beta 160.281743
_cell_angle_gamma 90.000000
_cell_volume 2071.107164
_symmetry_space_group_name_H-M "C 2/M"
_symmetry_group_IT_number 12
_symmetry_cell_setting 'monoclinic'
loop_
_space_group_symop_operation_xyz
x,y,z
-x,y,-z
-x,-y,-z
x,-y,z
1/2+x,1/2+y,z
1/2-x,1/2+y,-z
1/2-x,1/2-y,-z
1/2+x,1/2-y,z
loop_
_atom_site_type_symbol
_atom_site_label
_atom_site_fract_x
_atom_site_fract_y
_atom_site_fract_z
Si Si1 0.224072 0.806632 0.276879
Si Si2 0.435828 0.118026 0.101532
Si Si3 0.960937 0.942466 0.570248
Si Si4 0.090788 0.197619 0.842884
Si Si5 0.204610 0.193386 0.627712
O O1 0.500000 0.825768 0.500000
O O2 0.240066 0.747375 0.283726
O O3 0.125374 0.810953 0.284856
O O4 0.000000 0.826046 0.000000
O O5 0.704243 0.086696 0.363429
O O6 0.532546 0.162384 0.130012
O O7 0.294248 0.151754 0.042262
O O8 0.216695 0.082476 0.854740
O O9 0.000000 0.940518 0.500000
O O10 0.939443 0.000000 0.573631
O O11 0.935038 0.197065 0.601395
O O12 0.250000 0.250000 0.000000
O O13 0.000000 0.168241 0.500000
#
# Coordination Sequence:
#
# PCOD9221900 Si02
#       5
#     8   8   8   8   8
#     4  11  25  39  57  80 120 168 210 249 304 358
#     4  12  24  37  62  86 122 162 217 251 309 370
#     4  11  25  42  61  87 125 167 214 265 316 370
#     4  12  24  40  61  89 129 166 213 267 308 365
#     4  11  24  36  57  88 122 166 213 254 294 372
#
# _framework density 19.31334
#
# number of rings (size 3 to 8) (size 9 to 14) (size 15 to 20)
#    0.000    0.600    4.000    4.800    5.600    1.600 
#    0.000    0.000    0.000    0.000    0.000    0.000 
#    0.000   16.000    0.000    0.000    0.000    0.000 
#
# Total GULP energy -111659.270811 kJ/mol
# GULP energy per Si atom -5582.963541 kJ/mol
# Density = 1.926938 g / cm^3
# Si number density = 19.313340 Si / 1000 Ang^3
#
#
#
# Elastic Constant Matrix: (Units=GPa)
#
#
# Indices 1 2 3 4 5 6 
#
# 1 119.6328 8.9359 52.2369 0.0022 21.1374 0.0008
# 2 8.9359 89.3264 27.9084 -0.0025 14.7579 -0.0021
# 3 52.2369 27.9084 144.9318 0.0084 21.7343 0.0172
# 4 0.0022 -0.0025 0.0084 21.4586 0.0049 7.3199
# 5 21.1374 14.7579 21.7343 0.0049 42.5514 0.0062
# 6 0.0008 -0.0021 0.0172 7.3199 0.0062 13.4254
#
#
#
# Elastic Compliance Matrix: (Units=1/GPa)
#
#
# Indices 1 2 3 4 5 6 
#
# 1 0.010414 0.000604 -0.003316 -0.000001 -0.003688 0.000006
# 2 0.000604 0.012364 -0.002069 0.000001 -0.003531 0.000006
# 3 -0.003316 -0.002069 0.008814 0.000001 -0.002137 -0.000011
# 4 -0.000001 0.000001 0.000001 0.057249 -0.000002 -0.031214
# 5 -0.003688 -0.003531 -0.002137 -0.000002 0.027649 -0.000009
# 6 0.000006 0.000006 -0.000011 -0.031214 -0.000009 0.091504
#
#
# Mechanical properties :
#
#
# Convention : Reuss Voigt Hill
#
# Bulk Modulus (GPa) = 45.39531 59.11706 52.25618
# Shear Modulus (GPa) = 22.23202 33.14107 27.68655
#
# Velocity S-wave (km/s) = 3.39650 4.14692 3.79033
# Velocity P-wave (km/s) = 6.23997 7.32155 6.80229
#
# Compressibility (1/GPa) = 0.02202871
#
# Stress axis : x y z
#
# Youngs Moduli (GPa) = 96.02824 80.87770 113.45588
#
# Poissons Ratio (x) = -0.04883 0.37627
# Poissons Ratio (y) = -0.05798 0.23473
# Poissons Ratio (z) = 0.31847 0.16733
#
# Static dielectric constant tensor:
#      x y z
#    x 1.751410 -0.000010 0.065970 
#    y -0.000010 1.679440 0.000020 
#    z 0.065970 0.000020 1.692950 
# 
# From -- ./inp_files/219196.got.cif
#   From: 2010.05.17/outbox.cif.g08.bks.cpg/sg12_110_cif.got.tgz:219196.got - 2010.06.03 13:09:07.
