data_PCOD9221524
_publ_section_title
;
Structure prediction by ZEFSAII (Michael W. Deem and Ramdas Pophale) SiO2 
 PCOD9221524
Probable space group: C 2/M
;
_chemical_formula_sum "Si O2"
_cell_formula_units_Z 64
_cell_length_a 7.832141
_cell_length_b 17.420659
_cell_length_c 29.537585
_cell_angle_alpha 90.000000
_cell_angle_beta 45.432638
_cell_angle_gamma 90.000000
_cell_volume 2871.175665
_symmetry_space_group_name_H-M "C 2/M"
_symmetry_group_IT_number 12
_symmetry_cell_setting 'monoclinic'
loop_
_space_group_symop_operation_xyz
x,y,z
-x,y,-z
-x,-y,-z
x,-y,z
1/2+x,1/2+y,z
1/2-x,1/2+y,-z
1/2-x,1/2-y,-z
1/2+x,1/2-y,z
loop_
_atom_site_type_symbol
_atom_site_label
_atom_site_fract_x
_atom_site_fract_y
_atom_site_fract_z
Si Si1 0.575557 0.908242 0.169761
Si Si2 0.732220 0.202878 0.062145
Si Si3 0.354802 0.312674 0.573193
Si Si4 0.730355 0.411178 0.561791
Si Si5 0.671786 0.157271 0.364141
Si Si6 0.969728 0.146227 0.144457
Si Si7 0.552240 0.592207 0.228202
Si Si8 0.730243 0.079554 0.987430
O O1 0.709724 0.859994 0.105638
O O2 0.685007 0.869711 0.194818
O O3 0.295317 0.895889 0.211445
O O4 0.608806 0.000000 0.162857
O O5 0.559471 0.271299 0.109716
O O6 0.683826 0.151647 0.027482
O O7 0.000000 0.230642 0.000000
O O8 0.500000 0.293587 0.500000
O O9 0.527577 0.365478 0.572083
O O10 0.304426 0.238265 0.613715
O O11 0.103280 0.348244 0.602115
O O12 0.709981 0.500000 0.552737
O O13 0.732072 0.401808 0.615613
O O14 0.000000 0.384008 0.500000
O O15 0.842031 0.141120 0.290162
O O16 0.078848 0.124288 0.172298
O O17 0.069247 0.089076 0.087828
O O18 0.503839 0.500000 0.235311
O O19 0.766058 0.000000 0.007359
O O20 0.500000 0.073715 0.000000
#
# Coordination Sequence:
#
# PCOD9221524 Si02
#       8
#     8   8   8   8   8   8   8   8
#     4  11  26  48  75 100 139 193 241 294 370 443
#     4  12  26  43  68 108 148 174 230 308 374 446
#     4  12  24  45  78 116 156 200 247 302 373 445
#     4  11  24  43  73 115 160 201 246 308 369 428
#     4  12  25  46  76 108 151 200 254 307 364 431
#     4  12  26  46  72 103 139 187 237 303 370 432
#     4  11  28  52  74 102 145 193 253 309 354 432
#     4  11  23  40  68 100 137 183 230 287 370 451
#
# _framework density 22.290520999999998
#
# number of rings (size 3 to 8) (size 9 to 14) (size 15 to 20)
#    0.000    0.500    3.750    4.125    3.500    5.750 
#    0.000    0.000    0.000    0.000    0.000    0.000 
#    0.000    0.000    0.000    0.000    0.000    0.000 
#
# Total GULP energy -178731.713976 kJ/mol
# GULP energy per Si atom -5585.366062 kJ/mol
# Density = 2.223979 g / cm^3
# Si number density = 22.290521 Si / 1000 Ang^3
#
#
#
# Elastic Constant Matrix: (Units=GPa)
#
#
# Indices 1 2 3 4 5 6 
#
# 1 151.8502 64.8774 33.2488 -0.0005 -18.3404 0.0007
# 2 64.8774 140.4236 49.6312 -0.0010 -4.8756 0.0006
# 3 33.2488 49.6312 74.0198 -0.0010 -19.8126 0.0000
# 4 -0.0005 -0.0010 -0.0010 15.1397 0.0003 10.0189
# 5 -18.3404 -4.8756 -19.8126 0.0003 21.7296 0.0002
# 6 0.0007 0.0006 0.0000 10.0189 0.0002 9.0442
#
#
#
# Elastic Compliance Matrix: (Units=1/GPa)
#
#
# Indices 1 2 3 4 5 6 
#
# 1 0.009122 -0.004206 0.000702 0.000001 0.007396 -0.000002
# 2 -0.004206 0.011663 -0.008176 0.000001 -0.008388 -0.000002
# 3 0.000702 -0.008176 0.024267 0.000003 0.020884 -0.000003
# 4 0.000001 0.000001 0.000003 0.247463 0.000004 -0.274133
# 5 0.007396 -0.008388 0.020884 0.000004 0.069422 -0.000006
# 6 -0.000002 -0.000002 -0.000003 -0.274133 -0.000006 0.414245
#
#
# Mechanical properties :
#
#
# Convention : Reuss Voigt Hill
#
# Bulk Modulus (GPa) = 46.09992 73.53424 59.81708
# Shear Modulus (GPa) = 6.19755 23.75180 14.97467
#
# Velocity S-wave (km/s) = 1.66925 3.26783 2.59471
# Velocity P-wave (km/s) = 4.94383 6.87742 5.98917
#
# Compressibility (1/GPa) = 0.02169201
#
# Stress axis : x y z
#
# Youngs Moduli (GPa) = 109.62692 85.74151 41.20897
#
# Poissons Ratio (x) = 0.36061 -0.02894
# Poissons Ratio (y) = 0.46107 0.33693
# Poissons Ratio (z) = -0.07698 0.70103
#
# Static dielectric constant tensor:
#      x y z
#    x 1.966400 0.000000 -0.041920 
#    y 0.000000 1.858180 0.000000 
#    z -0.041920 0.000000 1.863700 
# 
# From -- ./inp_files/372881.got.cif
#   From: 2010.05.17/outbox.cif.g08.bks.cpg/sg12_187_cif.got.tgz:372881.got - 2010.06.03 13:09:07.
