data_PCOD9221386
_publ_section_title
;
Structure prediction by ZEFSAII (Michael W. Deem and Ramdas Pophale) SiO2 
 PCOD9221386
Probable space group: C 2/M
;
_chemical_formula_sum "Si O2"
_cell_formula_units_Z 58
_cell_length_a 23.263822
_cell_length_b 9.643074
_cell_length_c 21.303955
_cell_angle_alpha 90.000000
_cell_angle_beta 41.186248
_cell_angle_gamma 90.000000
_cell_volume 3147.157057
_symmetry_space_group_name_H-M "C 2/M"
_symmetry_group_IT_number 12
_symmetry_cell_setting 'monoclinic'
loop_
_space_group_symop_operation_xyz
x,y,z
-x,y,-z
-x,-y,-z
x,-y,z
1/2+x,1/2+y,z
1/2-x,1/2+y,-z
1/2-x,1/2-y,-z
1/2+x,1/2-y,z
loop_
_atom_site_type_symbol
_atom_site_label
_atom_site_fract_x
_atom_site_fract_y
_atom_site_fract_z
Si Si1 0.237922 0.665573 0.574512
Si Si2 0.022996 0.841302 0.321383
Si Si3 0.143465 0.164185 0.872252
Si Si4 0.031786 0.662410 0.752114
Si Si5 0.015195 0.834854 0.091125
Si Si6 0.608339 0.263721 0.462947
Si Si7 0.315775 0.656760 0.729020
Si Si8 0.500000 0.000000 0.500000
O O1 0.260066 0.500000 0.550215
O O2 0.250000 0.750000 0.500000
O O3 0.136207 0.673288 0.675917
O O4 0.300269 0.737202 0.574424
O O5 0.117602 0.801072 0.270781
O O6 0.991259 0.737284 0.294143
O O7 0.957331 0.834878 0.434189
O O8 0.025620 0.000000 0.295971
O O9 0.073038 0.195543 0.875845
O O10 0.232721 0.245609 0.792002
O O11 0.160256 0.000000 0.856033
O O12 0.094744 0.193888 0.978143
O O13 0.009116 0.500000 0.768883
O O14 0.984801 0.743184 0.846961
O O15 0.015496 0.000000 0.104865
O O16 0.629947 0.339148 0.380177
O O17 0.562828 0.120897 0.480243
O O18 0.286622 0.500000 0.764653
#
# Coordination Sequence:
#
# PCOD9221386 Si02
#       8
#     8   8   8   8   8   8   8   2
#     4  11  24  39  59  90 127 164 207 257 311 369
#     4  11  23  40  60  83 120 167 207 248 304 369
#     4   9  20  38  65  92 120 151 198 250 302 368
#     4  11  24  39  60  90 124 159 204 254 306 368
#     4   9  19  40  63  90 120 156 195 245 308 370
#     4  12  24  41  61  86 127 164 213 256 309 366
#     4  11  23  39  61  90 120 158 204 257 310 368
#     4  12  28  40  62  96 120 174 218 272 308 368
#
# _framework density 18.429331000000001
#
# number of rings (size 3 to 8) (size 9 to 14) (size 15 to 20)
#    0.000    1.379    2.759    3.310    2.897    4.414 
#    0.000    2.069    0.000    0.000    0.000    0.000 
#    0.000    0.000    0.000    0.000    0.000    0.000 
#
# Total GULP energy -161658.520223 kJ/mol
# GULP energy per Si atom -5574.431732 kJ/mol
# Density = 1.838739 g / cm^3
# Si number density = 18.429331 Si / 1000 Ang^3
#
#
#
# Elastic Constant Matrix: (Units=GPa)
#
#
# Indices 1 2 3 4 5 6 
#
# 1 115.9822 63.2000 33.8259 0.0000 6.2165 0.0000
# 2 63.2000 91.8629 47.4806 0.0000 5.5799 0.0001
# 3 33.8259 47.4806 79.1727 0.0000 7.1555 0.0000
# 4 0.0000 0.0000 0.0000 9.1936 0.0000 -10.0584
# 5 6.2165 5.5799 7.1555 0.0000 15.8749 0.0000
# 6 0.0000 0.0001 0.0000 -10.0584 0.0000 28.9786
#
#
#
# Elastic Compliance Matrix: (Units=1/GPa)
#
#
# Indices 1 2 3 4 5 6 
#
# 1 0.013863 -0.009343 -0.000131 0.000000 -0.002086 0.000000
# 2 -0.009343 0.022100 -0.009268 0.000000 0.000068 0.000000
# 3 -0.000131 -0.009268 0.018708 0.000000 -0.005123 0.000000
# 4 0.000000 0.000000 0.000000 0.175367 0.000000 0.060869
# 5 -0.002086 0.000068 -0.005123 0.000000 0.066095 0.000000
# 6 0.000000 0.000000 0.000000 0.060869 0.000000 0.055636
#
#
# Mechanical properties :
#
#
# Convention : Reuss Voigt Hill
#
# Bulk Modulus (GPa) = 58.18606 64.00342 61.09474
# Shear Modulus (GPa) = 12.65883 20.31016 16.48449
#
# Velocity S-wave (km/s) = 2.62369 3.32332 2.99401
# Velocity P-wave (km/s) = 6.38901 7.03779 6.72123
#
# Compressibility (1/GPa) = 0.01718625
#
# Stress axis : x y z
#
# Youngs Moduli (GPa) = 72.13301 45.24931 53.45373
#
# Poissons Ratio (x) = 0.42277 0.00702
# Poissons Ratio (y) = 0.67395 0.49540
# Poissons Ratio (z) = 0.00947 0.41936
#
# Static dielectric constant tensor:
#      x y z
#    x 1.632990 0.000000 -0.002420 
#    y 0.000000 1.619310 0.000000 
#    z -0.002420 0.000000 1.625460 
# 
# From -- ./inp_files/324564.got.cif
#   From: 2010.05.17/outbox.cif.g08.bks.cpg/sg12_163_cif.got.tgz:324564.got - 2010.06.03 13:09:07.
