data_PCOD9221544
_publ_section_title
;
Structure prediction by ZEFSAII (Michael W. Deem and Ramdas Pophale) SiO2 
 PCOD9221544
Probable space group: C 2/M
;
_chemical_formula_sum "Si O2"
_cell_formula_units_Z 40
_cell_length_a 8.248892
_cell_length_b 31.281308
_cell_length_c 14.120935
_cell_angle_alpha 90.000000
_cell_angle_beta 146.164368
_cell_angle_gamma 90.000000
_cell_volume 2028.863323
_symmetry_space_group_name_H-M "C 2/M"
_symmetry_group_IT_number 12
_symmetry_cell_setting 'monoclinic'
loop_
_space_group_symop_operation_xyz
x,y,z
-x,y,-z
-x,-y,-z
x,-y,z
1/2+x,1/2+y,z
1/2-x,1/2+y,-z
1/2-x,1/2-y,-z
1/2+x,1/2-y,z
loop_
_atom_site_type_symbol
_atom_site_label
_atom_site_fract_x
_atom_site_fract_y
_atom_site_fract_z
Si Si1 0.163741 0.546129 0.803091
Si Si2 0.727140 0.953771 0.196124
Si Si3 0.662265 0.859567 0.814203
Si Si4 0.673407 0.798471 0.487420
Si Si5 0.124637 0.131778 0.667232
O O1 0.115348 0.500000 0.729501
O O2 0.121241 0.593995 0.742222
O O3 0.955519 0.545406 0.794437
O O4 0.500000 0.545890 0.000000
O O5 0.920952 0.911631 0.296712
O O6 0.877522 0.000000 0.260159
O O7 0.500000 0.950172 0.000000
O O8 0.528236 0.821401 0.688612
O O9 0.468405 0.861600 0.815995
O O10 0.000000 0.854056 0.000000
O O11 0.500000 0.799720 0.500000
O O12 0.750000 0.750000 0.500000
O O13 0.962595 0.827673 0.631110
O O14 0.000000 0.125877 0.500000
#
# Coordination Sequence:
#
# PCOD9221544 Si02
#       5
#     8   8   8   8   8
#     4   8  14  26  47  75 108 143 175 212 256 301
#     4   9  17  29  48  77 111 145 182 221 258 302
#     4   9  18  35  58  84 111 141 183 222 257 315
#     4  11  23  41  60  78 106 140 174 221 282 331
#     4   9  19  35  54  78 110 146 180 218 269 322
#
# _framework density 19.715474
#
# number of rings (size 3 to 8) (size 9 to 14) (size 15 to 20)
#    0.000    2.800    0.000    1.800    0.000    5.200 
#    0.000    8.000    0.000    1.200    0.000    0.000 
#    0.000    0.000    0.000    0.000    0.000    0.000 
#
# Total GULP energy -111393.298632 kJ/mol
# GULP energy per Si atom -5569.664932 kJ/mol
# Density = 1.967060 g / cm^3
# Si number density = 19.715474 Si / 1000 Ang^3
#
#
#
# Elastic Constant Matrix: (Units=GPa)
#
#
# Indices 1 2 3 4 5 6 
#
# 1 46.4943 48.6386 18.9638 0.0000 17.4006 0.0000
# 2 48.6386 243.4561 52.6301 0.0000 8.4762 0.0000
# 3 18.9638 52.6301 45.2182 0.0000 23.3489 0.0000
# 4 0.0000 0.0000 0.0000 37.7289 0.0000 12.1207
# 5 17.4006 8.4762 23.3489 0.0000 30.9826 0.0000
# 6 0.0000 0.0000 0.0000 12.1207 0.0000 20.1627
#
#
#
# Elastic Compliance Matrix: (Units=1/GPa)
#
#
# Indices 1 2 3 4 5 6 
#
# 1 0.035227 -0.007334 0.004816 0.000000 -0.021408 0.000000
# 2 -0.007334 0.007635 -0.011228 0.000000 0.010492 0.000000
# 3 0.004816 -0.011228 0.053979 0.000000 -0.040313 0.000000
# 4 0.000000 0.000000 0.000000 0.032849 0.000000 -0.019747
# 5 -0.021408 0.010492 -0.040313 0.000000 0.071809 0.000000
# 6 0.000000 0.000000 0.000000 -0.019747 0.000000 0.061467
#
#
# Mechanical properties :
#
#
# Convention : Reuss Voigt Hill
#
# Bulk Modulus (GPa) = 14.41957 63.95931 39.18944
# Shear Modulus (GPa) = 15.94519 32.10391 24.02455
#
# Velocity S-wave (km/s) = 2.84697 4.03967 3.49458
# Velocity P-wave (km/s) = 4.25872 7.36683 6.01693
#
# Compressibility (1/GPa) = 0.06935022
#
# Stress axis : x y z
#
# Youngs Moduli (GPa) = 28.38699 130.98261 18.52562
#
# Poissons Ratio (x) = 0.96058 -0.08922
# Poissons Ratio (y) = 0.20818 0.20800
# Poissons Ratio (z) = -0.13671 1.47065
#
# Static dielectric constant tensor:
#      x y z
#    x 1.734110 0.000000 0.003710 
#    y 0.000000 1.762830 0.000000 
#    z 0.003710 0.000000 1.715420 
# 
# From -- ./inp_files/41442.got.cif
#   From: 2010.05.17/outbox.cif.g08.bks.cpg/sg12_21_cif.got.tgz:41442.got - 2010.06.03 13:09:07.
