data_PCOD9221976
_publ_section_title
;
Structure prediction by ZEFSAII (Michael W. Deem and Ramdas Pophale) SiO2 
 PCOD9221976
Probable space group: C 2/M
;
_chemical_formula_sum "Si O2"
_cell_formula_units_Z 48
_cell_length_a 25.614983
_cell_length_b 14.359949
_cell_length_c 22.980468
_cell_angle_alpha 90.000000
_cell_angle_beta 163.412955
_cell_angle_gamma 90.000000
_cell_volume 2413.064128
_symmetry_space_group_name_H-M "C 2/M"
_symmetry_group_IT_number 12
_symmetry_cell_setting 'monoclinic'
loop_
_space_group_symop_operation_xyz
x,y,z
-x,y,-z
-x,-y,-z
x,-y,z
1/2+x,1/2+y,z
1/2-x,1/2+y,-z
1/2-x,1/2-y,-z
1/2+x,1/2-y,z
loop_
_atom_site_type_symbol
_atom_site_label
_atom_site_fract_x
_atom_site_fract_y
_atom_site_fract_z
Si Si1 0.164157 0.900272 0.762495
Si Si2 0.674600 0.222878 0.856901
Si Si3 0.798572 0.701361 0.311215
Si Si4 0.329792 0.107403 0.462855
Si Si5 0.403535 0.390499 0.013045
Si Si6 0.255094 0.898588 0.727082
O O1 0.187478 0.813267 0.829049
O O2 0.266577 0.895427 0.809826
O O3 0.952722 0.903828 0.517346
O O4 0.211864 0.000000 0.841271
O O5 0.470646 0.180445 0.640948
O O6 0.750000 0.250000 0.000000
O O7 0.793915 0.145062 0.951726
O O8 0.838131 0.624650 0.402265
O O9 0.703432 0.790314 0.241604
O O10 0.000000 0.727471 0.500000
O O11 0.674741 0.662737 0.127070
O O12 0.118654 0.124887 0.252666
O O13 0.375798 0.000000 0.525626
O O14 0.375111 0.500000 0.973000
O O15 0.333522 0.000000 0.791602
#
# Coordination Sequence:
#
# PCOD9221976 Si02
#       6
#     8   8   8   8   8   8
#     4   9  16  31  54  83 111 145 192 242 299 359
#     4  12  24  40  64  87 115 163 212 251 302 359
#     4  12  18  33  63  94 125 162 202 246 314 380
#     4  11  24  41  62  92 128 162 200 253 313 372
#     4  11  24  41  62  92 128 162 200 253 313 372
#     4   9  14  26  54  84 112 149 190 238 304 357
#
# _framework density 19.891719999999999
#
# number of rings (size 3 to 8) (size 9 to 14) (size 15 to 20)
#    0.000    1.333    6.667    2.500    0.000    4.000 
#    0.000    0.000    0.000    5.000    0.000    0.000 
#    0.000    0.000    0.000    0.000    0.000    0.000 
#
# Total GULP energy -133806.249216 kJ/mol
# GULP energy per Si atom -5575.260384 kJ/mol
# Density = 1.984645 g / cm^3
# Si number density = 19.891720 Si / 1000 Ang^3
#
#
#
# Elastic Constant Matrix: (Units=GPa)
#
#
# Indices 1 2 3 4 5 6 
#
# 1 30.0438 14.6664 27.7881 0.0153 -17.3111 0.0147
# 2 14.6664 127.6945 39.6138 0.0228 -2.5079 0.0193
# 3 27.7881 39.6138 85.2050 0.0136 -8.8272 0.0089
# 4 0.0153 0.0228 0.0136 0.5437 0.0010 -10.8209
# 5 -17.3111 -2.5079 -8.8272 0.0010 29.5018 0.0003
# 6 0.0147 0.0193 0.0089 -10.8209 0.0003 -3.2302
#
#
#
# Elastic Compliance Matrix: (Units=1/GPa)
#
#
# Indices 1 2 3 4 5 6 
#
# 1 0.073338 -0.001715 -0.019275 0.000057 0.037120 0.000082
# 2 -0.001715 0.009199 -0.003860 0.000007 -0.001379 0.000012
# 3 -0.019275 -0.003860 0.019207 -0.000014 -0.005892 -0.000013
# 4 0.000057 0.000007 -0.000014 0.027179 0.000030 -0.091048
# 5 0.037120 -0.001379 -0.005892 0.000030 0.053798 0.000049
# 6 0.000082 0.000012 -0.000013 -0.091048 0.000049 -0.004575
#
#
# Mechanical properties :
#
#
# Convention : Reuss Voigt Hill
#
# Bulk Modulus (GPa) = 19.21464 45.23111 32.22287
# Shear Modulus (GPa) = 20.39196 16.08805 18.24000
#
# Velocity S-wave (km/s) = 3.20527 2.84699 3.03143
# Velocity P-wave (km/s) = 4.83517 5.79614 5.33733
#
# Compressibility (1/GPa) = 0.05204366
#
# Stress axis : x y z
#
# Youngs Moduli (GPa) = 13.63544 108.71214 52.06419
#
# Poissons Ratio (x) = 0.18640 1.00355
# Poissons Ratio (y) = 0.02338 0.20099
# Poissons Ratio (z) = 0.26283 0.41966
#
# Static dielectric constant tensor:
#      x y z
#    x 1.682490 0.000000 0.061800 
#    y 0.000000 1.794360 0.000000 
#    z 0.061800 0.000000 1.724970 
# 
# From -- ./inp_files/325698.got.cif
#   From: 2010.05.17/outbox.cif.g08.bks.cpg/sg12_163_cif.got.tgz:325698.got - 2010.06.03 13:09:07.
