data_PCOD9221061
_publ_section_title
;
Structure prediction by ZEFSAII (Michael W. Deem and Ramdas Pophale) SiO2 
 PCOD9221061
Probable space group: C 2/M
;
_chemical_formula_sum "Si O2"
_cell_formula_units_Z 48
_cell_length_a 22.076339
_cell_length_b 18.639288
_cell_length_c 15.859349
_cell_angle_alpha 90.000000
_cell_angle_beta 157.446578
_cell_angle_gamma 90.000000
_cell_volume 2502.981817
_symmetry_space_group_name_H-M "C 2/M"
_symmetry_group_IT_number 12
_symmetry_cell_setting 'monoclinic'
loop_
_space_group_symop_operation_xyz
x,y,z
-x,y,-z
-x,-y,-z
x,-y,z
1/2+x,1/2+y,z
1/2-x,1/2+y,-z
1/2-x,1/2-y,-z
1/2+x,1/2-y,z
loop_
_atom_site_type_symbol
_atom_site_label
_atom_site_fract_x
_atom_site_fract_y
_atom_site_fract_z
Si Si1 0.048864 0.299964 0.314904
Si Si2 0.790382 0.157548 0.186011
Si Si3 0.586731 0.421735 0.021863
Si Si4 0.099783 0.915551 0.513743
Si Si5 0.161723 0.142437 0.416593
Si Si6 0.359247 0.192869 0.371098
O O1 0.074833 0.219714 0.312315
O O2 0.179327 0.346561 0.432603
O O3 0.089421 0.296503 0.466127
O O4 0.874005 0.330626 0.073225
O O5 0.794545 0.100730 0.268047
O O6 0.825751 0.232909 0.278697
O O7 0.936805 0.130223 0.316808
O O8 0.662704 0.500000 0.110673
O O9 0.455487 0.410358 0.782201
O O10 0.500000 0.418601 0.000000
O O11 0.708842 0.357502 0.175309
O O12 0.186124 0.887038 0.541684
O O13 0.064431 0.000000 0.463041
O O14 0.500000 0.156937 0.500000
#
# Coordination Sequence:
#
# PCOD9221061 Si02
#       6
#     8   8   8   8   8   8
#     4  11  24  39  66 102 126 157 223 273 310 369
#     4  11  22  42  67  96 131 168 212 269 320 375
#     4  11  24  43  63  89 132 177 209 257 326 387
#     4  11  24  45  66  95 133 173 212 256 329 394
#     4  11  22  41  66  96 127 168 215 268 316 378
#     4  12  23  41  66  96 130 165 215 270 318 376
#
# _framework density 19.177126000000001
#
# number of rings (size 3 to 8) (size 9 to 14) (size 15 to 20)
#    0.000    0.833    6.667    1.500    2.333    2.333 
#    0.000    5.833    0.000    0.000    0.000    0.000 
#    0.000    0.000    0.000    0.000    0.000    0.000 
#
# Total GULP energy -134028.328995 kJ/mol
# GULP energy per Si atom -5584.513708 kJ/mol
# Density = 1.913348 g / cm^3
# Si number density = 19.177126 Si / 1000 Ang^3
#
#
#
# Elastic Constant Matrix: (Units=GPa)
#
#
# Indices 1 2 3 4 5 6 
#
# 1 95.2983 20.6758 13.3398 0.0000 3.4343 0.0000
# 2 20.6758 109.7593 37.6935 0.0000 16.7613 0.0000
# 3 13.3398 37.6935 77.9489 0.0000 -1.5188 0.0000
# 4 0.0000 0.0000 0.0000 18.7880 0.0000 -5.0267
# 5 3.4343 16.7613 -1.5188 0.0000 19.6200 0.0000
# 6 0.0000 0.0000 0.0000 -5.0267 0.0000 36.8747
#
#
#
# Elastic Compliance Matrix: (Units=1/GPa)
#
#
# Indices 1 2 3 4 5 6 
#
# 1 0.011020 -0.001586 -0.001132 0.000000 -0.000661 0.000000
# 2 -0.001586 0.013402 -0.006437 0.000000 -0.011670 0.000000
# 3 -0.001132 -0.006437 0.016271 0.000000 0.006957 0.000000
# 4 0.000000 0.000000 0.000000 0.055240 0.000000 0.007530
# 5 -0.000661 -0.011670 0.006957 0.000000 0.061593 0.000000
# 6 0.000000 0.000000 0.000000 0.007530 0.000000 0.028145
#
#
# Mechanical properties :
#
#
# Convention : Reuss Voigt Hill
#
# Bulk Modulus (GPa) = 44.67606 47.38052 46.02829
# Shear Modulus (GPa) = 23.64718 29.14303 26.39511
#
# Velocity S-wave (km/s) = 3.51535 3.90253 3.71399
# Velocity P-wave (km/s) = 6.31063 6.71318 6.51501
#
# Compressibility (1/GPa) = 0.02238335
#
# Stress axis : x y z
#
# Youngs Moduli (GPa) = 90.74614 74.61379 61.45979
#
# Poissons Ratio (x) = 0.11835 0.06956
# Poissons Ratio (y) = 0.14394 0.39561
# Poissons Ratio (z) = 0.10270 0.48028
#
# Static dielectric constant tensor:
#      x y z
#    x 1.675350 0.000000 -0.006070 
#    y 0.000000 1.667670 0.000000 
#    z -0.006070 0.000000 1.659980 
# 
# From -- ./inp_files/290571.got.cif
#   From: 2010.05.17/outbox.cif.g08.bks.cpg/sg12_146_cif.got.tgz:290571.got - 2010.06.03 13:09:07.
