data_PCOD9221725
_publ_section_title
;
Structure prediction by ZEFSAII (Michael W. Deem and Ramdas Pophale) SiO2 
 PCOD9221725
Probable space group: C 2/M
;
_chemical_formula_sum "Si O2"
_cell_formula_units_Z 40
_cell_length_a 14.740625
_cell_length_b 18.488033
_cell_length_c 14.272508
_cell_angle_alpha 90.000000
_cell_angle_beta 151.291625
_cell_angle_gamma 90.000000
_cell_volume 1868.384424
_symmetry_space_group_name_H-M "C 2/M"
_symmetry_group_IT_number 12
_symmetry_cell_setting 'monoclinic'
loop_
_space_group_symop_operation_xyz
x,y,z
-x,y,-z
-x,-y,-z
x,-y,z
1/2+x,1/2+y,z
1/2-x,1/2+y,-z
1/2-x,1/2-y,-z
1/2+x,1/2-y,z
loop_
_atom_site_type_symbol
_atom_site_label
_atom_site_fract_x
_atom_site_fract_y
_atom_site_fract_z
Si Si1 0.554018 0.843936 0.655559
Si Si2 0.823992 0.792875 0.156753
Si Si3 0.363174 0.500000 0.728809
Si Si4 0.725306 0.367599 0.489229
Si Si5 0.279369 0.000000 0.191353
Si Si6 0.977442 0.581274 0.091428
O O1 0.500000 0.854006 0.500000
O O2 0.683987 0.772275 0.775032
O O3 0.381995 0.825707 0.569630
O O4 0.629974 0.923010 0.755739
O O5 0.033617 0.825895 0.338899
O O6 0.750000 0.750000 0.000000
O O7 0.684324 0.860028 0.040058
O O8 0.327182 0.432077 0.629669
O O9 0.236963 0.500000 0.709273
O O10 0.572948 0.500000 0.959383
O O11 0.835028 0.395190 0.681396
O O12 0.925888 0.500000 0.076854
O O13 0.000000 0.578806 0.000000
#
# Coordination Sequence:
#
# PCOD9221725 Si02
#       6
#     8   8   4   8   4   8
#     4  12  25  44  71 105 150 188 231 291 358 433
#     4  12  28  46  73 109 144 187 238 298 359 425
#     4  11  23  42  72 109 142 187 238 292 351 434
#     4  12  25  45  73 105 145 189 237 291 359 422
#     4  11  24  45  70 111 145 192 236 281 366 440
#     4  11  28  51  75 101 139 193 248 299 353 417
#
# _framework density 21.40887
#
# number of rings (size 3 to 8) (size 9 to 14) (size 15 to 20)
#    0.000    0.400    5.000    2.700    4.200    0.000 
#    3.600    2.000    0.000    0.000    0.000    0.000 
#    0.000    0.000    0.000    0.000    0.000    0.000 
#
# Total GULP energy -111731.365352 kJ/mol
# GULP energy per Si atom -5586.568268 kJ/mol
# Density = 2.136014 g / cm^3
# Si number density = 21.408870 Si / 1000 Ang^3
#
#
#
# Elastic Constant Matrix: (Units=GPa)
#
#
# Indices 1 2 3 4 5 6 
#
# 1 63.8942 46.7082 54.1187 0.0000 -8.4776 0.0000
# 2 46.7082 208.0573 93.9679 0.0000 17.8279 0.0000
# 3 54.1187 93.9679 152.2016 0.0000 -6.4470 0.0000
# 4 0.0000 0.0000 0.0000 29.8000 0.0000 24.4828
# 5 -8.4776 17.8279 -6.4470 0.0000 36.2290 0.0000
# 6 0.0000 0.0000 0.0000 24.4828 0.0000 -32.6399
#
#
#
# Elastic Compliance Matrix: (Units=1/GPa)
#
#
# Indices 1 2 3 4 5 6 
#
# 1 0.024118 -0.003005 -0.006467 0.000000 0.005972 0.000000
# 2 -0.003005 0.007684 -0.003895 0.000000 -0.005177 0.000000
# 3 -0.006467 -0.003895 0.011377 0.000000 0.002428 0.000000
# 4 0.000000 0.000000 0.000000 0.020762 0.000000 0.015574
# 5 0.005972 -0.005177 0.002428 0.000000 0.031979 0.000000
# 6 0.000000 0.000000 0.000000 0.015574 0.000000 -0.018956
#
#
# Mechanical properties :
#
#
# Convention : Reuss Voigt Hill
#
# Bulk Modulus (GPa) = 60.81041 90.41585 75.61313
# Shear Modulus (GPa) = 45.79600 21.96839 33.88219
#
# Velocity S-wave (km/s) = 4.63007 3.20681 3.98254
# Velocity P-wave (km/s) = 7.55311 7.48573 7.51949
#
# Compressibility (1/GPa) = 0.01644455
#
# Stress axis : x y z
#
# Youngs Moduli (GPa) = 41.46295 130.14775 87.89549
#
# Poissons Ratio (x) = 0.39111 0.56846
# Poissons Ratio (y) = 0.12460 0.34231
# Poissons Ratio (z) = 0.26816 0.50687
#
# Static dielectric constant tensor:
#      x y z
#    x 1.802280 0.000000 -0.009070 
#    y 0.000000 1.905620 0.000000 
#    z -0.009070 0.000000 1.834910 
# 
# From -- ./inp_files/216957.got.cif
#   From: 2010.05.17/outbox.cif.g08.bks.cpg/sg12_109_cif.got.tgz:216957.got - 2010.06.03 13:09:07.
