data_PCOD9221223
_publ_section_title
;
Structure prediction by ZEFSAII (Michael W. Deem and Ramdas Pophale) SiO2 
 PCOD9221223
Probable space group: C 2/M
;
_chemical_formula_sum "Si O2"
_cell_formula_units_Z 52
_cell_length_a 18.464836
_cell_length_b 12.952276
_cell_length_c 11.104597
_cell_angle_alpha 90.000000
_cell_angle_beta 60.927848
_cell_angle_gamma 90.000000
_cell_volume 2321.186319
_symmetry_space_group_name_H-M "C 2/M"
_symmetry_group_IT_number 12
_symmetry_cell_setting 'monoclinic'
loop_
_space_group_symop_operation_xyz
x,y,z
-x,y,-z
-x,-y,-z
x,-y,z
1/2+x,1/2+y,z
1/2-x,1/2+y,-z
1/2-x,1/2-y,-z
1/2+x,1/2-y,z
loop_
_atom_site_type_symbol
_atom_site_label
_atom_site_fract_x
_atom_site_fract_y
_atom_site_fract_z
Si Si1 0.143682 0.690396 0.830500
Si Si2 0.814268 0.119802 0.571118
Si Si3 0.919287 0.500000 0.483172
Si Si4 0.661011 0.000000 0.203903
Si Si5 0.428175 0.385563 0.717300
Si Si6 0.919966 0.500000 0.975974
Si Si7 0.201774 0.839290 0.972318
Si Si8 0.429435 0.777089 0.348418
O O1 0.224376 0.655789 0.689564
O O2 0.158047 0.795440 0.889548
O O3 0.070086 0.703644 0.794715
O O4 0.127863 0.601518 0.940677
O O5 0.874474 0.123153 0.639293
O O6 0.853998 0.200613 0.445815
O O7 0.809755 0.000000 0.533307
O O8 0.852845 0.500000 0.643001
O O9 0.918039 0.391135 0.413929
O O10 0.000000 0.500000 0.500000
O O11 0.584614 0.000000 0.167475
O O12 0.721379 0.907543 0.126390
O O13 0.469976 0.500000 0.681706
O O14 0.490017 0.288343 0.676481
O O15 0.365272 0.383238 0.880548
O O16 0.000000 0.500000 0.000000
O O17 0.250000 0.750000 0.000000
#
# Coordination Sequence:
#
# PCOD9221223 Si02
#       8
#     8   8   4   4   8   4   8   8
#     4  12  26  45  70 104 142 189 236 292 361 426
#     4  11  22  45  75  99 136 189 244 292 349 431
#     4  12  29  44  71 106 150 194 235 297 357 437
#     4  12  26  50  74 108 140 188 242 300 359 423
#     4  11  24  47  75 107 139 186 242 297 359 423
#     4  12  27  44  71 103 144 184 235 298 355 430
#     4  12  24  44  77 103 138 183 239 298 352 427
#     4  12  28  46  68 107 152 187 235 296 364 432
#
# _framework density 22.402338
#
# number of rings (size 3 to 8) (size 9 to 14) (size 15 to 20)
#    0.000    0.308    4.615    3.692    6.462    1.231 
#    2.769    0.769    0.000    0.000    0.000    0.000 
#    0.000    0.000    0.000    0.000    0.000    0.000 
#
# Total GULP energy -145388.980960 kJ/mol
# GULP energy per Si atom -5591.883883 kJ/mol
# Density = 2.235135 g / cm^3
# Si number density = 22.402338 Si / 1000 Ang^3
#
#
#
# Elastic Constant Matrix: (Units=GPa)
#
#
# Indices 1 2 3 4 5 6 
#
# 1 61.7144 28.8555 14.2679 0.0000 17.5392 0.0000
# 2 28.8555 151.9309 43.4554 0.0000 12.7937 0.0000
# 3 14.2679 43.4554 74.1775 0.0000 8.6582 0.0000
# 4 0.0000 0.0000 0.0000 40.8191 0.0000 2.1085
# 5 17.5392 12.7937 8.6582 0.0000 44.2449 0.0000
# 6 0.0000 0.0000 0.0000 2.1085 0.0000 29.8468
#
#
#
# Elastic Compliance Matrix: (Units=1/GPa)
#
#
# Indices 1 2 3 4 5 6 
#
# 1 0.019744 -0.002788 -0.001377 0.000000 -0.006751 0.000000
# 2 -0.002788 0.008388 -0.004322 0.000000 -0.000474 0.000000
# 3 -0.001377 -0.004322 0.016444 0.000000 -0.001422 0.000000
# 4 0.000000 0.000000 0.000000 0.024588 0.000000 -0.001737
# 5 -0.006751 -0.000474 -0.001422 0.000000 0.025693 0.000000
# 6 0.000000 0.000000 0.000000 -0.001737 0.000000 0.033627
#
#
# Mechanical properties :
#
#
# Convention : Reuss Voigt Hill
#
# Bulk Modulus (GPa) = 36.22805 51.22004 43.72405
# Shear Modulus (GPa) = 32.32942 36.39842 34.36392
#
# Velocity S-wave (km/s) = 3.80297 4.03520 3.92081
# Velocity P-wave (km/s) = 5.95736 6.68011 6.32906
#
# Compressibility (1/GPa) = 0.02760292
#
# Stress axis : x y z
#
# Youngs Moduli (GPa) = 50.64813 119.22440 60.81243
#
# Poissons Ratio (x) = 0.33236 0.08372
# Poissons Ratio (y) = 0.14119 0.26284
# Poissons Ratio (z) = 0.06972 0.51530
#
# Static dielectric constant tensor:
#      x y z
#    x 1.847330 0.000000 0.126880 
#    y 0.000000 1.849050 0.000000 
#    z 0.126880 0.000000 19.321860 
# 
# From -- ./inp_files/165580.got.cif
#   From: 2010.05.17/outbox.cif.g08.bks.cpg/sg12_83_cif.got.tgz:165580.got - 2010.06.03 13:09:07.
