data_PCOD9221858
_publ_section_title
;
Structure prediction by ZEFSAII (Michael W. Deem and Ramdas Pophale) SiO2 
 PCOD9221858
Probable space group: C 2/M
;
_chemical_formula_sum "Si O2"
_cell_formula_units_Z 42
_cell_length_a 14.527127
_cell_length_b 7.380697
_cell_length_c 21.606621
_cell_angle_alpha 90.000000
_cell_angle_beta 121.152325
_cell_angle_gamma 90.000000
_cell_volume 1982.593656
_symmetry_space_group_name_H-M "C 2/M"
_symmetry_group_IT_number 12
_symmetry_cell_setting 'monoclinic'
loop_
_space_group_symop_operation_xyz
x,y,z
-x,y,-z
-x,-y,-z
x,-y,z
1/2+x,1/2+y,z
1/2-x,1/2+y,-z
1/2-x,1/2-y,-z
1/2+x,1/2-y,z
loop_
_atom_site_type_symbol
_atom_site_label
_atom_site_fract_x
_atom_site_fract_y
_atom_site_fract_z
Si Si1 0.654789 0.214575 0.015716
Si Si2 0.705006 0.784519 0.297637
Si Si3 0.000000 0.000000 0.000000
Si Si4 0.242189 0.779540 0.819231
Si Si5 0.508438 0.284374 0.700068
Si Si6 0.061122 0.778601 0.582418
O O1 0.551434 0.340052 0.972165
O O2 0.699805 0.279506 0.098404
O O3 0.630763 0.000000 0.007724
O O4 0.750000 0.250000 0.000000
O O5 0.703548 0.718947 0.226168
O O6 0.598326 0.751047 0.298938
O O7 0.814336 0.720062 0.368894
O O8 0.717676 0.000000 0.297151
O O9 0.117892 0.719467 0.770910
O O10 0.243951 0.000000 0.822384
O O11 0.520619 0.500000 0.700285
O O12 0.507022 0.220324 0.628402
O O13 0.000000 0.715849 0.500000
O O14 0.059458 0.000000 0.580017
#
# Coordination Sequence:
#
# PCOD9221858 Si02
#       6
#     8   8   2   8   8   8
#     4  11  23  45  68  94 133 169 214 269 323 390
#     4   9  17  32  51  76 107 139 186 232 279 345
#     4  12  26  44  68 100 128 172 216 256 328 392
#     4   8  18  37  57  77 112 150 186 239 292 354
#     4   9  17  32  52  76 104 140 183 230 285 340
#     4   8  15  29  49  70 101 145 182 220 276 340
#
# _framework density 21.184372
#
# number of rings (size 3 to 8) (size 9 to 14) (size 15 to 20)
#    0.000    2.857    0.952    2.571    0.000    2.286 
#    6.857    4.762    0.000    1.143    0.000    0.000 
#    0.000    0.000    0.000    0.000    0.000    0.000 
#
# Total GULP energy -116923.244607 kJ/mol
# GULP energy per Si atom -5567.773553 kJ/mol
# Density = 2.113616 g / cm^3
# Si number density = 21.184372 Si / 1000 Ang^3
#
#
#
# Elastic Constant Matrix: (Units=GPa)
#
#
# Indices 1 2 3 4 5 6 
#
# 1 162.2487 3.7940 40.4738 0.0000 -15.0335 0.0000
# 2 3.7940 111.8342 -4.3500 0.0000 -1.0776 0.0000
# 3 40.4738 -4.3500 120.4846 0.0000 -5.5377 0.0000
# 4 0.0000 0.0000 0.0000 -5.4914 0.0000 -9.3270
# 5 -15.0335 -1.0776 -5.5377 0.0000 10.8551 0.0000
# 6 0.0000 0.0000 0.0000 -9.3270 0.0000 31.1696
#
#
#
# Elastic Compliance Matrix: (Units=1/GPa)
#
#
# Indices 1 2 3 4 5 6 
#
# 1 0.007566 -0.000249 -0.002120 0.000000 0.009373 0.000000
# 2 -0.000249 0.008975 0.000443 0.000000 0.000772 0.000000
# 3 -0.002120 0.000443 0.009109 0.000000 0.001755 0.000000
# 4 0.000000 0.000000 0.000000 -0.120738 0.000000 -0.036129
# 5 0.009373 0.000772 0.001755 0.000000 0.106075 0.000000
# 6 0.000000 0.000000 0.000000 -0.036129 0.000000 0.021272
#
#
# Mechanical properties :
#
#
# Convention : Reuss Voigt Hill
#
# Bulk Modulus (GPa) = 45.87435 52.71145 49.29290
# Shear Modulus (GPa) = 115.27042 30.94996 73.11019
#
# Velocity S-wave (km/s) = 7.38452 3.82642 5.88101
# Velocity P-wave (km/s) = 9.71648 6.66770 8.33271
#
# Compressibility (1/GPa) = 0.02179867
#
# Stress axis : x y z
#
# Youngs Moduli (GPa) = 132.16166 111.42149 109.78619
#
# Poissons Ratio (x) = 0.02773 0.23274
# Poissons Ratio (y) = 0.03289 -0.04865
# Poissons Ratio (z) = 0.28018 -0.04937
#
# Static dielectric constant tensor:
#      x y z
#    x 1.792780 0.000000 0.024710 
#    y 0.000000 1.789030 0.000000 
#    z 0.024710 0.000000 1.799380 
# 
# From -- ./inp_files/267008.got.cif
#   From: 2010.05.17/outbox.cif.g08.bks.cpg/sg12_134_cif.got.tgz:267008.got - 2010.06.03 13:09:07.
