data_PCOD9221991
_publ_section_title
;
Structure prediction by ZEFSAII (Michael W. Deem and Ramdas Pophale) SiO2 
 PCOD9221991
Probable space group: C 2/M
;
_chemical_formula_sum "Si O2"
_cell_formula_units_Z 42
_cell_length_a 9.523417
_cell_length_b 10.556470
_cell_length_c 23.119215
_cell_angle_alpha 90.000000
_cell_angle_beta 114.705412
_cell_angle_gamma 90.000000
_cell_volume 2111.516955
_symmetry_space_group_name_H-M "C 2/M"
_symmetry_group_IT_number 12
_symmetry_cell_setting 'monoclinic'
loop_
_space_group_symop_operation_xyz
x,y,z
-x,y,-z
-x,-y,-z
x,-y,z
1/2+x,1/2+y,z
1/2-x,1/2+y,-z
1/2-x,1/2-y,-z
1/2+x,1/2-y,z
loop_
_atom_site_type_symbol
_atom_site_label
_atom_site_fract_x
_atom_site_fract_y
_atom_site_fract_z
Si Si1 0.094399 0.269249 0.936453
Si Si2 0.756605 0.000000 0.425954
Si Si3 0.725705 0.346858 0.272798
Si Si4 0.000000 0.500000 0.000000
Si Si5 0.282489 0.352679 0.862734
Si Si6 0.404540 0.500000 0.572636
Si Si7 0.434130 0.757052 0.649227
O O1 0.160381 0.283604 0.883045
O O2 0.017369 0.390861 0.952496
O O3 0.958812 0.166065 0.914896
O O4 0.250000 0.250000 0.000000
O O5 0.782120 0.000000 0.499338
O O6 0.668015 0.125619 0.390124
O O7 0.925197 0.000000 0.426097
O O8 0.712098 0.500000 0.274706
O O9 0.719563 0.311270 0.204291
O O10 0.598889 0.276828 0.289642
O O11 0.889175 0.300238 0.326330
O O12 0.242413 0.500000 0.858152
O O13 0.393698 0.628431 0.607910
#
# Coordination Sequence:
#
# PCOD9221991 Si02
#       7
#     8   4   8   2   8   4   8
#     4  12  24  42  65  92 125 164 205 258 321 372
#     4  11  24  41  66  97 133 172 214 267 327 385
#     4  11  24  42  65  93 130 168 218 264 318 382
#     4  12  24  40  62  90 126 154 204 252 318 378
#     4  11  25  42  64  94 126 168 212 260 311 383
#     4  11  24  41  65 100 132 167 219 269 323 384
#     4  12  22  44  66  94 130 175 214 269 324 381
#
# _framework density 19.890913999999999
#
# number of rings (size 3 to 8) (size 9 to 14) (size 15 to 20)
#    0.000    0.571    6.667    1.714    1.333    0.762 
#    0.000    1.905    0.000    0.000    0.000    0.000 
#    0.000    0.000    0.000    0.000    0.000    0.000 
#
# Total GULP energy -117020.124997 kJ/mol
# GULP energy per Si atom -5572.386905 kJ/mol
# Density = 1.984564 g / cm^3
# Si number density = 19.890914 Si / 1000 Ang^3
#
#
#
# Elastic Constant Matrix: (Units=GPa)
#
#
# Indices 1 2 3 4 5 6 
#
# 1 55.5734 -3.1565 -1.8543 0.0000 -7.1223 0.0000
# 2 -3.1565 73.8165 19.4509 0.0000 1.2709 0.0000
# 3 -1.8543 19.4509 78.6374 0.0000 -11.7405 0.0000
# 4 0.0000 0.0000 0.0000 23.8492 0.0000 -11.3277
# 5 -7.1223 1.2709 -11.7405 0.0000 32.0646 0.0000
# 6 0.0000 0.0000 0.0000 -11.3277 0.0000 15.0341
#
#
#
# Elastic Compliance Matrix: (Units=1/GPa)
#
#
# Indices 1 2 3 4 5 6 
#
# 1 0.018628 0.000457 0.000996 0.000000 0.004484 0.000000
# 2 0.000457 0.014625 -0.003891 0.000000 -0.001903 0.000000
# 3 0.000996 -0.003891 0.014554 0.000000 0.005704 0.000000
# 4 0.000000 0.000000 0.000000 0.065299 0.000000 0.049200
# 5 0.004484 -0.001903 0.005704 0.000000 0.034347 0.000000
# 6 0.000000 0.000000 0.000000 0.049200 0.000000 0.103586
#
#
# Mechanical properties :
#
#
# Convention : Reuss Voigt Hill
#
# Bulk Modulus (GPa) = 23.29330 26.32306 24.80818
# Shear Modulus (GPa) = 18.50312 27.09541 22.79927
#
# Velocity S-wave (km/s) = 3.05328 3.69480 3.38925
# Velocity P-wave (km/s) = 4.91589 5.60933 5.27402
#
# Compressibility (1/GPa) = 0.04293080
#
# Stress axis : x y z
#
# Youngs Moduli (GPa) = 53.68240 68.37786 68.70919
#
# Poissons Ratio (x) = -0.03125 -0.06841
# Poissons Ratio (y) = -0.02453 0.26733
# Poissons Ratio (z) = -0.05345 0.26604
#
# Static dielectric constant tensor:
#      x y z
#    x 1.666360 0.000000 -0.020940 
#    y 0.000000 1.661900 0.000000 
#    z -0.020940 0.000000 1.721680 
# 
# From -- ./inp_files/299251.got.cif
#   From: 2010.05.17/outbox.cif.g08.bks.cpg/sg12_150_cif.got.tgz:299251.got - 2010.06.03 13:09:07.
