data_PCOD9221095
_publ_section_title
;
Structure prediction by ZEFSAII (Michael W. Deem and Ramdas Pophale) SiO2 
 PCOD9221095
Probable space group: C 2/M
;
_chemical_formula_sum "Si O2"
_cell_formula_units_Z 24
_cell_length_a 14.109183
_cell_length_b 18.082025
_cell_length_c 5.560126
_cell_angle_alpha 90.000000
_cell_angle_beta 43.184882
_cell_angle_gamma 90.000000
_cell_volume 970.766639
_symmetry_space_group_name_H-M "C 2/M"
_symmetry_group_IT_number 12
_symmetry_cell_setting 'monoclinic'
loop_
_space_group_symop_operation_xyz
x,y,z
-x,y,-z
-x,-y,-z
x,-y,z
1/2+x,1/2+y,z
1/2-x,1/2+y,-z
1/2-x,1/2-y,-z
1/2+x,1/2-y,z
loop_
_atom_site_type_symbol
_atom_site_label
_atom_site_fract_x
_atom_site_fract_y
_atom_site_fract_z
Si Si1 0.073708 0.117867 0.616917
Si Si2 0.866368 0.718852 0.610992
Si Si3 0.662935 0.080721 0.642377
O O1 0.080181 0.207417 0.619141
O O2 0.230916 0.087854 0.332384
O O3 0.000000 0.099586 0.500000
O O4 0.000000 0.091153 0.000000
O O5 0.803946 0.652958 0.573094
O O6 0.000000 0.687630 0.500000
O O7 0.750000 0.750000 0.000000
O O8 0.685831 0.000000 0.486607
O O9 0.500000 0.085929 0.000000
#
# Coordination Sequence:
#
# PCOD9221095 Si02
#       3
#     8   8   8
#     4  11  24  45  72 101 136 186 244 295 345 414
#     4  11  22  41  70 102 138 184 241 295 348 419
#     4  11  24  42  67 103 146 186 229 291 364 430
#
# _framework density 24.722729000000001
#
# number of rings (size 3 to 8) (size 9 to 14) (size 15 to 20)
#    0.000    1.000    0.000    8.000    0.000    2.000 
#    0.000    8.333    0.000    1.000    0.000    0.000 
#    0.000    0.000    0.000    0.000    0.000    0.000 
#
# Total GULP energy -67164.909752 kJ/mol
# GULP energy per Si atom -5597.075813 kJ/mol
# Density = 2.466646 g / cm^3
# Si number density = 24.722729 Si / 1000 Ang^3
#
#
#
# Elastic Constant Matrix: (Units=GPa)
#
#
# Indices 1 2 3 4 5 6 
#
# 1 223.0257 58.1014 78.3059 0.0000 -23.6457 0.0000
# 2 58.1014 111.0966 11.0136 0.0000 10.9398 0.0000
# 3 78.3059 11.0136 122.1856 0.0000 1.0188 0.0000
# 4 0.0000 0.0000 0.0000 12.6315 0.0000 -8.9852
# 5 -23.6457 10.9398 1.0188 0.0000 36.3850 0.0000
# 6 0.0000 0.0000 0.0000 -8.9852 0.0000 -6.4036
#
#
#
# Elastic Compliance Matrix: (Units=1/GPa)
#
#
# Indices 1 2 3 4 5 6 
#
# 1 0.008012 -0.004370 -0.004796 0.000000 0.006655 0.000000
# 2 -0.004370 0.011741 0.001796 0.000000 -0.006420 0.000000
# 3 -0.004796 0.001796 0.011129 0.000000 -0.003968 0.000000
# 4 0.000000 0.000000 0.000000 0.039621 0.000000 -0.055594
# 5 0.006655 -0.006420 -0.003968 0.000000 0.033850 0.000000
# 6 0.000000 0.000000 0.000000 -0.055594 0.000000 -0.078155
#
#
# Mechanical properties :
#
#
# Convention : Reuss Voigt Hill
#
# Bulk Modulus (GPa) = 61.95301 83.46106 72.70703
# Shear Modulus (GPa) = 107.94908 29.11505 68.53207
#
# Velocity S-wave (km/s) = 6.61504 3.43543 5.27072
# Velocity P-wave (km/s) = 9.13556 7.04048 8.15558
#
# Compressibility (1/GPa) = 0.01614127
#
# Stress axis : x y z
#
# Youngs Moduli (GPa) = 124.81781 85.17397 89.85374
#
# Poissons Ratio (x) = 0.37219 0.43095
# Poissons Ratio (y) = 0.54543 -0.16135
# Poissons Ratio (z) = 0.59864 -0.15295
#
# Static dielectric constant tensor:
#      x y z
#    x 1.926100 0.000000 0.204610 
#    y 0.000000 1.942940 0.000000 
#    z 0.204610 0.000000 1.371860 
# 
# From -- ./inp_files/5169.got.cif
#   From: 2010.05.17/outbox.cif.g08.bks.cpg/sg12_3_cif.got.tgz:5169.got - 2010.06.03 13:09:07.
