data_PCOD9221557
_publ_section_title
;
Structure prediction by ZEFSAII (Michael W. Deem and Ramdas Pophale) SiO2 
 PCOD9221557
Probable space group: C 2/M
;
_chemical_formula_sum "Si O2"
_cell_formula_units_Z 32
_cell_length_a 13.484095
_cell_length_b 24.971440
_cell_length_c 4.980419
_cell_angle_alpha 90.000000
_cell_angle_beta 68.993055
_cell_angle_gamma 90.000000
_cell_volume 1565.535062
_symmetry_space_group_name_H-M "C 2/M"
_symmetry_group_IT_number 12
_symmetry_cell_setting 'monoclinic'
loop_
_space_group_symop_operation_xyz
x,y,z
-x,y,-z
-x,-y,-z
x,-y,z
1/2+x,1/2+y,z
1/2-x,1/2+y,-z
1/2-x,1/2-y,-z
1/2+x,1/2-y,z
loop_
_atom_site_type_symbol
_atom_site_label
_atom_site_fract_x
_atom_site_fract_y
_atom_site_fract_z
Si Si1 0.763465 0.561184 0.651057
Si Si2 0.376338 0.106748 0.053695
Si Si3 0.763916 0.211181 0.733609
Si Si4 0.067009 0.866198 0.673550
O O1 0.741806 0.500000 0.746646
O O2 0.822090 0.565295 0.309920
O O3 0.656457 0.595462 0.715503
O O4 0.840856 0.588969 0.792154
O O5 0.323264 0.164396 0.160810
O O6 0.500000 0.108427 0.000000
O O7 0.750000 0.250000 0.500000
O O8 0.873320 0.180031 0.556925
O O9 0.750000 0.250000 0.000000
O O10 0.000000 0.894481 0.500000
O O11 0.000000 0.847544 0.000000
#
# Coordination Sequence:
#
# PCOD9221557 Si02
#       4
#     8   8   8   8
#     4  11  24  42  64  92 126 163 207 258 311 372
#     4  11  24  42  63  92 126 161 208 260 310 371
#     4  11  23  41  64  92 126 165 210 258 311 372
#     4  11  23  41  64  93 128 164 208 259 311 372
#
# _framework density 20.440296
#
# number of rings (size 3 to 8) (size 9 to 14) (size 15 to 20)
#    0.000    1.000    0.000    9.000    0.000    7.000 
#    0.000    0.000    0.000    0.000    0.000    0.000 
#    0.000    0.000    0.000    0.000    0.000    0.000 
#
# Total GULP energy -89333.975760 kJ/mol
# GULP energy per Si atom -5583.373485 kJ/mol
# Density = 2.039377 g / cm^3
# Si number density = 20.440296 Si / 1000 Ang^3
#
#
#
# Elastic Constant Matrix: (Units=GPa)
#
#
# Indices 1 2 3 4 5 6 
#
# 1 130.1539 40.5091 40.5062 0.0000 5.2827 0.0000
# 2 40.5091 119.8578 34.1391 0.0000 0.0718 0.0000
# 3 40.5062 34.1391 117.7277 0.0000 4.9707 0.0000
# 4 0.0000 0.0000 0.0000 24.9613 0.0000 14.0818
# 5 5.2827 0.0718 4.9707 0.0000 47.9096 0.0000
# 6 0.0000 0.0000 0.0000 14.0818 0.0000 7.0003
#
#
#
# Elastic Compliance Matrix: (Units=1/GPa)
#
#
# Indices 1 2 3 4 5 6 
#
# 1 0.009228 -0.002423 -0.002440 0.000000 -0.000761 0.000000
# 2 -0.002423 0.009734 -0.002008 0.000000 0.000461 0.000000
# 3 -0.002440 -0.002008 0.009948 0.000000 -0.000760 0.000000
# 4 0.000000 0.000000 0.000000 -0.297100 0.000000 0.597651
# 5 -0.000761 0.000461 -0.000760 0.000000 0.021035 0.000000
# 6 0.000000 0.000000 0.000000 0.597651 0.000000 -1.059391
#
#
# Mechanical properties :
#
#
# Convention : Reuss Voigt Hill
#
# Bulk Modulus (GPa) = 65.93533 66.44978 66.19256
# Shear Modulus (GPa) = -3.88275 32.81323 14.46524
#
# Velocity S-wave (km/s) = -1.37974 4.01099 2.66312
# Velocity P-wave (km/s) = 5.45796 7.35055 6.47379
#
# Compressibility (1/GPa) = 0.01516637
#
# Stress axis : x y z
#
# Youngs Moduli (GPa) = 108.36921 102.73259 100.52031
#
# Poissons Ratio (x) = 0.24895 0.24528
# Poissons Ratio (y) = 0.26261 0.20188
# Poissons Ratio (z) = 0.26443 0.20633
#
# Static dielectric constant tensor:
#      x y z
#    x 1.765150 0.000000 -0.017710 
#    y 0.000000 1.018940 0.000000 
#    z -0.017710 0.000000 1.701930 
# 
# From -- ./inp_files/6531.got.cif
#   From: 2010.05.17/outbox.cif.g08.bks.cpg/sg12_4_cif.got.tgz:6531.got - 2010.06.03 13:09:07.
