data_PCOD9221600
_publ_section_title
;
Structure prediction by ZEFSAII (Michael W. Deem and Ramdas Pophale) SiO2 
 PCOD9221600
Probable space group: C 2/M
;
_chemical_formula_sum "Si O2"
_cell_formula_units_Z 56
_cell_length_a 12.662507
_cell_length_b 14.153805
_cell_length_c 17.133637
_cell_angle_alpha 90.000000
_cell_angle_beta 126.645750
_cell_angle_gamma 90.000000
_cell_volume 2463.777754
_symmetry_space_group_name_H-M "C 2/M"
_symmetry_group_IT_number 12
_symmetry_cell_setting 'monoclinic'
loop_
_space_group_symop_operation_xyz
x,y,z
-x,y,-z
-x,-y,-z
x,-y,z
1/2+x,1/2+y,z
1/2-x,1/2+y,-z
1/2-x,1/2-y,-z
1/2+x,1/2-y,z
loop_
_atom_site_type_symbol
_atom_site_label
_atom_site_fract_x
_atom_site_fract_y
_atom_site_fract_z
Si Si1 0.821168 0.608119 0.290603
Si Si2 0.453814 0.177516 0.059349
Si Si3 0.237563 0.300018 0.898356
Si Si4 0.889338 0.895751 0.213922
Si Si5 0.180126 0.153518 0.378518
Si Si6 0.181325 0.395861 0.249673
Si Si7 0.129562 0.362614 0.404625
O O1 0.779346 0.500000 0.285320
O O2 0.765848 0.646926 0.184747
O O3 0.769858 0.667619 0.341518
O O4 0.979308 0.609745 0.353509
O O5 0.620040 0.270353 0.006864
O O6 0.344570 0.142422 0.072894
O O7 0.584089 0.181268 0.169308
O O8 0.500000 0.126214 0.000000
O O9 0.163214 0.198087 0.852865
O O10 0.820925 0.887882 0.269010
O O11 0.045506 0.893643 0.291662
O O12 0.850045 0.000000 0.164743
O O13 0.132893 0.249566 0.398639
O O14 0.273489 0.106011 0.484038
O O15 0.127153 0.500000 0.203207
O O16 0.178752 0.393170 0.341150
#
# Coordination Sequence:
#
# PCOD9221600 Si02
#       7
#     8   8   8   8   8   8   8
#     4  12  25  45  74 104 144 189 237 294 355 425
#     4  11  23  41  67  94 126 175 224 289 350 412
#     4  11  24  42  67 100 132 175 227 288 356 420
#     4  11  23  41  66  99 139 184 228 283 352 419
#     4  11  25  43  67 104 143 188 230 288 349 425
#     4  11  23  41  67  99 135 176 232 293 345 414
#     4  11  24  43  72  98 139 188 240 288 346 413
#
# _framework density 22.729322
#
# number of rings (size 3 to 8) (size 9 to 14) (size 15 to 20)
#    0.000    0.857    4.286    2.143    2.000    4.286 
#    0.000    3.571    0.000    0.857    0.000    0.000 
#    0.000    0.000    0.000    0.000    0.000    0.000 
#
# Total GULP energy -156335.510003 kJ/mol
# GULP energy per Si atom -5583.411072 kJ/mol
# Density = 2.267759 g / cm^3
# Si number density = 22.729322 Si / 1000 Ang^3
#
#
#
# Elastic Constant Matrix: (Units=GPa)
#
#
# Indices 1 2 3 4 5 6 
#
# 1 144.1464 -2.8453 48.7784 0.0000 -14.4946 0.0000
# 2 -2.8453 67.7008 2.0795 0.0000 11.1115 0.0000
# 3 48.7784 2.0795 109.7495 0.0000 -25.0116 0.0000
# 4 0.0000 0.0000 0.0000 -5.8094 0.0000 0.9834
# 5 -14.4946 11.1115 -25.0116 0.0000 30.4515 0.0000
# 6 0.0000 0.0000 0.0000 0.9834 0.0000 23.9419
#
#
#
# Elastic Compliance Matrix: (Units=1/GPa)
#
#
# Indices 1 2 3 4 5 6 
#
# 1 0.008202 0.000288 -0.003426 0.000000 0.000984 0.000000
# 2 0.000288 0.016077 -0.002139 0.000000 -0.007486 0.000000
# 3 -0.003426 -0.002139 0.012895 0.000000 0.009741 0.000000
# 4 0.000000 0.000000 0.000000 -0.170946 0.000000 0.007021
# 5 0.000984 -0.007486 0.009741 0.000000 0.044040 0.000000
# 6 0.000000 0.000000 0.000000 0.007021 0.000000 0.041479
#
#
# Mechanical properties :
#
#
# Convention : Reuss Voigt Hill
#
# Bulk Modulus (GPa) = 37.56536 46.40243 41.98390
# Shear Modulus (GPa) = -173.45416 27.95574 -72.74921
#
# Velocity S-wave (km/s) = -8.74521 3.51086 -5.66359
# Velocity P-wave (km/s) = 9.24166 6.07407 4.92514
#
# Compressibility (1/GPa) = 0.02662027
#
# Stress axis : x y z
#
# Youngs Moduli (GPa) = 121.92874 62.19942 77.54986
#
# Poissons Ratio (x) = -0.01794 0.26571
# Poissons Ratio (y) = -0.03516 0.16586
# Poissons Ratio (z) = 0.41776 0.13303
#
# Static dielectric constant tensor:
#      x y z
#    x 1.832890 0.000000 -0.007280 
#    y 0.000000 1.945810 0.000000 
#    z -0.007280 0.000000 1.829340 
# 
# From -- ./inp_files/263431.got.cif
#   From: 2010.05.17/outbox.cif.g08.bks.cpg/sg12_132_cif.got.tgz:263431.got - 2010.06.03 13:09:07.
