data_PCOD9221414
_publ_section_title
;
Structure prediction by ZEFSAII (Michael W. Deem and Ramdas Pophale) SiO2 
 PCOD9221414
Probable space group: C 2/M
;
_chemical_formula_sum "Si O2"
_cell_formula_units_Z 36
_cell_length_a 23.144950
_cell_length_b 15.368568
_cell_length_c 7.430794
_cell_angle_alpha 90.000000
_cell_angle_beta 40.475303
_cell_angle_gamma 90.000000
_cell_volume 1715.734203
_symmetry_space_group_name_H-M "C 2/M"
_symmetry_group_IT_number 12
_symmetry_cell_setting 'monoclinic'
loop_
_space_group_symop_operation_xyz
x,y,z
-x,y,-z
-x,-y,-z
x,-y,z
1/2+x,1/2+y,z
1/2-x,1/2+y,-z
1/2-x,1/2-y,-z
1/2+x,1/2-y,z
loop_
_atom_site_type_symbol
_atom_site_label
_atom_site_fract_x
_atom_site_fract_y
_atom_site_fract_z
Si Si1 0.845812 0.715076 0.447730
Si Si2 0.346323 0.768695 0.037719
Si Si3 0.417469 0.593259 0.334399
Si Si4 0.000000 0.848731 0.500000
Si Si5 0.096343 0.399373 0.369193
O O1 0.741133 0.708856 0.739985
O O2 0.864068 0.696314 0.196053
O O3 0.865477 0.817462 0.427648
O O4 0.901104 0.655626 0.452750
O O5 0.426861 0.711666 0.770283
O O6 0.336988 0.848552 0.922152
O O7 0.370897 0.500000 0.415432
O O8 0.454060 0.597968 0.450381
O O9 0.500000 0.596306 0.000000
O O10 0.119504 0.500000 0.344115
O O11 0.000000 0.396489 0.500000
#
# Coordination Sequence:
#
# PCOD9221414 Si02
#       5
#     8   8   8   4   8
#     4  11  24  43  66  95 130 175 210 270 325 386
#     4  11  23  42  68  92 131 170 216 262 332 379
#     4  11  23  39  63  95 127 165 211 258 321 386
#     4  12  21  40  67  90 122 170 205 266 317 386
#     4  11  24  42  67  96 128 172 224 267 319 383
#
# _framework density 20.98227
#
# number of rings (size 3 to 8) (size 9 to 14) (size 15 to 20)
#    0.000    0.889    5.556    1.000    0.000    1.778 
#    0.000    6.667    0.000    0.000    0.000    0.000 
#    0.000    0.000    0.000    0.000    0.000    0.000 
#
# Total GULP energy -100604.959288 kJ/mol
# GULP energy per Si atom -5589.164405 kJ/mol
# Density = 2.093451 g / cm^3
# Si number density = 20.982270 Si / 1000 Ang^3
#
#
#
# Elastic Constant Matrix: (Units=GPa)
#
#
# Indices 1 2 3 4 5 6 
#
# 1 91.8903 18.2824 26.4289 0.0000 29.9178 0.0000
# 2 18.2824 121.2283 23.5330 0.0000 9.8432 0.0000
# 3 26.4289 23.5330 112.3450 0.0000 12.3168 0.0000
# 4 0.0000 0.0000 0.0000 11.0505 0.0000 -3.0915
# 5 29.9178 9.8432 12.3168 0.0000 34.5704 0.0000
# 6 0.0000 0.0000 0.0000 -3.0915 0.0000 18.3265
#
#
#
# Elastic Compliance Matrix: (Units=1/GPa)
#
#
# Indices 1 2 3 4 5 6 
#
# 1 0.015801 -0.000942 -0.002133 0.000000 -0.012646 0.000000
# 2 -0.000942 0.008774 -0.001490 0.000000 -0.001152 0.000000
# 3 -0.002133 -0.001490 0.009851 0.000000 -0.001239 0.000000
# 4 0.000000 0.000000 0.000000 0.094976 0.000000 0.016022
# 5 -0.012646 -0.001152 -0.001239 0.000000 0.040640 0.000000
# 6 0.000000 0.000000 0.000000 0.016022 0.000000 0.057269
#
#
# Mechanical properties :
#
#
# Convention : Reuss Voigt Hill
#
# Bulk Modulus (GPa) = 39.53349 51.32806 45.43077
# Shear Modulus (GPa) = 20.41878 29.93742 25.17810
#
# Velocity S-wave (km/s) = 3.12291 3.78139 3.46782
# Velocity P-wave (km/s) = 5.64674 6.60159 6.14275
#
# Compressibility (1/GPa) = 0.02529501
#
# Stress axis : x y z
#
# Youngs Moduli (GPa) = 63.28763 113.97661 101.51270
#
# Poissons Ratio (x) = 0.10736 0.21656
# Poissons Ratio (y) = 0.05962 0.15125
# Poissons Ratio (z) = 0.13502 0.16982
#
# Static dielectric constant tensor:
#      x y z
#    x 1.774730 0.000000 -0.031340 
#    y 0.000000 1.779780 0.000000 
#    z -0.031340 0.000000 1.765300 
# 
# From -- ./inp_files/111453.got.cif
#   From: 2010.05.17/outbox.cif.g08.bks.cpg/sg12_56_cif.got.tgz:111453.got - 2010.06.03 13:09:07.
