data_PCOD9221596
_publ_section_title
;
Structure prediction by ZEFSAII (Michael W. Deem and Ramdas Pophale) SiO2 
 PCOD9221596
Probable space group: C 2/M
;
_chemical_formula_sum "Si O2"
_cell_formula_units_Z 40
_cell_length_a 15.243073
_cell_length_b 10.152518
_cell_length_c 12.427272
_cell_angle_alpha 90.000000
_cell_angle_beta 83.462977
_cell_angle_gamma 90.000000
_cell_volume 1910.685981
_symmetry_space_group_name_H-M "C 2/M"
_symmetry_group_IT_number 12
_symmetry_cell_setting 'monoclinic'
loop_
_space_group_symop_operation_xyz
x,y,z
-x,y,-z
-x,-y,-z
x,-y,z
1/2+x,1/2+y,z
1/2-x,1/2+y,-z
1/2-x,1/2-y,-z
1/2+x,1/2-y,z
loop_
_atom_site_type_symbol
_atom_site_label
_atom_site_fract_x
_atom_site_fract_y
_atom_site_fract_z
Si Si1 0.756286 0.151014 0.100687
Si Si2 0.196604 0.757272 0.337249
Si Si3 0.536194 0.348402 0.887330
Si Si4 0.003744 0.847918 0.341794
Si Si5 0.363490 0.855686 0.439060
O O1 0.707775 0.199742 0.215925
O O2 0.859123 0.148052 0.119253
O O3 0.730335 0.000000 0.076562
O O4 0.750000 0.250000 0.000000
O O5 0.107246 0.842277 0.352035
O O6 0.285527 0.830484 0.363338
O O7 0.179819 0.653919 0.436350
O O8 0.501569 0.500000 0.891038
O O9 0.506525 0.293558 0.778258
O O10 0.500000 0.282391 0.000000
O O11 0.937605 0.755872 0.416915
O O12 0.973303 0.000000 0.352560
O O13 0.402595 0.000000 0.417546
#
# Coordination Sequence:
#
# PCOD9221596 Si02
#       5
#     8   8   8   8   8
#     4  11  23  41  66  96 132 173 219 271 331 393
#     4  11  24  42  68  97 133 177 223 270 327 394
#     4   9  18  36  61  89 123 165 214 265 316 379
#     4  11  23  42  68  96 130 175 225 270 323 396
#     4  11  25  43  66  98 137 175 219 276 332 387
#
# _framework density 20.934888999999998
#
# number of rings (size 3 to 8) (size 9 to 14) (size 15 to 20)
#    0.000    1.400    2.000    3.000    0.000   10.400 
#    0.000    0.000    0.000    2.400    0.000    0.000 
#    0.000    0.000    0.000    0.000    0.000    0.000 
#
# Total GULP energy -111608.919459 kJ/mol
# GULP energy per Si atom -5580.445973 kJ/mol
# Density = 2.088724 g / cm^3
# Si number density = 20.934889 Si / 1000 Ang^3
#
#
#
# Elastic Constant Matrix: (Units=GPa)
#
#
# Indices 1 2 3 4 5 6 
#
# 1 96.3450 33.9407 26.9966 0.0000 1.1492 0.0000
# 2 33.9407 127.1730 57.6308 0.0000 -7.5179 0.0000
# 3 26.9966 57.6308 165.2706 0.0000 -2.9628 0.0000
# 4 0.0000 0.0000 0.0000 7.6626 0.0000 -7.0377
# 5 1.1492 -7.5179 -2.9628 0.0000 39.8313 0.0000
# 6 0.0000 0.0000 0.0000 -7.0377 0.0000 21.4026
#
#
#
# Elastic Compliance Matrix: (Units=1/GPa)
#
#
# Indices 1 2 3 4 5 6 
#
# 1 0.011618 -0.002717 -0.000967 0.000000 -0.000920 0.000000
# 2 -0.002717 0.010068 -0.003035 0.000000 0.001753 0.000000
# 3 -0.000967 -0.003035 0.007267 0.000000 -0.000004 0.000000
# 4 0.000000 0.000000 0.000000 0.186969 0.000000 0.061480
# 5 -0.000920 0.001753 -0.000004 0.000000 0.025463 0.000000
# 6 0.000000 0.000000 0.000000 0.061480 0.000000 0.066939
#
#
# Mechanical properties :
#
#
# Convention : Reuss Voigt Hill
#
# Bulk Modulus (GPa) = 64.45612 69.54719 67.00166
# Shear Modulus (GPa) = 15.29359 31.79400 23.54380
#
# Velocity S-wave (km/s) = 2.70577 3.90129 3.35717
# Velocity P-wave (km/s) = 6.37317 7.32026 6.86307
#
# Compressibility (1/GPa) = 0.01551443
#
# Stress axis : x y z
#
# Youngs Moduli (GPa) = 86.07011 99.32860 137.60841
#
# Poissons Ratio (x) = 0.26988 0.13305
# Poissons Ratio (y) = 0.23385 0.41769
# Poissons Ratio (z) = 0.08322 0.30150
#
# Static dielectric constant tensor:
#      x y z
#    x 1.732140 0.000000 0.000430 
#    y 0.000000 1.761250 0.000000 
#    z 0.000430 0.000000 1.827520 
# 
# From -- ./inp_files/140256.got.cif
#   From: 2010.05.17/outbox.cif.g08.bks.cpg/sg12_71_cif.got.tgz:140256.got - 2010.06.03 13:09:07.
