data_PCOD9221687
_publ_section_title
;
Structure prediction by ZEFSAII (Michael W. Deem and Ramdas Pophale) SiO2 
 PCOD9221687
Probable space group: C 2/M
;
_chemical_formula_sum "Si O2"
_cell_formula_units_Z 42
_cell_length_a 28.827756
_cell_length_b 7.751071
_cell_length_c 8.597588
_cell_angle_alpha 90.000000
_cell_angle_beta 106.095172
_cell_angle_gamma 90.000000
_cell_volume 1845.794362
_symmetry_space_group_name_H-M "C 2/M"
_symmetry_group_IT_number 12
_symmetry_cell_setting 'monoclinic'
loop_
_space_group_symop_operation_xyz
x,y,z
-x,y,-z
-x,-y,-z
x,-y,z
1/2+x,1/2+y,z
1/2-x,1/2+y,-z
1/2-x,1/2-y,-z
1/2+x,1/2-y,z
loop_
_atom_site_type_symbol
_atom_site_label
_atom_site_fract_x
_atom_site_fract_y
_atom_site_fract_z
Si Si1 0.500000 0.000000 0.500000
Si Si2 0.357683 0.302916 0.750273
Si Si3 0.568165 0.298894 0.632928
Si Si4 0.949764 0.789969 0.026264
Si Si5 0.732481 0.196759 0.153846
Si Si6 0.169924 0.696909 0.611767
O O1 0.459426 0.844399 0.493876
O O2 0.368538 0.500000 0.711649
O O3 0.404429 0.231909 0.881959
O O4 0.312627 0.302923 0.825249
O O5 0.342530 0.204769 0.581518
O O6 0.554448 0.500000 0.594510
O O7 0.625352 0.284136 0.659096
O O8 0.555806 0.243709 0.798450
O O9 0.949312 0.000000 0.023068
O O10 0.000000 0.730178 0.000000
O O11 0.778866 0.216312 0.307629
O O12 0.716228 0.000000 0.136095
O O13 0.750000 0.250000 0.000000
O O14 0.173764 0.500000 0.668857
#
# Coordination Sequence:
#
# PCOD9221687 Si02
#       6
#     2   8   8   8   8   8
#     4  12  26  44  66 106 136 180 236 280 342 406
#     4  11  23  42  68 100 134 176 226 280 343 408
#     4  11  24  45  70  98 137 182 229 284 343 407
#     4   9  21  41  67  96 131 177 227 277 337 406
#     4  12  25  44  69  98 133 179 225 281 346 409
#     4  12  25  44  68 101 138 174 226 284 341 411
#
# _framework density 22.754432999999999
#
# number of rings (size 3 to 8) (size 9 to 14) (size 15 to 20)
#    0.000    0.952    0.952    6.000    2.667    1.524 
#    3.429    0.476    0.000    0.000    0.000    0.000 
#    0.000    0.000    0.000    0.000    0.000    0.000 
#
# Total GULP energy -117294.388784 kJ/mol
# GULP energy per Si atom -5585.447085 kJ/mol
# Density = 2.270264 g / cm^3
# Si number density = 22.754433 Si / 1000 Ang^3
#
#
#
# Elastic Constant Matrix: (Units=GPa)
#
#
# Indices 1 2 3 4 5 6 
#
# 1 150.6068 -15.7980 46.0290 0.0000 6.2892 0.0000
# 2 -15.7980 110.6442 -2.3236 0.0000 3.7861 0.0000
# 3 46.0290 -2.3236 87.2239 0.0000 1.8069 0.0000
# 4 0.0000 0.0000 0.0000 21.0558 0.0000 -5.0085
# 5 6.2892 3.7861 1.8069 0.0000 42.8754 0.0000
# 6 0.0000 0.0000 0.0000 -5.0085 0.0000 34.5390
#
#
#
# Elastic Compliance Matrix: (Units=1/GPa)
#
#
# Indices 1 2 3 4 5 6 
#
# 1 0.008091 0.001105 -0.004217 0.000000 -0.001107 0.000000
# 2 0.001105 0.009222 -0.000317 0.000000 -0.000963 0.000000
# 3 -0.004217 -0.000317 0.013680 0.000000 0.000070 0.000000
# 4 0.000000 0.000000 0.000000 0.049190 0.000000 0.007133
# 5 -0.001107 -0.000963 0.000070 0.000000 0.023568 0.000000
# 6 0.000000 0.000000 0.000000 0.007133 0.000000 0.029987
#
#
# Mechanical properties :
#
#
# Convention : Reuss Voigt Hill
#
# Bulk Modulus (GPa) = 41.43683 44.92110 43.17896
# Shear Modulus (GPa) = 33.63788 41.06520 37.35154
#
# Velocity S-wave (km/s) = 3.84904 4.25280 4.05595
# Velocity P-wave (km/s) = 6.16469 6.62568 6.39934
#
# Compressibility (1/GPa) = 0.02413312
#
# Stress axis : x y z
#
# Youngs Moduli (GPa) = 123.59770 108.43664 73.09763
#
# Poissons Ratio (x) = -0.11977 0.30827
# Poissons Ratio (y) = -0.13652 0.02319
# Poissons Ratio (z) = 0.52124 0.03440
#
# Static dielectric constant tensor:
#      x y z
#    x 1.833790 0.000000 0.007760 
#    y 0.000000 1.855320 0.000000 
#    z 0.007760 0.000000 1.848960 
# 
# From -- ./inp_files/108928.got.cif
#   From: 2010.05.17/outbox.cif.g08.bks.cpg/sg12_55_cif.got.tgz:108928.got - 2010.06.03 13:09:07.
