data_PCOD9221805
_publ_section_title
;
Structure prediction by ZEFSAII (Michael W. Deem and Ramdas Pophale) SiO2 
 PCOD9221805
Probable space group: C 2/M
;
_chemical_formula_sum "Si O2"
_cell_formula_units_Z 40
_cell_length_a 9.234323
_cell_length_b 27.687915
_cell_length_c 12.509154
_cell_angle_alpha 90.000000
_cell_angle_beta 34.956335
_cell_angle_gamma 90.000000
_cell_volume 1832.489479
_symmetry_space_group_name_H-M "C 2/M"
_symmetry_group_IT_number 12
_symmetry_cell_setting 'monoclinic'
loop_
_space_group_symop_operation_xyz
x,y,z
-x,y,-z
-x,-y,-z
x,-y,z
1/2+x,1/2+y,z
1/2-x,1/2+y,-z
1/2-x,1/2-y,-z
1/2+x,1/2-y,z
loop_
_atom_site_type_symbol
_atom_site_label
_atom_site_fract_x
_atom_site_fract_y
_atom_site_fract_z
Si Si1 0.285404 0.727910 0.213729
Si Si2 0.810899 0.396878 0.030500
Si Si3 0.489516 0.687139 0.313140
Si Si4 0.342641 0.445274 0.206648
Si Si5 0.001211 0.632255 0.684564
O O1 0.384054 0.713794 0.270746
O O2 0.085257 0.770960 0.332580
O O3 0.171988 0.678852 0.233316
O O4 0.500000 0.742995 0.000000
O O5 0.956209 0.385824 0.832101
O O6 0.717465 0.346706 0.137564
O O7 0.551756 0.425332 0.162207
O O8 0.000000 0.421259 0.000000
O O9 0.278326 0.652040 0.490838
O O10 0.267995 0.500000 0.275996
O O11 0.108882 0.409701 0.325332
O O12 0.500000 0.445257 0.000000
#
# Coordination Sequence:
#
# PCOD9221805 Si02
#       5
#     8   8   8   8   8
#     4  12  23  43  64  92 136 177 224 270 319 384
#     4  11  24  43  65  96 136 170 214 274 328 386
#     4  12  26  42  64  95 134 179 224 267 322 387
#     4   9  19  42  74  99 126 170 218 270 330 390
#     4  11  23  44  65  95 134 173 219 272 322 389
#
# _framework density 21.828230000000001
#
# number of rings (size 3 to 8) (size 9 to 14) (size 15 to 20)
#    0.000    1.000    4.000    3.000    2.800    1.200 
#    0.000    2.000    0.000    0.000    0.000    7.000 
#    0.000    0.000    0.000    0.000    0.000    0.000 
#
# Total GULP energy -111943.518851 kJ/mol
# GULP energy per Si atom -5597.175943 kJ/mol
# Density = 2.177855 g / cm^3
# Si number density = 21.828230 Si / 1000 Ang^3
#
#
#
# Elastic Constant Matrix: (Units=GPa)
#
#
# Indices 1 2 3 4 5 6 
#
# 1 89.3013 40.3971 44.5894 0.0000 -9.9583 0.0000
# 2 40.3971 140.5616 43.5048 0.0000 -14.7102 0.0000
# 3 44.5894 43.5048 117.6231 0.0000 6.4341 0.0000
# 4 0.0000 0.0000 0.0000 -26.3768 0.0000 -44.2954
# 5 -9.9583 -14.7102 6.4341 0.0000 30.5764 0.0000
# 6 0.0000 0.0000 0.0000 -44.2954 0.0000 -31.1279
#
#
#
# Elastic Compliance Matrix: (Units=1/GPa)
#
#
# Indices 1 2 3 4 5 6 
#
# 1 0.015426 -0.002270 -0.005284 0.000000 0.005044 0.000000
# 2 -0.002270 0.009044 -0.002713 0.000000 0.004183 0.000000
# 3 -0.005284 -0.002713 0.011810 0.000000 -0.005511 0.000000
# 4 0.000000 0.000000 0.000000 0.027281 0.000000 -0.038821
# 5 0.005044 0.004183 -0.005511 0.000000 0.037520 0.000000
# 6 0.000000 0.000000 0.000000 -0.038821 0.000000 0.023117
#
#
# Mechanical properties :
#
#
# Convention : Reuss Voigt Hill
#
# Bulk Modulus (GPa) = 63.51217 67.16319 65.33768
# Shear Modulus (GPa) = 33.33772 9.21399 21.27585
#
# Velocity S-wave (km/s) = 3.91228 2.05677 3.12540
# Velocity P-wave (km/s) = 7.04041 6.03955 6.55910
#
# Compressibility (1/GPa) = 0.01574501
#
# Stress axis : x y z
#
# Youngs Moduli (GPa) = 64.82659 110.56684 84.67461
#
# Poissons Ratio (x) = 0.25099 0.44742
# Poissons Ratio (y) = 0.14716 0.22976
# Poissons Ratio (z) = 0.34254 0.30002
#
# Static dielectric constant tensor:
#      x y z
#    x 1.813400 0.000000 0.025870 
#    y 0.000000 1.752830 0.000000 
#    z 0.025870 0.000000 1.891850 
# 
# From -- ./inp_files/201124.got.cif
#   From: 2010.05.17/outbox.cif.g08.bks.cpg/sg12_101_cif.got.tgz:201124.got - 2010.06.03 13:09:07.
