data_PCOD9221110
_publ_section_title
;
Structure prediction by ZEFSAII (Michael W. Deem and Ramdas Pophale) SiO2 
 PCOD9221110
Probable space group: C 2/M
;
_chemical_formula_sum "Si O2"
_cell_formula_units_Z 48
_cell_length_a 18.872766
_cell_length_b 20.110494
_cell_length_c 14.536633
_cell_angle_alpha 90.000000
_cell_angle_beta 153.990766
_cell_angle_gamma 90.000000
_cell_volume 2419.399343
_symmetry_space_group_name_H-M "C 2/M"
_symmetry_group_IT_number 12
_symmetry_cell_setting 'monoclinic'
loop_
_space_group_symop_operation_xyz
x,y,z
-x,y,-z
-x,-y,-z
x,-y,z
1/2+x,1/2+y,z
1/2-x,1/2+y,-z
1/2-x,1/2-y,-z
1/2+x,1/2-y,z
loop_
_atom_site_type_symbol
_atom_site_label
_atom_site_fract_x
_atom_site_fract_y
_atom_site_fract_z
Si Si1 0.003705 0.076047 0.186627
Si Si2 0.627902 0.076563 0.454328
Si Si3 0.253560 0.653020 0.765404
Si Si4 0.924614 0.687920 0.111578
Si Si5 0.000000 0.742982 0.000000
Si Si6 0.947725 0.183314 0.265773
Si Si7 0.500000 0.250453 0.500000
O O1 0.998932 0.116947 0.274845
O O2 0.185601 0.077006 0.360949
O O3 0.953163 0.000000 0.139004
O O4 0.880649 0.111793 0.972886
O O5 0.641633 0.106243 0.573058
O O6 0.524464 0.126984 0.271748
O O7 0.570380 0.000000 0.385517
O O8 0.350812 0.705334 0.815278
O O9 0.142710 0.701130 0.697981
O O10 0.962422 0.756291 0.210418
O O11 0.967443 0.701382 0.054664
O O12 0.735206 0.675823 0.910445
O O13 0.050441 0.204500 0.474047
#
# Coordination Sequence:
#
# PCOD9221110 Si02
#       7
#     8   8   8   8   4   8   4
#     4  11  24  41  62  91 129 168 206 253 313 376
#     4  11  24  40  62  93 128 166 206 254 315 376
#     4  12  21  39  62  94 127 162 206 261 316 368
#     4  11  23  40  64  93 127 162 212 261 308 369
#     4  12  22  38  66  96 120 164 210 264 316 358
#     4  11  22  42  62  91 128 165 208 261 307 371
#     4  12  24  38  66  96 124 162 216 258 310 368
#
# _framework density 19.839635000000001
#
# number of rings (size 3 to 8) (size 9 to 14) (size 15 to 20)
#    0.000    0.667    6.667    1.500    2.333    3.333 
#    0.000    1.667    0.000    0.000    0.000    0.000 
#    0.000    0.000    0.000    0.000    0.000    0.000 
#
# Total GULP energy -134127.876228 kJ/mol
# GULP energy per Si atom -5588.661509 kJ/mol
# Density = 1.979448 g / cm^3
# Si number density = 19.839635 Si / 1000 Ang^3
#
#
#
# Elastic Constant Matrix: (Units=GPa)
#
#
# Indices 1 2 3 4 5 6 
#
# 1 105.3388 53.6464 17.1366 0.0000 -20.5956 0.0000
# 2 53.6464 148.2948 58.1767 0.0000 -17.0168 0.0000
# 3 17.1366 58.1767 64.6502 0.0000 -13.9056 0.0000
# 4 0.0000 0.0000 0.0000 33.0566 0.0000 -1.8473
# 5 -20.5956 -17.0168 -13.9056 0.0000 23.1761 0.0000
# 6 0.0000 0.0000 0.0000 -1.8473 0.0000 22.9937
#
#
#
# Elastic Compliance Matrix: (Units=1/GPa)
#
#
# Indices 1 2 3 4 5 6 
#
# 1 0.013490 -0.004896 0.003025 0.000000 0.010209 0.000000
# 2 -0.004896 0.012310 -0.010071 0.000000 -0.001355 0.000000
# 3 0.003025 -0.010071 0.026082 0.000000 0.010943 0.000000
# 4 0.000000 0.000000 0.000000 0.030388 0.000000 0.002441
# 5 0.010209 -0.001355 0.010943 0.000000 0.057792 0.000000
# 6 0.000000 0.000000 0.000000 0.002441 0.000000 0.043686
#
#
# Mechanical properties :
#
#
# Convention : Reuss Voigt Hill
#
# Bulk Modulus (GPa) = 35.71416 64.02259 49.86837
# Shear Modulus (GPa) = 23.04538 28.46686 25.75612
#
# Velocity S-wave (km/s) = 3.41190 3.79205 3.60698
# Velocity P-wave (km/s) = 5.79326 7.17725 6.52207
#
# Compressibility (1/GPa) = 0.02800010
#
# Stress axis : x y z
#
# Youngs Moduli (GPa) = 74.12777 81.23660 38.34027
#
# Poissons Ratio (x) = 0.39770 -0.11600
# Poissons Ratio (y) = 0.36290 0.38612
# Poissons Ratio (z) = -0.22427 0.81812
#
# Static dielectric constant tensor:
#      x y z
#    x 1.715580 0.000000 0.027560 
#    y 0.000000 1.679580 0.000000 
#    z 0.027560 0.000000 1.741570 
# 
# From -- ./inp_files/226970.got.cif
#   From: 2010.05.17/outbox.cif.g08.bks.cpg/sg12_114_cif.got.tgz:226970.got - 2010.06.03 13:09:07.
