data_PCOD9221532
_publ_section_title
;
Structure prediction by ZEFSAII (Michael W. Deem and Ramdas Pophale) SiO2 
 PCOD9221532
Probable space group: C 2/M
;
_chemical_formula_sum "Si O2"
_cell_formula_units_Z 58
_cell_length_a 12.156917
_cell_length_b 16.176353
_cell_length_c 19.367680
_cell_angle_alpha 90.000000
_cell_angle_beta 38.039655
_cell_angle_gamma 90.000000
_cell_volume 2346.973019
_symmetry_space_group_name_H-M "C 2/M"
_symmetry_group_IT_number 12
_symmetry_cell_setting 'monoclinic'
loop_
_space_group_symop_operation_xyz
x,y,z
-x,y,-z
-x,-y,-z
x,-y,z
1/2+x,1/2+y,z
1/2-x,1/2+y,-z
1/2-x,1/2-y,-z
1/2+x,1/2-y,z
loop_
_atom_site_type_symbol
_atom_site_label
_atom_site_fract_x
_atom_site_fract_y
_atom_site_fract_z
Si Si1 0.687523 0.822064 0.933732
Si Si2 0.500000 0.000000 0.500000
Si Si3 0.391255 0.598868 0.179056
Si Si4 0.705612 0.323443 0.392542
Si Si5 0.541186 0.908240 0.286819
Si Si6 0.304237 0.636485 0.372947
Si Si7 0.766897 0.645827 0.938781
Si Si8 0.649001 0.401834 0.279891
O O1 0.801674 0.740012 0.896124
O O2 0.756074 0.879338 0.838849
O O3 0.500000 0.789056 0.000000
O O4 0.662713 0.867392 0.018886
O O5 0.355638 0.928187 0.547759
O O6 0.383769 0.500000 0.172692
O O7 0.195328 0.634017 0.256592
O O8 0.414297 0.616470 0.248095
O O9 0.555381 0.631118 0.053240
O O10 0.500000 0.350174 0.500000
O O11 0.728313 0.227978 0.400531
O O12 0.741137 0.349319 0.295415
O O13 0.852128 0.367455 0.367930
O O14 0.639944 0.909895 0.163919
O O15 0.514530 0.000000 0.328688
O O16 0.444056 0.626186 0.366263
O O17 0.655202 0.500000 0.291484
#
# Coordination Sequence:
#
# PCOD9221532 Si02
#       8
#     8   2   8   8   8   8   8   8
#     4  11  24  39  65 104 145 200 241 296 368 448
#     4  12  24  52  76 112 140 184 260 316 382 430
#     4  11  23  43  73 106 147 188 244 309 373 443
#     4  12  30  50  76 108 150 197 253 316 385 454
#     4  11  25  44  69 105 147 196 243 300 373 451
#     4  12  26  48  76 111 145 190 250 322 377 445
#     4  11  23  40  69 105 148 190 245 308 369 444
#     4  12  27  49  77 108 153 201 253 313 377 456
#
# _framework density 24.712685
#
# number of rings (size 3 to 8) (size 9 to 14) (size 15 to 20)
#    0.000    0.552    3.448    3.724    7.724    4.690 
#    0.000    0.000    0.000    0.000    0.000    0.000 
#    0.000    0.000    0.000    0.000    0.000    0.000 
#
# Total GULP energy -162130.981888 kJ/mol
# GULP energy per Si atom -5590.723513 kJ/mol
# Density = 2.465644 g / cm^3
# Si number density = 24.712685 Si / 1000 Ang^3
#
#
#
# Elastic Constant Matrix: (Units=GPa)
#
#
# Indices 1 2 3 4 5 6 
#
# 1 103.1403 40.8615 12.9362 0.0000 -17.8643 -0.0001
# 2 40.8615 91.5097 17.2390 -0.0004 -25.1100 0.0001
# 3 12.9362 17.2390 82.3695 0.0002 -12.4830 0.0001
# 4 0.0000 -0.0004 0.0002 35.5567 0.0001 0.8740
# 5 -17.8643 -25.1100 -12.4830 0.0001 45.3348 -0.0004
# 6 -0.0001 0.0001 0.0001 0.8740 -0.0004 -4.8859
#
#
#
# Elastic Compliance Matrix: (Units=1/GPa)
#
#
# Indices 1 2 3 4 5 6 
#
# 1 0.011969 -0.004696 -0.000601 0.000000 0.001950 -0.000001
# 2 -0.004696 0.014957 -0.001480 0.000000 0.006027 0.000000
# 3 -0.000601 -0.001480 0.012924 0.000000 0.002502 0.000000
# 4 0.000000 0.000000 0.000000 0.028001 0.000000 0.005009
# 5 0.001950 0.006027 0.002502 0.000000 0.026853 -0.000002
# 6 -0.000001 0.000000 0.000000 0.005009 -0.000002 -0.203775
#
#
# Mechanical properties :
#
#
# Convention : Reuss Voigt Hill
#
# Bulk Modulus (GPa) = 38.02899 46.56587 42.29743
# Shear Modulus (GPa) = -57.63641 28.93330 -14.35156
#
# Velocity S-wave (km/s) = -4.83459 3.42539 -2.41246
# Velocity P-wave (km/s) = 3.96768 5.87607 3.06478
#
# Compressibility (1/GPa) = 0.02629573
#
# Stress axis : x y z
#
# Youngs Moduli (GPa) = 83.54782 66.85747 77.37721
#
# Poissons Ratio (x) = 0.31398 0.04654
# Poissons Ratio (y) = 0.39236 0.11448
# Poissons Ratio (z) = 0.05025 0.09892
#
# Static dielectric constant tensor:
#      x y z
#    x 1.989460 0.000000 -0.010450 
#    y 0.000000 1.906510 0.000000 
#    z -0.010450 0.000000 2.024880 
# 
# From -- ./inp_files/306369.got.cif
#   From: 2010.05.17/outbox.cif.g08.bks.cpg/sg12_154_cif.got.tgz:306369.got - 2010.06.03 13:09:07.
