data_PCOD9221500
_publ_section_title
;
Structure prediction by ZEFSAII (Michael W. Deem and Ramdas Pophale) SiO2 
 PCOD9221500
Probable space group: C 2/M
;
_chemical_formula_sum "Si O2"
_cell_formula_units_Z 50
_cell_length_a 28.860785
_cell_length_b 8.011122
_cell_length_c 11.640792
_cell_angle_alpha 90.000000
_cell_angle_beta 127.666951
_cell_angle_gamma 90.000000
_cell_volume 2130.476306
_symmetry_space_group_name_H-M "C 2/M"
_symmetry_group_IT_number 12
_symmetry_cell_setting 'monoclinic'
loop_
_space_group_symop_operation_xyz
x,y,z
-x,y,-z
-x,-y,-z
x,-y,z
1/2+x,1/2+y,z
1/2-x,1/2+y,-z
1/2-x,1/2-y,-z
1/2+x,1/2-y,z
loop_
_atom_site_type_symbol
_atom_site_label
_atom_site_fract_x
_atom_site_fract_y
_atom_site_fract_z
Si Si1 0.000000 0.500000 0.000000
Si Si2 0.510722 0.696563 0.645612
Si Si3 0.923580 0.186640 0.938024
Si Si4 0.299539 0.696213 0.873384
Si Si5 0.917867 0.684353 0.686521
Si Si6 0.638650 0.803585 0.813559
Si Si7 0.324184 0.690700 0.382784
O O1 0.965000 0.345556 0.020467
O O2 0.500000 0.759827 0.500000
O O3 0.497694 0.500000 0.627665
O O4 0.466957 0.782105 0.666707
O O5 0.578890 0.725413 0.772450
O O6 0.859814 0.215136 0.895312
O O7 0.916460 0.189565 0.789237
O O8 0.944428 0.000000 0.006076
O O9 0.286231 0.500000 0.864580
O O10 0.244965 0.780267 0.728244
O O11 0.311226 0.768783 0.017485
O O12 0.928874 0.500000 0.759257
O O13 0.857616 0.694697 0.524815
O O14 0.652414 0.727063 0.710271
O O15 0.630554 0.000000 0.787172
O O16 0.338244 0.500000 0.433318
#
# Coordination Sequence:
#
# PCOD9221500 Si02
#       7
#     2   8   8   8   8   8   8
#     4  12  26  48  76 102 146 180 234 282 346 416
#     4  11  23  40  65  97 136 176 224 281 345 413
#     4  11  27  48  73 107 144 187 233 288 349 413
#     4  11  26  47  70  98 136 181 234 285 348 415
#     4  12  25  44  70 102 140 183 234 286 350 418
#     4  12  25  41  67 100 137 179 229 286 350 419
#     4  12  25  44  70  98 137 181 230 292 348 414
#
# _framework density 23.468931999999999
#
# number of rings (size 3 to 8) (size 9 to 14) (size 15 to 20)
#    0.000    0.480    2.400    6.000    4.480    1.280 
#    0.000    0.000    0.000    0.000    0.000    0.000 
#    0.000    0.000    0.000    0.000    0.000    0.000 
#
# Total GULP energy -139930.324441 kJ/mol
# GULP energy per Si atom -5597.212978 kJ/mol
# Density = 2.341552 g / cm^3
# Si number density = 23.468932 Si / 1000 Ang^3
#
#
#
# Elastic Constant Matrix: (Units=GPa)
#
#
# Indices 1 2 3 4 5 6 
#
# 1 69.7520 12.6848 27.6029 0.0000 9.5751 0.0000
# 2 12.6848 144.3063 6.8016 0.0000 3.3519 0.0000
# 3 27.6029 6.8016 101.7149 0.0000 2.1619 0.0000
# 4 0.0000 0.0000 0.0000 33.2913 0.0000 3.4793
# 5 9.5751 3.3519 2.1619 0.0000 36.9112 0.0000
# 6 0.0000 0.0000 0.0000 3.4793 0.0000 31.7450
#
#
#
# Elastic Compliance Matrix: (Units=1/GPa)
#
#
# Indices 1 2 3 4 5 6 
#
# 1 0.016845 -0.001180 -0.004407 0.000000 -0.004004 0.000000
# 2 -0.001180 0.007048 -0.000144 0.000000 -0.000325 0.000000
# 3 -0.004407 -0.000144 0.011026 0.000000 0.000511 0.000000
# 4 0.000000 0.000000 0.000000 0.030386 0.000000 -0.003330
# 5 -0.004004 -0.000325 0.000511 0.000000 0.028130 0.000000
# 6 0.000000 0.000000 0.000000 -0.003330 0.000000 0.031866
#
#
# Mechanical properties :
#
#
# Convention : Reuss Voigt Hill
#
# Bulk Modulus (GPa) = 42.63281 45.55020 44.09151
# Shear Modulus (GPa) = 34.58225 38.30175 36.44200
#
# Velocity S-wave (km/s) = 3.84283 4.04421 3.94480
# Velocity P-wave (km/s) = 6.15588 6.42327 6.29099
#
# Compressibility (1/GPa) = 0.02345611
#
# Stress axis : x y z
#
# Youngs Moduli (GPa) = 59.36523 141.88868 90.69299
#
# Poissons Ratio (x) = 0.16742 0.39971
# Poissons Ratio (y) = 0.07005 0.01307
# Poissons Ratio (z) = 0.26164 0.02045
#
# Static dielectric constant tensor:
#      x y z
#    x 1.838410 0.000000 -0.015870 
#    y 0.000000 1.841770 0.000000 
#    z -0.015870 0.000000 1.742390 
# 
# From -- ./inp_files/181245.got.cif
#   From: 2010.05.17/outbox.cif.g08.bks.cpg/sg12_91_cif.got.tgz:181245.got - 2010.06.03 13:09:07.
