data_PCOD9221893
_publ_section_title
;
Structure prediction by ZEFSAII (Michael W. Deem and Ramdas Pophale) SiO2 
 PCOD9221893
Probable space group: C 2/M
;
_chemical_formula_sum "Si O2"
_cell_formula_units_Z 40
_cell_length_a 9.461705
_cell_length_b 14.528155
_cell_length_c 15.316700
_cell_angle_alpha 90.000000
_cell_angle_beta 91.812296
_cell_angle_gamma 90.000000
_cell_volume 2104.397534
_symmetry_space_group_name_H-M "C 2/M"
_symmetry_group_IT_number 12
_symmetry_cell_setting 'monoclinic'
loop_
_space_group_symop_operation_xyz
x,y,z
-x,y,-z
-x,-y,-z
x,-y,z
1/2+x,1/2+y,z
1/2-x,1/2+y,-z
1/2-x,1/2-y,-z
1/2+x,1/2-y,z
loop_
_atom_site_type_symbol
_atom_site_label
_atom_site_fract_x
_atom_site_fract_y
_atom_site_fract_z
Si Si1 0.281195 0.500000 0.336694
Si Si2 0.670839 0.652602 0.512814
Si Si3 0.930871 0.351200 0.088330
Si Si4 0.515905 0.000000 0.762101
Si Si5 0.741534 0.000000 0.621224
Si Si6 0.906565 0.839411 0.915842
Si Si7 0.042367 0.000000 0.218156
O O1 0.298992 0.591116 0.399001
O O2 0.394517 0.500000 0.262414
O O3 0.140083 0.500000 0.277926
O O4 0.500000 0.662279 0.500000
O O5 0.750000 0.750000 0.500000
O O6 0.731827 0.587872 0.437975
O O7 0.948855 0.414714 0.173370
O O8 0.762637 0.333432 0.070719
O O9 0.021209 0.258267 0.104386
O O10 0.000000 0.390700 0.000000
O O11 0.599512 0.000000 0.672850
O O12 0.853440 0.000000 0.699611
O O13 0.929974 0.911133 0.839596
O O14 0.000000 0.872875 0.000000
#
# Coordination Sequence:
#
# PCOD9221893 Si02
#       7
#     4   8   8   4   4   8   4
#     4  11  27  44  66  98 128 167 212 260 321 383
#     4  11  25  46  71  94 129 170 205 257 324 384
#     4  11  24  43  62  93 133 171 216 263 314 375
#     4  12  27  41  67  98 129 167 213 271 313 367
#     4  11  23  48  64  94 136 160 212 264 315 385
#     4  11  24  41  65  93 128 176 215 261 317 373
#     4  12  23  43  67  92 131 168 213 265 316 376
#
# _framework density 19.007814
#
# number of rings (size 3 to 8) (size 9 to 14) (size 15 to 20)
#    0.000    0.800    4.000    3.600    8.400    4.000 
#    0.000    0.000    0.000    0.000    0.000    0.000 
#    0.000    0.000    0.000    0.000    0.000    0.000 
#
# Total GULP energy -111586.315739 kJ/mol
# GULP energy per Si atom -5579.315787 kJ/mol
# Density = 1.896455 g / cm^3
# Si number density = 19.007814 Si / 1000 Ang^3
#
#
#
# Elastic Constant Matrix: (Units=GPa)
#
#
# Indices 1 2 3 4 5 6 
#
# 1 226.8913 58.1221 65.6744 0.0000 -15.7983 0.0000
# 2 58.1221 142.4222 68.2044 0.0000 -9.7506 0.0000
# 3 65.6744 68.2044 113.1480 0.0000 -16.4756 0.0000
# 4 0.0000 0.0000 0.0000 32.1374 0.0000 -9.4098
# 5 -15.7983 -9.7506 -16.4756 0.0000 49.5628 0.0000
# 6 0.0000 0.0000 0.0000 -9.4098 0.0000 27.0476
#
#
#
# Elastic Compliance Matrix: (Units=1/GPa)
#
#
# Indices 1 2 3 4 5 6 
#
# 1 0.005419 -0.000993 -0.002442 0.000000 0.000720 0.000000
# 2 -0.000993 0.010053 -0.005508 0.000000 -0.000170 0.000000
# 3 -0.002442 -0.005508 0.013981 0.000000 0.002786 0.000000
# 4 0.000000 0.000000 0.000000 0.034646 0.000000 0.012053
# 5 0.000720 -0.000170 0.002786 0.000000 0.021299 0.000000
# 6 0.000000 0.000000 0.000000 0.012053 0.000000 0.041165
#
#
# Mechanical properties :
#
#
# Convention : Reuss Voigt Hill
#
# Bulk Modulus (GPa) = 86.45254 96.27372 91.36313
# Shear Modulus (GPa) = 33.71476 41.11360 37.41418
#
# Velocity S-wave (km/s) = 4.21614 4.65583 4.44143
# Velocity P-wave (km/s) = 8.32361 8.92535 8.62973
#
# Compressibility (1/GPa) = 0.01156704
#
# Stress axis : x y z
#
# Youngs Moduli (GPa) = 184.54796 99.47611 71.52431
#
# Poissons Ratio (x) = 0.09874 0.17466
# Poissons Ratio (y) = 0.18318 0.39397
# Poissons Ratio (z) = 0.45065 0.54794
#
# Static dielectric constant tensor:
#      x y z
#    x 1.589850 0.000000 0.017810 
#    y 0.000000 1.667730 0.000000 
#    z 0.017810 0.000000 1.631970 
# 
# From -- ./inp_files/194655.got.cif
#   From: 2010.05.17/outbox.cif.g08.bks.cpg/sg12_98_cif.got.tgz:194655.got - 2010.06.03 13:09:07.
