data_PCOD9221261
_publ_section_title
;
Structure prediction by ZEFSAII (Michael W. Deem and Ramdas Pophale) SiO2 
 PCOD9221261
Probable space group: C 2/M
;
_chemical_formula_sum "Si O2"
_cell_formula_units_Z 64
_cell_length_a 18.925015
_cell_length_b 23.331417
_cell_length_c 8.140939
_cell_angle_alpha 90.000000
_cell_angle_beta 95.399152
_cell_angle_gamma 90.000000
_cell_volume 3578.662582
_symmetry_space_group_name_H-M "C 2/M"
_symmetry_group_IT_number 12
_symmetry_cell_setting 'monoclinic'
loop_
_space_group_symop_operation_xyz
x,y,z
-x,y,-z
-x,-y,-z
x,-y,z
1/2+x,1/2+y,z
1/2-x,1/2+y,-z
1/2-x,1/2-y,-z
1/2+x,1/2-y,z
loop_
_atom_site_type_symbol
_atom_site_label
_atom_site_fract_x
_atom_site_fract_y
_atom_site_fract_z
Si Si1 0.399828 0.933392 0.813934
Si Si2 0.030251 0.752586 0.825216
Si Si3 0.829298 0.783011 0.258634
Si Si4 0.835999 0.566461 0.164479
Si Si5 0.747568 0.667076 0.261022
Si Si6 0.467706 0.127188 0.312167
Si Si7 0.299909 0.844687 0.647877
Si Si8 0.382798 0.271362 0.646539
O O1 0.472938 0.901284 0.790490
O O2 0.338806 0.903198 0.694834
O O3 0.409126 0.000000 0.777503
O O4 0.373366 0.927852 0.995049
O O5 0.101852 0.789638 0.837819
O O6 0.050329 0.690012 0.759318
O O7 0.965689 0.775869 0.700279
O O8 0.000000 0.746354 0.000000
O O9 0.788848 0.723717 0.207860
O O10 0.768417 0.830888 0.254513
O O11 0.861118 0.778121 0.451111
O O12 0.817520 0.500000 0.186761
O O13 0.771255 0.610773 0.169415
O O14 0.897670 0.588401 0.300016
O O15 0.774183 0.659138 0.454927
O O16 0.665410 0.684543 0.260224
O O17 0.500000 0.132854 0.500000
O O18 0.355872 0.792715 0.687125
#
# Coordination Sequence:
#
# PCOD9221261 Si02
#       8
#     8   8   8   8   8   8   8   8
#     4  11  23  36  50  72 103 135 169 210 252 293
#     4  12  22  31  49  78 105 134 166 201 252 306
#     4   9  18  33  52  74 100 130 165 207 250 293
#     4  11  23  36  50  72 103 135 169 210 252 293
#     4   9  18  33  53  74  97 130 170 207 246 294
#     4  12  23  35  50  69  98 137 179 213 240 285
#     4   9  18  33  53  74  97 130 170 207 246 294
#     4   9  18  33  52  74 100 130 165 207 250 293
#
# _framework density 17.883775
#
# number of rings (size 3 to 8) (size 9 to 14) (size 15 to 20)
#    0.000    1.750    2.500    4.875    0.000    4.500 
#    0.000    2.500    0.000    0.000    0.000    0.875 
#    0.000    7.000    0.000    0.000    0.000    0.000 
#
# Total GULP energy -178762.262796 kJ/mol
# GULP energy per Si atom -5586.320712 kJ/mol
# Density = 1.784307 g / cm^3
# Si number density = 17.883775 Si / 1000 Ang^3
#
#
#
# Elastic Constant Matrix: (Units=GPa)
#
#
# Indices 1 2 3 4 5 6 
#
# 1 79.2267 28.1632 -3.9181 0.0000 -16.0588 0.0000
# 2 28.1632 50.9394 2.5383 0.0000 -11.3040 0.0000
# 3 -3.9181 2.5383 30.6965 0.0000 -7.5132 0.0000
# 4 0.0000 0.0000 0.0000 16.2548 0.0000 -6.5153
# 5 -16.0588 -11.3040 -7.5132 0.0000 22.7371 0.0000
# 6 0.0000 0.0000 0.0000 -6.5153 0.0000 5.7745
#
#
#
# Elastic Compliance Matrix: (Units=1/GPa)
#
#
# Indices 1 2 3 4 5 6 
#
# 1 0.017788 -0.007775 0.005486 0.000000 0.010510 0.000000
# 2 -0.007775 0.025489 -0.001461 0.000000 0.006698 0.000000
# 3 0.005486 -0.001461 0.037175 0.000000 0.015432 0.000000
# 4 0.000000 0.000000 0.000000 0.112314 0.000000 0.126721
# 5 0.010510 0.006698 0.015432 0.000000 0.059833 0.000000
# 6 0.000000 0.000000 0.000000 0.126721 0.000000 0.316152
#
#
# Mechanical properties :
#
#
# Convention : Reuss Voigt Hill
#
# Bulk Modulus (GPa) = 13.70780 23.82548 18.76664
# Shear Modulus (GPa) = 8.32545 17.89189 13.10867
#
# Velocity S-wave (km/s) = 2.15996 3.16643 2.71032
# Velocity P-wave (km/s) = 3.72856 5.16911 4.50676
#
# Compressibility (1/GPa) = 0.07295116
#
# Stress axis : x y z
#
# Youngs Moduli (GPa) = 56.21885 39.23248 26.89968
#
# Poissons Ratio (x) = 0.30505 -0.14757
# Poissons Ratio (y) = 0.43712 0.03929
# Poissons Ratio (z) = -0.30840 0.05731
#
# Static dielectric constant tensor:
#      x y z
#    x 1.630990 0.000000 -0.013500 
#    y 0.000000 1.579200 0.000000 
#    z -0.013500 0.000000 1.670510 
# 
# From -- ./inp_files/78811.got.cif
#   From: 2010.05.17/outbox.cif.g08.bks.cpg/sg12_40_cif.got.tgz:78811.got - 2010.06.03 13:09:07.
