data_PCOD9221123
_publ_section_title
;
Structure prediction by ZEFSAII (Michael W. Deem and Ramdas Pophale) SiO2 
 PCOD9221123
Probable space group: C 2/M
;
_chemical_formula_sum "Si O2"
_cell_formula_units_Z 44
_cell_length_a 11.350808
_cell_length_b 27.885708
_cell_length_c 11.232879
_cell_angle_alpha 90.000000
_cell_angle_beta 142.850669
_cell_angle_gamma 90.000000
_cell_volume 2147.141123
_symmetry_space_group_name_H-M "C 2/M"
_symmetry_group_IT_number 12
_symmetry_cell_setting 'monoclinic'
loop_
_space_group_symop_operation_xyz
x,y,z
-x,y,-z
-x,-y,-z
x,-y,z
1/2+x,1/2+y,z
1/2-x,1/2+y,-z
1/2-x,1/2-y,-z
1/2+x,1/2-y,z
loop_
_atom_site_type_symbol
_atom_site_label
_atom_site_fract_x
_atom_site_fract_y
_atom_site_fract_z
Si Si1 0.144527 0.553538 0.003724
Si Si2 0.320430 0.309332 0.261996
Si Si3 0.362832 0.798506 0.273285
Si Si4 0.504437 0.390038 0.268447
Si Si5 0.500000 0.630376 0.000000
Si Si6 0.904180 0.361109 0.716635
O O1 0.144632 0.500000 0.952108
O O2 0.056764 0.595584 0.851671
O O3 0.364551 0.569656 0.212619
O O4 0.000000 0.552959 0.000000
O O5 0.500000 0.306722 0.500000
O O6 0.277780 0.255054 0.191071
O O7 0.393229 0.340079 0.208817
O O8 0.163979 0.339254 0.212026
O O9 0.500000 0.798989 0.500000
O O10 0.500597 0.817268 0.278507
O O11 0.189001 0.835789 0.149141
O O12 0.714834 0.382736 0.497256
O O13 0.512866 0.398113 0.134204
#
# Coordination Sequence:
#
# PCOD9221123 Si02
#       6
#     8   8   8   8   4   8
#     4  11  24  43  69  98 125 157 209 272 328 376
#     4   9  22  37  60  93 128 169 213 260 304 373
#     4  11  23  38  60  92 133 174 211 256 308 375
#     4  11  23  41  62  92 129 167 213 261 311 376
#     4  12  24  36  61  90 122 174 217 248 304 374
#     4  11  22  42  67  90 133 170 209 261 320 372
#
# _framework density 20.492364999999999
#
# number of rings (size 3 to 8) (size 9 to 14) (size 15 to 20)
#    0.000    1.273    5.455    0.000    2.545    5.091 
#    0.000    2.273    0.000    1.636    0.000    0.000 
#    0.000    0.000    0.000    0.000    0.000    0.000 
#
# Total GULP energy -122896.725235 kJ/mol
# GULP energy per Si atom -5586.214783 kJ/mol
# Density = 2.044572 g / cm^3
# Si number density = 20.492365 Si / 1000 Ang^3
#
#
#
# Elastic Constant Matrix: (Units=GPa)
#
#
# Indices 1 2 3 4 5 6 
#
# 1 74.9700 10.0142 25.5175 0.0000 5.5659 0.0000
# 2 10.0142 99.9734 23.4100 0.0000 7.6918 0.0000
# 3 25.5175 23.4100 98.2897 0.0000 11.0121 0.0000
# 4 0.0000 0.0000 0.0000 17.4201 0.0000 0.6860
# 5 5.5659 7.6918 11.0121 0.0000 31.5694 0.0000
# 6 0.0000 0.0000 0.0000 0.6860 0.0000 2.8659
#
#
#
# Elastic Compliance Matrix: (Units=1/GPa)
#
#
# Indices 1 2 3 4 5 6 
#
# 1 0.014712 -0.000548 -0.003552 0.000000 -0.001221 0.000000
# 2 -0.000548 0.010710 -0.002214 0.000000 -0.001741 0.000000
# 3 -0.003552 -0.002214 0.011960 0.000000 -0.003006 0.000000
# 4 0.000000 0.000000 0.000000 0.057951 0.000000 -0.013871
# 5 -0.001221 -0.001741 -0.003006 0.000000 0.033364 0.000000
# 6 0.000000 0.000000 0.000000 -0.013871 0.000000 0.352248
#
#
# Mechanical properties :
#
#
# Convention : Reuss Voigt Hill
#
# Bulk Modulus (GPa) = 40.39655 43.45741 41.92698
# Shear Modulus (GPa) = 9.96366 24.65718 17.31042
#
# Velocity S-wave (km/s) = 2.20742 3.47253 2.90957
# Velocity P-wave (km/s) = 5.12374 6.10988 5.63841
#
# Compressibility (1/GPa) = 0.02475459
#
# Stress axis : x y z
#
# Youngs Moduli (GPa) = 67.97392 93.37248 83.61072
#
# Poissons Ratio (x) = 0.05116 0.29699
# Poissons Ratio (y) = 0.03724 0.18507
# Poissons Ratio (z) = 0.24144 0.20668
#
# Static dielectric constant tensor:
#      x y z
#    x 1.772900 0.000000 0.002740 
#    y 0.000000 1.699490 0.000000 
#    z 0.002740 0.000000 1.758960 
# 
# From -- ./inp_files/136080.got.cif
#   From: 2010.05.17/outbox.cif.g08.bks.cpg/sg12_69_cif.got.tgz:136080.got - 2010.06.03 13:09:07.
