data_PCOD9221075
_publ_section_title
;
Structure prediction by ZEFSAII (Michael W. Deem and Ramdas Pophale) SiO2 
 PCOD9221075
Probable space group: C 2/M
;
_chemical_formula_sum "Si O2"
_cell_formula_units_Z 40
_cell_length_a 14.782398
_cell_length_b 17.657725
_cell_length_c 14.859726
_cell_angle_alpha 90.000000
_cell_angle_beta 31.021953
_cell_angle_gamma 90.000000
_cell_volume 1998.971466
_symmetry_space_group_name_H-M "C 2/M"
_symmetry_group_IT_number 12
_symmetry_cell_setting 'monoclinic'
loop_
_space_group_symop_operation_xyz
x,y,z
-x,y,-z
-x,-y,-z
x,-y,z
1/2+x,1/2+y,z
1/2-x,1/2+y,-z
1/2-x,1/2-y,-z
1/2+x,1/2-y,z
loop_
_atom_site_type_symbol
_atom_site_label
_atom_site_fract_x
_atom_site_fract_y
_atom_site_fract_z
Si Si1 0.591238 0.411835 0.203960
Si Si2 0.609508 0.352131 0.996359
Si Si3 0.547364 0.826036 0.063232
Si Si4 0.260361 0.837196 0.460407
Si Si5 0.517075 0.909963 0.379985
O O1 0.597983 0.500000 0.221080
O O2 0.553344 0.400800 0.129991
O O3 0.433802 0.369547 0.389434
O O4 0.777636 0.371810 0.061536
O O5 0.582767 0.263863 0.041949
O O6 0.500000 0.370209 0.000000
O O7 0.812477 0.368115 0.803538
O O8 0.387419 0.844996 0.266250
O O9 0.500000 0.840896 0.000000
O O10 0.250000 0.750000 0.500000
O O11 0.351243 0.883084 0.464113
O O12 0.500000 0.892203 0.500000
O O13 0.540797 0.000000 0.349968
#
# Coordination Sequence:
#
# PCOD9221075 Si02
#       5
#     8   8   8   8   8
#     4  12  25  43  70 100 132 174 222 277 337 395
#     4  11  22  41  67  99 135 175 218 270 333 402
#     4  11  26  47  68  98 134 179 228 275 323 387
#     4  12  24  44  68  96 134 176 221 272 326 395
#     4  11  24  40  64 101 140 172 211 273 342 402
#
# _framework density 20.010290999999999
#
# number of rings (size 3 to 8) (size 9 to 14) (size 15 to 20)
#    0.000    0.600    4.000    4.200    2.800    5.200 
#    0.000    1.000    0.000    0.000    0.000    0.000 
#    0.000    0.000    0.000    0.000    0.000    0.000 
#
# Total GULP energy -111945.767770 kJ/mol
# GULP energy per Si atom -5597.288389 kJ/mol
# Density = 1.996475 g / cm^3
# Si number density = 20.010291 Si / 1000 Ang^3
#
#
#
# Elastic Constant Matrix: (Units=GPa)
#
#
# Indices 1 2 3 4 5 6 
#
# 1 70.5635 28.9671 43.2750 0.0039 9.7762 -0.0012
# 2 28.9671 53.0431 41.8636 0.0045 5.1770 -0.0024
# 3 43.2750 41.8636 179.1820 0.0006 -2.5894 -0.0004
# 4 0.0039 0.0045 0.0006 -60.8466 -0.0038 13.1538
# 5 9.7762 5.1770 -2.5894 -0.0038 31.7231 0.0007
# 6 -0.0012 -0.0024 -0.0004 13.1538 0.0007 22.7290
#
#
#
# Elastic Compliance Matrix: (Units=1/GPa)
#
#
# Indices 1 2 3 4 5 6 
#
# 1 0.020047 -0.008055 -0.003034 0.000001 -0.005111 0.000000
# 2 -0.008055 0.026929 -0.004379 0.000002 -0.002270 0.000001
# 3 -0.003034 -0.004379 0.007369 -0.000001 0.002251 0.000000
# 4 0.000001 0.000002 -0.000001 -0.014607 -0.000003 0.008454
# 5 -0.005111 -0.002270 0.002251 -0.000003 0.033652 0.000000
# 6 0.000000 0.000001 0.000000 0.008454 0.000000 0.039104
#
#
# Mechanical properties :
#
#
# Convention : Reuss Voigt Hill
#
# Bulk Modulus (GPa) = 42.71616 58.99999 50.85808
# Shear Modulus (GPa) = 33.06185 11.29995 22.18090
#
# Velocity S-wave (km/s) = 4.06919 2.37893 3.33299
# Velocity P-wave (km/s) = 6.59327 6.09053 6.34688
#
# Compressibility (1/GPa) = 0.02341034
#
# Stress axis : x y z
#
# Youngs Moduli (GPa) = 49.88371 37.13483 135.69941
#
# Poissons Ratio (x) = 0.29910 0.41165
# Poissons Ratio (y) = 0.40179 0.59425
# Poissons Ratio (z) = 0.15133 0.16262
#
# Static dielectric constant tensor:
#      x y z
#    x 1.717410 0.000010 -0.001940 
#    y 0.000010 1.706980 0.000000 
#    z -0.001940 0.000000 1.702780 
# 
# From -- ./inp_files/216628.got.cif
#   From: 2010.05.17/outbox.cif.g08.bks.cpg/sg12_109_cif.got.tgz:216628.got - 2010.06.03 13:09:07.
