data_PCOD9221170
_publ_section_title
;
Structure prediction by ZEFSAII (Michael W. Deem and Ramdas Pophale) SiO2 
 PCOD9221170
Probable space group: C 2/M
;
_chemical_formula_sum "Si O2"
_cell_formula_units_Z 44
_cell_length_a 13.059439
_cell_length_b 13.032813
_cell_length_c 29.271508
_cell_angle_alpha 90.000000
_cell_angle_beta 156.017880
_cell_angle_gamma 90.000000
_cell_volume 2024.960486
_symmetry_space_group_name_H-M "C 2/M"
_symmetry_group_IT_number 12
_symmetry_cell_setting 'monoclinic'
loop_
_space_group_symop_operation_xyz
x,y,z
-x,y,-z
-x,-y,-z
x,-y,z
1/2+x,1/2+y,z
1/2-x,1/2+y,-z
1/2-x,1/2-y,-z
1/2+x,1/2-y,z
loop_
_atom_site_type_symbol
_atom_site_label
_atom_site_fract_x
_atom_site_fract_y
_atom_site_fract_z
Si Si1 0.784597 0.000000 0.728602
Si Si2 0.695156 0.290969 0.402272
Si Si3 0.919291 0.500000 0.045836
Si Si4 0.991899 0.000000 0.715800
Si Si5 0.891527 0.310483 0.200621
Si Si6 0.874553 0.265468 0.356033
Si Si7 0.576900 0.500000 0.107598
Si Si8 0.000000 0.654539 0.000000
O O1 0.657023 0.112894 0.668786
O O2 0.854036 0.000000 0.810236
O O3 0.984708 0.000000 0.768137
O O4 0.654453 0.400429 0.361704
O O5 0.542976 0.210902 0.309030
O O6 0.537857 0.291485 0.385076
O O7 0.972523 0.265280 0.533995
O O8 0.215423 0.500000 0.179640
O O9 0.882438 0.593260 0.994994
O O10 0.727493 0.500000 0.010322
O O11 0.705900 0.404695 0.134473
O O12 0.711067 0.219986 0.111043
O O13 0.117814 0.299385 0.256467
#
# Coordination Sequence:
#
# PCOD9221170 Si02
#       8
#     4   8   4   4   8   8   4   4
#     4  12  21  41  69 102 133 171 231 290 326 417
#     4  11  24  42  69 105 133 183 220 284 342 404
#     4  11  22  43  68 104 129 175 221 291 327 412
#     4  12  23  42  74 105 136 169 238 281 347 389
#     4  12  25  45  67 100 136 184 223 287 338 409
#     4  11  24  43  70  99 143 172 233 275 340 409
#     4  12  28  42  66  97 143 185 231 265 360 402
#     4  11  24  43  74  98 134 171 232 287 344 392
#
# _framework density 21.728819000000001
#
# number of rings (size 3 to 8) (size 9 to 14) (size 15 to 20)
#    0.000    0.545    5.455    3.273    0.000    4.000 
#    0.000    2.727    0.000    0.000    0.000    0.000 
#    0.000    0.000    0.000    0.000    0.000    0.000 
#
# Total GULP energy -122711.124224 kJ/mol
# GULP energy per Si atom -5577.778374 kJ/mol
# Density = 2.167936 g / cm^3
# Si number density = 21.728819 Si / 1000 Ang^3
#
#
#
# Elastic Constant Matrix: (Units=GPa)
#
#
# Indices 1 2 3 4 5 6 
#
# 1 49.7885 28.5831 6.6439 0.0007 22.1553 -0.0027
# 2 28.5831 73.1612 13.9124 0.0020 27.3859 -0.0019
# 3 6.6439 13.9124 84.7769 0.0102 21.9780 -0.0152
# 4 0.0007 0.0020 0.0102 15.4204 -0.0034 -3.4559
# 5 22.1553 27.3859 21.9780 -0.0034 41.2294 0.0028
# 6 -0.0027 -0.0019 -0.0152 -3.4559 0.0028 -1.3908
#
#
#
# Elastic Compliance Matrix: (Units=1/GPa)
#
#
# Indices 1 2 3 4 5 6 
#
# 1 0.029374 -0.007385 0.002008 -0.000016 -0.011950 -0.000053
# 2 -0.007385 0.020050 -0.000334 -0.000007 -0.009172 -0.000011
# 3 0.002008 -0.000334 0.013826 -0.000032 -0.008227 -0.000092
# 4 -0.000016 -0.000007 -0.000032 0.041654 0.000041 -0.103502
# 5 -0.011950 -0.009172 -0.008227 0.000041 0.041154 0.000108
# 6 -0.000053 -0.000011 -0.000092 -0.103502 0.000108 -0.461833
#
#
# Mechanical properties :
#
#
# Convention : Reuss Voigt Hill
#
# Bulk Modulus (GPa) = 19.29449 34.00062 26.64756
# Shear Modulus (GPa) = -17.41688 21.62427 2.10369
#
# Velocity S-wave (km/s) = -2.83425 3.15808 0.98502
# Velocity P-wave (km/s) = 1.34598 5.38328 3.68565
#
# Compressibility (1/GPa) = 0.05182827
#
# Stress axis : x y z
#
# Youngs Moduli (GPa) = 34.04374 49.87461 72.32767
#
# Poissons Ratio (x) = 0.36831 -0.14521
# Poissons Ratio (y) = 0.25141 0.02415
# Poissons Ratio (z) = -0.06835 0.01665
#
# Static dielectric constant tensor:
#      x y z
#    x 1.831610 0.000000 0.043550 
#    y 0.000000 1.790220 0.000000 
#    z 0.043550 0.000000 1.841620 
# 
# From -- ./inp_files/358312.got.cif
#   From: 2010.05.17/outbox.cif.g08.bks.cpg/sg12_180_cif.got.tgz:358312.got - 2010.06.03 13:09:07.
