data_PCOD9221528
_publ_section_title
;
Structure prediction by ZEFSAII (Michael W. Deem and Ramdas Pophale) SiO2 
 PCOD9221528
Probable space group: C 2/M
;
_chemical_formula_sum "Si O2"
_cell_formula_units_Z 60
_cell_length_a 10.562655
_cell_length_b 30.376062
_cell_length_c 9.437934
_cell_angle_alpha 90.000000
_cell_angle_beta 79.900129
_cell_angle_gamma 90.000000
_cell_volume 2981.252763
_symmetry_space_group_name_H-M "C 2/M"
_symmetry_group_IT_number 12
_symmetry_cell_setting 'monoclinic'
loop_
_space_group_symop_operation_xyz
x,y,z
-x,y,-z
-x,-y,-z
x,-y,z
1/2+x,1/2+y,z
1/2-x,1/2+y,-z
1/2-x,1/2-y,-z
1/2+x,1/2-y,z
loop_
_atom_site_type_symbol
_atom_site_label
_atom_site_fract_x
_atom_site_fract_y
_atom_site_fract_z
Si Si1 0.349453 0.050287 0.067726
Si Si2 0.411238 0.321356 0.140453
Si Si3 0.000000 0.343028 0.500000
Si Si4 0.907514 0.180263 0.653363
Si Si5 0.136166 0.917934 0.895758
Si Si6 0.309978 0.109517 0.348486
Si Si7 0.702573 0.229153 0.360325
Si Si8 0.874546 0.052599 0.428949
O O1 0.319907 0.084129 0.199248
O O2 0.327212 0.000000 0.120961
O O3 0.500000 0.054451 0.000000
O O4 0.253615 0.059289 0.955367
O O5 0.511435 0.339834 0.235955
O O6 0.340194 0.365148 0.100858
O O7 0.317552 0.288302 0.240101
O O8 0.500000 0.301460 0.000000
O O9 0.942308 0.372905 0.387150
O O10 0.889956 0.311247 0.583912
O O11 0.782416 0.151737 0.649369
O O12 0.872126 0.230486 0.696888
O O13 0.000000 0.181003 0.500000
O O14 0.121519 0.933200 0.735971
O O15 0.000000 0.926885 0.000000
O O16 0.243447 0.077432 0.474744
O O17 0.750000 0.250000 0.500000
O O18 0.000000 0.064836 0.500000
O O19 0.861734 0.000000 0.438648
#
# Coordination Sequence:
#
# PCOD9221528 Si02
#       8
#     8   8   4   8   8   8   8   8
#     4  11  27  49  69  96 141 191 231 280 354 430
#     4  11  24  41  67  99 133 170 226 291 342 394
#     4  12  24  40  67 104 130 182 237 282 346 418
#     4  12  22  42  69  96 134 178 223 278 346 402
#     4  11  23  44  72 101 136 181 233 283 346 416
#     4  12  25  41  67  99 134 178 228 290 338 412
#     4  12  22  43  68  97 134 181 231 278 340 426
#     4  11  23  40  68 105 138 173 227 290 344 401
#
# _framework density 20.125768000000001
#
# number of rings (size 3 to 8) (size 9 to 14) (size 15 to 20)
#    0.000    0.533    3.333    6.000    3.733    2.667 
#    0.000    1.333    0.000    0.000    0.000    0.000 
#    0.000    0.000    0.000    0.000    0.000    0.000 
#
# Total GULP energy -167791.370286 kJ/mol
# GULP energy per Si atom -5593.045676 kJ/mol
# Density = 2.007996 g / cm^3
# Si number density = 20.125768 Si / 1000 Ang^3
#
#
#
# Elastic Constant Matrix: (Units=GPa)
#
#
# Indices 1 2 3 4 5 6 
#
# 1 108.4433 41.5041 55.3679 0.0000 10.1231 0.0000
# 2 41.5041 95.7642 45.6405 0.0000 0.3943 0.0000
# 3 55.3679 45.6405 133.5672 0.0000 -2.6056 0.0000
# 4 0.0000 0.0000 0.0000 -7.5617 0.0000 24.7266
# 5 10.1231 0.3943 -2.6056 0.0000 29.2605 0.0000
# 6 0.0000 0.0000 0.0000 24.7266 0.0000 26.2689
#
#
#
# Elastic Compliance Matrix: (Units=1/GPa)
#
#
# Indices 1 2 3 4 5 6 
#
# 1 0.013315 -0.003672 -0.004361 0.000000 -0.004945 0.000000
# 2 -0.003672 0.013495 -0.003073 0.000000 0.000815 0.000000
# 3 -0.004361 -0.003073 0.010393 0.000000 0.002476 0.000000
# 4 0.000000 0.000000 0.000000 -0.032429 0.000000 0.030525
# 5 -0.004945 0.000815 0.002476 0.000000 0.036096 0.000000
# 6 0.000000 0.000000 0.000000 0.030525 0.000000 0.009335
#
#
# Mechanical properties :
#
#
# Convention : Reuss Voigt Hill
#
# Bulk Modulus (GPa) = 66.70916 69.19993 67.95454
# Shear Modulus (GPa) = 64.58666 22.61103 43.59884
#
# Velocity S-wave (km/s) = 5.67108 3.35548 4.65942
# Velocity P-wave (km/s) = 8.72351 7.03354 7.92371
#
# Compressibility (1/GPa) = 0.01499045
#
# Stress axis : x y z
#
# Youngs Moduli (GPa) = 75.10244 74.10122 96.21621
#
# Poissons Ratio (x) = 0.27209 0.41963
# Poissons Ratio (y) = 0.27576 0.29570
# Poissons Ratio (z) = 0.32755 0.22774
#
# Static dielectric constant tensor:
#      x y z
#    x 1.732840 0.000000 0.026670 
#    y 0.000000 1.713430 0.000000 
#    z 0.026670 0.000000 1.723120 
# 
# From -- ./inp_files/54685.got.cif
#   From: 2010.05.17/outbox.cif.g08.bks.cpg/sg12_28_cif.got.tgz:54685.got - 2010.06.03 13:09:07.
