data_PCOD9221074
_publ_section_title
;
Structure prediction by ZEFSAII (Michael W. Deem and Ramdas Pophale) SiO2 
 PCOD9221074
Probable space group: C 2/M
;
_chemical_formula_sum "Si O2"
_cell_formula_units_Z 40
_cell_length_a 13.526900
_cell_length_b 31.675301
_cell_length_c 14.496934
_cell_angle_alpha 90.000000
_cell_angle_beta 158.918259
_cell_angle_gamma 90.000000
_cell_volume 2234.266621
_symmetry_space_group_name_H-M "C 2/M"
_symmetry_group_IT_number 12
_symmetry_cell_setting 'monoclinic'
loop_
_space_group_symop_operation_xyz
x,y,z
-x,y,-z
-x,-y,-z
x,-y,z
1/2+x,1/2+y,z
1/2-x,1/2+y,-z
1/2-x,1/2-y,-z
1/2+x,1/2-y,z
loop_
_atom_site_type_symbol
_atom_site_label
_atom_site_fract_x
_atom_site_fract_y
_atom_site_fract_z
Si Si1 0.693946 0.903105 0.999908
Si Si2 0.161634 0.716977 0.500038
Si Si3 0.378998 0.340394 0.999961
Si Si4 0.882360 0.050640 0.500082
Si Si5 0.500000 0.712502 0.500000
Si Si6 0.500000 0.155656 0.000000
O O1 0.801171 0.879907 0.999999
O O2 0.420899 0.930941 0.747976
O O3 0.602289 0.870230 0.999991
O O4 0.924531 0.930984 0.251655
O O5 0.250000 0.750000 0.500000
O O6 0.083924 0.753700 0.500016
O O7 0.899788 0.687247 0.251284
O O8 0.397367 0.687260 0.748852
O O9 0.500000 0.348822 0.000000
O O10 0.000000 0.063176 0.500000
O O11 0.879970 0.000000 0.499903
O O12 0.252364 0.683676 0.252362
#
# Coordination Sequence:
#
# PCOD9221074 Si02
#       6
#     8   8   8   8   4   4
#     4  12  23  40  64  94 131 158 207 253 306 383
#     4  12  23  41  60  83 116 164 218 267 309 352
#     4  12  24  43  62  88 124 169 215 255 307 370
#     4  11  22  41  67  98 130 158 191 250 321 388
#     4  12  22  36  56  80 119 154 205 258 302 350
#     4  12  22  36  55  94 120 158 198 264 309 344
#
# _framework density 17.902965999999999
#
# number of rings (size 3 to 8) (size 9 to 14) (size 15 to 20)
#    0.000    0.200    4.000    7.200    0.000    1.600 
#    0.000    0.000    0.000    3.600    0.000    0.000 
#    0.000    0.000    0.000    0.000    0.000    0.000 
#
# Total GULP energy -111479.439356 kJ/mol
# GULP energy per Si atom -5573.971968 kJ/mol
# Density = 1.786222 g / cm^3
# Si number density = 17.902966 Si / 1000 Ang^3
#
#
#
# Elastic Constant Matrix: (Units=GPa)
#
#
# Indices 1 2 3 4 5 6 
#
# 1 181.6198 70.2731 51.6886 0.0000 -8.0112 0.0000
# 2 70.2731 117.4553 81.0425 0.0001 1.0102 0.0000
# 3 51.6886 81.0425 201.0835 -0.0015 9.8608 -0.0002
# 4 0.0000 0.0001 -0.0015 57.2835 -0.0001 0.6150
# 5 -8.0112 1.0102 9.8608 -0.0001 18.0137 0.0000
# 6 0.0000 0.0000 -0.0002 0.6150 0.0000 49.4264
#
#
#
# Elastic Compliance Matrix: (Units=1/GPa)
#
#
# Indices 1 2 3 4 5 6 
#
# 1 0.007405 -0.004187 -0.000400 0.000000 0.003747 0.000000
# 2 -0.004187 0.014231 -0.004654 0.000000 -0.000113 0.000000
# 3 -0.000400 -0.004654 0.007139 0.000000 -0.003825 0.000000
# 4 0.000000 0.000000 0.000000 0.017459 0.000000 -0.000217
# 5 0.003747 -0.000113 -0.003825 0.000000 0.059280 0.000000
# 6 0.000000 0.000000 0.000000 -0.000217 0.000000 0.020235
#
#
# Mechanical properties :
#
#
# Convention : Reuss Voigt Hill
#
# Bulk Modulus (GPa) = 97.14189 100.68522 98.91355
# Shear Modulus (GPa) = 33.86149 44.75501 39.30825
#
# Velocity S-wave (km/s) = 4.35373 5.00529 4.69084
# Velocity P-wave (km/s) = 8.92476 9.47446 9.20371
#
# Compressibility (1/GPa) = 0.01029422
#
# Stress axis : x y z
#
# Youngs Moduli (GPa) = 135.04338 70.27041 140.07654
#
# Poissons Ratio (x) = 0.29421 0.05601
# Poissons Ratio (y) = 0.56539 0.65187
# Poissons Ratio (z) = 0.05399 0.32702
#
# Static dielectric constant tensor:
#      x y z
#    x 1.604030 0.000000 -0.000020 
#    y 0.000000 1.581120 0.000000 
#    z -0.000020 0.000000 1.603990 
# 
# From -- ./inp_files/219202.got.cif
#   From: 2010.05.17/outbox.cif.g08.bks.cpg/sg12_110_cif.got.tgz:219202.got - 2010.06.03 13:09:07.
