data_PCOD9221526
_publ_section_title
;
Structure prediction by ZEFSAII (Michael W. Deem and Ramdas Pophale) SiO2 
 PCOD9221526
Probable space group: C 2/M
;
_chemical_formula_sum "Si O2"
_cell_formula_units_Z 38
_cell_length_a 12.439387
_cell_length_b 21.899486
_cell_length_c 6.626768
_cell_angle_alpha 90.000000
_cell_angle_beta 84.249663
_cell_angle_gamma 90.000000
_cell_volume 1796.154744
_symmetry_space_group_name_H-M "C 2/M"
_symmetry_group_IT_number 12
_symmetry_cell_setting 'monoclinic'
loop_
_space_group_symop_operation_xyz
x,y,z
-x,y,-z
-x,-y,-z
x,-y,z
1/2+x,1/2+y,z
1/2-x,1/2+y,-z
1/2-x,1/2-y,-z
1/2+x,1/2-y,z
loop_
_atom_site_type_symbol
_atom_site_label
_atom_site_fract_x
_atom_site_fract_y
_atom_site_fract_z
Si Si1 0.217482 0.069518 0.072311
Si Si2 0.500000 0.000000 0.000000
Si Si3 0.626278 0.934331 0.315665
Si Si4 0.187049 0.339589 0.620623
Si Si5 0.500000 0.375706 0.000000
Si Si6 0.902429 0.790212 0.359765
O O1 0.277077 0.117261 0.203621
O O2 0.090740 0.083570 0.091513
O O3 0.242413 0.000000 0.132688
O O4 0.265438 0.074060 0.838070
O O5 0.537396 0.052631 0.160038
O O6 0.620724 0.879537 0.471532
O O7 0.633923 0.000000 0.426267
O O8 0.125327 0.278832 0.699993
O O9 0.296639 0.317299 0.488732
O O10 0.561596 0.332424 0.831169
O O11 0.000000 0.788532 0.500000
#
# Coordination Sequence:
#
# PCOD9221526 Si02
#       6
#     8   2   8   8   4   8
#     4  11  23  40  68 102 132 176 219 278 347 394
#     4   8  20  40  68  94 140 166 216 258 350 402
#     4   9  20  41  64  98 135 167 214 273 330 404
#     4  11  23  42  69  95 134 175 225 278 325 404
#     4  12  23  44  67  96 144 172 228 282 330 414
#     4  11  25  43  64  97 131 181 228 272 337 393
#
# _framework density 21.156305
#
# number of rings (size 3 to 8) (size 9 to 14) (size 15 to 20)
#    0.632    0.842    4.211    0.947    0.000    4.211 
#    0.000    2.105    0.000    0.000    0.000    0.000 
#    0.000    0.000    0.000    0.000    0.000    0.000 
#
# Total GULP energy -105906.182083 kJ/mol
# GULP energy per Si atom -5574.009583 kJ/mol
# Density = 2.110815 g / cm^3
# Si number density = 21.156305 Si / 1000 Ang^3
#
#
#
# Elastic Constant Matrix: (Units=GPa)
#
#
# Indices 1 2 3 4 5 6 
#
# 1 74.9873 12.9387 16.2918 0.0000 7.8256 0.0000
# 2 12.9387 107.0223 24.7011 0.0000 3.9103 0.0000
# 3 16.2918 24.7011 28.4400 0.0000 -1.0262 0.0000
# 4 0.0000 0.0000 0.0000 29.0618 0.0000 49.2062
# 5 7.8256 3.9103 -1.0262 0.0000 38.1365 0.0000
# 6 0.0000 0.0000 0.0000 49.2062 0.0000 -195.1799
#
#
#
# Elastic Compliance Matrix: (Units=1/GPa)
#
#
# Indices 1 2 3 4 5 6 
#
# 1 0.015690 0.000419 -0.009479 0.000000 -0.003518 0.000000
# 2 0.000419 0.011781 -0.010529 0.000000 -0.001577 0.000000
# 3 -0.009479 -0.010529 0.049895 0.000000 0.004367 0.000000
# 4 0.000000 0.000000 0.000000 0.024116 0.000000 0.006080
# 5 -0.003518 -0.001577 0.004367 0.000000 0.027223 0.000000
# 6 0.000000 0.000000 0.000000 0.006080 0.000000 -0.003591
#
#
# Mechanical properties :
#
#
# Convention : Reuss Voigt Hill
#
# Bulk Modulus (GPa) = 26.18674 35.36808 30.77741
# Shear Modulus (GPa) = 28.24539 -15.16179 6.54180
#
# Velocity S-wave (km/s) = 3.65784 -2.67995 1.76035
# Velocity P-wave (km/s) = 5.49949 2.67911 4.32562
#
# Compressibility (1/GPa) = 0.03818726
#
# Stress axis : x y z
#
# Youngs Moduli (GPa) = 63.73589 84.88245 20.04224
#
# Poissons Ratio (x) = -0.03561 0.18998
# Poissons Ratio (y) = -0.02674 0.21103
# Poissons Ratio (z) = 0.60416 0.89376
#
# Static dielectric constant tensor:
#      x y z
#    x 1.807040 0.000000 -0.037200 
#    y 0.000000 1.743990 0.000000 
#    z -0.037200 0.000000 1.727980 
# 
# From -- ./inp_files/11356.got.cif
#   From: 2010.05.17/outbox.cif.g08.bks.cpg/sg12_6_cif.got.tgz:11356.got - 2010.06.03 13:09:07.
