data_PCOD9221138
_publ_section_title
;
Structure prediction by ZEFSAII (Michael W. Deem and Ramdas Pophale) SiO2 
 PCOD9221138
Probable space group: C 2/M
;
_chemical_formula_sum "Si O2"
_cell_formula_units_Z 50
_cell_length_a 18.411026
_cell_length_b 17.411506
_cell_length_c 8.373643
_cell_angle_alpha 90.000000
_cell_angle_beta 123.628340
_cell_angle_gamma 90.000000
_cell_volume 2235.063717
_symmetry_space_group_name_H-M "C 2/M"
_symmetry_group_IT_number 12
_symmetry_cell_setting 'monoclinic'
loop_
_space_group_symop_operation_xyz
x,y,z
-x,y,-z
-x,-y,-z
x,-y,z
1/2+x,1/2+y,z
1/2-x,1/2+y,-z
1/2-x,1/2-y,-z
1/2+x,1/2-y,z
loop_
_atom_site_type_symbol
_atom_site_label
_atom_site_fract_x
_atom_site_fract_y
_atom_site_fract_z
Si Si1 0.208359 0.409283 0.730534
Si Si2 0.882328 0.859706 0.810149
Si Si3 0.587840 0.810983 0.026232
Si Si4 0.592788 0.779055 0.667696
Si Si5 0.000000 0.000000 0.000000
Si Si6 0.425507 0.581651 0.540706
Si Si7 0.270871 0.362148 0.164137
O O1 0.190963 0.500000 0.699436
O O2 0.281280 0.382155 0.694150
O O3 0.126406 0.352476 0.610249
O O4 0.247061 0.388871 0.955613
O O5 0.899122 0.777299 0.904914
O O6 0.929150 0.930110 0.956747
O O7 0.917313 0.857786 0.671301
O O8 0.681989 0.851381 0.155882
O O9 0.500000 0.842130 0.000000
O O10 0.574968 0.808977 0.822292
O O11 0.500000 0.747069 0.500000
O O12 0.671025 0.716524 0.770449
O O13 0.500000 0.586558 0.500000
O O14 0.439392 0.500000 0.650425
O O15 0.336240 0.582136 0.335041
#
# Coordination Sequence:
#
# PCOD9221138 Si02
#       7
#     8   8   8   8   2   8   8
#     4  11  22  42  69  91 128 174 211 261 322 381
#     4  12  23  38  61  92 126 165 210 253 315 383
#     4  11  24  41  63  91 126 168 212 259 318 376
#     4  11  24  42  64  98 130 164 218 267 313 380
#     4  12  24  32  62  96 126 156 208 260 310 390
#     4  11  26  40  59  97 136 169 206 259 325 385
#     4  11  23  42  63  94 130 166 213 266 320 379
#
# _framework density 22.370726999999999
#
# number of rings (size 3 to 8) (size 9 to 14) (size 15 to 20)
#    0.000    0.800    5.600    1.920    6.720    2.240 
#    0.000    0.000    0.000   12.000    0.000    0.000 
#    0.000    0.000    0.000    0.000    0.000    0.000 
#
# Total GULP energy -139507.054620 kJ/mol
# GULP energy per Si atom -5580.282185 kJ/mol
# Density = 2.231981 g / cm^3
# Si number density = 22.370727 Si / 1000 Ang^3
#
#
#
# Elastic Constant Matrix: (Units=GPa)
#
#
# Indices 1 2 3 4 5 6 
#
# 1 184.2187 36.3600 17.5626 0.0000 15.8732 0.0000
# 2 36.3600 74.6798 -4.6487 0.0000 10.8139 0.0000
# 3 17.5626 -4.6487 28.4015 0.0000 20.2147 0.0000
# 4 0.0000 0.0000 0.0000 8.8773 0.0000 -11.7708
# 5 15.8732 10.8139 20.2147 0.0000 32.1349 0.0000
# 6 0.0000 0.0000 0.0000 -11.7708 0.0000 41.2470
#
#
#
# Elastic Compliance Matrix: (Units=1/GPa)
#
#
# Indices 1 2 3 4 5 6 
#
# 1 0.006605 -0.003851 -0.006003 0.000000 0.001809 0.000000
# 2 -0.003851 0.018200 0.015147 0.000000 -0.013751 0.000000
# 3 -0.006003 0.015147 0.077712 0.000000 -0.051018 0.000000
# 4 0.000000 0.000000 0.000000 0.181218 0.000000 0.051715
# 5 0.001809 -0.013751 -0.051018 0.000000 0.066945 0.000000
# 6 0.000000 0.000000 0.000000 0.051715 0.000000 0.039002
#
#
# Mechanical properties :
#
#
# Convention : Reuss Voigt Hill
#
# Bulk Modulus (GPa) = 8.84143 42.87196 25.85670
# Shear Modulus (GPa) = 11.99626 32.32025 22.15826
#
# Velocity S-wave (km/s) = 2.31822 3.80512 3.15064
# Velocity P-wave (km/s) = 3.33561 6.20574 4.98184
#
# Compressibility (1/GPa) = 0.11310387
#
# Stress axis : x y z
#
# Youngs Moduli (GPa) = 151.40415 54.94590 12.86799
#
# Poissons Ratio (x) = 0.21162 0.07724
# Poissons Ratio (y) = 0.58312 -0.19492
# Poissons Ratio (z) = 0.90880 -0.83229
#
# Static dielectric constant tensor:
#      x y z
#    x 1.850400 0.000000 0.084210 
#    y 0.000000 1.854590 0.000000 
#    z 0.084210 0.000000 1.738460 
# 
# From -- ./inp_files/76075.got.cif
#   From: 2010.05.17/outbox.cif.g08.bks.cpg/sg12_39_cif.got.tgz:76075.got - 2010.06.03 13:09:07.
