data_PCOD9221148
_publ_section_title
;
Structure prediction by ZEFSAII (Michael W. Deem and Ramdas Pophale) SiO2 
 PCOD9221148
Probable space group: C 2/M
;
_chemical_formula_sum "Si O2"
_cell_formula_units_Z 64
_cell_length_a 17.174274
_cell_length_b 29.630297
_cell_length_c 8.331852
_cell_angle_alpha 90.000000
_cell_angle_beta 134.144172
_cell_angle_gamma 90.000000
_cell_volume 3042.510308
_symmetry_space_group_name_H-M "C 2/M"
_symmetry_group_IT_number 12
_symmetry_cell_setting 'monoclinic'
loop_
_space_group_symop_operation_xyz
x,y,z
-x,y,-z
-x,-y,-z
x,-y,z
1/2+x,1/2+y,z
1/2-x,1/2+y,-z
1/2-x,1/2-y,-z
1/2+x,1/2-y,z
loop_
_atom_site_type_symbol
_atom_site_label
_atom_site_fract_x
_atom_site_fract_y
_atom_site_fract_z
Si Si1 0.988949 0.447727 0.288191
Si Si2 0.086043 0.877906 0.266051
Si Si3 0.385924 0.549369 0.422641
Si Si4 0.271023 0.203628 0.937454
Si Si5 0.176327 0.385351 0.534299
Si Si6 0.075080 0.211490 0.445543
Si Si7 0.275769 0.895839 0.028984
Si Si8 0.519036 0.194909 0.215557
O O1 0.969053 0.500000 0.212221
O O2 0.890843 0.412295 0.118181
O O3 0.000000 0.448108 0.500000
O O4 0.097719 0.426457 0.366253
O O5 0.093212 0.920261 0.393465
O O6 0.211137 0.873112 0.389108
O O7 0.049237 0.834017 0.313331
O O8 0.000000 0.884528 0.000000
O O9 0.500000 0.545212 0.500000
O O10 0.343089 0.500000 0.404771
O O11 0.308398 0.573076 0.183458
O O12 0.201294 0.209066 0.676908
O O13 0.250000 0.250000 0.000000
O O14 0.233869 0.155453 0.951185
O O15 0.398608 0.195660 0.113613
O O16 0.209845 0.400288 0.760931
O O17 0.098272 0.341488 0.411051
O O18 0.060733 0.254913 0.313198
O O19 0.000000 0.215334 0.500000
O O20 0.500000 0.185882 0.000000
#
# Coordination Sequence:
#
# PCOD9221148 Si02
#       8
#     8   8   8   8   8   8   8   8
#     4   9  19  38  67 101 134 174 224 280 343 414
#     4  12  27  45  69 103 141 183 230 290 358 427
#     4  11  25  46  72 101 138 186 237 292 351 420
#     4  12  24  40  71 101 134 182 233 287 344 409
#     4  11  25  42  70 101 142 182 228 293 358 414
#     4  12  26  44  69  97 135 185 242 288 345 419
#     4  11  22  42  71 100 137 178 236 290 340 419
#     4  12  27  45  67 101 147 185 232 288 358 421
#
# _framework density 21.035260999999998
#
# number of rings (size 3 to 8) (size 9 to 14) (size 15 to 20)
#    0.000    0.750    3.750    3.375    1.750    5.250 
#    0.000    0.000    0.000    1.875    0.000    0.000 
#    0.000    0.000    0.000    0.000    0.000    0.000 
#
# Total GULP energy -178639.138292 kJ/mol
# GULP energy per Si atom -5582.473072 kJ/mol
# Density = 2.098738 g / cm^3
# Si number density = 21.035261 Si / 1000 Ang^3
#
#
#
# Elastic Constant Matrix: (Units=GPa)
#
#
# Indices 1 2 3 4 5 6 
#
# 1 55.4823 21.2132 31.6458 0.0000 17.5128 0.0000
# 2 21.2132 162.2023 57.4271 0.0000 -3.8252 0.0000
# 3 31.6458 57.4271 135.8751 0.0000 3.7882 0.0000
# 4 0.0000 0.0000 0.0000 33.7333 0.0000 13.5359
# 5 17.5128 -3.8252 3.7882 0.0000 34.2515 0.0000
# 6 0.0000 0.0000 0.0000 13.5359 0.0000 12.9951
#
#
#
# Elastic Compliance Matrix: (Units=1/GPa)
#
#
# Indices 1 2 3 4 5 6 
#
# 1 0.025503 -0.001950 -0.004761 0.000000 -0.012731 0.000000
# 2 -0.001950 0.007445 -0.002752 0.000000 0.002133 0.000000
# 3 -0.004761 -0.002752 0.009602 0.000000 0.001065 0.000000
# 4 0.000000 0.000000 0.000000 0.050932 0.000000 -0.053051
# 5 -0.012731 0.002133 0.001065 0.000000 0.035826 0.000000
# 6 0.000000 0.000000 0.000000 -0.053051 0.000000 0.132211
#
#
# Mechanical properties :
#
#
# Convention : Reuss Voigt Hill
#
# Bulk Modulus (GPa) = 42.32845 63.79242 53.06044
# Shear Modulus (GPa) = 17.34198 32.41422 24.87810
#
# Velocity S-wave (km/s) = 2.87439 3.92975 3.44275
# Velocity P-wave (km/s) = 5.58413 7.14023 6.40958
#
# Compressibility (1/GPa) = 0.02362477
#
# Stress axis : x y z
#
# Youngs Moduli (GPa) = 39.21061 134.32314 104.14715
#
# Poissons Ratio (x) = 0.26195 0.49581
# Poissons Ratio (y) = 0.07647 0.28659
# Poissons Ratio (z) = 0.18667 0.36962
#
# Static dielectric constant tensor:
#      x y z
#    x 1.805570 0.000000 0.038290 
#    y 0.000000 1.813300 0.000000 
#    z 0.038290 0.000000 1.672530 
# 
# From -- ./inp_files/80792.got.cif
#   From: 2010.05.17/outbox.cif.g08.bks.cpg/sg12_41_cif.got.tgz:80792.got - 2010.06.03 13:09:07.
