data_PCOD9221542
_publ_section_title
;
Structure prediction by ZEFSAII (Michael W. Deem and Ramdas Pophale) SiO2 
 PCOD9221542
Probable space group: C 2/M
;
_chemical_formula_sum "Si O2"
_cell_formula_units_Z 48
_cell_length_a 9.317496
_cell_length_b 30.570285
_cell_length_c 17.783811
_cell_angle_alpha 90.000000
_cell_angle_beta 31.036730
_cell_angle_gamma 90.000000
_cell_volume 2611.715619
_symmetry_space_group_name_H-M "C 2/M"
_symmetry_group_IT_number 12
_symmetry_cell_setting 'monoclinic'
loop_
_space_group_symop_operation_xyz
x,y,z
-x,y,-z
-x,-y,-z
x,-y,z
1/2+x,1/2+y,z
1/2-x,1/2+y,-z
1/2-x,1/2-y,-z
1/2+x,1/2-y,z
loop_
_atom_site_type_symbol
_atom_site_label
_atom_site_fract_x
_atom_site_fract_y
_atom_site_fract_z
Si Si1 0.876844 0.405140 0.910479
Si Si2 0.855630 0.500000 0.923182
Si Si3 0.197325 0.327634 0.848051
Si Si4 0.054683 0.764689 0.390490
Si Si5 0.270132 0.168579 0.666945
Si Si6 0.787373 0.500000 0.771426
Si Si7 0.702313 0.904275 0.227120
O O1 0.985583 0.453386 0.884650
O O2 0.917953 0.398903 0.802612
O O3 0.021594 0.367277 0.892014
O O4 0.540697 0.405628 0.070027
O O5 0.821987 0.500000 0.847063
O O6 0.542623 0.500000 0.095709
O O7 0.305328 0.297264 0.731602
O O8 0.471482 0.344195 0.768108
O O9 0.000000 0.305515 0.000000
O O10 0.235200 0.720150 0.311957
O O11 0.000000 0.781662 0.500000
O O12 0.750000 0.750000 0.500000
O O13 0.500000 0.164041 0.500000
O O14 0.359662 0.137386 0.694381
O O15 0.893073 0.452100 0.699371
#
# Coordination Sequence:
#
# PCOD9221542 Si02
#       7
#     8   4   8   8   8   4   8
#     4   9  18  32  59  86 120 149 193 242 287 344
#     4   7  12  28  50  84 114 154 187 228 288 344
#     4  12  24  40  60  94 123 146 194 258 295 335
#     4  11  24  46  64  82 115 164 199 230 295 372
#     4  11  23  41  59  81 119 157 192 240 295 361
#     4   7  12  26  54  79 118 149 192 234 274 347
#     4   9  17  34  56  89 114 156 195 234 289 344
#
# _framework density 18.378723000000001
#
# number of rings (size 3 to 8) (size 9 to 14) (size 15 to 20)
#    0.000    2.167    5.000    2.000    2.333    0.667 
#    3.000    1.667    0.000    0.000    0.000    4.083 
#    0.000    0.000    0.000    0.000    0.000    0.000 
#
# Total GULP energy -133673.944923 kJ/mol
# GULP energy per Si atom -5569.747705 kJ/mol
# Density = 1.833689 g / cm^3
# Si number density = 18.378723 Si / 1000 Ang^3
#
#
#
# Elastic Constant Matrix: (Units=GPa)
#
#
# Indices 1 2 3 4 5 6 
#
# 1 63.3985 28.7273 24.5875 0.0000 4.5273 0.0000
# 2 28.7273 98.1004 30.3791 0.0000 23.4277 0.0000
# 3 24.5875 30.3791 59.3936 0.0000 11.4868 0.0000
# 4 0.0000 0.0000 0.0000 -11.0681 0.0000 5.1761
# 5 4.5273 23.4277 11.4868 0.0000 33.8853 0.0000
# 6 0.0000 0.0000 0.0000 5.1761 0.0000 21.0399
#
#
#
# Elastic Compliance Matrix: (Units=1/GPa)
#
#
# Indices 1 2 3 4 5 6 
#
# 1 0.020169 -0.004508 -0.006555 0.000000 0.002644 0.000000
# 2 -0.004508 0.014738 -0.004086 0.000000 -0.008202 0.000000
# 3 -0.006555 -0.004086 0.022393 0.000000 -0.003890 0.000000
# 4 0.000000 0.000000 0.000000 -0.081027 0.000000 0.019934
# 5 0.002644 -0.008202 -0.003890 0.000000 0.036148 0.000000
# 6 0.000000 0.000000 0.000000 0.019934 0.000000 0.042625
#
#
# Mechanical properties :
#
#
# Convention : Reuss Voigt Hill
#
# Bulk Modulus (GPa) = 37.03405 43.14224 40.08815
# Shear Modulus (GPa) = 52.99805 17.91799 35.45802
#
# Velocity S-wave (km/s) = 5.37580 3.12578 4.39714
# Velocity P-wave (km/s) = 7.66333 6.04585 6.90213
#
# Compressibility (1/GPa) = 0.02700217
#
# Stress axis : x y z
#
# Youngs Moduli (GPa) = 49.58032 67.85337 44.65723
#
# Poissons Ratio (x) = 0.30586 0.29274
# Poissons Ratio (y) = 0.22349 0.18246
# Poissons Ratio (z) = 0.32502 0.27723
#
# Static dielectric constant tensor:
#      x y z
#    x 1.655420 0.000000 0.010430 
#    y 0.000000 1.688300 0.000000 
#    z 0.010430 0.000000 1.633640 
# 
# From -- ./inp_files/260247.got.cif
#   From: 2010.05.17/outbox.cif.g08.bks.cpg/sg12_131_cif.got.tgz:260247.got - 2010.06.03 13:09:07.
