data_PCOD9221859
_publ_section_title
;
Structure prediction by ZEFSAII (Michael W. Deem and Ramdas Pophale) SiO2 
 PCOD9221859
Probable space group: C 2/M
;
_chemical_formula_sum "Si O2"
_cell_formula_units_Z 32
_cell_length_a 13.598866
_cell_length_b 11.428462
_cell_length_c 9.967263
_cell_angle_alpha 90.000000
_cell_angle_beta 88.647994
_cell_angle_gamma 90.000000
_cell_volume 1548.622192
_symmetry_space_group_name_H-M "C 2/M"
_symmetry_group_IT_number 12
_symmetry_cell_setting 'monoclinic'
loop_
_space_group_symop_operation_xyz
x,y,z
-x,y,-z
-x,-y,-z
x,-y,z
1/2+x,1/2+y,z
1/2-x,1/2+y,-z
1/2-x,1/2-y,-z
1/2+x,1/2-y,z
loop_
_atom_site_type_symbol
_atom_site_label
_atom_site_fract_x
_atom_site_fract_y
_atom_site_fract_z
Si Si1 0.628735 0.261602 0.872256
Si Si2 0.589043 0.638271 0.156735
Si Si3 0.288870 0.220997 0.646942
Si Si4 0.923050 0.500000 0.123014
Si Si5 0.067850 0.500000 0.368635
O O1 0.516459 0.296558 0.838468
O O2 0.701008 0.305846 0.754262
O O3 0.636188 0.120791 0.879201
O O4 0.642618 0.315880 0.019661
O O5 0.573786 0.500000 0.147541
O O6 0.650995 0.673800 0.284867
O O7 0.250000 0.250000 0.500000
O O8 0.362787 0.112637 0.637772
O O9 0.991340 0.500000 0.250417
O O10 0.000000 0.500000 0.000000
O O11 0.000000 0.500000 0.500000
#
# Coordination Sequence:
#
# PCOD9221859 Si02
#       5
#     8   8   8   4   4
#     4  11  23  45  69 104 135 181 232 282 343 401
#     4  11  25  45  69  99 142 178 225 287 342 406
#     4  12  28  44  70 102 137 183 228 281 345 410
#     4  12  20  42  74  99 134 177 231 284 333 393
#     4  12  26  48  70  97 137 179 230 283 339 414
#
# _framework density 20.663529
#
# number of rings (size 3 to 8) (size 9 to 14) (size 15 to 20)
#    0.000    0.500    5.000    3.750    7.000    0.000 
#    0.000    1.250    0.000    0.000    0.000    0.000 
#    0.000    0.000    0.000    0.000    0.000    0.000 
#
# Total GULP energy -89563.656216 kJ/mol
# GULP energy per Si atom -5597.728513 kJ/mol
# Density = 2.061650 g / cm^3
# Si number density = 20.663529 Si / 1000 Ang^3
#
#
#
# Elastic Constant Matrix: (Units=GPa)
#
#
# Indices 1 2 3 4 5 6 
#
# 1 94.5912 35.8494 56.3318 0.0000 -22.1818 0.0000
# 2 35.8494 150.7608 37.4095 0.0000 -6.5080 0.0000
# 3 56.3318 37.4095 161.7337 0.0000 -3.7479 0.0000
# 4 0.0000 0.0000 0.0000 21.7050 0.0000 -4.4620
# 5 -22.1818 -6.5080 -3.7479 0.0000 60.5205 0.0000
# 6 0.0000 0.0000 0.0000 -4.4620 0.0000 28.8385
#
#
#
# Elastic Compliance Matrix: (Units=1/GPa)
#
#
# Indices 1 2 3 4 5 6 
#
# 1 0.015460 -0.002279 -0.004739 0.000000 0.005128 0.000000
# 2 -0.002279 0.007399 -0.000920 0.000000 -0.000097 0.000000
# 3 -0.004739 -0.000920 0.008015 0.000000 -0.001339 0.000000
# 4 0.000000 0.000000 0.000000 0.047586 0.000000 0.007363
# 5 0.005128 -0.000097 -0.001339 0.000000 0.018309 0.000000
# 6 0.000000 0.000000 0.000000 0.007363 0.000000 0.035815
#
#
# Mechanical properties :
#
#
# Convention : Reuss Voigt Hill
#
# Bulk Modulus (GPa) = 66.67091 74.02967 70.35029
# Shear Modulus (GPa) = 32.58183 40.71247 36.64715
#
# Velocity S-wave (km/s) = 3.97518 4.44357 4.21588
# Velocity P-wave (km/s) = 7.30783 7.88867 7.60380
#
# Compressibility (1/GPa) = 0.01499905
#
# Stress axis : x y z
#
# Youngs Moduli (GPa) = 64.68259 135.15272 124.76219
#
# Poissons Ratio (x) = 0.30802 0.59122
# Poissons Ratio (y) = 0.14741 0.11477
# Poissons Ratio (z) = 0.30652 0.12432
#
# Static dielectric constant tensor:
#      x y z
#    x 1.755950 0.000000 0.012260 
#    y 0.000000 1.724190 0.000000 
#    z 0.012260 0.000000 1.695430 
# 
# From -- ./inp_files/56520.got.cif
#   From: 2010.05.17/outbox.cif.g08.bks.cpg/sg12_29_cif.got.tgz:56520.got - 2010.06.03 13:09:07.
