data_PCOD9221733
_publ_section_title
;
Structure prediction by ZEFSAII (Michael W. Deem and Ramdas Pophale) SiO2 
 PCOD9221733
Probable space group: C 2/M
;
_chemical_formula_sum "Si O2"
_cell_formula_units_Z 38
_cell_length_a 8.977802
_cell_length_b 22.763781
_cell_length_c 9.287222
_cell_angle_alpha 90.000000
_cell_angle_beta 78.233928
_cell_angle_gamma 90.000000
_cell_volume 1858.137102
_symmetry_space_group_name_H-M "C 2/M"
_symmetry_group_IT_number 12
_symmetry_cell_setting 'monoclinic'
loop_
_space_group_symop_operation_xyz
x,y,z
-x,y,-z
-x,-y,-z
x,-y,z
1/2+x,1/2+y,z
1/2-x,1/2+y,-z
1/2-x,1/2-y,-z
1/2+x,1/2-y,z
loop_
_atom_site_type_symbol
_atom_site_label
_atom_site_fract_x
_atom_site_fract_y
_atom_site_fract_z
Si Si1 0.731905 0.788970 0.357513
Si Si2 0.000000 0.000000 0.000000
Si Si3 0.006761 0.432251 0.801181
Si Si4 0.736692 0.604648 0.030761
Si Si5 0.000000 0.613149 0.500000
Si Si6 0.951839 0.779518 0.856269
O O1 0.750000 0.750000 0.500000
O O2 0.639468 0.845127 0.429309
O O3 0.637609 0.757841 0.246451
O O4 0.896551 0.800452 0.256184
O O5 0.880867 0.948051 0.969475
O O6 0.977580 0.500000 0.844194
O O7 0.151174 0.408684 0.858726
O O8 0.038896 0.425629 0.628427
O O9 0.856183 0.396227 0.875258
O O10 0.650144 0.665352 0.074541
O O11 0.000000 0.749233 0.000000
#
# Coordination Sequence:
#
# PCOD9221733 Si02
#       6
#     8   2   8   8   4   8
#     4  12  25  47  65  94 141 185 225 276 343 404
#     4  12  20  42  68 102 132 166 214 280 344 390
#     4  11  23  45  69 101 133 176 223 279 335 409
#     4  11  23  42  73  99 134 169 223 280 344 394
#     4  12  25  42  70  94 136 187 224 272 338 408
#     4  12  25  43  68 102 130 179 233 286 330 404
#
# _framework density 20.450589999999998
#
# number of rings (size 3 to 8) (size 9 to 14) (size 15 to 20)
#    0.000    0.421    5.263    4.105    0.000    0.000 
#    0.000    0.000    0.000    2.526    0.000    0.000 
#    0.000    0.000    0.000    0.000    0.000    0.000 
#
# Total GULP energy -106005.909051 kJ/mol
# GULP energy per Si atom -5579.258371 kJ/mol
# Density = 2.040404 g / cm^3
# Si number density = 20.450590 Si / 1000 Ang^3
#
#
#
# Elastic Constant Matrix: (Units=GPa)
#
#
# Indices 1 2 3 4 5 6 
#
# 1 111.9013 38.2322 49.7105 0.0000 -21.3001 0.0000
# 2 38.2322 68.8501 40.8483 0.0000 2.7645 0.0000
# 3 49.7105 40.8483 165.5773 0.0000 9.8440 0.0000
# 4 0.0000 0.0000 0.0000 26.7381 0.0000 3.6807
# 5 -21.3001 2.7645 9.8440 0.0000 30.9253 0.0000
# 6 0.0000 0.0000 0.0000 3.6807 0.0000 24.7302
#
#
#
# Elastic Compliance Matrix: (Units=1/GPa)
#
#
# Indices 1 2 3 4 5 6 
#
# 1 0.015181 -0.006777 -0.003612 0.000000 0.012211 0.000000
# 2 -0.006777 0.020042 -0.002574 0.000000 -0.005640 0.000000
# 3 -0.003612 -0.002574 0.008045 0.000000 -0.004818 0.000000
# 4 0.000000 0.000000 0.000000 0.038182 0.000000 -0.005683
# 5 0.012211 -0.005640 -0.004818 0.000000 0.042785 0.000000
# 6 0.000000 0.000000 0.000000 -0.005683 0.000000 0.041282
#
#
# Mechanical properties :
#
#
# Convention : Reuss Voigt Hill
#
# Bulk Modulus (GPa) = 57.66651 67.10119 62.38385
# Shear Modulus (GPa) = 25.35191 30.98123 28.16657
#
# Velocity S-wave (km/s) = 3.52471 3.89643 3.71522
# Velocity P-wave (km/s) = 6.69507 7.28873 6.99820
#
# Compressibility (1/GPa) = 0.01734109
#
# Stress axis : x y z
#
# Youngs Moduli (GPa) = 65.87226 49.89646 124.29568
#
# Poissons Ratio (x) = 0.33817 0.44892
# Poissons Ratio (y) = 0.44644 0.31996
# Poissons Ratio (z) = 0.23791 0.12844
#
# Static dielectric constant tensor:
#      x y z
#    x 1.725570 0.000000 0.022290 
#    y 0.000000 1.714320 0.000000 
#    z 0.022290 0.000000 1.759810 
# 
# From -- ./inp_files/39261.got.cif
#   From: 2010.05.17/outbox.cif.g08.bks.cpg/sg12_20_cif.got.tgz:39261.got - 2010.06.03 13:09:07.
