data_PCOD9221906
_publ_section_title
;
Structure prediction by ZEFSAII (Michael W. Deem and Ramdas Pophale) SiO2 
 PCOD9221906
Probable space group: C 2/M
;
_chemical_formula_sum "Si O2"
_cell_formula_units_Z 48
_cell_length_a 24.647953
_cell_length_b 7.710249
_cell_length_c 12.403827
_cell_angle_alpha 90.000000
_cell_angle_beta 90.401393
_cell_angle_gamma 90.000000
_cell_volume 2357.188447
_symmetry_space_group_name_H-M "C 2/M"
_symmetry_group_IT_number 12
_symmetry_cell_setting 'monoclinic'
loop_
_space_group_symop_operation_xyz
x,y,z
-x,y,-z
-x,-y,-z
x,-y,z
1/2+x,1/2+y,z
1/2-x,1/2+y,-z
1/2-x,1/2-y,-z
1/2+x,1/2-y,z
loop_
_atom_site_type_symbol
_atom_site_label
_atom_site_fract_x
_atom_site_fract_y
_atom_site_fract_z
Si Si1 0.164799 0.790911 0.029273
Si Si2 0.455579 0.712560 0.911963
Si Si3 0.793094 0.705223 0.408705
Si Si4 0.234310 0.291811 0.828220
Si Si5 0.415967 0.707501 0.467330
Si Si6 0.983961 0.212210 0.671769
O O1 0.104705 0.729445 0.056386
O O2 0.210734 0.725844 0.113482
O O3 0.164189 0.000000 0.036194
O O4 0.185578 0.745239 0.910371
O O5 0.455227 0.500000 0.911602
O O6 0.471357 0.770135 0.792046
O O7 0.500000 0.767082 0.000000
O O8 0.792303 0.500000 0.397115
O O9 0.750000 0.750000 0.500000
O O10 0.776913 0.778927 0.291127
O O11 0.853910 0.753069 0.443329
O O12 0.239940 0.500000 0.821468
O O13 0.421125 0.500000 0.469486
O O14 0.439037 0.768123 0.583197
O O15 0.457956 0.768572 0.375745
O O16 0.983819 0.000000 0.674189
#
# Coordination Sequence:
#
# PCOD9221906 Si02
#       6
#     8   8   8   8   8   8
#     4   9  18  33  56  80 103 138 177 216 262 312
#     4   9  17  27  47  81 111 132 168 219 260 304
#     4  11  24  38  55  80 108 142 181 224 271 318
#     4   9  20  37  54  75 106 141 173 214 270 320
#     4   9  18  34  57  80 105 141 180 220 264 317
#     4   8  16  31  52  79 109 142 176 213 266 319
#
# _framework density 20.363240999999999
#
# number of rings (size 3 to 8) (size 9 to 14) (size 15 to 20)
#    0.000    2.833    0.000    1.500    4.667    1.333 
#    0.000    1.667    0.000    1.500    0.000    0.000 
#    0.000    0.000    0.000    0.000    0.000    0.000 
#
# Total GULP energy -133932.396430 kJ/mol
# GULP energy per Si atom -5580.516518 kJ/mol
# Density = 2.031689 g / cm^3
# Si number density = 20.363241 Si / 1000 Ang^3
#
#
#
# Elastic Constant Matrix: (Units=GPa)
#
#
# Indices 1 2 3 4 5 6 
#
# 1 196.2013 1.1925 143.6407 0.0000 -9.3246 0.0000
# 2 1.1925 27.2159 3.7774 0.0000 2.4682 0.0000
# 3 143.6407 3.7774 232.0047 0.0000 -8.9351 0.0000
# 4 0.0000 0.0000 0.0000 12.3999 0.0000 -0.6637
# 5 -9.3246 2.4682 -8.9351 0.0000 16.9815 0.0000
# 6 0.0000 0.0000 0.0000 -0.6637 0.0000 22.4788
#
#
#
# Elastic Compliance Matrix: (Units=1/GPa)
#
#
# Indices 1 2 3 4 5 6 
#
# 1 0.009399 0.000193 -0.005741 0.000000 0.002112 0.000000
# 2 0.000193 0.037396 -0.000953 0.000000 -0.005831 0.000000
# 3 -0.005741 -0.000953 0.007925 0.000000 0.001156 0.000000
# 4 0.000000 0.000000 0.000000 0.080773 0.000000 0.002385
# 5 0.002112 -0.005831 0.001156 0.000000 0.061503 0.000000
# 6 0.000000 0.000000 0.000000 0.002385 0.000000 0.044557
#
#
# Mechanical properties :
#
#
# Convention : Reuss Voigt Hill
#
# Bulk Modulus (GPa) = 23.97043 83.62703 53.79873
# Shear Modulus (GPa) = 18.62472 30.82613 24.72543
#
# Velocity S-wave (km/s) = 3.02756 3.89500 3.48834
# Velocity P-wave (km/s) = 4.90086 7.83484 6.53465
#
# Compressibility (1/GPa) = 0.04171806
#
# Stress axis : x y z
#
# Youngs Moduli (GPa) = 106.39342 26.74096 126.18721
#
# Poissons Ratio (x) = -0.00517 0.72445
# Poissons Ratio (y) = -0.02058 0.12028
# Poissons Ratio (z) = 0.61081 0.02549
#
# Static dielectric constant tensor:
#      x y z
#    x 1.673550 0.000000 0.022900 
#    y 0.000000 1.729940 0.000000 
#    z 0.022900 0.000000 1.713650 
# 
# From -- ./inp_files/172275.got.cif
#   From: 2010.05.17/outbox.cif.g08.bks.cpg/sg12_87_cif.got.tgz:172275.got - 2010.06.03 13:09:07.
