data_PCOD9221126
_publ_section_title
;
Structure prediction by ZEFSAII (Michael W. Deem and Ramdas Pophale) SiO2 
 PCOD9221126
Probable space group: C 2/M
;
_chemical_formula_sum "Si O2"
_cell_formula_units_Z 32
_cell_length_a 8.327160
_cell_length_b 26.768923
_cell_length_c 12.667185
_cell_angle_alpha 90.000000
_cell_angle_beta 31.217638
_cell_angle_gamma 90.000000
_cell_volume 1463.460494
_symmetry_space_group_name_H-M "C 2/M"
_symmetry_group_IT_number 12
_symmetry_cell_setting 'monoclinic'
loop_
_space_group_symop_operation_xyz
x,y,z
-x,y,-z
-x,-y,-z
x,-y,z
1/2+x,1/2+y,z
1/2-x,1/2+y,-z
1/2-x,1/2-y,-z
1/2+x,1/2-y,z
loop_
_atom_site_type_symbol
_atom_site_label
_atom_site_fract_x
_atom_site_fract_y
_atom_site_fract_z
Si Si1 0.765609 0.139482 0.037298
Si Si2 0.194357 0.298743 0.602078
Si Si3 0.212369 0.889917 0.598109
Si Si4 0.817195 0.555521 0.214224
O O1 0.600445 0.192569 0.155144
O O2 0.495990 0.097923 0.178724
O O3 0.000000 0.127851 0.000000
O O4 0.962837 0.134143 0.819471
O O5 0.500000 0.305603 0.500000
O O6 0.250000 0.250000 0.500000
O O7 0.156322 0.343941 0.541764
O O8 0.500000 0.913336 0.500000
O O9 0.024525 0.926689 0.627057
O O10 0.825500 0.500000 0.256159
O O11 0.000000 0.553016 0.000000
#
# Coordination Sequence:
#
# PCOD9221126 Si02
#       4
#     8   8   8   8
#     4  11  23  42  68  94 134 176 217 272 329 387
#     4  12  26  45  66  97 128 170 224 276 330 397
#     4  11  22  42  67  95 136 177 217 273 324 391
#     4   9  20  40  66  98 135 176 220 272 328 387
#
# _framework density 21.865983
#
# number of rings (size 3 to 8) (size 9 to 14) (size 15 to 20)
#    0.000    1.250    5.000    0.750    0.000    2.000 
#    0.000    2.500    0.000    0.000    0.000    0.000 
#    0.000    0.000    0.000    0.000    0.000    0.000 
#
# Total GULP energy -89368.844142 kJ/mol
# GULP energy per Si atom -5585.552759 kJ/mol
# Density = 2.181621 g / cm^3
# Si number density = 21.865983 Si / 1000 Ang^3
#
#
#
# Elastic Constant Matrix: (Units=GPa)
#
#
# Indices 1 2 3 4 5 6 
#
# 1 102.2841 25.4996 20.1252 0.0000 -39.3349 0.0000
# 2 25.4996 93.5982 23.1368 0.0000 -11.2911 0.0000
# 3 20.1252 23.1368 113.5812 0.0000 -1.6193 0.0000
# 4 0.0000 0.0000 0.0000 11.6423 0.0000 6.0281
# 5 -39.3349 -11.2911 -1.6193 0.0000 55.9029 0.0000
# 6 0.0000 0.0000 0.0000 6.0281 0.0000 19.0472
#
#
#
# Elastic Compliance Matrix: (Units=1/GPa)
#
#
# Indices 1 2 3 4 5 6 
#
# 1 0.014439 -0.002287 -0.001955 0.000000 0.009641 0.000000
# 2 -0.002287 0.011892 -0.002007 0.000000 0.000734 0.000000
# 3 -0.001955 -0.002007 0.009538 0.000000 -0.001505 0.000000
# 4 0.000000 0.000000 0.000000 0.102727 0.000000 -0.032511
# 5 0.009641 0.000734 -0.001505 0.000000 0.024777 0.000000
# 6 0.000000 0.000000 0.000000 -0.032511 0.000000 0.062790
#
#
# Mechanical properties :
#
#
# Convention : Reuss Voigt Hill
#
# Bulk Modulus (GPa) = 42.78840 49.66520 46.22680
# Shear Modulus (GPa) = 20.28795 33.36527 26.82661
#
# Velocity S-wave (km/s) = 3.04934 3.91051 3.50646
# Velocity P-wave (km/s) = 5.65764 6.56904 6.13030
#
# Compressibility (1/GPa) = 0.02337082
#
# Stress axis : x y z
#
# Youngs Moduli (GPa) = 69.25527 84.09192 104.84396
#
# Poissons Ratio (x) = 0.19236 0.20497
# Poissons Ratio (y) = 0.15842 0.21038
# Poissons Ratio (z) = 0.13540 0.16874
#
# Static dielectric constant tensor:
#      x y z
#    x 1.785250 0.000000 0.043110 
#    y 0.000000 1.770420 0.000000 
#    z 0.043110 0.000000 1.929780 
# 
# From -- ./inp_files/38705.got.cif
#   From: 2010.05.17/outbox.cif.g08.bks.cpg/sg12_20_cif.got.tgz:38705.got - 2010.06.03 13:09:07.
