data_PCOD9221834
_publ_section_title
;
Structure prediction by ZEFSAII (Michael W. Deem and Ramdas Pophale) SiO2 
 PCOD9221834
Probable space group: C 2/M
;
_chemical_formula_sum "Si O2"
_cell_formula_units_Z 48
_cell_length_a 9.922299
_cell_length_b 20.867761
_cell_length_c 12.107017
_cell_angle_alpha 90.000000
_cell_angle_beta 63.183580
_cell_angle_gamma 90.000000
_cell_volume 2237.239128
_symmetry_space_group_name_H-M "C 2/M"
_symmetry_group_IT_number 12
_symmetry_cell_setting 'monoclinic'
loop_
_space_group_symop_operation_xyz
x,y,z
-x,y,-z
-x,-y,-z
x,-y,z
1/2+x,1/2+y,z
1/2-x,1/2+y,-z
1/2-x,1/2-y,-z
1/2+x,1/2-y,z
loop_
_atom_site_type_symbol
_atom_site_label
_atom_site_fract_x
_atom_site_fract_y
_atom_site_fract_z
Si Si1 0.271440 0.573765 0.408910
Si Si2 0.624984 0.879701 0.688573
Si Si3 0.351277 0.312997 0.986763
Si Si4 0.417737 0.636097 0.719835
Si Si5 0.804514 0.425811 0.813440
Si Si6 0.926799 0.264051 0.417192
O O1 0.230354 0.500000 0.434071
O O2 0.194858 0.606973 0.541689
O O3 0.451103 0.584306 0.345912
O O4 0.220099 0.594101 0.305681
O O5 0.759308 0.883271 0.725558
O O6 0.483816 0.923856 0.767197
O O7 0.560807 0.807956 0.695649
O O8 0.398685 0.344726 0.853505
O O9 0.500000 0.293368 0.000000
O O10 0.250000 0.250000 0.000000
O O11 0.271536 0.370906 0.084233
O O12 0.481141 0.699151 0.635599
O O13 0.749561 0.500000 0.848113
O O14 0.750000 0.250000 0.500000
O O15 0.000000 0.293983 0.500000
#
# Coordination Sequence:
#
# PCOD9221834 Si02
#       6
#     8   8   8   8   8   8
#     4  11  23  44  72 103 140 186 233 289 357 425
#     4  12  25  41  69 105 147 178 231 295 360 427
#     4  12  29  50  77 103 141 191 244 301 350 426
#     4  12  26  43  66 104 140 184 234 293 360 419
#     4  11  26  49  75 104 142 194 243 290 356 431
#     4  12  22  39  65 100 144 182 225 289 358 432
#
# _framework density 21.455013999999998
#
# number of rings (size 3 to 8) (size 9 to 14) (size 15 to 20)
#    0.000    0.333    5.000    3.500    4.667    4.333 
#    0.000    0.833    0.000    0.000    0.000    0.000 
#    0.000    0.000    0.000    0.000    0.000    0.000 
#
# Total GULP energy -134253.708591 kJ/mol
# GULP energy per Si atom -5593.904525 kJ/mol
# Density = 2.140618 g / cm^3
# Si number density = 21.455014 Si / 1000 Ang^3
#
#
#
# Elastic Constant Matrix: (Units=GPa)
#
#
# Indices 1 2 3 4 5 6 
#
# 1 167.3543 17.3335 36.8021 0.0000 10.3875 0.0000
# 2 17.3335 73.0699 33.4547 0.0000 -0.1468 0.0000
# 3 36.8021 33.4547 90.9054 0.0000 12.3665 0.0000
# 4 0.0000 0.0000 0.0000 23.3187 0.0000 0.3757
# 5 10.3875 -0.1468 12.3665 0.0000 27.5067 0.0000
# 6 0.0000 0.0000 0.0000 0.3757 0.0000 29.3811
#
#
#
# Elastic Compliance Matrix: (Units=1/GPa)
#
#
# Indices 1 2 3 4 5 6 
#
# 1 0.006625 -0.000527 -0.002287 0.000000 -0.001476 0.000000
# 2 -0.000527 0.016736 -0.006375 0.000000 0.003154 0.000000
# 3 -0.002287 -0.006375 0.015082 0.000000 -0.005951 0.000000
# 4 0.000000 0.000000 0.000000 0.042893 0.000000 -0.000548
# 5 -0.001476 0.003154 -0.005951 0.000000 0.039604 0.000000
# 6 0.000000 0.000000 0.000000 -0.000548 0.000000 0.034042
#
#
# Mechanical properties :
#
#
# Convention : Reuss Voigt Hill
#
# Bulk Modulus (GPa) = 49.84034 56.27892 53.05963
# Shear Modulus (GPa) = 27.77045 32.29058 30.03052
#
# Velocity S-wave (km/s) = 3.60162 3.88369 3.74531
# Velocity P-wave (km/s) = 6.36994 6.81167 6.59450
#
# Compressibility (1/GPa) = 0.02006407
#
# Stress axis : x y z
#
# Youngs Moduli (GPa) = 150.95445 59.75309 66.30513
#
# Poissons Ratio (x) = 0.03151 0.15164
# Poissons Ratio (y) = 0.07960 0.42267
# Poissons Ratio (z) = 0.34523 0.38090
#
# Static dielectric constant tensor:
#      x y z
#    x 1.781010 0.000000 -0.006840 
#    y 0.000000 1.833890 0.000000 
#    z -0.006840 0.000000 1.767380 
# 
# From -- ./inp_files/122425.got.cif
#   From: 2010.05.17/outbox.cif.g08.bks.cpg/sg12_62_cif.got.tgz:122425.got - 2010.06.03 13:09:07.
