data_PCOD9221988
_publ_section_title
;
Structure prediction by ZEFSAII (Michael W. Deem and Ramdas Pophale) SiO2 
 PCOD9221988
Probable space group: C 2/M
;
_chemical_formula_sum "Si O2"
_cell_formula_units_Z 32
_cell_length_a 14.185976
_cell_length_b 23.835372
_cell_length_c 4.911227
_cell_angle_alpha 90.000000
_cell_angle_beta 59.316487
_cell_angle_gamma 90.000000
_cell_volume 1428.134738
_symmetry_space_group_name_H-M "C 2/M"
_symmetry_group_IT_number 12
_symmetry_cell_setting 'monoclinic'
loop_
_space_group_symop_operation_xyz
x,y,z
-x,y,-z
-x,-y,-z
x,-y,z
1/2+x,1/2+y,z
1/2-x,1/2+y,-z
1/2-x,1/2-y,-z
1/2+x,1/2-y,z
loop_
_atom_site_type_symbol
_atom_site_label
_atom_site_fract_x
_atom_site_fract_y
_atom_site_fract_z
Si Si1 0.246597 0.595426 0.761329
Si Si2 0.073893 0.238145 0.649613
Si Si3 0.081129 0.000000 0.628061
Si Si4 0.419916 0.000000 0.864979
Si Si5 0.252529 0.669818 0.274719
O O1 0.343699 0.555235 0.510132
O O2 0.200773 0.625951 0.562688
O O3 0.157946 0.553855 0.018033
O O4 0.275887 0.640608 0.952238
O O5 0.167147 0.278914 0.387670
O O6 0.138774 0.190768 0.725919
O O7 0.000000 0.220578 0.500000
O O8 0.000000 0.265697 0.000000
O O9 0.000000 0.000000 0.500000
O O10 0.000000 0.000000 0.000000
O O11 0.500000 0.000000 0.500000
O O12 0.500000 0.000000 0.000000
#
# Coordination Sequence:
#
# PCOD9221988 Si02
#       5
#     8   8   4   4   8
#     4  11  24  42  65  95 131 171 215 269 325 387
#     4  11  24  42  65  95 130 171 220 273 329 391
#     4  11  24  43  66  94 130 169 214 266 322 385
#     4  11  24  41  64  96 131 169 215 264 322 393
#     4  11  24  42  65  95 131 170 218 272 326 390
#
# _framework density 22.406848
#
# number of rings (size 3 to 8) (size 9 to 14) (size 15 to 20)
#    0.000    1.000    0.000    6.000    0.000   18.000 
#    0.000    0.000    0.000    0.000    0.000    0.000 
#    0.000    0.000    0.000    0.000    0.000    0.000 
#
# Total GULP energy -89496.495465 kJ/mol
# GULP energy per Si atom -5593.530967 kJ/mol
# Density = 2.235585 g / cm^3
# Si number density = 22.406848 Si / 1000 Ang^3
#
#
#
# Elastic Constant Matrix: (Units=GPa)
#
#
# Indices 1 2 3 4 5 6 
#
# 1 109.5828 24.2218 49.2057 0.0000 9.8622 0.0000
# 2 24.2218 81.4803 40.4918 0.0000 -0.8358 0.0000
# 3 49.2057 40.4918 185.9577 0.0000 14.3615 0.0000
# 4 0.0000 0.0000 0.0000 -0.2989 0.0000 21.6967
# 5 9.8622 -0.8358 14.3615 0.0000 45.5937 0.0000
# 6 0.0000 0.0000 0.0000 21.6967 0.0000 19.0948
#
#
#
# Elastic Compliance Matrix: (Units=1/GPa)
#
#
# Indices 1 2 3 4 5 6 
#
# 1 0.010752 -0.002089 -0.002263 0.000000 -0.001651 0.000000
# 2 -0.002089 0.014235 -0.002667 0.000000 0.001553 0.000000
# 3 -0.002263 -0.002667 0.006686 0.000000 -0.001665 0.000000
# 4 0.000000 0.000000 0.000000 -0.040077 0.000000 0.045538
# 5 -0.001651 0.001553 -0.001665 0.000000 0.022843 0.000000
# 6 0.000000 0.000000 0.000000 0.045538 0.000000 0.000627
#
#
# Mechanical properties :
#
#
# Convention : Reuss Voigt Hill
#
# Bulk Modulus (GPa) = 56.70232 67.20659 61.95446
# Shear Modulus (GPa) = 142.93405 30.41802 86.67603
#
# Velocity S-wave (km/s) = 7.99555 3.68847 6.22630
# Velocity P-wave (km/s) = 10.51661 6.94252 8.91061
#
# Compressibility (1/GPa) = 0.01763596
#
# Stress axis : x y z
#
# Youngs Moduli (GPa) = 93.00756 70.24905 149.57508
#
# Poissons Ratio (x) = 0.14673 0.33844
# Poissons Ratio (y) = 0.19427 0.39890
# Poissons Ratio (z) = 0.21045 0.18735
#
# Static dielectric constant tensor:
#      x y z
#    x 1.794940 0.000000 -0.036380 
#    y 0.000000 1.645950 0.000000 
#    z -0.036380 0.000000 1.832510 
# 
# From -- ./inp_files/11840.got.cif
#   From: 2010.05.17/outbox.cif.g08.bks.cpg/sg12_6_cif.got.tgz:11840.got - 2010.06.03 13:09:07.
