data_PCOD9221830
_publ_section_title
;
Structure prediction by ZEFSAII (Michael W. Deem and Ramdas Pophale) SiO2 
 PCOD9221830
Probable space group: C 2/M
;
_chemical_formula_sum "Si O2"
_cell_formula_units_Z 44
_cell_length_a 11.084678
_cell_length_b 24.719190
_cell_length_c 10.364878
_cell_angle_alpha 90.000000
_cell_angle_beta 41.003683
_cell_angle_gamma 90.000000
_cell_volume 1863.359025
_symmetry_space_group_name_H-M "C 2/M"
_symmetry_group_IT_number 12
_symmetry_cell_setting 'monoclinic'
loop_
_space_group_symop_operation_xyz
x,y,z
-x,y,-z
-x,-y,-z
x,-y,z
1/2+x,1/2+y,z
1/2-x,1/2+y,-z
1/2-x,1/2-y,-z
1/2+x,1/2-y,z
loop_
_atom_site_type_symbol
_atom_site_label
_atom_site_fract_x
_atom_site_fract_y
_atom_site_fract_z
Si Si1 0.500000 0.742377 0.500000
Si Si2 0.651658 0.582864 0.987506
Si Si3 0.416260 0.442233 0.421952
Si Si4 0.000000 0.588000 0.000000
Si Si5 0.575221 0.000000 0.166469
Si Si6 0.823356 0.301539 0.863990
Si Si7 0.788459 0.657292 0.348547
O O1 0.363169 0.779852 0.689541
O O2 0.630422 0.701898 0.474107
O O3 0.571158 0.559689 0.187921
O O4 0.500000 0.574982 0.000000
O O5 0.832452 0.547752 0.815249
O O6 0.695995 0.646016 0.968031
O O7 0.500000 0.439902 0.500000
O O8 0.312771 0.500000 0.495360
O O9 0.285493 0.391877 0.506194
O O10 0.833365 0.628526 0.174046
O O11 0.026567 0.548383 0.098766
O O12 0.020744 0.318697 0.760237
O O13 0.750000 0.250000 0.000000
#
# Coordination Sequence:
#
# PCOD9221830 Si02
#       7
#     4   8   8   4   4   8   8
#     4  12  28  46  73 103 150 192 256 312 382 448
#     4  12  27  48  76 108 156 201 249 301 385 459
#     4  11  25  43  75 117 149 187 246 313 377 448
#     4  11  24  42  78 110 152 186 256 309 380 447
#     4  11  23  44  71 112 145 195 248 310 373 451
#     4  12  29  49  73 106 147 205 253 315 377 450
#     4  12  25  45  73 108 145 190 250 317 371 447
#
# _framework density 23.613268000000001
#
# number of rings (size 3 to 8) (size 9 to 14) (size 15 to 20)
#    0.000    0.364    3.636    4.091   10.182    0.000 
#    0.000    0.000    0.000    2.727    0.000    0.000 
#    0.000    0.000    0.000    0.000    0.000    0.000 
#
# Total GULP energy -122651.246946 kJ/mol
# GULP energy per Si atom -5575.056679 kJ/mol
# Density = 2.355952 g / cm^3
# Si number density = 23.613268 Si / 1000 Ang^3
#
#
#
# Elastic Constant Matrix: (Units=GPa)
#
#
# Indices 1 2 3 4 5 6 
#
# 1 84.6377 17.5583 -35.7205 0.0000 -8.0603 0.0000
# 2 17.5583 172.7553 14.3981 0.0000 4.4560 0.0000
# 3 -35.7205 14.3981 48.0670 0.0000 15.0640 0.0000
# 4 0.0000 0.0000 0.0000 51.6376 0.0000 -13.0152
# 5 -8.0603 4.4560 15.0640 0.0000 22.2524 0.0000
# 6 0.0000 0.0000 0.0000 -13.0152 0.0000 11.3742
#
#
#
# Elastic Compliance Matrix: (Units=1/GPa)
#
#
# Indices 1 2 3 4 5 6 
#
# 1 0.018944 -0.003179 0.016095 0.000000 -0.003397 0.000000
# 2 -0.003179 0.006470 -0.004485 0.000000 0.000589 0.000000
# 3 0.016095 -0.004485 0.040617 0.000000 -0.020768 0.000000
# 4 0.000000 0.000000 0.000000 0.027215 0.000000 0.031141
# 5 -0.003397 0.000589 -0.020768 0.000000 0.057650 0.000000
# 6 0.000000 0.000000 0.000000 0.031141 0.000000 0.123552
#
#
# Mechanical properties :
#
#
# Convention : Reuss Voigt Hill
#
# Bulk Modulus (GPa) = 12.06395 33.10353 22.58374
# Shear Modulus (GPa) = 17.53049 37.66779 27.59914
#
# Velocity S-wave (km/s) = 2.72766 3.99832 3.42248
# Velocity P-wave (km/s) = 3.87817 5.94684 5.02022
#
# Compressibility (1/GPa) = 0.08289162
#
# Stress axis : x y z
#
# Youngs Moduli (GPa) = 52.78795 154.55279 24.62019
#
# Poissons Ratio (x) = 0.49135 -0.39626
# Poissons Ratio (y) = 0.16782 0.11043
# Poissons Ratio (z) = -0.84961 0.69322
#
# Static dielectric constant tensor:
#      x y z
#    x 1.922550 0.000000 -0.069150 
#    y 0.000000 1.900320 0.000000 
#    z -0.069150 0.000000 2.148860 
# 
# From -- ./inp_files/135808.got.cif
#   From: 2010.05.17/outbox.cif.g08.bks.cpg/sg12_68_cif.got.tgz:135808.got - 2010.06.03 13:09:07.
