data_PCOD9221876
_publ_section_title
;
Structure prediction by ZEFSAII (Michael W. Deem and Ramdas Pophale) SiO2 
 PCOD9221876
Probable space group: C 2/M
;
_chemical_formula_sum "Si O2"
_cell_formula_units_Z 40
_cell_length_a 17.561058
_cell_length_b 16.104772
_cell_length_c 13.917822
_cell_angle_alpha 90.000000
_cell_angle_beta 23.336389
_cell_angle_gamma 90.000000
_cell_volume 1559.239698
_symmetry_space_group_name_H-M "C 2/M"
_symmetry_group_IT_number 12
_symmetry_cell_setting 'monoclinic'
loop_
_space_group_symop_operation_xyz
x,y,z
-x,y,-z
-x,-y,-z
x,-y,z
1/2+x,1/2+y,z
1/2-x,1/2+y,-z
1/2-x,1/2-y,-z
1/2+x,1/2-y,z
loop_
_atom_site_type_symbol
_atom_site_label
_atom_site_fract_x
_atom_site_fract_y
_atom_site_fract_z
Si Si1 0.312344 0.668722 0.870914
Si Si2 0.732727 0.911095 0.447231
Si Si3 0.670275 0.768397 0.393354
Si Si4 0.317105 0.594504 0.070567
Si Si5 0.548431 0.862759 0.846438
O O1 0.508221 0.696694 0.589988
O O2 0.321773 0.604709 0.949008
O O3 0.250000 0.750000 0.000000
O O4 0.150571 0.648304 0.979992
O O5 0.615314 0.839183 0.533129
O O6 0.696529 0.903320 0.601854
O O7 0.956691 0.902581 0.163981
O O8 0.662978 0.000000 0.494704
O O9 0.851404 0.722272 0.232993
O O10 0.280945 0.827607 0.756732
O O11 0.248583 0.500000 0.173389
O O12 0.500000 0.909240 0.000000
#
# Coordination Sequence:
#
# PCOD9221876 Si02
#       5
#     8   8   8   8   8
#     4  12  25  47  75 113 150 201 258 313 384 458
#     4  11  23  45  74 109 156 202 251 319 390 455
#     4  12  24  48  77 111 150 199 256 316 384 459
#     4  11  26  50  80 117 159 201 253 325 396 452
#     4  12  26  45  77 107 149 205 263 312 378 462
#
# _framework density 25.653528000000001
#
# number of rings (size 3 to 8) (size 9 to 14) (size 15 to 20)
#    0.000    0.400    4.000    5.400    0.000    6.000 
#    3.600    1.000    0.000    4.800    0.000    0.000 
#    0.000    0.000    0.000    0.000    0.000    0.000 
#
# Total GULP energy -111773.909573 kJ/mol
# GULP energy per Si atom -5588.695479 kJ/mol
# Density = 2.559514 g / cm^3
# Si number density = 25.653528 Si / 1000 Ang^3
#
#
#
# Elastic Constant Matrix: (Units=GPa)
#
#
# Indices 1 2 3 4 5 6 
#
# 1 185.5942 49.8285 53.9387 -0.0060 22.8277 -0.0030
# 2 49.8285 138.3936 39.8963 -0.0168 5.7853 0.0107
# 3 53.9387 39.8963 137.4501 -0.0170 12.1870 0.0251
# 4 -0.0060 -0.0168 -0.0170 1.9750 0.0079 -56.1276
# 5 22.8277 5.7853 12.1870 0.0079 57.5463 -0.0066
# 6 -0.0030 0.0107 0.0251 -56.1276 -0.0066 -216.3123
#
#
#
# Elastic Compliance Matrix: (Units=1/GPa)
#
#
# Indices 1 2 3 4 5 6 
#
# 1 0.006674 -0.001762 -0.001925 -0.000001 -0.002063 0.000000
# 2 -0.001762 0.008356 -0.001755 0.000007 0.000230 -0.000002
# 3 -0.001925 -0.001755 0.008618 0.000010 -0.000885 -0.000002
# 4 -0.000001 0.000007 0.000010 0.060464 -0.000012 -0.015689
# 5 -0.002063 0.000230 -0.000885 -0.000012 0.018360 0.000003
# 6 0.000000 -0.000002 -0.000002 -0.015689 0.000003 -0.000552
#
#
# Mechanical properties :
#
#
# Convention : Reuss Voigt Hill
#
# Bulk Modulus (GPa) = 78.32993 83.19610 80.76301
# Shear Modulus (GPa) = 42.71338 -10.17324 16.27007
#
# Velocity S-wave (km/s) = 4.08488 -1.99355 2.52111
# Velocity P-wave (km/s) = 7.26969 5.21556 6.32655
#
# Compressibility (1/GPa) = 0.01276651
#
# Stress axis : x y z
#
# Youngs Moduli (GPa) = 149.82900 119.67005 116.02986
#
# Poissons Ratio (x) = 0.21085 0.22334
# Poissons Ratio (y) = 0.26399 0.20357
# Poissons Ratio (z) = 0.28839 0.20996
#
# Static dielectric constant tensor:
#      x y z
#    x 2.137300 0.000000 -0.012790 
#    y 0.000000 2.015930 0.000010 
#    z -0.012790 0.000010 2.102920 
# 
# From -- ./inp_files/284922.got.cif
#   From: 2010.05.17/outbox.cif.g08.bks.cpg/sg12_143_cif.got.tgz:284922.got - 2010.06.03 13:09:07.
