data_PCOD9221005
_publ_section_title
;
Structure prediction by ZEFSAII (Michael W. Deem and Ramdas Pophale) SiO2 
 PCOD9221005
Probable space group: C 2/M
;
_chemical_formula_sum "Si O2"
_cell_formula_units_Z 56
_cell_length_a 8.564803
_cell_length_b 14.769257
_cell_length_c 22.814404
_cell_angle_alpha 90.000000
_cell_angle_beta 60.824347
_cell_angle_gamma 90.000000
_cell_volume 2519.786354
_symmetry_space_group_name_H-M "C 2/M"
_symmetry_group_IT_number 12
_symmetry_cell_setting 'monoclinic'
loop_
_space_group_symop_operation_xyz
x,y,z
-x,y,-z
-x,-y,-z
x,-y,z
1/2+x,1/2+y,z
1/2-x,1/2+y,-z
1/2-x,1/2-y,-z
1/2+x,1/2-y,z
loop_
_atom_site_type_symbol
_atom_site_label
_atom_site_fract_x
_atom_site_fract_y
_atom_site_fract_z
Si Si1 0.666776 0.204891 0.929334
Si Si2 0.452016 0.726793 0.449293
Si Si3 0.657706 0.855706 0.233281
Si Si4 0.329503 0.836811 0.206411
Si Si5 0.617591 0.901019 0.366626
Si Si6 0.990631 0.096424 0.668063
Si Si7 0.465605 0.393192 0.094133
O O1 0.646975 0.163711 0.867712
O O2 0.641988 0.316023 0.925896
O O3 0.851821 0.162403 0.921689
O O4 0.500000 0.177191 0.000000
O O5 0.500000 0.675544 0.500000
O O6 0.250000 0.750000 0.500000
O O7 0.549654 0.822251 0.420639
O O8 0.498831 0.671868 0.383121
O O9 0.511725 0.847054 0.208661
O O10 0.735508 0.758755 0.236595
O O11 0.562954 0.893158 0.308604
O O12 0.832655 0.902293 0.174026
O O13 0.182047 0.902530 0.259674
O O14 0.832457 0.893919 0.325314
O O15 0.567578 0.000000 0.398337
O O16 0.002346 0.000000 0.634935
O O17 0.496546 0.500000 0.069032
#
# Coordination Sequence:
#
# PCOD9221005 Si02
#       7
#     8   8   8   8   8   8   8
#     4  11  24  46  73 107 148 193 244 301 366 442
#     4  12  26  45  69  98 136 180 224 278 344 411
#     4  11  22  40  68 103 137 180 234 292 351 416
#     4  11  23  41  69 101 142 183 229 293 353 413
#     4  11  24  43  69  98 135 178 229 282 345 418
#     4  11  25  45  70 103 137 180 233 286 348 418
#     4  11  24  44  71 104 146 192 241 300 368 432
#
# _framework density 22.224107
#
# number of rings (size 3 to 8) (size 9 to 14) (size 15 to 20)
#    0.000    0.857    2.857    6.000    2.000    4.571 
#    0.000    2.143    0.000    0.000    0.000    0.000 
#    0.000    0.000    0.000    0.000    0.000    0.000 
#
# Total GULP energy -156135.359078 kJ/mol
# GULP energy per Si atom -5576.262824 kJ/mol
# Density = 2.217352 g / cm^3
# Si number density = 22.224107 Si / 1000 Ang^3
#
#
#
# Elastic Constant Matrix: (Units=GPa)
#
#
# Indices 1 2 3 4 5 6 
#
# 1 102.1962 48.3185 30.6922 0.0000 -14.2623 0.0000
# 2 48.3185 136.2475 39.4940 0.0000 -2.2573 0.0000
# 3 30.6922 39.4940 125.4353 0.0000 -2.9173 0.0000
# 4 0.0000 0.0000 0.0000 -44.6661 0.0000 -15.0329
# 5 -14.2623 -2.2573 -2.9173 0.0000 42.0406 0.0000
# 6 0.0000 0.0000 0.0000 -15.0329 0.0000 11.6655
#
#
#
# Elastic Compliance Matrix: (Units=1/GPa)
#
#
# Indices 1 2 3 4 5 6 
#
# 1 0.012737 -0.003934 -0.001785 0.000000 0.003986 0.000000
# 2 -0.003934 0.009294 -0.001986 0.000000 -0.000973 0.000000
# 3 -0.001785 -0.001986 0.009033 0.000000 -0.000086 0.000000
# 4 0.000000 0.000000 0.000000 -0.015616 0.000000 -0.020123
# 5 0.003986 -0.000973 -0.000086 0.000000 0.025081 0.000000
# 6 0.000000 0.000000 0.000000 -0.020123 0.000000 0.059791
#
#
# Mechanical properties :
#
#
# Convention : Reuss Voigt Hill
#
# Bulk Modulus (GPa) = 63.88463 66.76536 65.32500
# Shear Modulus (GPa) = 41.33984 18.16628 29.75306
#
# Velocity S-wave (km/s) = 4.31761 2.86215 3.66290
# Velocity P-wave (km/s) = 7.32555 6.40543 6.88089
#
# Compressibility (1/GPa) = 0.01565322
#
# Stress axis : x y z
#
# Youngs Moduli (GPa) = 78.50891 107.59299 110.71031
#
# Poissons Ratio (x) = 0.42323 0.19767
# Poissons Ratio (y) = 0.30882 0.21993
# Poissons Ratio (z) = 0.14017 0.21373
#
# Static dielectric constant tensor:
#      x y z
#    x 2.046280 0.000000 -0.026130 
#    y 0.000000 1.925860 0.000000 
#    z -0.026130 0.000000 1.781550 
# 
# From -- ./inp_files/332855.got.cif
#   From: 2010.05.17/outbox.cif.g08.bks.cpg/sg12_167_cif.got.tgz:332855.got - 2010.06.03 13:09:07.
