data_PCOD9221342
_publ_section_title
;
Structure prediction by ZEFSAII (Michael W. Deem and Ramdas Pophale) SiO2 
 PCOD9221342
Probable space group: C 2/M
;
_chemical_formula_sum "Si O2"
_cell_formula_units_Z 40
_cell_length_a 9.441267
_cell_length_b 17.089708
_cell_length_c 26.302627
_cell_angle_alpha 90.000000
_cell_angle_beta 151.993947
_cell_angle_gamma 90.000000
_cell_volume 1992.781201
_symmetry_space_group_name_H-M "C 2/M"
_symmetry_group_IT_number 12
_symmetry_cell_setting 'monoclinic'
loop_
_space_group_symop_operation_xyz
x,y,z
-x,y,-z
-x,-y,-z
x,-y,z
1/2+x,1/2+y,z
1/2-x,1/2+y,-z
1/2-x,1/2-y,-z
1/2+x,1/2-y,z
loop_
_atom_site_type_symbol
_atom_site_label
_atom_site_fract_x
_atom_site_fract_y
_atom_site_fract_z
Si Si1 0.335179 0.087316 0.585546
Si Si2 0.362106 0.591078 0.233741
Si Si3 0.268184 0.292163 0.722204
Si Si4 0.692360 0.196466 0.932020
Si Si5 0.699390 0.340661 0.434584
O O1 0.548205 0.148027 0.681689
O O2 0.310613 0.113178 0.519113
O O3 0.000000 0.089600 0.500000
O O4 0.455430 0.000000 0.627613
O O5 0.388681 0.500000 0.227742
O O6 0.544312 0.653090 0.256499
O O7 0.511014 0.604225 0.336451
O O8 0.017234 0.621375 0.123026
O O9 0.491770 0.247962 0.829982
O O10 0.033613 0.228685 0.625059
O O11 0.750000 0.250000 0.000000
O O12 0.000000 0.176989 0.000000
O O13 0.000000 0.312367 0.500000
#
# Coordination Sequence:
#
# PCOD9221342 Si02
#       5
#     8   8   8   8   8
#     4  11  24  38  58  93 139 173 207 257 315 371
#     4  11  24  41  67  99 127 163 213 267 317 374
#     4  11  23  38  65  91 126 164 217 256 310 379
#     4  11  24  45  67  93 123 164 212 271 326 380
#     4  11  23  38  64  93 132 175 213 249 307 381
#
# _framework density 20.07245
#
# number of rings (size 3 to 8) (size 9 to 14) (size 15 to 20)
#    0.000    1.000    4.000    2.400    5.600    1.200 
#    0.000    3.000    0.000    0.000    0.000    0.000 
#    0.000    0.000    0.000    0.000    0.000    0.000 
#
# Total GULP energy -111722.418183 kJ/mol
# GULP energy per Si atom -5586.120909 kJ/mol
# Density = 2.002676 g / cm^3
# Si number density = 20.072450 Si / 1000 Ang^3
#
#
#
# Elastic Constant Matrix: (Units=GPa)
#
#
# Indices 1 2 3 4 5 6 
#
# 1 84.0221 17.5915 16.0644 -0.0016 26.7112 -0.0015
# 2 17.5915 93.7573 15.3671 0.0005 22.1996 -0.0006
# 3 16.0644 15.3671 87.6826 -0.0026 25.3737 0.0004
# 4 -0.0016 0.0005 -0.0026 8.8133 -0.0032 -9.0352
# 5 26.7112 22.1996 25.3737 -0.0032 37.3490 -0.0026
# 6 -0.0015 -0.0006 0.0004 -9.0352 -0.0026 7.1270
#
#
#
# Elastic Compliance Matrix: (Units=1/GPa)
#
#
# Indices 1 2 3 4 5 6 
#
# 1 0.015427 -0.000330 0.000457 0.000007 -0.011148 0.000008
# 2 -0.000330 0.012420 -0.000060 0.000017 -0.007105 0.000020
# 3 0.000457 -0.000060 0.014209 0.000013 -0.009945 0.000012
# 4 0.000007 0.000017 0.000013 -0.378653 -0.000090 -0.480031
# 5 -0.011148 -0.007105 -0.009945 -0.000090 0.045727 -0.000100
# 6 0.000008 0.000020 0.000012 -0.480031 -0.000100 -0.468241
#
#
# Mechanical properties :
#
#
# Convention : Reuss Voigt Hill
#
# Bulk Modulus (GPa) = 23.70170 40.38978 32.04574
# Shear Modulus (GPa) = -6.70977 25.08713 9.18868
#
# Velocity S-wave (km/s) = -1.83031 3.53913 2.14189
# Velocity P-wave (km/s) = 2.71422 6.07176 4.70283
#
# Compressibility (1/GPa) = 0.04219106
#
# Stress axis : x y z
#
# Youngs Moduli (GPa) = 64.82047 80.51537 70.37627
#
# Poissons Ratio (x) = 0.02657 -0.03219
# Poissons Ratio (y) = 0.02139 0.00423
# Poissons Ratio (z) = -0.02965 0.00484
#
# Static dielectric constant tensor:
#      x y z
#    x 1.754810 0.000000 0.027200 
#    y 0.000000 1.715400 0.000000 
#    z 0.027200 0.000000 1.702170 
# 
# From -- ./inp_files/194407.got.cif
#   From: 2010.05.17/outbox.cif.g08.bks.cpg/sg12_98_cif.got.tgz:194407.got - 2010.06.03 13:09:07.
