data_PCOD9221772
_publ_section_title
;
Structure prediction by ZEFSAII (Michael W. Deem and Ramdas Pophale) SiO2 
 PCOD9221772
Probable space group: C 2/M
;
_chemical_formula_sum "Si O2"
_cell_formula_units_Z 48
_cell_length_a 27.332019
_cell_length_b 8.742259
_cell_length_c 16.766585
_cell_angle_alpha 90.000000
_cell_angle_beta 144.222089
_cell_angle_gamma 90.000000
_cell_volume 2342.244335
_symmetry_space_group_name_H-M "C 2/M"
_symmetry_group_IT_number 12
_symmetry_cell_setting 'monoclinic'
loop_
_space_group_symop_operation_xyz
x,y,z
-x,y,-z
-x,-y,-z
x,-y,z
1/2+x,1/2+y,z
1/2-x,1/2+y,-z
1/2-x,1/2-y,-z
1/2+x,1/2-y,z
loop_
_atom_site_type_symbol
_atom_site_label
_atom_site_fract_x
_atom_site_fract_y
_atom_site_fract_z
Si Si1 0.631435 0.321379 0.051531
Si Si2 0.238689 0.817905 0.897249
Si Si3 0.454182 0.181729 0.793278
Si Si4 0.117869 0.819204 0.452799
Si Si5 0.404438 0.179557 0.402248
Si Si6 0.796197 0.821390 0.676011
O O1 0.625359 0.500000 0.021370
O O2 0.682162 0.230221 0.051860
O O3 0.680991 0.311496 0.200243
O O4 0.539454 0.252102 0.939798
O O5 0.158126 0.747666 0.746133
O O6 0.231300 0.000000 0.891044
O O7 0.250000 0.750000 0.000000
O O8 0.445001 0.230722 0.688823
O O9 0.374636 0.254172 0.732469
O O10 0.453740 0.000000 0.801062
O O11 0.106934 0.765976 0.529205
O O12 0.211502 0.771769 0.550398
O O13 0.106070 0.000000 0.429503
O O14 0.500000 0.192632 0.500000
O O15 0.384310 0.000000 0.387524
O O16 0.783418 0.000000 0.638593
#
# Coordination Sequence:
#
# PCOD9221772 Si02
#       6
#     8   8   8   8   8   8
#     4  11  24  44  69  97 134 174 220 274 332 391
#     4  12  26  45  71 100 135 174 221 271 328 391
#     4  12  26  42  65  97 136 176 224 273 327 391
#     4  12  25  43  68  97 134 174 223 273 330 393
#     4  11  25  46  71  99 134 172 218 272 332 392
#     4  11  23  43  69  96 133 174 221 273 333 392
#
# _framework density 20.493165000000001
#
# number of rings (size 3 to 8) (size 9 to 14) (size 15 to 20)
#    0.000    0.500    1.667    7.000    2.333    5.333 
#    0.000    0.000    0.000    0.000    0.000    0.000 
#    0.000    0.000    0.000    0.000    0.000    0.000 
#
# Total GULP energy -134468.700549 kJ/mol
# GULP energy per Si atom -5602.862523 kJ/mol
# Density = 2.044652 g / cm^3
# Si number density = 20.493165 Si / 1000 Ang^3
#
#
#
# Elastic Constant Matrix: (Units=GPa)
#
#
# Indices 1 2 3 4 5 6 
#
# 1 56.6452 6.5239 0.2278 0.0000 1.4809 0.0000
# 2 6.5239 101.3307 -0.5607 0.0000 7.8333 0.0000
# 3 0.2278 -0.5607 17.5751 0.0000 6.2928 0.0000
# 4 0.0000 0.0000 0.0000 37.0836 0.0000 -0.5823
# 5 1.4809 7.8333 6.2928 0.0000 31.9433 0.0000
# 6 0.0000 0.0000 0.0000 -0.5823 0.0000 38.0680
#
#
#
# Elastic Compliance Matrix: (Units=1/GPa)
#
#
# Indices 1 2 3 4 5 6 
#
# 1 0.017795 -0.001104 -0.000073 0.000000 -0.000540 0.000000
# 2 -0.001104 0.010155 0.001304 0.000000 -0.002696 0.000000
# 3 -0.000073 0.001304 0.061384 0.000000 -0.012409 0.000000
# 4 0.000000 0.000000 0.000000 0.026973 0.000000 0.000413
# 5 -0.000540 -0.002696 -0.012409 0.000000 0.034436 0.000000
# 6 0.000000 0.000000 0.000000 0.000413 0.000000 0.026275
#
#
# Mechanical properties :
#
#
# Convention : Reuss Voigt Hill
#
# Bulk Modulus (GPa) = 11.16217 20.88145 16.02181
# Shear Modulus (GPa) = 24.19806 32.70965 28.45385
#
# Velocity S-wave (km/s) = 3.43999 3.99949 3.73024
# Velocity P-wave (km/s) = 4.60832 5.61600 5.13693
#
# Compressibility (1/GPa) = 0.08958828
#
# Stress axis : x y z
#
# Youngs Moduli (GPa) = 56.19448 98.46979 16.29085
#
# Poissons Ratio (x) = 0.10875 0.00118
# Poissons Ratio (y) = 0.06206 -0.02124
# Poissons Ratio (z) = 0.00408 -0.12837
#
# Static dielectric constant tensor:
#      x y z
#    x 1.717680 0.000000 -0.009250 
#    y 0.000000 1.680750 0.000000 
#    z -0.009250 0.000000 1.709110 
# 
# From -- ./inp_files/295893.got.cif
#   From: 2010.05.17/outbox.cif.g08.bks.cpg/sg12_148_cif.got.tgz:295893.got - 2010.06.03 13:09:07.
