data_PCOD9221415
_publ_section_title
;
Structure prediction by ZEFSAII (Michael W. Deem and Ramdas Pophale) SiO2 
 PCOD9221415
Probable space group: C 2/M
;
_chemical_formula_sum "Si O2"
_cell_formula_units_Z 64
_cell_length_a 16.381314
_cell_length_b 8.858738
_cell_length_c 33.018907
_cell_angle_alpha 90.000000
_cell_angle_beta 41.201441
_cell_angle_gamma 90.000000
_cell_volume 3156.286925
_symmetry_space_group_name_H-M "C 2/M"
_symmetry_group_IT_number 12
_symmetry_cell_setting 'monoclinic'
loop_
_space_group_symop_operation_xyz
x,y,z
-x,y,-z
-x,-y,-z
x,-y,z
1/2+x,1/2+y,z
1/2-x,1/2+y,-z
1/2-x,1/2-y,-z
1/2+x,1/2-y,z
loop_
_atom_site_type_symbol
_atom_site_label
_atom_site_fract_x
_atom_site_fract_y
_atom_site_fract_z
Si Si1 0.607676 0.323914 0.426391
Si Si2 0.392387 0.178315 0.132960
Si Si3 0.360024 0.679055 0.367158
Si Si4 0.834258 0.680168 0.003440
Si Si5 0.476523 0.821776 0.627009
Si Si6 0.538487 0.176532 0.746854
Si Si7 0.733146 0.821059 0.123354
Si Si8 0.298597 0.323296 0.248575
O O1 0.500000 0.315534 0.500000
O O2 0.634833 0.500000 0.407776
O O3 0.729935 0.247774 0.400065
O O4 0.556816 0.246222 0.404454
O O5 0.524187 0.207617 0.062475
O O6 0.289766 0.232215 0.139805
O O7 0.370867 0.269615 0.182015
O O8 0.384293 0.000000 0.144614
O O9 0.349760 0.500000 0.373584
O O10 0.412088 0.744877 0.389890
O O11 0.456226 0.727647 0.296007
O O12 0.816476 0.500000 0.013278
O O13 0.750000 0.750000 0.000000
O O14 0.795119 0.757788 0.059768
O O15 0.348861 0.802841 0.700190
O O16 0.500805 0.000000 0.613948
O O17 0.414521 0.200903 0.819327
O O18 0.652532 0.226687 0.732063
O O19 0.544475 0.000000 0.734042
O O20 0.757594 0.000000 0.117966
O O21 0.321611 0.500000 0.248125
#
# Coordination Sequence:
#
# PCOD9221415 Si02
#       8
#     8   8   8   8   8   8   8   8
#     4  11  25  46  72 102 137 178 223 272 328 389
#     4  11  24  40  59  86 120 160 205 258 319 383
#     4  12  25  42  68 101 136 179 225 272 331 393
#     4  11  24  41  60  84 115 155 204 256 316 384
#     4  11  24  43  68 100 137 177 224 276 329 392
#     4  11  23  40  63  92 129 167 211 268 324 385
#     4  11  24  40  60  88 119 158 206 259 320 382
#     4  11  23  39  63  95 127 165 214 265 323 386
#
# _framework density 20.276990999999999
#
# number of rings (size 3 to 8) (size 9 to 14) (size 15 to 20)
#    0.000    0.875    1.250    5.625    0.000   14.500 
#    0.000    0.000    0.000    0.000    0.000    0.000 
#    0.000    0.000    0.000    0.000    0.000    0.000 
#
# Total GULP energy -179028.469388 kJ/mol
# GULP energy per Si atom -5594.639668 kJ/mol
# Density = 2.023084 g / cm^3
# Si number density = 20.276991 Si / 1000 Ang^3
#
#
#
# Elastic Constant Matrix: (Units=GPa)
#
#
# Indices 1 2 3 4 5 6 
#
# 1 125.1570 57.2304 21.4371 0.0003 8.1909 0.0014
# 2 57.2304 120.5349 45.9519 0.0024 -7.3479 0.0039
# 3 21.4371 45.9519 77.1035 0.0002 2.3986 0.0007
# 4 0.0003 0.0024 0.0002 32.4414 -0.0001 4.6431
# 5 8.1909 -7.3479 2.3986 -0.0001 19.2289 0.0005
# 6 0.0014 0.0039 0.0007 4.6431 0.0005 37.5354
#
#
#
# Elastic Compliance Matrix: (Units=1/GPa)
#
#
# Indices 1 2 3 4 5 6 
#
# 1 0.011050 -0.005939 0.000687 0.000000 -0.007062 0.000000
# 2 -0.005939 0.014412 -0.007216 -0.000001 0.008937 -0.000001
# 3 0.000687 -0.007216 0.017241 0.000000 -0.005201 0.000000
# 4 0.000000 -0.000001 0.000000 0.031380 0.000000 -0.003882
# 5 -0.007062 0.008937 -0.005201 0.000000 0.059077 -0.000001
# 6 0.000000 -0.000001 0.000000 -0.003882 -0.000001 0.027122
#
#
# Mechanical properties :
#
#
# Convention : Reuss Voigt Hill
#
# Bulk Modulus (GPa) = 56.28433 63.55935 59.92184
# Shear Modulus (GPa) = 26.15866 31.05288 28.60577
#
# Velocity S-wave (km/s) = 3.59565 3.91760 3.76007
# Velocity P-wave (km/s) = 6.71239 7.20257 6.96180
#
# Compressibility (1/GPa) = 0.01776694
#
# Stress axis : x y z
#
# Youngs Moduli (GPa) = 90.49550 69.38618 58.00135
#
# Poissons Ratio (x) = 0.41209 -0.03985
# Poissons Ratio (y) = 0.53746 0.41854
# Poissons Ratio (z) = -0.06217 0.50069
#
# Static dielectric constant tensor:
#      x y z
#    x 1.700120 0.000000 -0.039230 
#    y 0.000000 1.674570 0.000000 
#    z -0.039230 0.000000 1.768040 
# 
# From -- ./inp_files/375404.got.cif
#   From: 2010.05.17/outbox.cif.g08.bks.cpg/sg12_188_cif.got.tgz:375404.got - 2010.06.03 13:09:07.
