data_PCOD9221701
_publ_section_title
;
Structure prediction by ZEFSAII (Michael W. Deem and Ramdas Pophale) SiO2 
 PCOD9221701
Probable space group: C 2/M
;
_chemical_formula_sum "Si O2"
_cell_formula_units_Z 40
_cell_length_a 8.512659
_cell_length_b 19.000459
_cell_length_c 14.081719
_cell_angle_alpha 90.000000
_cell_angle_beta 133.094885
_cell_angle_gamma 90.000000
_cell_volume 1663.185433
_symmetry_space_group_name_H-M "C 2/M"
_symmetry_group_IT_number 12
_symmetry_cell_setting 'monoclinic'
loop_
_space_group_symop_operation_xyz
x,y,z
-x,y,-z
-x,-y,-z
x,-y,z
1/2+x,1/2+y,z
1/2-x,1/2+y,-z
1/2-x,1/2-y,-z
1/2+x,1/2-y,z
loop_
_atom_site_type_symbol
_atom_site_label
_atom_site_fract_x
_atom_site_fract_y
_atom_site_fract_z
Si Si1 0.644099 0.619539 0.187753
Si Si2 0.116068 0.377458 0.312384
Si Si3 0.812900 0.500000 0.787405
Si Si4 0.688622 0.500000 0.953627
Si Si5 0.755595 0.582408 0.438471
Si Si6 0.495253 0.226977 0.098318
O O1 0.877941 0.595093 0.246746
O O2 0.450526 0.568589 0.077570
O O3 0.634898 0.615781 0.298881
O O4 0.621509 0.699503 0.145198
O O5 0.073777 0.313113 0.223911
O O6 0.238196 0.432778 0.296838
O O7 0.241631 0.372489 0.463817
O O8 0.716499 0.500000 0.851511
O O9 0.072385 0.500000 0.907702
O O10 0.697724 0.500000 0.432192
O O11 0.000000 0.580626 0.500000
O O12 0.500000 0.184624 0.000000
O O13 0.250000 0.250000 0.000000
#
# Coordination Sequence:
#
# PCOD9221701 Si02
#       6
#     8   8   4   4   8   8
#     4  11  23  43  68  94 126 176 216 263 319 389
#     4  11  23  42  69  93 130 173 214 263 326 379
#     4  11  25  38  61  98 132 168 212 271 327 371
#     4  11  25  38  63  96 133 165 219 267 319 389
#     4   9  18  39  67  98 127 161 217 270 313 380
#     4  12  26  43  64  93 132 173 218 266 319 384
#
# _framework density 24.050235000000001
#
# number of rings (size 3 to 8) (size 9 to 14) (size 15 to 20)
#    0.000    1.200    4.000    1.800    5.600    1.600 
#    0.000    2.000    0.000    0.000    0.000    0.000 
#    0.000    0.000    0.000    0.000    0.000    0.000 
#
# Total GULP energy -111855.139486 kJ/mol
# GULP energy per Si atom -5592.756974 kJ/mol
# Density = 2.399550 g / cm^3
# Si number density = 24.050235 Si / 1000 Ang^3
#
#
#
# Elastic Constant Matrix: (Units=GPa)
#
#
# Indices 1 2 3 4 5 6 
#
# 1 98.4000 21.9327 37.8561 0.0000 -38.5507 -0.0001
# 2 21.9327 87.6827 30.6360 0.0000 -25.7413 0.0000
# 3 37.8561 30.6360 141.9421 0.0000 -51.8264 -0.0001
# 4 0.0000 0.0000 0.0000 31.2521 0.0000 0.8872
# 5 -38.5507 -25.7413 -51.8264 0.0000 60.4412 -0.0001
# 6 -0.0001 0.0000 -0.0001 0.8872 -0.0001 -22.0854
#
#
#
# Elastic Compliance Matrix: (Units=1/GPa)
#
#
# Indices 1 2 3 4 5 6 
#
# 1 0.013655 -0.000915 -0.000592 0.000000 0.007812 0.000000
# 2 -0.000915 0.013225 -0.001116 0.000000 0.004091 0.000000
# 3 -0.000592 -0.001116 0.010383 0.000000 0.008050 0.000000
# 4 0.000000 0.000000 0.000000 0.031961 0.000000 0.001284
# 5 0.007812 0.004091 0.008050 0.000000 0.030173 0.000000
# 6 0.000000 0.000000 0.000000 0.001284 0.000000 -0.045227
#
#
# Mechanical properties :
#
#
# Convention : Reuss Voigt Hill
#
# Bulk Modulus (GPa) = 31.23473 56.54160 43.88816
# Shear Modulus (GPa) = 71.33732 29.76159 50.54945
#
# Velocity S-wave (km/s) = 5.45217 3.52159 4.58954
# Velocity P-wave (km/s) = 7.25606 6.33217 6.80980
#
# Compressibility (1/GPa) = 0.03201564
#
# Stress axis : x y z
#
# Youngs Moduli (GPa) = 73.23386 75.61506 96.30823
#
# Poissons Ratio (x) = 0.06922 0.05700
# Poissons Ratio (y) = 0.06704 0.10753
# Poissons Ratio (z) = 0.04334 0.08442
#
# Static dielectric constant tensor:
#      x y z
#    x 1.934600 0.000000 0.047810 
#    y 0.000000 1.909820 0.000000 
#    z 0.047810 0.000000 1.748800 
# 
# From -- ./inp_files/196805.got.cif
#   From: 2010.05.17/outbox.cif.g08.bks.cpg/sg12_99_cif.got.tgz:196805.got - 2010.06.03 13:09:07.
