data_PCOD9221392
_publ_section_title
;
Structure prediction by ZEFSAII (Michael W. Deem and Ramdas Pophale) SiO2 
 PCOD9221392
Probable space group: C 2/M
;
_chemical_formula_sum "Si O2"
_cell_formula_units_Z 56
_cell_length_a 19.096801
_cell_length_b 18.890147
_cell_length_c 8.722277
_cell_angle_alpha 90.000000
_cell_angle_beta 62.822875
_cell_angle_gamma 90.000000
_cell_volume 2799.110358
_symmetry_space_group_name_H-M "C 2/M"
_symmetry_group_IT_number 12
_symmetry_cell_setting 'monoclinic'
loop_
_space_group_symop_operation_xyz
x,y,z
-x,y,-z
-x,-y,-z
x,-y,z
1/2+x,1/2+y,z
1/2-x,1/2+y,-z
1/2-x,1/2-y,-z
1/2+x,1/2-y,z
loop_
_atom_site_type_symbol
_atom_site_label
_atom_site_fract_x
_atom_site_fract_y
_atom_site_fract_z
Si Si1 0.655989 0.653657 0.526669
Si Si2 0.591775 0.205739 0.091006
Si Si3 0.312510 0.917459 0.871283
Si Si4 0.344011 0.653657 0.838647
Si Si5 0.187490 0.417459 0.496303
Si Si6 0.000000 0.915190 0.821540
Si Si7 0.408225 0.794261 0.274556
O O1 0.662860 0.651182 0.337140
O O2 0.730958 0.616295 0.527054
O O3 0.577557 0.613792 0.661937
O O4 0.644656 0.734216 0.593520
O O5 0.619004 0.129627 0.123454
O O6 0.644657 0.265784 0.117167
O O7 0.500000 0.218948 0.219044
O O8 0.601803 0.210044 0.898197
O O9 0.316035 0.912375 0.683965
O O10 0.316697 0.000000 0.910125
O O11 0.230958 0.883705 0.011030
O O12 0.422443 0.613792 0.817051
O O13 0.183303 0.500000 0.543518
O O14 0.119004 0.370373 0.638538
O O15 1.000000 0.000000 0.818649
O O16 0.000000 0.891599 0.000000
#
# Coordination Sequence:
#
# PCOD9221392 Si02
#       7
#     8   8   8   8   8   8   8
#     4  12  24  40  65  95 129 167 213 265 316 380
#     4  11  24  43  68  95 128 169 214 265 320 382
#     4  11  25  44  66  93 129 171 214 265 323 381
#     4  12  24  40  65  95 129 167 213 265 316 380
#     4  11  25  44  66  93 129 171 214 265 323 381
#     4  11  23  39  61  91 130 171 210 257 317 381
#     4  11  24  43  68  95 128 169 214 265 320 382
#
# _framework density 20.006356
#
# number of rings (size 3 to 8) (size 9 to 14) (size 15 to 20)
#    0.000    0.714    1.429    6.429    0.000    9.143 
#    0.000    2.857    0.000    0.000    0.000    0.000 
#    0.000    0.000    0.000    0.000    0.000    0.000 
#
# Total GULP energy -156798.704608 kJ/mol
# GULP energy per Si atom -5599.953736 kJ/mol
# Density = 1.996082 g / cm^3
# Si number density = 20.006356 Si / 1000 Ang^3
#
#
#
# Elastic Constant Matrix: (Units=GPa)
#
#
# Indices 1 2 3 4 5 6 
#
# 1 42.2802 15.2018 -5.2144 0.0000 12.4814 0.0000
# 2 15.2018 124.3528 23.1486 0.0000 4.6422 0.0000
# 3 -5.2144 23.1486 60.5681 0.0000 -1.7980 0.0000
# 4 0.0000 0.0000 0.0000 32.9282 0.0000 5.1539
# 5 12.4814 4.6422 -1.7980 0.0000 26.0886 0.0000
# 6 0.0000 0.0000 0.0000 5.1539 0.0000 24.1061
#
#
#
# Elastic Compliance Matrix: (Units=1/GPa)
#
#
# Indices 1 2 3 4 5 6 
#
# 1 0.029314 -0.003759 0.003571 0.000000 -0.013109 0.000000
# 2 -0.003759 0.009222 -0.003851 0.000000 -0.000108 0.000000
# 3 0.003571 -0.003851 0.018297 0.000000 0.000238 0.000000
# 4 0.000000 0.000000 0.000000 0.031421 0.000000 -0.006718
# 5 -0.013109 -0.000108 0.000238 0.000000 0.044638 0.000000
# 6 0.000000 0.000000 0.000000 -0.006718 0.000000 0.042920
#
#
# Mechanical properties :
#
#
# Convention : Reuss Voigt Hill
#
# Bulk Modulus (GPa) = 20.51109 32.60813 26.55961
# Shear Modulus (GPa) = 24.98238 29.56224 27.27231
#
# Velocity S-wave (km/s) = 3.53756 3.84818 3.69614
# Velocity P-wave (km/s) = 5.19233 6.00657 5.61423
#
# Compressibility (1/GPa) = 0.04875411
#
# Stress axis : x y z
#
# Youngs Moduli (GPa) = 34.11382 108.43470 54.65427
#
# Poissons Ratio (x) = 0.40760 -0.19518
# Poissons Ratio (y) = 0.12823 0.21050
# Poissons Ratio (z) = -0.12182 0.41763
#
# Static dielectric constant tensor:
#      x y z
#    x 1.685840 0.000000 -0.009710 
#    y 0.000000 1.701000 0.000000 
#    z -0.009710 0.000000 1.669220 
# 
# From -- ./inp_files/75900.got.cif
#   From: 2010.05.17/outbox.cif.g08.bks.cpg/sg12_38_cif.got.tgz:75900.got - 2010.06.03 13:09:07.
