data_PCOD9221945
_publ_section_title
;
Structure prediction by ZEFSAII (Michael W. Deem and Ramdas Pophale) SiO2 
 PCOD9221945
Probable space group: C 2/M
;
_chemical_formula_sum "Si O2"
_cell_formula_units_Z 40
_cell_length_a 15.862270
_cell_length_b 25.049638
_cell_length_c 5.111165
_cell_angle_alpha 90.000000
_cell_angle_beta 75.434892
_cell_angle_gamma 90.000000
_cell_volume 1965.623587
_symmetry_space_group_name_H-M "C 2/M"
_symmetry_group_IT_number 12
_symmetry_cell_setting 'monoclinic'
loop_
_space_group_symop_operation_xyz
x,y,z
-x,y,-z
-x,-y,-z
x,-y,z
1/2+x,1/2+y,z
1/2-x,1/2+y,-z
1/2-x,1/2-y,-z
1/2+x,1/2-y,z
loop_
_atom_site_type_symbol
_atom_site_label
_atom_site_fract_x
_atom_site_fract_y
_atom_site_fract_z
Si Si1 0.180913 0.718027 0.377258
Si Si2 0.796401 0.877911 0.096194
Si Si3 0.231888 0.436754 0.639904
Si Si4 0.060889 0.369035 0.701717
Si Si5 0.058047 0.802064 0.198754
O O1 0.250000 0.750000 0.500000
O O2 0.231248 0.672597 0.175567
O O3 0.113129 0.685811 0.610774
O O4 0.127271 0.757680 0.235939
O O5 0.791955 0.907599 0.376908
O O6 0.761689 0.917029 0.900566
O O7 0.888415 0.853300 0.942711
O O8 0.235392 0.500000 0.611692
O O9 0.134501 0.414307 0.670735
O O10 0.000000 0.378750 0.500000
O O11 0.000000 0.366214 0.000000
O O12 0.000000 0.813377 0.500000
O O13 0.000000 0.783648 0.000000
#
# Coordination Sequence:
#
# PCOD9221945 Si02
#       5
#     8   8   8   8   8
#     4  11  24  41  64  94 134 179 216 248 304 381
#     4  11  24  43  64  92 127 162 211 262 305 374
#     4  11  24  44  69  90 117 166 215 260 318 378
#     4  11  24  40  60  92 132 163 204 262 313 366
#     4  12  25  40  64  95 131 168 207 257 316 379
#
# _framework density 20.349777
#
# number of rings (size 3 to 8) (size 9 to 14) (size 15 to 20)
#    0.000    0.800    0.000    9.000    0.000   12.000 
#    0.000    0.000    0.000   12.000    0.000    0.000 
#    0.000    0.000    0.000    0.000    0.000    0.000 
#
# Total GULP energy -112053.876550 kJ/mol
# GULP energy per Si atom -5602.693827 kJ/mol
# Density = 2.030346 g / cm^3
# Si number density = 20.349777 Si / 1000 Ang^3
#
#
#
# Elastic Constant Matrix: (Units=GPa)
#
#
# Indices 1 2 3 4 5 6 
#
# 1 81.8961 25.4091 21.0440 0.0000 11.7171 0.0000
# 2 25.4091 102.5003 23.3242 0.0000 -15.1087 0.0000
# 3 21.0440 23.3242 137.7564 0.0000 -13.3029 0.0000
# 4 0.0000 0.0000 0.0000 25.9871 0.0000 11.8691
# 5 11.7171 -15.1087 -13.3029 0.0000 34.9135 0.0000
# 6 0.0000 0.0000 0.0000 11.8691 0.0000 23.6448
#
#
#
# Elastic Compliance Matrix: (Units=1/GPa)
#
#
# Indices 1 2 3 4 5 6 
#
# 1 0.015334 -0.004438 -0.002360 0.000000 -0.007966 0.000000
# 2 -0.004438 0.011964 -0.000731 0.000000 0.006389 0.000000
# 3 -0.002360 -0.000731 0.008087 0.000000 0.003557 0.000000
# 4 0.000000 0.000000 0.000000 0.049927 0.000000 -0.025062
# 5 -0.007966 0.006389 0.003557 0.000000 0.035436 0.000000
# 6 0.000000 0.000000 0.000000 -0.025062 0.000000 0.054873
#
#
# Mechanical properties :
#
#
# Convention : Reuss Voigt Hill
#
# Bulk Modulus (GPa) = 49.19695 51.30084 50.24889
# Shear Modulus (GPa) = 25.32218 33.73412 29.52815
#
# Velocity S-wave (km/s) = 3.53136 4.07592 3.81337
# Velocity P-wave (km/s) = 6.39183 6.88586 6.64344
#
# Compressibility (1/GPa) = 0.02032646
#
# Stress axis : x y z
#
# Youngs Moduli (GPa) = 65.21531 83.58232 123.65538
#
# Poissons Ratio (x) = 0.37096 0.29186
# Poissons Ratio (y) = 0.28944 0.09037
# Poissons Ratio (z) = 0.15392 0.06108
#
# Static dielectric constant tensor:
#      x y z
#    x 1.716510 0.000000 -0.017990 
#    y 0.000000 1.693000 0.000000 
#    z -0.017990 0.000000 1.726130 
# 
# From -- ./inp_files/11532.got.cif
#   From: 2010.05.17/outbox.cif.g08.bks.cpg/sg12_6_cif.got.tgz:11532.got - 2010.06.03 13:09:07.
