data_PCOD9221917
_publ_section_title
;
Structure prediction by ZEFSAII (Michael W. Deem and Ramdas Pophale) SiO2 
 PCOD9221917
Probable space group: C 2/M
;
_chemical_formula_sum "Si O2"
_cell_formula_units_Z 40
_cell_length_a 22.525250
_cell_length_b 7.427548
_cell_length_c 19.295901
_cell_angle_alpha 90.000000
_cell_angle_beta 149.740683
_cell_angle_gamma 90.000000
_cell_volume 1626.810449
_symmetry_space_group_name_H-M "C 2/M"
_symmetry_group_IT_number 12
_symmetry_cell_setting 'monoclinic'
loop_
_space_group_symop_operation_xyz
x,y,z
-x,y,-z
-x,-y,-z
x,-y,z
1/2+x,1/2+y,z
1/2-x,1/2+y,-z
1/2-x,1/2-y,-z
1/2+x,1/2-y,z
loop_
_atom_site_type_symbol
_atom_site_label
_atom_site_fract_x
_atom_site_fract_y
_atom_site_fract_z
Si Si1 0.142894 0.202732 0.942029
Si Si2 0.501037 0.279339 0.921307
Si Si3 0.992719 0.718767 0.665080
Si Si4 0.757985 0.719888 0.351169
Si Si5 0.874740 0.707244 0.332894
O O1 0.029875 0.217219 0.777761
O O2 0.105492 0.289457 0.977128
O O3 0.169029 0.000000 0.986939
O O4 0.250000 0.250000 0.000000
O O5 0.505357 0.500000 0.926434
O O6 0.373490 0.228048 0.761966
O O7 0.500000 0.222566 0.000000
O O8 0.996072 0.500000 0.667740
O O9 0.090137 0.782799 0.706488
O O10 0.864323 0.775909 0.508568
O O11 0.762943 0.500000 0.353914
O O12 0.787069 0.783601 0.301973
O O13 0.838464 0.500000 0.285160
O O14 0.000000 0.704364 0.500000
#
# Coordination Sequence:
#
# PCOD9221917 Si02
#       5
#     8   8   8   8   8
#     4  11  24  39  56  81 112 147 186 228 278 334
#     4   9  19  34  54  83 112 141 185 239 278 312
#     4   9  17  31  55  85 113 143 179 224 278 330
#     4   8  14  27  51  83 113 139 180 232 274 315
#     4   7  11  21  43  78 109 133 169 216 259 305
#
# _framework density 24.587990000000001
#
# number of rings (size 3 to 8) (size 9 to 14) (size 15 to 20)
#    0.000    3.200    0.000    3.000    2.800    0.800 
#    0.000    0.000    0.000    9.000    0.000    0.000 
#    0.000    0.000    0.000    0.000    0.000    0.000 
#
# Total GULP energy -111613.111379 kJ/mol
# GULP energy per Si atom -5580.655569 kJ/mol
# Density = 2.453203 g / cm^3
# Si number density = 24.587990 Si / 1000 Ang^3
#
#
#
# Elastic Constant Matrix: (Units=GPa)
#
#
# Indices 1 2 3 4 5 6 
#
# 1 196.0842 8.8579 68.2436 0.0000 13.3936 0.0000
# 2 8.8579 70.1816 -4.0453 0.0000 9.0431 0.0000
# 3 68.2436 -4.0453 105.8449 0.0000 3.7865 0.0000
# 4 0.0000 0.0000 0.0000 9.0176 0.0000 -3.7416
# 5 13.3936 9.0431 3.7865 0.0000 43.9665 0.0000
# 6 0.0000 0.0000 0.0000 -3.7416 0.0000 -2.4156
#
#
#
# Elastic Compliance Matrix: (Units=1/GPa)
#
#
# Indices 1 2 3 4 5 6 
#
# 1 0.006752 -0.000909 -0.004334 0.000000 -0.001496 0.000000
# 2 -0.000909 0.014806 0.001255 0.000000 -0.002877 0.000000
# 3 -0.004334 0.001255 0.012290 0.000000 0.000004 0.000000
# 4 0.000000 0.000000 0.000000 0.067507 0.000000 -0.104566
# 5 -0.001496 -0.002877 0.000004 0.000000 0.023792 0.000000
# 6 0.000000 0.000000 0.000000 -0.104566 0.000000 -0.252012
#
#
# Mechanical properties :
#
#
# Convention : Reuss Voigt Hill
#
# Bulk Modulus (GPa) = 38.65293 57.58036 48.11664
# Shear Modulus (GPa) = -45.34554 30.05066 -7.64744
#
# Velocity S-wave (km/s) = -4.29909 3.49974 -1.76550
# Velocity P-wave (km/s) = 2.98137 6.30871 3.93137
#
# Compressibility (1/GPa) = 0.02587126
#
# Stress axis : x y z
#
# Youngs Moduli (GPa) = 148.11251 67.53796 81.36581
#
# Poissons Ratio (x) = 0.06140 0.35267
# Poissons Ratio (y) = 0.13466 -0.10211
# Poissons Ratio (z) = 0.64197 -0.08476
#
# Static dielectric constant tensor:
#      x y z
#    x 1.995300 0.000000 0.021460 
#    y 0.000000 2.039320 0.000000 
#    z 0.021460 0.000000 1.955590 
# 
# From -- ./inp_files/281886.got.cif
#   From: 2010.05.17/outbox.cif.g08.bks.cpg/sg12_141_cif.got.tgz:281886.got - 2010.06.03 13:09:07.
