data_PCOD9221454
_publ_section_title
;
Structure prediction by ZEFSAII (Michael W. Deem and Ramdas Pophale) SiO2 
 PCOD9221454
Probable space group: C 2/M
;
_chemical_formula_sum "Si O2"
_cell_formula_units_Z 56
_cell_length_a 9.290477
_cell_length_b 30.942279
_cell_length_c 15.230394
_cell_angle_alpha 90.000000
_cell_angle_beta 46.583925
_cell_angle_gamma 90.000000
_cell_volume 3180.287965
_symmetry_space_group_name_H-M "C 2/M"
_symmetry_group_IT_number 12
_symmetry_cell_setting 'monoclinic'
loop_
_space_group_symop_operation_xyz
x,y,z
-x,y,-z
-x,-y,-z
x,-y,z
1/2+x,1/2+y,z
1/2-x,1/2+y,-z
1/2-x,1/2-y,-z
1/2+x,1/2-y,z
loop_
_atom_site_type_symbol
_atom_site_label
_atom_site_fract_x
_atom_site_fract_y
_atom_site_fract_z
Si Si1 0.312454 0.500000 0.855830
Si Si2 0.273234 0.237319 0.090236
Si Si3 0.529098 0.584009 0.138931
Si Si4 0.814008 0.795957 0.512883
Si Si5 0.882777 0.320390 0.744159
Si Si6 0.417608 0.670984 0.283912
Si Si7 0.513468 0.000000 0.149475
Si Si8 0.308935 0.086038 0.859595
O O1 0.434047 0.543485 0.814992
O O2 0.190123 0.500000 0.817961
O O3 0.173643 0.500000 0.001968
O O4 0.237319 0.281950 0.157833
O O5 0.098278 0.204552 0.191033
O O6 0.500000 0.220645 0.000000
O O7 0.250000 0.250000 0.000000
O O8 0.486048 0.625366 0.216039
O O9 0.355165 0.572596 0.143420
O O10 0.711954 0.593133 0.996288
O O11 0.750000 0.750000 0.500000
O O12 0.615189 0.810998 0.644119
O O13 0.867900 0.826132 0.407385
O O14 0.000000 0.792275 0.500000
O O15 0.780565 0.319953 0.690635
O O16 0.866863 0.366724 0.798926
O O17 0.547347 0.955304 0.188356
#
# Coordination Sequence:
#
# PCOD9221454 Si02
#       8
#     4   8   8   8   8   8   4   8
#     4   9  17  31  49  80 121 150 183 227 280 341
#     4  12  24  37  56  85 120 150 184 232 292 341
#     4   9  18  34  56  84 115 150 187 230 283 345
#     4  12  26  42  60  80 109 154 203 243 287 333
#     4  11  23  40  61  83 115 152 197 241 281 342
#     4  11  23  41  59  85 113 153 197 238 285 341
#     4   9  17  31  49  82 117 152 185 225 280 343
#     4   9  18  33  58  83 114 150 189 228 283 343
#
# _framework density 17.608468999999999
#
# number of rings (size 3 to 8) (size 9 to 14) (size 15 to 20)
#    0.000    1.571    2.857    2.571    4.000    2.857 
#    5.143    0.000    0.000    0.857    0.000    6.000 
#    0.000    0.000    0.000    0.000    0.000    0.000 
#
# Total GULP energy -156059.307612 kJ/mol
# GULP energy per Si atom -5573.546700 kJ/mol
# Density = 1.756839 g / cm^3
# Si number density = 17.608469 Si / 1000 Ang^3
#
#
#
# Elastic Constant Matrix: (Units=GPa)
#
#
# Indices 1 2 3 4 5 6 
#
# 1 107.4197 49.9170 27.2324 0.0000 -3.7092 0.0000
# 2 49.9170 90.1149 7.9310 0.0000 1.2280 0.0000
# 3 27.2324 7.9310 42.8934 0.0000 -3.5968 0.0000
# 4 0.0000 0.0000 0.0000 6.5026 0.0000 -0.1685
# 5 -3.7092 1.2280 -3.5968 0.0000 32.4066 0.0000
# 6 0.0000 0.0000 0.0000 -0.1685 0.0000 23.1073
#
#
#
# Elastic Compliance Matrix: (Units=1/GPa)
#
#
# Indices 1 2 3 4 5 6 
#
# 1 0.014874 -0.007554 -0.007954 0.000000 0.001106 0.000000
# 2 -0.007554 0.015131 0.001895 0.000000 -0.001228 0.000000
# 3 -0.007954 0.001895 0.028193 0.000000 0.002147 0.000000
# 4 0.000000 0.000000 0.000000 0.153813 0.000000 0.001121
# 5 0.001106 -0.001228 0.002147 0.000000 0.031269 0.000000
# 6 0.000000 0.000000 0.000000 0.001121 0.000000 0.043285
#
#
# Mechanical properties :
#
#
# Convention : Reuss Voigt Hill
#
# Bulk Modulus (GPa) = 32.28625 45.62100 38.95363
# Shear Modulus (GPa) = 15.42658 22.75981 19.09319
#
# Velocity S-wave (km/s) = 2.96309 3.59910 3.29647
# Velocity P-wave (km/s) = 5.48470 6.57542 6.05468
#
# Compressibility (1/GPa) = 0.03097293
#
# Stress axis : x y z
#
# Youngs Moduli (GPa) = 67.22987 66.08777 35.46977
#
# Poissons Ratio (x) = 0.49925 0.28213
# Poissons Ratio (y) = 0.50788 -0.06723
# Poissons Ratio (z) = 0.53474 -0.12526
#
# Static dielectric constant tensor:
#      x y z
#    x 1.628670 0.000000 -0.030290 
#    y 0.000000 1.478380 0.000000 
#    z -0.030290 0.000000 1.589550 
# 
# From -- ./inp_files/200885.got.cif
#   From: 2010.05.17/outbox.cif.g08.bks.cpg/sg12_101_cif.got.tgz:200885.got - 2010.06.03 13:09:07.
