data_PCOD9221933
_publ_section_title
;
Structure prediction by ZEFSAII (Michael W. Deem and Ramdas Pophale) SiO2 
 PCOD9221933
Probable space group: C 2/M
;
_chemical_formula_sum "Si O2"
_cell_formula_units_Z 56
_cell_length_a 18.688765
_cell_length_b 8.729111
_cell_length_c 29.828594
_cell_angle_alpha 90.000000
_cell_angle_beta 38.561902
_cell_angle_gamma 90.000000
_cell_volume 3033.347684
_symmetry_space_group_name_H-M "C 2/M"
_symmetry_group_IT_number 12
_symmetry_cell_setting 'monoclinic'
loop_
_space_group_symop_operation_xyz
x,y,z
-x,y,-z
-x,-y,-z
x,-y,z
1/2+x,1/2+y,z
1/2-x,1/2+y,-z
1/2-x,1/2-y,-z
1/2+x,1/2-y,z
loop_
_atom_site_type_symbol
_atom_site_label
_atom_site_fract_x
_atom_site_fract_y
_atom_site_fract_z
Si Si1 0.629231 0.313521 0.430725
Si Si2 0.328477 0.184530 0.270006
Si Si3 0.248107 0.817656 0.136571
Si Si4 0.325764 0.683795 0.003269
Si Si5 0.207435 0.315726 0.567390
Si Si6 0.996834 0.684474 0.271311
Si Si7 0.593794 0.316770 0.862541
O O1 0.500000 0.257304 0.500000
O O2 0.625938 0.500000 0.430938
O O3 0.704694 0.267155 0.350758
O O4 0.702842 0.270227 0.438023
O O5 0.422926 0.218101 0.262459
O O6 0.359011 0.262774 0.208553
O O7 0.327727 0.000000 0.264593
O O8 0.118865 0.764795 0.210838
O O9 0.333808 0.757811 0.132917
O O10 0.253929 0.000000 0.131182
O O11 0.282464 0.746802 0.071920
O O12 0.316683 0.500000 0.007532
O O13 0.459494 0.725731 0.931644
O O14 0.250000 0.750000 0.000000
O O15 0.207055 0.500000 0.565178
O O16 0.250000 0.250000 0.500000
O O17 0.082629 0.269515 0.647478
O O18 0.012187 0.500000 0.265076
O O19 0.602538 0.500000 0.862073
#
# Coordination Sequence:
#
# PCOD9221933 Si02
#       7
#     8   8   8   8   8   8   8
#     4   8  15  30  52  77 106 140 180 224 269 320
#     4   9  18  34  57  82 108 145 189 228 271 327
#     4  12  25  39  59  86 113 145 188 235 281 329
#     4  11  24  42  64  88 115 149 186 224 272 331
#     4   9  18  32  52  79 110 146 185 228 278 329
#     4   9  19  37  57  78 112 153 190 232 282 335
#     4  11  24  40  58  83 116 149 180 223 280 335
#
# _framework density 18.461449999999999
#
# number of rings (size 3 to 8) (size 9 to 14) (size 15 to 20)
#    0.000    2.143    0.000    5.143    0.000    8.571 
#    0.000    3.571    0.000    0.857    0.000    0.000 
#    0.000    0.000    0.000    0.000    0.000    0.000 
#
# Total GULP energy -156343.411305 kJ/mol
# GULP energy per Si atom -5583.693261 kJ/mol
# Density = 1.841943 g / cm^3
# Si number density = 18.461450 Si / 1000 Ang^3
#
#
#
# Elastic Constant Matrix: (Units=GPa)
#
#
# Indices 1 2 3 4 5 6 
#
# 1 125.6502 50.7310 113.0729 0.0001 -5.7787 0.0003
# 2 50.7310 44.8200 58.6786 0.0002 -5.0865 0.0002
# 3 113.0729 58.6786 211.9254 0.0000 -2.7152 0.0000
# 4 0.0001 0.0002 0.0000 34.0536 0.0000 6.8667
# 5 -5.7787 -5.0865 -2.7152 0.0000 39.2006 0.0001
# 6 0.0003 0.0002 0.0000 6.8667 0.0001 27.2662
#
#
#
# Elastic Compliance Matrix: (Units=1/GPa)
#
#
# Indices 1 2 3 4 5 6 
#
# 1 0.019206 -0.012951 -0.006653 0.000000 0.000690 0.000000
# 2 -0.012951 0.044329 -0.005319 0.000000 0.003474 0.000000
# 3 -0.006653 -0.005319 0.009728 0.000000 -0.000997 0.000000
# 4 0.000000 0.000000 0.000000 0.030936 0.000000 -0.007791
# 5 0.000690 0.003474 -0.000997 0.000000 0.025993 0.000000
# 6 0.000000 0.000000 0.000000 -0.007791 0.000000 0.038637
#
#
# Mechanical properties :
#
#
# Convention : Reuss Voigt Hill
#
# Bulk Modulus (GPa) = 42.70374 91.92896 67.31635
# Shear Modulus (GPa) = 22.07679 30.76497 26.42088
#
# Velocity S-wave (km/s) = 3.46183 4.08664 3.78714
# Velocity P-wave (km/s) = 6.25784 8.49533 7.46094
#
# Compressibility (1/GPa) = 0.02341715
#
# Stress axis : x y z
#
# Youngs Moduli (GPa) = 52.06719 22.55858 102.79360
#
# Poissons Ratio (x) = 0.29216 0.68384
# Poissons Ratio (y) = 0.67432 0.54681
# Poissons Ratio (z) = 0.34638 0.12000
#
# Static dielectric constant tensor:
#      x y z
#    x 1.606870 0.000000 -0.013930 
#    y 0.000000 1.625260 0.000000 
#    z -0.013930 0.000000 1.633620 
# 
# From -- ./inp_files/314385.got.cif
#   From: 2010.05.17/outbox.cif.g08.bks.cpg/sg12_158_cif.got.tgz:314385.got - 2010.06.03 13:09:07.
