data_PCOD9221361
_publ_section_title
;
Structure prediction by ZEFSAII (Michael W. Deem and Ramdas Pophale) SiO2 
 PCOD9221361
Probable space group: C 2/M
;
_chemical_formula_sum "Si O2"
_cell_formula_units_Z 52
_cell_length_a 15.014350
_cell_length_b 7.552389
_cell_length_c 30.462555
_cell_angle_alpha 90.000000
_cell_angle_beta 40.548722
_cell_angle_gamma 90.000000
_cell_volume 2245.606512
_symmetry_space_group_name_H-M "C 2/M"
_symmetry_group_IT_number 12
_symmetry_cell_setting 'monoclinic'
loop_
_space_group_symop_operation_xyz
x,y,z
-x,y,-z
-x,-y,-z
x,-y,z
1/2+x,1/2+y,z
1/2-x,1/2+y,-z
1/2-x,1/2-y,-z
1/2+x,1/2-y,z
loop_
_atom_site_type_symbol
_atom_site_label
_atom_site_fract_x
_atom_site_fract_y
_atom_site_fract_z
Si Si1 0.037027 0.703767 0.300336
Si Si2 0.000000 0.247949 0.500000
Si Si3 0.261879 0.292812 0.358706
Si Si4 0.090179 0.212060 0.558402
Si Si5 0.700739 0.716701 0.754296
Si Si6 0.103451 0.790921 0.998260
Si Si7 0.592887 0.714273 0.102736
O O1 0.048961 0.500000 0.282657
O O2 0.920632 0.784266 0.313389
O O3 0.975634 0.720026 0.372305
O O4 0.190306 0.777042 0.249742
O O5 0.842756 0.187790 0.570632
O O6 0.968879 0.307701 0.462233
O O7 0.224307 0.500000 0.377778
O O8 0.253783 0.230420 0.311576
O O9 0.250000 0.250000 0.500000
O O10 0.066461 0.000000 0.562543
O O11 0.704053 0.500000 0.753029
O O12 0.546255 0.772499 0.821803
O O13 0.264945 0.769649 0.927923
O O14 0.073582 0.000000 0.012589
O O15 0.088922 0.720382 0.053556
O O16 0.000000 0.718505 0.000000
O O17 0.593677 0.500000 0.101745
#
# Coordination Sequence:
#
# PCOD9221361 Si02
#       7
#     8   4   8   8   8   8   8
#     4  11  23  40  59  83 113 147 189 237 288 347
#     4  12  24  38  62  84 112 142 190 244 292 340
#     4  11  23  39  59  83 110 147 193 240 293 348
#     4  12  25  40  60  85 113 144 186 239 294 349
#     4   9  20  39  58  80 114 154 189 227 285 347
#     4   9  18  33  56  87 119 149 185 231 279 327
#     4   9  18  35  58  82 114 154 191 227 272 334
#
# _framework density 23.156327999999998
#
# number of rings (size 3 to 8) (size 9 to 14) (size 15 to 20)
#    0.000    1.692    3.077    1.385    0.000    3.385 
#    0.000    3.846    0.000    0.000    0.000    0.000 
#    0.000    0.000    0.000    0.000    0.000    0.000 
#
# Total GULP energy -144977.215519 kJ/mol
# GULP energy per Si atom -5576.046751 kJ/mol
# Density = 2.310362 g / cm^3
# Si number density = 23.156328 Si / 1000 Ang^3
#
#
#
# Elastic Constant Matrix: (Units=GPa)
#
#
# Indices 1 2 3 4 5 6 
#
# 1 167.8899 9.2578 17.4042 -0.0078 -31.9395 -0.0021
# 2 9.2578 85.5984 -4.6278 -0.0070 2.6624 -0.0056
# 3 17.4042 -4.6278 92.6471 0.0001 -31.3996 0.0006
# 4 -0.0078 -0.0070 0.0001 66.0535 0.0017 -20.2570
# 5 -31.9395 2.6624 -31.3996 0.0017 30.6600 -0.0007
# 6 -0.0021 -0.0056 0.0006 -20.2570 -0.0007 13.2151
#
#
#
# Elastic Compliance Matrix: (Units=1/GPa)
#
#
# Indices 1 2 3 4 5 6 
#
# 1 0.007741 -0.001048 0.001926 0.000002 0.010127 0.000004
# 2 -0.001048 0.011864 0.000108 0.000005 -0.002012 0.000012
# 3 0.001926 0.000108 0.017022 0.000000 0.019430 0.000000
# 4 0.000002 0.000005 0.000000 0.028570 0.000001 0.043793
# 5 0.010127 -0.002012 0.019430 0.000001 0.063239 0.000004
# 6 0.000004 0.000012 0.000000 0.043793 0.000004 0.142800
#
#
# Mechanical properties :
#
#
# Convention : Reuss Voigt Hill
#
# Bulk Modulus (GPa) = 25.90783 43.35596 34.63190
# Shear Modulus (GPa) = 17.72224 43.59249 30.65737
#
# Velocity S-wave (km/s) = 2.76946 4.34352 3.64253
# Velocity P-wave (km/s) = 4.63024 6.62712 5.71655
#
# Compressibility (1/GPa) = 0.03859836
#
# Stress axis : x y z
#
# Youngs Moduli (GPa) = 129.18084 84.28714 58.74641
#
# Poissons Ratio (x) = 0.08834 -0.11313
# Poissons Ratio (y) = 0.13539 -0.00633
# Poissons Ratio (z) = -0.24877 -0.00908
#
# Static dielectric constant tensor:
#      x y z
#    x 1.877130 0.000000 -0.044940 
#    y 0.000000 1.964380 0.000000 
#    z -0.044940 0.000000 1.870130 
# 
# From -- ./inp_files/375295.got.cif
#   From: 2010.05.17/outbox.cif.g08.bks.cpg/sg12_188_cif.got.tgz:375295.got - 2010.06.03 13:09:07.
