data_PCOD9221143
_publ_section_title
;
Structure prediction by ZEFSAII (Michael W. Deem and Ramdas Pophale) SiO2 
 PCOD9221143
Probable space group: C 2/M
;
_chemical_formula_sum "Si O2"
_cell_formula_units_Z 44
_cell_length_a 9.657849
_cell_length_b 21.099028
_cell_length_c 11.772870
_cell_angle_alpha 90.000000
_cell_angle_beta 47.854522
_cell_angle_gamma 90.000000
_cell_volume 1778.702224
_symmetry_space_group_name_H-M "C 2/M"
_symmetry_group_IT_number 12
_symmetry_cell_setting 'monoclinic'
loop_
_space_group_symop_operation_xyz
x,y,z
-x,y,-z
-x,-y,-z
x,-y,z
1/2+x,1/2+y,z
1/2-x,1/2+y,-z
1/2-x,1/2-y,-z
1/2+x,1/2-y,z
loop_
_atom_site_type_symbol
_atom_site_label
_atom_site_fract_x
_atom_site_fract_y
_atom_site_fract_z
Si Si1 0.596947 0.000000 0.774175
Si Si2 0.825747 0.394990 0.830174
Si Si3 0.047843 0.719942 0.101715
Si Si4 0.202970 0.752423 0.393896
Si Si5 0.626936 0.606769 0.332051
Si Si6 0.532953 0.423308 0.810903
O O1 0.482321 0.946476 0.765514
O O2 0.708041 0.942854 0.782124
O O3 0.929670 0.331482 0.811344
O O4 0.723320 0.402221 0.766884
O O5 0.650775 0.406993 0.012821
O O6 0.883568 0.768769 0.223594
O O7 0.250000 0.750000 0.000000
O O8 0.000000 0.696396 0.000000
O O9 0.250000 0.750000 0.500000
O O10 0.178792 0.823548 0.350872
O O11 0.000000 0.721220 0.500000
O O12 0.500000 0.575946 0.500000
O O13 0.501269 0.609664 0.290177
O O14 0.537864 0.500000 0.796154
#
# Coordination Sequence:
#
# PCOD9221143 Si02
#       6
#     4   8   8   8   8   8
#     4  12  21  42  73 109 147 179 251 298 372 444
#     4  11  24  43  71 112 146 186 237 303 384 436
#     4  12  27  48  75 112 146 196 262 321 369 442
#     4  11  25  51  73 103 150 199 253 309 381 451
#     4  11  25  44  70 104 141 197 246 296 369 445
#     4  11  22  42  70 105 151 188 228 300 375 454
#
# _framework density 24.737137000000001
#
# number of rings (size 3 to 8) (size 9 to 14) (size 15 to 20)
#    0.000    0.727    4.545    3.000    2.545    2.182 
#    6.545    1.818    0.000    0.000    0.000    0.000 
#    0.000    0.000    0.000    0.000    0.000    0.000 
#
# Total GULP energy -122525.165693 kJ/mol
# GULP energy per Si atom -5569.325713 kJ/mol
# Density = 2.468083 g / cm^3
# Si number density = 24.737137 Si / 1000 Ang^3
#
#
#
# Elastic Constant Matrix: (Units=GPa)
#
#
# Indices 1 2 3 4 5 6 
#
# 1 232.7157 28.0252 39.0300 0.0000 31.0318 0.0000
# 2 28.0252 82.4295 1.3313 0.0000 0.7485 0.0000
# 3 39.0300 1.3313 67.0640 0.0000 8.0470 0.0000
# 4 0.0000 0.0000 0.0000 48.1412 0.0000 -10.1535
# 5 31.0318 0.7485 8.0470 0.0000 51.2342 0.0000
# 6 0.0000 0.0000 0.0000 -10.1535 0.0000 45.3730
#
#
#
# Elastic Compliance Matrix: (Units=1/GPa)
#
#
# Indices 1 2 3 4 5 6 
#
# 1 0.005337 -0.001745 -0.002738 0.000000 -0.002777 0.000000
# 2 -0.001745 0.012707 0.000671 0.000000 0.000766 0.000000
# 3 -0.002738 0.000671 0.016606 0.000000 -0.000960 0.000000
# 4 0.000000 0.000000 0.000000 0.021801 0.000000 0.004879
# 5 -0.002777 0.000766 -0.000960 0.000000 0.021340 0.000000
# 6 0.000000 0.000000 0.000000 0.004879 0.000000 0.023131
#
#
# Mechanical properties :
#
#
# Convention : Reuss Voigt Hill
#
# Bulk Modulus (GPa) = 37.00005 57.66468 47.33237
# Shear Modulus (GPa) = 42.53343 49.87120 46.20232
#
# Velocity S-wave (km/s) = 4.15108 4.49491 4.32641
# Velocity P-wave (km/s) = 6.16158 7.09229 6.64325
#
# Compressibility (1/GPa) = 0.02702699
#
# Stress axis : x y z
#
# Youngs Moduli (GPa) = 187.38072 78.69641 60.21756
#
# Poissons Ratio (x) = 0.13733 0.16488
# Poissons Ratio (y) = 0.32698 -0.04043
# Poissons Ratio (z) = 0.51306 -0.05284
#
# Static dielectric constant tensor:
#      x y z
#    x 1.945280 0.000000 -0.087700 
#    y 0.000000 2.146410 0.000000 
#    z -0.087700 0.000000 2.111640 
# 
# From -- ./inp_files/122330.got.cif
#   From: 2010.05.17/outbox.cif.g08.bks.cpg/sg12_62_cif.got.tgz:122330.got - 2010.06.03 13:09:07.
