data_PCOD9221611
_publ_section_title
;
Structure prediction by ZEFSAII (Michael W. Deem and Ramdas Pophale) SiO2 
 PCOD9221611
Probable space group: C 2/M
;
_chemical_formula_sum "Si O2"
_cell_formula_units_Z 56
_cell_length_a 9.251512
_cell_length_b 26.741262
_cell_length_c 11.234321
_cell_angle_alpha 90.000000
_cell_angle_beta 68.154363
_cell_angle_gamma 90.000000
_cell_volume 2579.753463
_symmetry_space_group_name_H-M "C 2/M"
_symmetry_group_IT_number 12
_symmetry_cell_setting 'monoclinic'
loop_
_space_group_symop_operation_xyz
x,y,z
-x,y,-z
-x,-y,-z
x,-y,z
1/2+x,1/2+y,z
1/2-x,1/2+y,-z
1/2-x,1/2-y,-z
1/2+x,1/2-y,z
loop_
_atom_site_type_symbol
_atom_site_label
_atom_site_fract_x
_atom_site_fract_y
_atom_site_fract_z
Si Si1 0.632994 0.379949 0.136865
Si Si2 0.669255 0.940103 0.496468
Si Si3 0.154903 0.441046 0.775469
Si Si4 0.360708 0.881066 0.857559
Si Si5 0.646626 0.557891 0.782610
Si Si6 0.133476 0.304313 0.364819
Si Si7 0.514131 0.303881 0.633756
O O1 0.701480 0.427922 0.185521
O O2 0.476170 0.402873 0.132689
O O3 0.583671 0.338271 0.246413
O O4 0.752048 0.363693 0.998551
O O5 0.500000 0.925029 0.500000
O O6 0.691328 0.928340 0.626794
O O7 0.803679 0.924248 0.364970
O O8 0.671325 0.000000 0.486614
O O9 0.113977 0.500000 0.796814
O O10 0.026961 0.399985 0.850731
O O11 0.295676 0.932654 0.819160
O O12 0.363309 0.841201 0.749618
O O13 0.601909 0.500000 0.797866
O O14 0.304733 0.301056 0.375784
O O15 0.069629 0.250321 0.342285
O O16 0.000000 0.320337 0.500000
O O17 0.500000 0.321543 0.500000
#
# Coordination Sequence:
#
# PCOD9221611 Si02
#       7
#     8   8   8   8   8   8   8
#     4  12  28  43  64 104 143 180 230 285 343 402
#     4   9  18  36  61  91 120 167 232 282 326 381
#     4  11  25  43  67  98 142 190 238 286 336 401
#     4  12  26  43  69 101 137 187 234 277 339 411
#     4  11  23  41  67  97 138 187 230 280 337 400
#     4  11  26  48  79 107 134 175 225 284 352 417
#     4  11  26  49  77 106 137 174 223 286 353 416
#
# _framework density 21.7075
#
# number of rings (size 3 to 8) (size 9 to 14) (size 15 to 20)
#    0.000    1.000    2.857    3.429    8.000    4.000 
#    0.000    2.143    0.000    0.000    0.000    0.000 
#    0.000    0.000    0.000    0.000    0.000    0.000 
#
# Total GULP energy -156404.862557 kJ/mol
# GULP energy per Si atom -5585.887948 kJ/mol
# Density = 2.165809 g / cm^3
# Si number density = 21.707500 Si / 1000 Ang^3
#
#
#
# Elastic Constant Matrix: (Units=GPa)
#
#
# Indices 1 2 3 4 5 6 
#
# 1 72.6397 27.0410 41.2191 0.0000 -0.1203 0.0000
# 2 27.0410 107.2468 75.2299 0.0000 -6.1966 0.0000
# 3 41.2191 75.2299 193.9954 0.0000 -14.2467 0.0000
# 4 0.0000 0.0000 0.0000 -7.3665 0.0000 -25.6213
# 5 -0.1203 -6.1966 -14.2467 0.0000 30.8141 0.0000
# 6 0.0000 0.0000 0.0000 -25.6213 0.0000 -7.0427
#
#
#
# Elastic Compliance Matrix: (Units=1/GPa)
#
#
# Indices 1 2 3 4 5 6 
#
# 1 0.016126 -0.002298 -0.002655 0.000000 -0.001627 0.000000
# 2 -0.002298 0.013138 -0.004569 0.000000 0.000521 0.000000
# 3 -0.002655 -0.004569 0.007683 0.000000 0.002623 0.000000
# 4 0.000000 0.000000 0.000000 0.011649 0.000000 -0.042379
# 5 -0.001627 0.000521 0.002623 0.000000 0.033764 0.000000
# 6 0.000000 0.000000 0.000000 -0.042379 0.000000 0.012185
#
#
# Mechanical properties :
#
#
# Convention : Reuss Voigt Hill
#
# Bulk Modulus (GPa) = 55.84938 73.42910 64.63924
# Shear Modulus (GPa) = 41.82180 18.64046 30.23113
#
# Velocity S-wave (km/s) = 4.39407 2.93356 3.73588
# Velocity P-wave (km/s) = 7.17829 6.73605 6.96068
#
# Compressibility (1/GPa) = 0.01790530
#
# Stress axis : x y z
#
# Youngs Moduli (GPa) = 62.01307 76.11302 130.15588
#
# Poissons Ratio (x) = 0.17488 0.34553
# Poissons Ratio (y) = 0.14249 0.59462
# Poissons Ratio (z) = 0.16463 0.34772
#
# Static dielectric constant tensor:
#      x y z
#    x 1.783580 0.000000 -0.101280 
#    y 0.000000 1.753600 0.000000 
#    z -0.101280 0.000000 2.039950 
# 
# From -- ./inp_files/124207.got.cif
#   From: 2010.05.17/outbox.cif.g08.bks.cpg/sg12_63_cif.got.tgz:124207.got - 2010.06.03 13:09:07.
