data_PCOD9221084
_publ_section_title
;
Structure prediction by ZEFSAII (Michael W. Deem and Ramdas Pophale) SiO2 
 PCOD9221084
Probable space group: C 2/M
;
_chemical_formula_sum "Si O2"
_cell_formula_units_Z 42
_cell_length_a 11.782042
_cell_length_b 16.305027
_cell_length_c 9.936510
_cell_angle_alpha 90.000000
_cell_angle_beta 116.173368
_cell_angle_gamma 90.000000
_cell_volume 1713.139598
_symmetry_space_group_name_H-M "C 2/M"
_symmetry_group_IT_number 12
_symmetry_cell_setting 'monoclinic'
loop_
_space_group_symop_operation_xyz
x,y,z
-x,y,-z
-x,-y,-z
x,-y,z
1/2+x,1/2+y,z
1/2-x,1/2+y,-z
1/2-x,1/2-y,-z
1/2+x,1/2-y,z
loop_
_atom_site_type_symbol
_atom_site_label
_atom_site_fract_x
_atom_site_fract_y
_atom_site_fract_z
Si Si1 0.970903 0.829864 0.625082
Si Si2 0.367353 0.908596 0.110825
Si Si3 0.500000 0.000000 0.500000
Si Si4 0.239257 0.324022 0.201771
Si Si5 0.396653 0.149583 0.611914
Si Si6 0.371074 0.641093 0.851298
O O1 0.113411 0.815531 0.755440
O O2 0.000000 0.874045 0.500000
O O3 0.904123 0.741738 0.557003
O O4 0.894561 0.872179 0.705148
O O5 0.477376 0.854157 0.229616
O O6 0.245502 0.905702 0.143320
O O7 0.420112 0.000000 0.141034
O O8 0.325075 0.881675 0.942070
O O9 0.410308 0.074234 0.517794
O O10 0.215775 0.357007 0.339804
O O11 0.170142 0.236351 0.157079
O O12 0.500000 0.625330 0.000000
#
# Coordination Sequence:
#
# PCOD9221084 Si02
#       6
#     8   8   2   8   8   8
#     4  11  23  42  67  97 125 168 223 267 321 381
#     4  12  24  41  67  95 129 169 216 269 329 391
#     4  12  24  44  58  96 148 162 204 254 346 396
#     4  11  23  41  68  94 129 164 223 273 319 377
#     4  11  24  40  67  95 130 171 206 268 327 392
#     4  11  22  41  68  93 127 168 218 272 319 380
#
# _framework density 24.516392
#
# number of rings (size 3 to 8) (size 9 to 14) (size 15 to 20)
#    0.000    0.762    5.714    3.429    1.333    5.714 
#    0.000    0.000    0.000    1.143    0.000    0.000 
#    0.000    0.000    0.000    0.000    0.000    0.000 
#
# Total GULP energy -117349.416116 kJ/mol
# GULP energy per Si atom -5588.067434 kJ/mol
# Density = 2.446059 g / cm^3
# Si number density = 24.516392 Si / 1000 Ang^3
#
#
#
# Elastic Constant Matrix: (Units=GPa)
#
#
# Indices 1 2 3 4 5 6 
#
# 1 120.1444 11.2585 26.2599 0.0000 -16.5294 0.0000
# 2 11.2585 47.2562 10.7903 0.0000 -10.4974 0.0000
# 3 26.2599 10.7903 78.4948 0.0000 -24.8745 0.0000
# 4 0.0000 0.0000 0.0000 12.1054 0.0000 -6.9704
# 5 -16.5294 -10.4974 -24.8745 0.0000 56.6651 0.0000
# 6 0.0000 0.0000 0.0000 -6.9704 0.0000 22.4370
#
#
#
# Elastic Compliance Matrix: (Units=1/GPa)
#
#
# Indices 1 2 3 4 5 6 
#
# 1 0.009170 -0.001323 -0.002458 0.000000 0.001351 0.000000
# 2 -0.001323 0.022539 -0.001690 0.000000 0.003048 0.000000
# 3 -0.002458 -0.001690 0.015644 0.000000 0.005837 0.000000
# 4 0.000000 0.000000 0.000000 0.100605 0.000000 0.031254
# 5 0.001351 0.003048 0.005837 0.000000 0.021169 0.000000
# 6 0.000000 0.000000 0.000000 0.031254 0.000000 0.054279
#
#
# Mechanical properties :
#
#
# Convention : Reuss Voigt Hill
#
# Bulk Modulus (GPa) = 27.46387 38.05699 32.76043
# Shear Modulus (GPa) = 20.28516 31.41394 25.84955
#
# Velocity S-wave (km/s) = 2.87960 3.58347 3.25064
# Velocity P-wave (km/s) = 4.72045 5.71651 5.24219
#
# Compressibility (1/GPa) = 0.03641147
#
# Stress axis : x y z
#
# Youngs Moduli (GPa) = 109.04638 44.36678 63.92195
#
# Poissons Ratio (x) = 0.05872 0.15711
# Poissons Ratio (y) = 0.14432 0.10802
# Poissons Ratio (z) = 0.26802 0.07497
#
# Static dielectric constant tensor:
#      x y z
#    x 1.935700 0.000000 -0.002290 
#    y 0.000000 1.913730 0.000000 
#    z -0.002290 0.000000 2.009300 
# 
# From -- ./inp_files/49161.got.cif
#   From: 2010.05.17/outbox.cif.g08.bks.cpg/sg12_25_cif.got.tgz:49161.got - 2010.06.03 13:09:07.
