data_PCOD9221135
_publ_section_title
;
Structure prediction by ZEFSAII (Michael W. Deem and Ramdas Pophale) SiO2 
 PCOD9221135
Probable space group: C 2/M
;
_chemical_formula_sum "Si O2"
_cell_formula_units_Z 24
_cell_length_a 13.600393
_cell_length_b 17.664431
_cell_length_c 9.359355
_cell_angle_alpha 90.000000
_cell_angle_beta 151.120488
_cell_angle_gamma 90.000000
_cell_volume 1085.966823
_symmetry_space_group_name_H-M "C 2/M"
_symmetry_group_IT_number 12
_symmetry_cell_setting 'monoclinic'
loop_
_space_group_symop_operation_xyz
x,y,z
-x,y,-z
-x,-y,-z
x,-y,z
1/2+x,1/2+y,z
1/2-x,1/2+y,-z
1/2-x,1/2-y,-z
1/2+x,1/2-y,z
loop_
_atom_site_type_symbol
_atom_site_label
_atom_site_fract_x
_atom_site_fract_y
_atom_site_fract_z
Si Si1 0.339917 0.358225 0.189226
Si Si2 0.281941 0.583799 0.800595
Si Si3 0.937077 0.712228 0.654236
O O1 0.500000 0.396262 0.500000
O O2 0.453379 0.281368 0.285080
O O3 0.306216 0.404120 0.000506
O O4 0.119950 0.331663 0.969971
O O5 0.198533 0.500000 0.664071
O O6 0.151977 0.650996 0.568152
O O7 0.500000 0.588510 0.000000
O O8 0.750000 0.750000 0.500000
#
# Coordination Sequence:
#
# PCOD9221135 Si02
#       3
#     8   8   8
#     4  11  24  39  67 104 131 171 228 280 333 393
#     4  11  24  45  69  97 137 182 224 273 340 405
#     4  11  22  42  68  99 132 179 225 276 330 404
#
# _framework density 22.100124999999998
#
# number of rings (size 3 to 8) (size 9 to 14) (size 15 to 20)
#    0.000    1.000    3.333    5.000    0.000    3.333 
#    0.000    0.000    0.000    4.000    0.000    0.000 
#    0.000    0.000    0.000    0.000    0.000    0.000 
#
# Total GULP energy -67089.829646 kJ/mol
# GULP energy per Si atom -5590.819137 kJ/mol
# Density = 2.204982 g / cm^3
# Si number density = 22.100125 Si / 1000 Ang^3
#
#
#
# Elastic Constant Matrix: (Units=GPa)
#
#
# Indices 1 2 3 4 5 6 
#
# 1 104.4197 21.4261 65.6904 0.0000 26.2672 0.0000
# 2 21.4261 116.1765 14.0125 0.0000 -6.4339 0.0000
# 3 65.6904 14.0125 123.2676 0.0000 9.5648 0.0000
# 4 0.0000 0.0000 0.0000 23.2505 0.0000 -19.8011
# 5 26.2672 -6.4339 9.5648 0.0000 47.8164 0.0000
# 6 0.0000 0.0000 0.0000 -19.8011 0.0000 -15.1918
#
#
#
# Elastic Compliance Matrix: (Units=1/GPa)
#
#
# Indices 1 2 3 4 5 6 
#
# 1 0.017470 -0.002672 -0.008364 0.000000 -0.008284 0.000000
# 2 -0.002672 0.009228 0.000167 0.000000 0.002676 0.000000
# 3 -0.008364 0.000167 0.012384 0.000000 0.002140 0.000000
# 4 0.000000 0.000000 0.000000 0.020383 0.000000 -0.026568
# 5 -0.008284 0.002676 0.002140 0.000000 0.025396 0.000000
# 6 0.000000 0.000000 0.000000 -0.026568 0.000000 -0.031196
#
#
# Mechanical properties :
#
#
# Convention : Reuss Voigt Hill
#
# Bulk Modulus (GPa) = 57.64861 60.68020 59.16440
# Shear Modulus (GPa) = 61.58769 27.35736 44.47253
#
# Velocity S-wave (km/s) = 5.28470 3.52217 4.49076
# Velocity P-wave (km/s) = 7.96111 6.63758 7.32928
#
# Compressibility (1/GPa) = 0.01734647
#
# Stress axis : x y z
#
# Youngs Moduli (GPa) = 57.23996 108.36104 80.74653
#
# Poissons Ratio (x) = 0.28954 0.67533
# Poissons Ratio (y) = 0.15294 -0.01350
# Poissons Ratio (z) = 0.47873 -0.01812
#
# Static dielectric constant tensor:
#      x y z
#    x 1.830550 0.000000 0.001600 
#    y 0.000000 1.771410 0.000000 
#    z 0.001600 0.000000 1.923470 
# 
# From -- ./inp_files/119483.got.cif
#   From: 2010.05.17/outbox.cif.g08.bks.cpg/sg12_60_cif.got.tgz:119483.got - 2010.06.03 13:09:07.
