data_PCOD9221109
_publ_section_title
;
Structure prediction by ZEFSAII (Michael W. Deem and Ramdas Pophale) SiO2 
 PCOD9221109
Probable space group: C 2/M
;
_chemical_formula_sum "Si O2"
_cell_formula_units_Z 56
_cell_length_a 16.951104
_cell_length_b 21.971742
_cell_length_c 23.116521
_cell_angle_alpha 90.000000
_cell_angle_beta 159.816271
_cell_angle_gamma 90.000000
_cell_volume 2970.598194
_symmetry_space_group_name_H-M "C 2/M"
_symmetry_group_IT_number 12
_symmetry_cell_setting 'monoclinic'
loop_
_space_group_symop_operation_xyz
x,y,z
-x,y,-z
-x,-y,-z
x,-y,z
1/2+x,1/2+y,z
1/2-x,1/2+y,-z
1/2-x,1/2-y,-z
1/2+x,1/2-y,z
loop_
_atom_site_type_symbol
_atom_site_label
_atom_site_fract_x
_atom_site_fract_y
_atom_site_fract_z
Si Si1 0.692434 0.165339 0.403600
Si Si2 0.669130 0.790554 0.999445
Si Si3 0.833010 0.500000 0.802065
Si Si4 0.239484 0.376701 0.318233
Si Si5 0.635411 0.500000 0.794682
Si Si6 0.235214 0.800358 0.149584
Si Si7 0.929073 0.284666 0.517535
Si Si8 0.924820 0.128112 0.677914
O O1 0.684422 0.115790 0.347923
O O2 0.444580 0.167174 0.261735
O O3 0.756884 0.230711 0.419603
O O4 0.877833 0.153356 0.580797
O O5 0.661674 0.751615 0.053278
O O6 0.862894 0.840307 0.144816
O O7 0.750000 0.750000 0.000000
O O8 0.434742 0.826428 0.826043
O O9 0.775261 0.438744 0.727416
O O10 0.690638 0.500000 0.763960
O O11 0.106591 0.500000 0.001835
O O12 0.500000 0.354440 0.500000
O O13 0.491922 0.558448 0.715840
O O14 0.352512 0.779455 0.290030
O O15 0.000000 0.835506 0.000000
O O16 0.797372 0.348091 0.440281
O O17 0.000000 0.281639 0.500000
#
# Coordination Sequence:
#
# PCOD9221109 Si02
#       8
#     8   8   4   8   4   8   8   8
#     4  11  22  42  61  93 134 168 209 270 333 390
#     4  12  23  41  64  93 130 169 213 261 324 398
#     4  11  25  44  62 100 130 167 229 268 317 396
#     4  12  25  39  64  93 133 170 217 264 324 386
#     4  11  24  42  69  92 128 174 218 271 321 387
#     4  11  24  36  57  93 130 165 209 255 323 394
#     4  11  23  40  64  95 129 168 215 271 327 391
#     4  11  22  44  65  89 127 174 213 263 326 385
#
# _framework density 18.851421999999999
#
# number of rings (size 3 to 8) (size 9 to 14) (size 15 to 20)
#    0.000    0.714    5.714    2.357    6.000    1.714 
#    0.000    0.357    0.000    0.000    0.000    2.500 
#    0.000    0.000    0.000    0.000    0.000    0.000 
#
# Total GULP energy -156347.364109 kJ/mol
# GULP energy per Si atom -5583.834432 kJ/mol
# Density = 1.880852 g / cm^3
# Si number density = 18.851422 Si / 1000 Ang^3
#
#
#
# Elastic Constant Matrix: (Units=GPa)
#
#
# Indices 1 2 3 4 5 6 
#
# 1 128.6757 63.6989 61.7654 0.0476 -12.8549 0.0142
# 2 63.6989 125.7614 59.0228 -0.0357 1.0044 0.0080
# 3 61.7654 59.0228 156.4637 0.0254 -1.9659 0.0498
# 4 0.0476 -0.0357 0.0254 -5.8300 0.0564 -8.7322
# 5 -12.8549 1.0044 -1.9659 0.0564 36.9161 0.0281
# 6 0.0142 0.0080 0.0498 -8.7322 0.0281 24.3104
#
#
#
# Elastic Compliance Matrix: (Units=1/GPa)
#
#
# Indices 1 2 3 4 5 6 
#
# 1 0.011890 -0.004710 -0.002865 0.000104 0.004116 0.000033
# 2 -0.004710 0.011536 -0.002518 -0.000098 -0.002088 -0.000029
# 3 -0.002865 -0.002518 0.008466 0.000030 -0.000478 -0.000004
# 4 0.000104 -0.000098 0.000030 -0.111523 0.000241 -0.040059
# 5 0.004116 -0.002088 -0.000478 0.000241 0.028553 0.000053
# 6 0.000033 -0.000029 -0.000004 -0.040059 0.000053 0.026746
#
#
# Mechanical properties :
#
#
# Convention : Reuss Voigt Hill
#
# Bulk Modulus (GPa) = 85.43905 86.65278 86.04591
# Shear Modulus (GPa) = -20483.41666 26.17356 -10228.62155
#
# Velocity S-wave (km/s) = -104.35182 3.73018 -73.74072
# Velocity P-wave (km/s) = 120.30648 8.03855 84.87942
#
# Compressibility (1/GPa) = 0.01170425
#
# Stress axis : x y z
#
# Youngs Moduli (GPa) = 84.10719 86.68484 118.11610
#
# Poissons Ratio (x) = 0.40832 0.33839
# Poissons Ratio (y) = 0.39618 0.29747
# Poissons Ratio (z) = 0.24096 0.21831
#
# Static dielectric constant tensor:
#      x y z
#    x 1.706140 -0.000010 0.009060 
#    y -0.000010 1.643650 -0.000030 
#    z 0.009060 -0.000030 1.686570 
# 
# From -- ./inp_files/344827.got.cif
#   From: 2010.05.17/outbox.cif.g08.bks.cpg/sg12_173_cif.got.tgz:344827.got - 2010.06.03 13:09:07.
