data_PCOD9221432
_publ_section_title
;
Structure prediction by ZEFSAII (Michael W. Deem and Ramdas Pophale) SiO2 
 PCOD9221432
Probable space group: C 2/M
;
_chemical_formula_sum "Si O2"
_cell_formula_units_Z 48
_cell_length_a 30.017268
_cell_length_b 8.702317
_cell_length_c 20.736880
_cell_angle_alpha 90.000000
_cell_angle_beta 28.292995
_cell_angle_gamma 90.000000
_cell_volume 2567.497353
_symmetry_space_group_name_H-M "C 2/M"
_symmetry_group_IT_number 12
_symmetry_cell_setting 'monoclinic'
loop_
_space_group_symop_operation_xyz
x,y,z
-x,y,-z
-x,-y,-z
x,-y,z
1/2+x,1/2+y,z
1/2-x,1/2+y,-z
1/2-x,1/2-y,-z
1/2+x,1/2-y,z
loop_
_atom_site_type_symbol
_atom_site_label
_atom_site_fract_x
_atom_site_fract_y
_atom_site_fract_z
Si Si1 0.499478 0.183494 0.816450
Si Si2 0.681271 0.816364 0.142743
Si Si3 0.213431 0.683622 0.869158
Si Si4 0.984723 0.183635 0.347482
Si Si5 0.182532 0.184187 0.641703
Si Si6 0.286557 0.815616 0.642419
O O1 0.513199 0.261668 0.729487
O O2 0.580001 0.245507 0.760886
O O3 0.509513 0.000000 0.795725
O O4 0.395226 0.216468 0.975171
O O5 0.722319 0.763184 0.158738
O O6 0.577815 0.750149 0.262238
O O7 0.679641 0.000000 0.139996
O O8 0.750000 0.750000 0.000000
O O9 0.226685 0.500000 0.855499
O O10 0.240189 0.745230 0.764989
O O11 0.890717 0.249391 0.499439
O O12 0.985140 0.000000 0.349743
O O13 0.250000 0.250000 0.500000
O O14 0.226516 0.222813 0.654983
O O15 0.178654 0.000000 0.640705
O O16 0.291047 0.000000 0.641973
#
# Coordination Sequence:
#
# PCOD9221432 Si02
#       6
#     8   8   8   8   8   8
#     4  11  23  40  65  95 130 168 215 267 319 380
#     4  12  24  41  67  97 130 169 215 265 319 381
#     4  11  25  44  66  95 132 171 214 267 324 383
#     4  12  24  40  67  97 128 169 217 265 319 383
#     4  11  23  39  65  95 128 169 217 267 320 381
#     4  11  25  44  65  94 133 171 213 269 326 382
#
# _framework density 18.695247999999999
#
# number of rings (size 3 to 8) (size 9 to 14) (size 15 to 20)
#    0.000    0.667    3.333    5.000    0.000    5.333 
#    0.000    6.667    0.000    0.000    0.000    0.000 
#    0.000    0.000    0.000    0.000    0.000    0.000 
#
# Total GULP energy -134334.245438 kJ/mol
# GULP energy per Si atom -5597.260227 kJ/mol
# Density = 1.865270 g / cm^3
# Si number density = 18.695248 Si / 1000 Ang^3
#
#
#
# Elastic Constant Matrix: (Units=GPa)
#
#
# Indices 1 2 3 4 5 6 
#
# 1 94.6840 23.0497 16.0582 0.0026 -11.7533 -0.0008
# 2 23.0497 75.4641 22.6951 0.0031 -6.1176 -0.0024
# 3 16.0582 22.6951 67.0855 0.0019 2.4834 -0.0001
# 4 0.0026 0.0031 0.0019 35.5574 0.0007 -1.6125
# 5 -11.7533 -6.1176 2.4834 0.0007 42.0926 -0.0005
# 6 -0.0008 -0.0024 -0.0001 -1.6125 -0.0005 36.9582
#
#
#
# Elastic Compliance Matrix: (Units=1/GPa)
#
#
# Indices 1 2 3 4 5 6 
#
# 1 0.011966 -0.002796 -0.002031 -0.000001 0.003055 0.000000
# 2 -0.002796 0.015661 -0.004694 -0.000001 0.001772 0.000001
# 3 -0.002031 -0.004694 0.017064 0.000000 -0.002256 0.000000
# 4 -0.000001 -0.000001 0.000000 0.028179 -0.000001 0.001229
# 5 0.003055 0.001772 -0.002256 -0.000001 0.025001 0.000001
# 6 0.000000 0.000001 0.000000 0.001229 0.000001 0.027111
#
#
# Mechanical properties :
#
#
# Convention : Reuss Voigt Hill
#
# Bulk Modulus (GPa) = 38.99099 40.09330 39.54214
# Shear Modulus (GPa) = 32.77070 34.61701 33.69386
#
# Velocity S-wave (km/s) = 4.19129 4.30775 4.24992
# Velocity P-wave (km/s) = 6.65762 6.79960 6.72898
#
# Compressibility (1/GPa) = 0.02564695
#
# Stress axis : x y z
#
# Youngs Moduli (GPa) = 83.57106 63.85330 58.60214
#
# Poissons Ratio (x) = 0.17855 0.11904
# Poissons Ratio (y) = 0.23369 0.27510
# Poissons Ratio (z) = 0.16976 0.29975
#
# Static dielectric constant tensor:
#      x y z
#    x 1.626940 0.000000 -0.008400 
#    y 0.000000 1.622310 0.000000 
#    z -0.008400 0.000000 1.611140 
# 
# From -- ./inp_files/295373.got.cif
#   From: 2010.05.17/outbox.cif.g08.bks.cpg/sg12_148_cif.got.tgz:295373.got - 2010.06.03 13:09:07.
