data_PCOD9221942
_publ_section_title
;
Structure prediction by ZEFSAII (Michael W. Deem and Ramdas Pophale) SiO2 
 PCOD9221942
Probable space group: C 2/M
;
_chemical_formula_sum "Si O2"
_cell_formula_units_Z 44
_cell_length_a 25.646494
_cell_length_b 11.768987
_cell_length_c 15.194208
_cell_angle_alpha 90.000000
_cell_angle_beta 153.141839
_cell_angle_gamma 90.000000
_cell_volume 2071.931520
_symmetry_space_group_name_H-M "C 2/M"
_symmetry_group_IT_number 12
_symmetry_cell_setting 'monoclinic'
loop_
_space_group_symop_operation_xyz
x,y,z
-x,y,-z
-x,-y,-z
x,-y,z
1/2+x,1/2+y,z
1/2-x,1/2+y,-z
1/2-x,1/2-y,-z
1/2+x,1/2-y,z
loop_
_atom_site_type_symbol
_atom_site_label
_atom_site_fract_x
_atom_site_fract_y
_atom_site_fract_z
Si Si1 0.369602 0.369254 0.841502
Si Si2 0.812698 0.132190 0.200350
Si Si3 0.467559 0.630670 0.598124
Si Si4 0.096110 0.261610 0.927440
Si Si5 0.195499 0.500000 0.344945
Si Si6 0.434810 0.000000 0.025480
Si Si7 0.250000 0.250000 0.500000
O O1 0.331159 0.500000 0.784621
O O2 0.374537 0.320583 0.947668
O O3 0.294753 0.292248 0.664316
O O4 0.500000 0.363782 0.000000
O O5 0.918344 0.141269 0.291846
O O6 0.706656 0.217204 0.031974
O O7 0.863809 0.153319 0.375141
O O8 0.775054 0.000000 0.139048
O O9 0.460705 0.500000 0.618086
O O10 0.488632 0.712582 0.711433
O O11 0.069676 0.384481 0.926769
O O12 0.252247 0.385404 0.467362
O O13 0.062075 0.500000 0.175945
O O14 0.171325 0.500000 0.203498
#
# Coordination Sequence:
#
# PCOD9221942 Si02
#       7
#     8   8   8   8   4   4   4
#     4  11  25  42  60  88 124 161 206 255 302 359
#     4   9  19  38  63  89 117 154 203 244 301 367
#     4   9  20  39  63  89 118 154 197 255 299 356
#     4  12  21  37  62  91 120 160 200 250 303 370
#     4  11  24  44  63  88 120 172 207 259 303 364
#     4  11  24  40  60  86 128 158 208 248 309 360
#     4  12  22  42  66  86 116 164 214 244 312 354
#
# _framework density 21.236222999999999
#
# number of rings (size 3 to 8) (size 9 to 14) (size 15 to 20)
#    0.000    1.455    3.636    3.273    0.000    2.909 
#    0.000    1.818    2.000    1.091    0.000    0.000 
#    0.000    0.000    0.000    0.000    0.000    0.000 
#
# Total GULP energy -122482.855187 kJ/mol
# GULP energy per Si atom -5567.402508 kJ/mol
# Density = 2.118789 g / cm^3
# Si number density = 21.236223 Si / 1000 Ang^3
#
#
#
# Elastic Constant Matrix: (Units=GPa)
#
#
# Indices 1 2 3 4 5 6 
#
# 1 40.4172 12.6122 0.4267 0.0000 3.0783 0.0000
# 2 12.6122 151.8225 43.2912 0.0000 -23.8917 0.0000
# 3 0.4267 43.2912 67.6493 0.0000 -24.4493 0.0000
# 4 0.0000 0.0000 0.0000 -14.6214 0.0000 28.4159
# 5 3.0783 -23.8917 -24.4493 0.0000 39.5150 0.0000
# 6 0.0000 0.0000 0.0000 28.4159 0.0000 -11.0287
#
#
#
# Elastic Compliance Matrix: (Units=1/GPa)
#
#
# Indices 1 2 3 4 5 6 
#
# 1 0.025878 -0.002804 0.000373 0.000000 -0.003480 0.000000
# 2 -0.002804 0.008507 -0.004493 0.000000 0.002582 0.000000
# 3 0.000373 -0.004493 0.021462 0.000000 0.010534 0.000000
# 4 0.000000 0.000000 0.000000 0.017067 0.000000 0.043973
# 5 -0.003480 0.002582 0.010534 0.000000 0.033657 0.000000
# 6 0.000000 0.000000 0.000000 0.043973 0.000000 0.022626
#
#
# Mechanical properties :
#
#
# Convention : Reuss Voigt Hill
#
# Bulk Modulus (GPa) = 23.80975 41.39436 32.60206
# Shear Modulus (GPa) = 31.83820 16.34359 24.09089
#
# Velocity S-wave (km/s) = 3.87620 2.77719 3.37178
# Velocity P-wave (km/s) = 5.59191 5.46062 5.52666
#
# Compressibility (1/GPa) = 0.04199959
#
# Stress axis : x y z
#
# Youngs Moduli (GPa) = 38.64281 117.54941 46.59387
#
# Poissons Ratio (x) = 0.32959 -0.01739
# Poissons Ratio (y) = 0.10835 0.20935
# Poissons Ratio (z) = -0.01442 0.52817
#
# Static dielectric constant tensor:
#      x y z
#    x 1.872680 0.000000 0.025100 
#    y 0.000000 1.716380 0.000000 
#    z 0.025100 0.000000 1.743220 
# 
# From -- ./inp_files/250642.got.cif
#   From: 2010.05.17/outbox.cif.g08.bks.cpg/sg12_126_cif.got.tgz:250642.got - 2010.06.03 13:09:07.
