data_PCOD9221709
_publ_section_title
;
Structure prediction by ZEFSAII (Michael W. Deem and Ramdas Pophale) SiO2 
 PCOD9221709
Probable space group: C 2/M
;
_chemical_formula_sum "Si O2"
_cell_formula_units_Z 50
_cell_length_a 8.615628
_cell_length_b 31.253869
_cell_length_c 9.222625
_cell_angle_alpha 90.000000
_cell_angle_beta 90.191668
_cell_angle_gamma 90.000000
_cell_volume 2483.378099
_symmetry_space_group_name_H-M "C 2/M"
_symmetry_group_IT_number 12
_symmetry_cell_setting 'monoclinic'
loop_
_space_group_symop_operation_xyz
x,y,z
-x,y,-z
-x,-y,-z
x,-y,z
1/2+x,1/2+y,z
1/2-x,1/2+y,-z
1/2-x,1/2-y,-z
1/2+x,1/2-y,z
loop_
_atom_site_type_symbol
_atom_site_label
_atom_site_fract_x
_atom_site_fract_y
_atom_site_fract_z
Si Si1 0.000000 0.500000 0.000000
Si Si2 0.150118 0.195578 0.766541
Si Si3 0.143442 0.642464 0.690219
Si Si4 0.321321 0.362465 0.980095
Si Si5 0.157632 0.889540 0.578948
Si Si6 0.377213 0.920398 0.811558
Si Si7 0.467127 0.767638 0.660754
O O1 0.948822 0.462636 0.880612
O O2 0.117646 0.152052 0.677346
O O3 0.292349 0.218468 0.687185
O O4 0.013165 0.229522 0.767170
O O5 0.196697 0.180706 0.926712
O O6 0.272605 0.642876 0.815436
O O7 0.220875 0.626457 0.542310
O O8 0.069755 0.689481 0.675988
O O9 0.008726 0.610298 0.743278
O O10 0.500000 0.375923 0.000000
O O11 0.207186 0.395835 0.056658
O O12 0.244999 0.922849 0.685415
O O13 0.000000 0.904534 0.500000
O O14 0.500000 0.750478 0.500000
#
# Coordination Sequence:
#
# PCOD9221709 Si02
#       7
#     2   8   8   8   8   8   8
#     4  12  24  48  82 104 134 172 224 280 334 428
#     4  11  25  39  59  93 132 185 239 285 329 396
#     4  12  21  42  68  94 133 179 228 279 338 404
#     4  11  24  42  64  95 134 178 222 276 347 409
#     4  11  23  42  70 100 138 181 222 278 342 403
#     4  11  23  46  73 103 128 177 223 270 343 416
#     4  12  23  38  59  90 129 178 237 291 332 381
#
# _framework density 20.133863999999999
#
# number of rings (size 3 to 8) (size 9 to 14) (size 15 to 20)
#    0.000    0.640    6.400    3.360    4.480    0.640 
#    0.000    2.400    0.000    0.000    0.000    0.000 
#    0.000    0.000    0.000    0.000    0.000    0.000 
#
# Total GULP energy -139542.698277 kJ/mol
# GULP energy per Si atom -5581.707931 kJ/mol
# Density = 2.008804 g / cm^3
# Si number density = 20.133864 Si / 1000 Ang^3
#
#
#
# Elastic Constant Matrix: (Units=GPa)
#
#
# Indices 1 2 3 4 5 6 
#
# 1 88.8036 19.4166 23.4887 0.0000 8.7541 0.0000
# 2 19.4166 79.8295 21.4621 0.0000 12.3078 0.0000
# 3 23.4887 21.4621 94.0248 0.0000 19.8000 0.0000
# 4 0.0000 0.0000 0.0000 113.8099 0.0000 92.9666
# 5 8.7541 12.3078 19.8000 0.0000 49.0608 0.0000
# 6 0.0000 0.0000 0.0000 92.9666 0.0000 76.9949
#
#
#
# Elastic Compliance Matrix: (Units=1/GPa)
#
#
# Indices 1 2 3 4 5 6 
#
# 1 0.012473 -0.002271 -0.002458 0.000000 -0.000664 0.000000
# 2 -0.002271 0.014004 -0.002158 0.000000 -0.002237 0.000000
# 3 -0.002458 -0.002158 0.012607 0.000000 -0.004108 0.000000
# 4 0.000000 0.000000 0.000000 0.641623 0.000000 -0.774719
# 5 -0.000664 -0.002237 -0.004108 0.000000 0.022720 0.000000
# 6 0.000000 0.000000 0.000000 -0.774719 0.000000 0.948413
#
#
# Mechanical properties :
#
#
# Convention : Reuss Voigt Hill
#
# Bulk Modulus (GPa) = 39.50869 43.48807 41.49838
# Shear Modulus (GPa) = 2.98677 61.19250 32.08963
#
# Velocity S-wave (km/s) = 1.21929 5.51895 3.99659
# Velocity P-wave (km/s) = 4.65272 7.89038 6.47711
#
# Compressibility (1/GPa) = 0.02531089
#
# Stress axis : x y z
#
# Youngs Moduli (GPa) = 80.17451 71.40771 79.31969
#
# Poissons Ratio (x) = 0.16213 0.19495
# Poissons Ratio (y) = 0.18204 0.17120
# Poissons Ratio (z) = 0.19705 0.15412
#
# Static dielectric constant tensor:
#      x y z
#    x 1.759810 0.000000 0.030260 
#    y 0.000000 1.661130 0.000000 
#    z 0.030260 0.000000 1.727070 
# 
# From -- ./inp_files/42290.got.cif
#   From: 2010.05.17/outbox.cif.g08.bks.cpg/sg12_22_cif.got.tgz:42290.got - 2010.06.03 13:09:07.
