data_PCOD9221165
_publ_section_title
;
Structure prediction by ZEFSAII (Michael W. Deem and Ramdas Pophale) SiO2 
 PCOD9221165
Probable space group: C 2/M
;
_chemical_formula_sum "Si O2"
_cell_formula_units_Z 44
_cell_length_a 9.878348
_cell_length_b 17.878428
_cell_length_c 18.362804
_cell_angle_alpha 90.000000
_cell_angle_beta 43.019978
_cell_angle_gamma 90.000000
_cell_volume 2212.576591
_symmetry_space_group_name_H-M "C 2/M"
_symmetry_group_IT_number 12
_symmetry_cell_setting 'monoclinic'
loop_
_space_group_symop_operation_xyz
x,y,z
-x,y,-z
-x,-y,-z
x,-y,z
1/2+x,1/2+y,z
1/2-x,1/2+y,-z
1/2-x,1/2-y,-z
1/2+x,1/2-y,z
loop_
_atom_site_type_symbol
_atom_site_label
_atom_site_fract_x
_atom_site_fract_y
_atom_site_fract_z
Si Si1 0.082927 0.087812 0.831400
Si Si2 0.237303 0.914444 0.400962
Si Si3 0.242078 0.708272 0.724085
Si Si4 0.531231 0.850796 0.402755
Si Si5 0.336304 0.702259 0.856930
Si Si6 0.500000 0.689144 0.000000
O O1 0.277143 0.106436 0.706410
O O2 0.886792 0.121153 0.869373
O O3 0.091634 0.136386 0.901902
O O4 0.071164 0.000000 0.849558
O O5 0.278698 0.867583 0.312260
O O6 0.344834 0.874548 0.426693
O O7 0.000000 0.915050 0.500000
O O8 0.308752 0.000000 0.369320
O O9 0.417686 0.762766 0.626411
O O10 0.278593 0.696787 0.794953
O O11 0.041852 0.753707 0.786604
O O12 0.500000 0.867961 0.500000
O O13 0.169194 0.753657 0.958875
#
# Coordination Sequence:
#
# PCOD9221165 Si02
#       6
#     8   8   8   8   8   4
#     4  11  25  42  67 100 130 168 218 266 323 383
#     4  11  25  40  60  95 133 171 213 267 329 375
#     4  11  22  43  66  97 126 175 216 267 312 389
#     4  11  24  43  70  93 129 175 222 260 311 392
#     4  11  23  41  72  96 126 168 220 266 321 379
#     4  12  21  46  73  92 130 172 218 266 319 390
#
# _framework density 19.886316999999998
#
# number of rings (size 3 to 8) (size 9 to 14) (size 15 to 20)
#    0.000    0.909    5.455    1.909    5.091    3.636 
#    0.000    1.364    0.000    0.000    0.000    0.000 
#    0.000    0.000    0.000    0.000    0.000    0.000 
#
# Total GULP energy -122893.246587 kJ/mol
# GULP energy per Si atom -5586.056663 kJ/mol
# Density = 1.984105 g / cm^3
# Si number density = 19.886317 Si / 1000 Ang^3
#
#
#
# Elastic Constant Matrix: (Units=GPa)
#
#
# Indices 1 2 3 4 5 6 
#
# 1 134.6568 36.2551 35.6561 0.0031 11.1479 0.0059
# 2 36.2551 75.9677 38.8697 0.0034 -6.5452 0.0140
# 3 35.6561 38.8697 86.8701 0.0042 9.8182 0.0197
# 4 0.0031 0.0034 0.0042 18.6356 -0.0029 8.3305
# 5 11.1479 -6.5452 9.8182 -0.0029 34.7570 -0.0103
# 6 0.0059 0.0140 0.0197 8.3305 -0.0103 94.3575
#
#
#
# Elastic Compliance Matrix: (Units=1/GPa)
#
#
# Indices 1 2 3 4 5 6 
#
# 1 0.009156 -0.003763 -0.001717 -0.000001 -0.003160 0.000000
# 2 -0.003763 0.019722 -0.008095 0.000000 0.007208 0.000000
# 3 -0.001717 -0.008095 0.016474 -0.000002 -0.005627 -0.000003
# 4 -0.000001 0.000000 -0.000002 0.055866 0.000004 -0.004932
# 5 -0.003160 0.007208 -0.005627 0.000004 0.032732 0.000004
# 6 0.000000 0.000000 -0.000003 -0.004932 0.000004 0.011033
#
#
# Mechanical properties :
#
#
# Convention : Reuss Voigt Hill
#
# Bulk Modulus (GPa) = 54.93797 57.67291 56.30544
# Shear Modulus (GPa) = 28.05842 41.99762 35.02802
#
# Velocity S-wave (km/s) = 3.76032 4.60051 4.20147
# Velocity P-wave (km/s) = 6.82198 7.56861 7.20497
#
# Compressibility (1/GPa) = 0.01820235
#
# Stress axis : x y z
#
# Youngs Moduli (GPa) = 109.22039 50.70444 60.70157
#
# Poissons Ratio (x) = 0.19082 0.10422
# Poissons Ratio (y) = 0.41103 0.49135
# Poissons Ratio (z) = 0.18753 0.41043
#
# Static dielectric constant tensor:
#      x y z
#    x 1.699360 0.000000 -0.007020 
#    y 0.000000 1.703260 0.000000 
#    z -0.007020 0.000000 1.726270 
# 
# From -- ./inp_files/120844.got.cif
#   From: 2010.05.17/outbox.cif.g08.bks.cpg/sg12_61_cif.got.tgz:120844.got - 2010.06.03 13:09:07.
