data_PCOD9221002
_publ_section_title
;
Structure prediction by ZEFSAII (Michael W. Deem and Ramdas Pophale) SiO2 
 PCOD9221002
Probable space group: C 2/M
;
_chemical_formula_sum "Si O2"
_cell_formula_units_Z 56
_cell_length_a 16.572415
_cell_length_b 15.808563
_cell_length_c 20.166513
_cell_angle_alpha 90.000000
_cell_angle_beta 28.663228
_cell_angle_gamma 90.000000
_cell_volume 2534.211855
_symmetry_space_group_name_H-M "C 2/M"
_symmetry_group_IT_number 12
_symmetry_cell_setting 'monoclinic'
loop_
_space_group_symop_operation_xyz
x,y,z
-x,y,-z
-x,-y,-z
x,-y,z
1/2+x,1/2+y,z
1/2-x,1/2+y,-z
1/2-x,1/2-y,-z
1/2+x,1/2-y,z
loop_
_atom_site_type_symbol
_atom_site_label
_atom_site_fract_x
_atom_site_fract_y
_atom_site_fract_z
Si Si1 0.725559 0.723930 0.855883
Si Si2 0.362634 0.402703 0.199634
Si Si3 0.514191 0.159843 0.105504
Si Si4 0.311862 0.284943 0.346694
Si Si5 0.236926 0.403430 0.062358
Si Si6 0.541082 0.680828 0.622750
Si Si7 0.585635 0.500000 0.535512
Si Si8 0.289173 0.000000 0.254681
O O1 0.666950 0.658056 0.841933
O O2 0.820004 0.663123 0.840975
O O3 0.854698 0.793238 0.735219
O O4 0.592781 0.779004 0.993696
O O5 0.320243 0.500000 0.214943
O O6 0.267346 0.363408 0.331436
O O7 0.560175 0.400526 0.077912
O O8 0.395111 0.216028 0.238437
O O9 0.663633 0.124605 0.044627
O O10 0.404374 0.081730 0.158566
O O11 0.441055 0.309763 0.311322
O O12 0.158320 0.244654 0.497218
O O13 0.183663 0.500000 0.113826
O O14 0.600131 0.586854 0.564067
O O15 0.726067 0.500000 0.376742
O O16 0.391169 0.500000 0.650987
#
# Coordination Sequence:
#
# PCOD9221002 Si02
#       8
#     8   8   8   8   8   8   4   4
#     4  12  25  42  69 108 141 180 233 288 360 416
#     4  11  26  45  71 105 143 181 227 290 355 413
#     4  12  23  46  72 101 138 183 238 289 339 419
#     4  11  24  47  73 101 136 185 241 281 346 418
#     4  11  22  40  68 101 136 181 231 288 343 411
#     4  11  26  45  73 105 138 187 234 288 349 415
#     4  11  26  45  71 103 150 181 231 286 358 410
#     4  11  26  45  73 105 139 189 228 288 356 413
#
# _framework density 22.0976
#
# number of rings (size 3 to 8) (size 9 to 14) (size 15 to 20)
#    0.000    0.714    5.000    2.143    3.000    2.286 
#    0.000    2.857    0.000    0.000    0.000    0.000 
#    0.000    0.000    0.000    0.000    0.000    0.000 
#
# Total GULP energy -156606.335134 kJ/mol
# GULP energy per Si atom -5593.083398 kJ/mol
# Density = 2.204730 g / cm^3
# Si number density = 22.097600 Si / 1000 Ang^3
#
#
#
# Elastic Constant Matrix: (Units=GPa)
#
#
# Indices 1 2 3 4 5 6 
#
# 1 100.6260 48.9577 22.9933 -0.0007 10.2761 0.0006
# 2 48.9577 136.2135 21.7593 -0.0034 7.4407 0.0025
# 3 22.9933 21.7593 58.2463 -0.0033 9.0403 0.0031
# 4 -0.0007 -0.0034 -0.0033 20.4900 0.0004 2.1367
# 5 10.2761 7.4407 9.0403 0.0004 20.1445 -0.0009
# 6 0.0006 0.0025 0.0031 2.1367 -0.0009 32.0201
#
#
#
# Elastic Compliance Matrix: (Units=1/GPa)
#
#
# Indices 1 2 3 4 5 6 
#
# 1 0.012946 -0.003960 -0.003045 -0.000001 -0.003775 0.000000
# 2 -0.003960 0.009073 -0.001741 0.000001 -0.000550 -0.000001
# 3 -0.003045 -0.001741 0.020079 0.000003 -0.006814 -0.000002
# 4 -0.000001 0.000001 0.000003 0.049146 -0.000003 -0.003279
# 5 -0.003775 -0.000550 -0.006814 -0.000003 0.054828 0.000002
# 6 0.000000 -0.000001 -0.000002 -0.003279 0.000002 0.031449
#
#
# Mechanical properties :
#
#
# Convention : Reuss Voigt Hill
#
# Bulk Modulus (GPa) = 40.64239 53.61182 47.12711
# Shear Modulus (GPa) = 24.60450 27.95596 26.28023
#
# Velocity S-wave (km/s) = 3.34046 3.56070 3.45234
# Velocity P-wave (km/s) = 5.77151 6.42019 6.10447
#
# Compressibility (1/GPa) = 0.02460485
#
# Stress axis : x y z
#
# Youngs Moduli (GPa) = 77.24436 110.21776 49.80445
#
# Poissons Ratio (x) = 0.43650 0.15167
# Poissons Ratio (y) = 0.30592 0.08669
# Poissons Ratio (z) = 0.23523 0.19186
#
# Static dielectric constant tensor:
#      x y z
#    x 1.850060 0.000000 -0.037630 
#    y 0.000000 1.816210 0.000000 
#    z -0.037630 0.000000 1.799210 
# 
# From -- ./inp_files/316734.got.cif
#   From: 2010.05.17/outbox.cif.g08.bks.cpg/sg12_159_cif.got.tgz:316734.got - 2010.06.03 13:09:07.
