data_PCOD9221290
_publ_section_title
;
Structure prediction by ZEFSAII (Michael W. Deem and Ramdas Pophale) SiO2 
 PCOD9221290
Probable space group: C 2/M
;
_chemical_formula_sum "Si O2"
_cell_formula_units_Z 28
_cell_length_a 9.846614
_cell_length_b 14.931503
_cell_length_c 9.363506
_cell_angle_alpha 90.000000
_cell_angle_beta 92.708119
_cell_angle_gamma 90.000000
_cell_volume 1375.129620
_symmetry_space_group_name_H-M "C 2/M"
_symmetry_group_IT_number 12
_symmetry_cell_setting 'monoclinic'
loop_
_space_group_symop_operation_xyz
x,y,z
-x,y,-z
-x,-y,-z
x,-y,z
1/2+x,1/2+y,z
1/2-x,1/2+y,-z
1/2-x,1/2-y,-z
1/2+x,1/2-y,z
loop_
_atom_site_type_symbol
_atom_site_label
_atom_site_fract_x
_atom_site_fract_y
_atom_site_fract_z
Si Si1 0.814572 0.638033 0.852851
Si Si2 0.631469 0.658817 0.107352
Si Si3 0.489884 0.000000 0.247819
Si Si4 0.266282 0.500000 0.366919
Si Si5 0.173942 0.000000 0.310628
O O1 0.830199 0.743514 0.831696
O O2 0.957118 0.586729 0.837109
O O3 0.718132 0.587142 0.733210
O O4 0.749502 0.625932 0.005157
O O5 0.613939 0.587081 0.230658
O O6 0.500000 0.668009 0.000000
O O7 0.601546 0.000000 0.381857
O O8 0.335456 0.000000 0.283213
O O9 0.340189 0.500000 0.519917
#
# Coordination Sequence:
#
# PCOD9221290 Si02
#       5
#     8   8   4   4   4
#     4   8  21  38  61  80 121 147 200 238 288 331
#     4  11  23  37  56  91 119 155 189 242 285 355
#     4   8  20  39  60  88 108 155 194 246 272 347
#     4   8  20  40  60  88 112 153 197 244 280 347
#     4  12  22  35  65  86 122 151 196 231 304 331
#
# _framework density 20.361716999999999
#
# number of rings (size 3 to 8) (size 9 to 14) (size 15 to 20)
#    1.714    0.571    0.000    2.571    8.000    2.286 
#    0.000    2.857    0.000    0.000    0.000    0.000 
#    0.000    0.000    0.000    0.000    0.000    0.000 
#
# Total GULP energy -77999.943935 kJ/mol
# GULP energy per Si atom -5571.424567 kJ/mol
# Density = 2.031537 g / cm^3
# Si number density = 20.361717 Si / 1000 Ang^3
#
#
#
# Elastic Constant Matrix: (Units=GPa)
#
#
# Indices 1 2 3 4 5 6 
#
# 1 80.5299 14.0168 15.6128 0.0000 -6.4824 0.0000
# 2 14.0168 153.7796 109.4367 0.0000 18.7540 0.0000
# 3 15.6128 109.4367 144.0560 0.0000 26.2891 0.0000
# 4 0.0000 0.0000 0.0000 120.9955 0.0000 -200.2119
# 5 -6.4824 18.7540 26.2891 0.0000 23.1282 0.0000
# 6 0.0000 0.0000 0.0000 -200.2119 0.0000 326.4455
#
#
#
# Elastic Compliance Matrix: (Units=1/GPa)
#
#
# Indices 1 2 3 4 5 6 
#
# 1 0.013504 -0.000294 -0.002491 0.000000 0.006855 0.000000
# 2 -0.000294 0.014178 -0.010884 0.000000 0.000792 0.000000
# 3 -0.002491 -0.010884 0.017660 0.000000 -0.011947 0.000000
# 4 0.000000 0.000000 0.000000 -0.556742 0.000000 -0.341455
# 5 0.006855 0.000792 -0.011947 0.000000 0.058096 0.000000
# 6 0.000000 0.000000 0.000000 -0.341455 0.000000 -0.206354
#
#
# Mechanical properties :
#
#
# Convention : Reuss Voigt Hill
#
# Bulk Modulus (GPa) = 55.54195 72.94423 64.24309
# Shear Modulus (GPa) = -7.98315 110.06713 51.04199
#
# Velocity S-wave (km/s) = -1.98222 7.36025 5.01219
# Velocity P-wave (km/s) = 4.70085 10.39870 8.06942
#
# Compressibility (1/GPa) = 0.01800441
#
# Stress axis : x y z
#
# Youngs Moduli (GPa) = 74.05389 70.52987 56.62502
#
# Poissons Ratio (x) = 0.02074 0.14106
# Poissons Ratio (y) = 0.02177 0.61629
# Poissons Ratio (z) = 0.18448 0.76763
#
# Static dielectric constant tensor:
#      x y z
#    x 1.785290 0.000000 0.014560 
#    y 0.000000 1.696220 0.000000 
#    z 0.014560 0.000000 1.707530 
# 
# From -- ./inp_files/45769.got.cif
#   From: 2010.05.17/outbox.cif.g08.bks.cpg/sg12_23_cif.got.tgz:45769.got - 2010.06.03 13:09:07.
