data_PCOD9221358
_publ_section_title
;
Structure prediction by ZEFSAII (Michael W. Deem and Ramdas Pophale) SiO2 
 PCOD9221358
Probable space group: C 2/M
;
_chemical_formula_sum "Si O2"
_cell_formula_units_Z 36
_cell_length_a 15.195209
_cell_length_b 8.027141
_cell_length_c 12.157513
_cell_angle_alpha 90.000000
_cell_angle_beta 103.732663
_cell_angle_gamma 90.000000
_cell_volume 1440.511223
_symmetry_space_group_name_H-M "C 2/M"
_symmetry_group_IT_number 12
_symmetry_cell_setting 'monoclinic'
loop_
_space_group_symop_operation_xyz
x,y,z
-x,y,-z
-x,-y,-z
x,-y,z
1/2+x,1/2+y,z
1/2-x,1/2+y,-z
1/2-x,1/2-y,-z
1/2+x,1/2-y,z
loop_
_atom_site_type_symbol
_atom_site_label
_atom_site_fract_x
_atom_site_fract_y
_atom_site_fract_z
Si Si1 0.623698 0.321124 0.009584
Si Si2 0.560384 0.302710 0.623240
Si Si3 0.437202 0.807567 0.787287
Si Si4 0.743390 0.692857 0.371787
Si Si5 0.805880 0.500000 0.083206
O O1 0.606771 0.500000 0.945995
O O2 0.564241 0.294372 0.100637
O O3 0.628269 0.151774 0.942082
O O4 0.726410 0.357034 0.085759
O O5 0.500000 0.249172 0.500000
O O6 0.576405 0.500000 0.617404
O O7 0.503634 0.262363 0.714340
O O8 0.657430 0.214046 0.651318
O O9 0.335544 0.794934 0.708667
O O10 0.454888 0.000000 0.812174
O O11 0.716513 0.500000 0.360009
O O12 0.750000 0.750000 0.500000
#
# Coordination Sequence:
#
# PCOD9221358 Si02
#       5
#     8   8   8   8   4
#     4   9  16  31  53  85 117 145 191 240 287 350
#     4  11  23  39  58  81 113 155 197 242 290 340
#     4  12  23  36  59  89 117 156 198 239 288 349
#     4  12  24  39  57  81 114 156 198 243 290 342
#     4   8  16  30  54  84 114 146 186 238 298 348
#
# _framework density 24.991126999999999
#
# number of rings (size 3 to 8) (size 9 to 14) (size 15 to 20)
#    0.667    0.667    3.333    4.667    0.000    0.889 
#    0.000    0.000    0.000    0.000    0.000    9.333 
#    0.000    0.000    0.000    0.000    0.000    0.000 
#
# Total GULP energy -100356.344208 kJ/mol
# GULP energy per Si atom -5575.352456 kJ/mol
# Density = 2.493425 g / cm^3
# Si number density = 24.991127 Si / 1000 Ang^3
#
#
#
# Elastic Constant Matrix: (Units=GPa)
#
#
# Indices 1 2 3 4 5 6 
#
# 1 132.6994 18.8538 58.5118 0.0000 -13.1212 0.0000
# 2 18.8538 159.4058 27.7074 0.0000 1.9942 0.0000
# 3 58.5118 27.7074 101.2724 0.0000 3.7416 0.0000
# 4 0.0000 0.0000 0.0000 25.1512 0.0000 -7.9842
# 5 -13.1212 1.9942 3.7416 0.0000 48.2450 0.0000
# 6 0.0000 0.0000 0.0000 -7.9842 0.0000 56.6744
#
#
#
# Elastic Compliance Matrix: (Units=1/GPa)
#
#
# Indices 1 2 3 4 5 6 
#
# 1 0.010641 -0.000221 -0.006213 0.000000 0.003385 0.000000
# 2 -0.000221 0.006592 -0.001668 0.000000 -0.000203 0.000000
# 3 -0.006213 -0.001668 0.014020 0.000000 -0.002708 0.000000
# 4 0.000000 0.000000 0.000000 0.041621 0.000000 0.005863
# 5 0.003385 -0.000203 -0.002708 0.000000 0.021867 0.000000
# 6 0.000000 0.000000 0.000000 0.005863 0.000000 0.018471
#
#
# Mechanical properties :
#
#
# Convention : Reuss Voigt Hill
#
# Bulk Modulus (GPa) = 66.44777 67.05818 66.75298
# Shear Modulus (GPa) = 37.19330 45.23442 41.21386
#
# Velocity S-wave (km/s) = 3.86198 4.25905 4.06537
# Velocity P-wave (km/s) = 6.82150 7.14682 6.98605
#
# Compressibility (1/GPa) = 0.01504941
#
# Stress axis : x y z
#
# Youngs Moduli (GPa) = 93.97249 151.69991 71.32455
#
# Poissons Ratio (x) = 0.03354 0.44313
# Poissons Ratio (y) = 0.02077 0.11899
# Poissons Ratio (z) = 0.58384 0.25308
#
# Static dielectric constant tensor:
#      x y z
#    x 2.072800 0.000000 0.056320 
#    y 0.000000 1.876660 0.000000 
#    z 0.056320 0.000000 1.993330 
# 
# From -- ./inp_files/210727.got.cif
#   From: 2010.05.17/outbox.cif.g08.bks.cpg/sg12_106_cif.got.tgz:210727.got - 2010.06.03 13:09:07.
