data_PCOD9221142
_publ_section_title
;
Structure prediction by ZEFSAII (Michael W. Deem and Ramdas Pophale) SiO2 
 PCOD9221142
Probable space group: C 2/M
;
_chemical_formula_sum "Si O2"
_cell_formula_units_Z 44
_cell_length_a 16.928738
_cell_length_b 13.775135
_cell_length_c 22.533923
_cell_angle_alpha 90.000000
_cell_angle_beta 157.122586
_cell_angle_gamma 90.000000
_cell_volume 2042.865188
_symmetry_space_group_name_H-M "C 2/M"
_symmetry_group_IT_number 12
_symmetry_cell_setting 'monoclinic'
loop_
_space_group_symop_operation_xyz
x,y,z
-x,y,-z
-x,-y,-z
x,-y,z
1/2+x,1/2+y,z
1/2-x,1/2+y,-z
1/2-x,1/2-y,-z
1/2+x,1/2-y,z
loop_
_atom_site_type_symbol
_atom_site_label
_atom_site_fract_x
_atom_site_fract_y
_atom_site_fract_z
Si Si1 0.355737 0.500000 0.489729
Si Si2 0.319752 0.701774 0.922028
Si Si3 0.986535 0.000000 0.708656
Si Si4 0.424333 0.210840 0.799709
Si Si5 0.914691 0.788869 0.660612
Si Si6 0.609183 0.000000 0.937702
Si Si7 0.124429 0.500000 0.813786
Si Si8 0.500000 0.664196 0.500000
O O1 0.494000 0.500000 0.643002
O O2 0.408656 0.593472 0.486996
O O3 0.121457 0.500000 0.349813
O O4 0.212046 0.596919 0.845058
O O5 0.138604 0.778538 0.787340
O O6 0.500000 0.710710 0.000000
O O7 0.421558 0.722913 0.056651
O O8 0.874469 0.900707 0.648077
O O9 0.207419 0.000000 0.890021
O O10 0.433798 0.231440 0.735913
O O11 0.189430 0.225470 0.654616
O O12 0.481010 0.099004 0.853525
O O13 0.750000 0.750000 0.500000
O O14 0.698382 0.000000 0.933080
#
# Coordination Sequence:
#
# PCOD9221142 Si02
#       8
#     4   8   4   8   8   4   4   4
#     4  11  23  43  70  99 137 181 234 291 354 425
#     4  12  27  44  70 107 141 188 240 297 360 427
#     4  12  25  40  70 107 135 177 243 295 349 421
#     4  12  25  44  71 104 145 187 233 297 366 430
#     4  12  26  47  74 104 144 193 243 293 361 437
#     4  12  21  43  74  99 134 186 234 289 352 436
#     4  12  22  49  73  93 140 194 244 278 353 447
#     4  11  22  42  70 101 136 186 234 289 366 423
#
# _framework density 21.538378000000002
#
# number of rings (size 3 to 8) (size 9 to 14) (size 15 to 20)
#    0.000    0.182    5.455    4.636    5.091    0.000 
#    0.000    1.818    0.000    1.091    0.000    0.000 
#    0.000    0.000    0.000    0.000    0.000    0.000 
#
# Total GULP energy -123085.370787 kJ/mol
# GULP energy per Si atom -5594.789581 kJ/mol
# Density = 2.148936 g / cm^3
# Si number density = 21.538378 Si / 1000 Ang^3
#
#
#
# Elastic Constant Matrix: (Units=GPa)
#
#
# Indices 1 2 3 4 5 6 
#
# 1 82.3800 4.1345 53.6455 0.0026 0.4480 -0.0017
# 2 4.1345 110.1523 37.3826 0.0069 2.5960 0.0017
# 3 53.6455 37.3826 176.3223 0.0207 -12.4985 0.0006
# 4 0.0026 0.0069 0.0207 33.9264 0.0025 1.5345
# 5 0.4480 2.5960 -12.4985 0.0025 48.1178 0.0002
# 6 -0.0017 0.0017 0.0006 1.5345 0.0002 4.8920
#
#
#
# Elastic Compliance Matrix: (Units=1/GPa)
#
#
# Indices 1 2 3 4 5 6 
#
# 1 0.015363 0.001166 -0.005028 0.000002 -0.001512 0.000005
# 2 0.001166 0.009927 -0.002545 0.000000 -0.001207 -0.000002
# 3 -0.005028 -0.002545 0.007899 -0.000004 0.002236 -0.000001
# 4 0.000002 0.000000 -0.000004 0.029900 -0.000003 -0.009379
# 5 -0.001512 -0.001207 0.002236 -0.000003 0.021442 0.000000
# 6 0.000005 -0.000002 -0.000001 -0.009379 0.000000 0.207356
#
#
# Mechanical properties :
#
#
# Convention : Reuss Voigt Hill
#
# Bulk Modulus (GPa) = 49.08292 62.13108 55.60700
# Shear Modulus (GPa) = 16.05168 35.63337 25.84252
#
# Velocity S-wave (km/s) = 2.73291 4.07186 3.46762
# Velocity P-wave (km/s) = 5.72682 7.14255 6.47350
#
# Compressibility (1/GPa) = 0.02037368
#
# Stress axis : x y z
#
# Youngs Moduli (GPa) = 65.09100 100.73867 126.59278
#
# Poissons Ratio (x) = -0.11741 0.63657
# Poissons Ratio (y) = -0.07586 0.32215
# Poissons Ratio (z) = 0.32731 0.25636
#
# Static dielectric constant tensor:
#      x y z
#    x 1.794630 0.000000 0.005470 
#    y 0.000000 1.839850 0.000000 
#    z 0.005470 0.000000 1.789250 
# 
# From -- ./inp_files/344174.got.cif
#   From: 2010.05.17/outbox.cif.g08.bks.cpg/sg12_173_cif.got.tgz:344174.got - 2010.06.03 13:09:07.
