data_PCOD9221033
_publ_section_title
;
Structure prediction by ZEFSAII (Michael W. Deem and Ramdas Pophale) SiO2 
 PCOD9221033
Probable space group: C 2/M
;
_chemical_formula_sum "Si O2"
_cell_formula_units_Z 44
_cell_length_a 22.090699
_cell_length_b 21.101363
_cell_length_c 5.067347
_cell_angle_alpha 90.000000
_cell_angle_beta 69.658835
_cell_angle_gamma 90.000000
_cell_volume 2214.809993
_symmetry_space_group_name_H-M "C 2/M"
_symmetry_group_IT_number 12
_symmetry_cell_setting 'monoclinic'
loop_
_space_group_symop_operation_xyz
x,y,z
-x,y,-z
-x,-y,-z
x,-y,z
1/2+x,1/2+y,z
1/2-x,1/2+y,-z
1/2-x,1/2-y,-z
1/2+x,1/2-y,z
loop_
_atom_site_type_symbol
_atom_site_label
_atom_site_fract_x
_atom_site_fract_y
_atom_site_fract_z
Si Si1 0.857232 0.883924 0.542374
Si Si2 0.217802 0.923621 0.832787
Si Si3 0.044558 0.226614 0.691520
Si Si4 0.046131 0.000000 0.680759
Si Si5 0.570214 0.127821 0.785878
Si Si6 0.361664 0.925234 0.820531
O O1 0.831047 0.896549 0.874598
O O2 0.894684 0.818305 0.452323
O O3 0.908495 0.938751 0.395469
O O4 0.799397 0.893303 0.421771
O O5 0.210051 0.000000 0.827240
O O6 0.290181 0.910849 0.820867
O O7 0.066467 0.297398 0.732610
O O8 0.000000 0.229094 0.500000
O O9 0.000000 0.202125 0.000000
O O10 0.000000 0.000000 0.500000
O O11 0.000000 0.000000 0.000000
O O12 0.589696 0.092877 0.488180
O O13 0.500000 0.107877 0.000000
O O14 0.620204 0.111951 0.942486
O O15 0.364926 0.000000 0.873703
#
# Coordination Sequence:
#
# PCOD9221033 Si02
#       6
#     8   8   8   4   8   8
#     4  12  22  39  62  88 122 170 212 247 308 355
#     4  11  22  41  60  88 125 168 203 253 309 360
#     4  11  23  42  63  88 125 167 204 249 312 371
#     4  12  22  34  56  90 122 150 207 268 289 334
#     4  11  23  42  65  92 124 159 198 252 315 375
#     4  11  24  41  66  94 124 157 203 253 309 372
#
# _framework density 19.866264000000001
#
# number of rings (size 3 to 8) (size 9 to 14) (size 15 to 20)
#    0.000    0.727    1.818    7.636    0.000    5.091 
#    0.000    5.455    0.000    0.000    0.000    0.000 
#    0.000    0.000    0.000    0.000    0.000    0.000 
#
# Total GULP energy -123146.426385 kJ/mol
# GULP energy per Si atom -5597.564836 kJ/mol
# Density = 1.982105 g / cm^3
# Si number density = 19.866264 Si / 1000 Ang^3
#
#
#
# Elastic Constant Matrix: (Units=GPa)
#
#
# Indices 1 2 3 4 5 6 
#
# 1 93.2704 47.3085 4.5818 0.0000 24.5443 0.0000
# 2 47.3085 56.8841 8.6699 0.0000 6.4347 0.0000
# 3 4.5818 8.6699 70.3466 0.0000 14.4178 0.0000
# 4 0.0000 0.0000 0.0000 4.8136 0.0000 12.7179
# 5 24.5443 6.4347 14.4178 0.0000 47.5579 0.0000
# 6 0.0000 0.0000 0.0000 12.7179 0.0000 1.3198
#
#
#
# Elastic Compliance Matrix: (Units=1/GPa)
#
#
# Indices 1 2 3 4 5 6 
#
# 1 0.022201 -0.017767 0.002771 0.000000 -0.009894 0.000000
# 2 -0.017767 0.032292 -0.004059 0.000000 0.006030 0.000000
# 3 0.002771 -0.004059 0.015691 0.000000 -0.005638 0.000000
# 4 0.000000 0.000000 0.000000 -0.008494 0.000000 0.081844
# 5 -0.009894 0.006030 -0.005638 0.000000 0.027026 0.000000
# 6 0.000000 0.000000 0.000000 0.081844 0.000000 -0.030977
#
#
# Mechanical properties :
#
#
# Convention : Reuss Voigt Hill
#
# Bulk Modulus (GPa) = 31.17648 37.95794 34.56721
# Shear Modulus (GPa) = 46.93170 21.40099 34.16635
#
# Velocity S-wave (km/s) = 4.86571 3.28571 4.15157
# Velocity P-wave (km/s) = 6.87707 5.79161 6.35755
#
# Compressibility (1/GPa) = 0.03207546
#
# Stress axis : x y z
#
# Youngs Moduli (GPa) = 45.04401 30.96758 63.73263
#
# Poissons Ratio (x) = 0.55019 -0.17663
# Poissons Ratio (y) = 0.80028 0.25867
# Poissons Ratio (z) = -0.12484 0.12569
#
# Static dielectric constant tensor:
#      x y z
#    x 1.699240 0.000000 0.002310 
#    y 0.000000 1.662640 0.000000 
#    z 0.002310 0.000000 1.681230 
# 
# From -- ./inp_files/20895.got.cif
#   From: 2010.05.17/outbox.cif.g08.bks.cpg/sg12_11_cif.got.tgz:20895.got - 2010.06.03 13:09:07.
