data_PCOD9221410
_publ_section_title
;
Structure prediction by ZEFSAII (Michael W. Deem and Ramdas Pophale) SiO2 
 PCOD9221410
Probable space group: C 2/M
;
_chemical_formula_sum "Si O2"
_cell_formula_units_Z 36
_cell_length_a 14.793164
_cell_length_b 9.296751
_cell_length_c 20.800706
_cell_angle_alpha 90.000000
_cell_angle_beta 141.412967
_cell_angle_gamma 90.000000
_cell_volume 1784.218251
_symmetry_space_group_name_H-M "C 2/M"
_symmetry_group_IT_number 12
_symmetry_cell_setting 'monoclinic'
loop_
_space_group_symop_operation_xyz
x,y,z
-x,y,-z
-x,-y,-z
x,-y,z
1/2+x,1/2+y,z
1/2-x,1/2+y,-z
1/2-x,1/2-y,-z
1/2+x,1/2-y,z
loop_
_atom_site_type_symbol
_atom_site_label
_atom_site_fract_x
_atom_site_fract_y
_atom_site_fract_z
Si Si1 0.500000 0.743745 0.500000
Si Si2 0.694379 0.666640 0.273090
Si Si3 0.398699 0.336870 0.580288
Si Si4 0.957631 0.672903 0.226529
Si Si5 0.159694 0.825744 0.105733
O O1 0.647769 0.823012 0.605166
O O2 0.546666 0.659693 0.462268
O O3 0.649125 0.500000 0.249881
O O4 0.573171 0.760880 0.241641
O O5 0.698988 0.713236 0.201041
O O6 0.382719 0.500000 0.595646
O O7 0.250000 0.250000 0.500000
O O8 0.500493 0.242758 0.682067
O O9 0.971962 0.500000 0.235950
O O10 0.787481 0.712754 0.126777
O O11 0.154714 0.000000 0.101899
O O12 0.000000 0.770700 0.000000
#
# Coordination Sequence:
#
# PCOD9221410 Si02
#       5
#     4   8   8   8   8
#     4  12  24  38  62  94 128 162 200 254 304 374
#     4  11  23  39  63  93 125 165 207 253 308 372
#     4  12  25  40  61  91 128 167 204 252 307 372
#     4  11  23  40  62  92 125 163 206 258 311 364
#     4   9  20  41  65  89 121 164 210 255 309 371
#
# _framework density 20.176902999999999
#
# number of rings (size 3 to 8) (size 9 to 14) (size 15 to 20)
#    0.000    1.111    4.444    2.000    0.000    3.556 
#    0.000    0.000    0.000    4.667    0.000    0.000 
#    0.000    0.000    0.000    0.000    0.000    0.000 
#
# Total GULP energy -100393.222135 kJ/mol
# GULP energy per Si atom -5577.401230 kJ/mol
# Density = 2.013098 g / cm^3
# Si number density = 20.176903 Si / 1000 Ang^3
#
#
#
# Elastic Constant Matrix: (Units=GPa)
#
#
# Indices 1 2 3 4 5 6 
#
# 1 147.7698 51.7967 43.3039 0.0000 29.3976 0.0000
# 2 51.7967 91.3847 19.1503 0.0000 18.0418 0.0000
# 3 43.3039 19.1503 90.8631 0.0000 34.9514 0.0000
# 4 0.0000 0.0000 0.0000 12.2335 0.0000 -10.0635
# 5 29.3976 18.0418 34.9514 0.0000 39.2645 0.0000
# 6 0.0000 0.0000 0.0000 -10.0635 0.0000 1.1823
#
#
#
# Elastic Compliance Matrix: (Units=1/GPa)
#
#
# Indices 1 2 3 4 5 6 
#
# 1 0.009617 -0.004337 -0.002534 0.000000 -0.002952 0.000000
# 2 -0.004337 0.014014 0.000519 0.000000 -0.003654 0.000000
# 3 -0.002534 0.000519 0.017436 0.000000 -0.013862 0.000000
# 4 0.000000 0.000000 0.000000 -0.013619 0.000000 -0.115924
# 5 -0.002952 -0.003654 -0.013862 0.000000 0.041697 0.000000
# 6 0.000000 0.000000 0.000000 -0.115924 0.000000 -0.140921
#
#
# Mechanical properties :
#
#
# Convention : Reuss Voigt Hill
#
# Bulk Modulus (GPa) = 35.25725 62.05770 48.65747
# Shear Modulus (GPa) = -100.77204 24.92052 -37.92576
#
# Velocity S-wave (km/s) = -7.07479 3.51821 -4.34021
# Velocity P-wave (km/s) = 7.01605 6.87949 0.97406
#
# Compressibility (1/GPa) = 0.02836296
#
# Stress axis : x y z
#
# Youngs Moduli (GPa) = 103.97756 71.35859 57.35296
#
# Poissons Ratio (x) = 0.30951 0.14532
# Poissons Ratio (y) = 0.45099 -0.02977
# Poissons Ratio (z) = 0.26346 -0.03704
#
# Static dielectric constant tensor:
#      x y z
#    x 1.756240 0.000000 0.029170 
#    y 0.000000 1.683400 0.000000 
#    z 0.029170 0.000000 1.709310 
# 
# From -- ./inp_files/309104.got.cif
#   From: 2010.05.17/outbox.cif.g08.bks.cpg/sg12_155_cif.got.tgz:309104.got - 2010.06.03 13:09:07.
