data_PCOD9221938
_publ_section_title
;
Structure prediction by ZEFSAII (Michael W. Deem and Ramdas Pophale) SiO2 
 PCOD9221938
Probable space group: C 2/M
;
_chemical_formula_sum "Si O2"
_cell_formula_units_Z 56
_cell_length_a 18.873625
_cell_length_b 9.013053
_cell_length_c 29.677276
_cell_angle_alpha 90.000000
_cell_angle_beta 142.916853
_cell_angle_gamma 90.000000
_cell_volume 3044.033358
_symmetry_space_group_name_H-M "C 2/M"
_symmetry_group_IT_number 12
_symmetry_cell_setting 'monoclinic'
loop_
_space_group_symop_operation_xyz
x,y,z
-x,y,-z
-x,-y,-z
x,-y,z
1/2+x,1/2+y,z
1/2-x,1/2+y,-z
1/2-x,1/2-y,-z
1/2+x,1/2-y,z
loop_
_atom_site_type_symbol
_atom_site_label
_atom_site_fract_x
_atom_site_fract_y
_atom_site_fract_z
Si Si1 0.577209 0.824058 0.127689
Si Si2 0.213668 0.677045 0.434214
Si Si3 0.860006 0.324161 0.428533
Si Si4 0.744915 0.824836 0.128436
Si Si5 0.825803 0.824354 0.999384
Si Si6 0.036166 0.823388 0.695948
Si Si7 0.295736 0.677179 0.302496
O O1 0.643479 0.797661 0.113978
O O2 0.459466 0.731536 0.071216
O O3 0.672768 0.791236 0.214944
O O4 0.550006 0.000000 0.116085
O O5 0.221677 0.500000 0.441062
O O6 0.250000 0.750000 0.500000
O O7 0.297404 0.738382 0.437391
O O8 0.080651 0.729435 0.357281
O O9 0.838959 0.500000 0.422758
O O10 0.811958 0.265996 0.356463
O O11 0.000000 0.298360 0.500000
O O12 0.867759 0.796764 0.216290
O O13 0.740635 0.000000 0.114671
O O14 0.723927 0.729329 0.073828
O O15 0.820104 0.000000 0.000157
O O16 0.750000 0.750000 0.000000
O O17 0.101580 0.789759 0.681786
O O18 0.008892 0.000000 0.682091
O O19 0.300087 0.500000 0.313451
#
# Coordination Sequence:
#
# PCOD9221938 Si02
#       7
#     8   8   8   8   8   8   8
#     4   9  19  38  62  86 114 148 187 230 281 342
#     4  12  25  40  60  85 116 153 191 234 283 335
#     4  11  24  40  59  85 116 151 191 235 283 334
#     4   9  19  38  63  87 114 150 187 229 283 340
#     4  12  25  38  55  81 114 152 193 238 286 335
#     4   9  19  38  63  89 117 149 187 230 280 339
#     4   9  19  37  62  89 115 148 187 229 281 338
#
# _framework density 18.396644999999999
#
# number of rings (size 3 to 8) (size 9 to 14) (size 15 to 20)
#    0.000    1.857    0.000    6.000    0.000    8.571 
#    0.000    2.857    0.000    0.000    0.000    0.000 
#    0.000    0.000    0.000    0.000    0.000    0.000 
#
# Total GULP energy -156509.340059 kJ/mol
# GULP energy per Si atom -5589.619288 kJ/mol
# Density = 1.835477 g / cm^3
# Si number density = 18.396645 Si / 1000 Ang^3
#
#
#
# Elastic Constant Matrix: (Units=GPa)
#
#
# Indices 1 2 3 4 5 6 
#
# 1 131.4503 114.3387 94.3202 0.0000 -1.3805 0.0000
# 2 114.3387 142.7194 98.5402 0.0000 0.3501 0.0000
# 3 94.3202 98.5402 101.6550 0.0000 -7.0803 0.0000
# 4 0.0000 0.0000 0.0000 26.6016 0.0000 -6.0690
# 5 -1.3805 0.3501 -7.0803 0.0000 32.5718 0.0000
# 6 0.0000 0.0000 0.0000 -6.0690 0.0000 31.7220
#
#
#
# Elastic Compliance Matrix: (Units=1/GPa)
#
#
# Indices 1 2 3 4 5 6 
#
# 1 0.030558 -0.014577 -0.014339 0.000000 -0.001665 0.000000
# 2 -0.014577 0.028895 -0.014772 0.000000 -0.004140 0.000000
# 3 -0.014339 -0.014772 0.038005 0.000000 0.007812 0.000000
# 4 0.000000 0.000000 0.000000 0.039307 0.000000 0.007520
# 5 -0.001665 -0.004140 0.007812 0.000000 0.032374 0.000000
# 6 0.000000 0.000000 0.000000 0.007520 0.000000 0.032963
#
#
# Mechanical properties :
#
#
# Convention : Reuss Voigt Hill
#
# Bulk Modulus (GPa) = 99.19058 110.02477 104.60767
# Shear Modulus (GPa) = 17.07424 22.75411 19.91417
#
# Velocity S-wave (km/s) = 3.04981 3.52072 3.29369
# Velocity P-wave (km/s) = 8.15086 8.74438 8.45283
#
# Compressibility (1/GPa) = 0.01008160
#
# Stress axis : x y z
#
# Youngs Moduli (GPa) = 32.72463 34.60806 26.31225
#
# Poissons Ratio (x) = 0.50449 0.37728
# Poissons Ratio (y) = 0.47704 0.38870
# Poissons Ratio (z) = 0.46922 0.51125
#
# Static dielectric constant tensor:
#      x y z
#    x 1.603400 0.000000 0.004750 
#    y 0.000000 1.608630 0.000000 
#    z 0.004750 0.000000 1.621180 
# 
# From -- ./inp_files/363101.got.cif
#   From: 2010.05.17/outbox.cif.g08.bks.cpg/sg12_182_cif.got.tgz:363101.got - 2010.06.03 13:09:07.
