data_PCOD9221399
_publ_section_title
;
Structure prediction by ZEFSAII (Michael W. Deem and Ramdas Pophale) SiO2 
 PCOD9221399
Probable space group: C 2/M
;
_chemical_formula_sum "Si O2"
_cell_formula_units_Z 56
_cell_length_a 9.064463
_cell_length_b 20.231112
_cell_length_c 17.993501
_cell_angle_alpha 90.000000
_cell_angle_beta 55.222407
_cell_angle_gamma 90.000000
_cell_volume 2710.301343
_symmetry_space_group_name_H-M "C 2/M"
_symmetry_group_IT_number 12
_symmetry_cell_setting 'monoclinic'
loop_
_space_group_symop_operation_xyz
x,y,z
-x,y,-z
-x,-y,-z
x,-y,z
1/2+x,1/2+y,z
1/2-x,1/2+y,-z
1/2-x,1/2-y,-z
1/2+x,1/2-y,z
loop_
_atom_site_type_symbol
_atom_site_label
_atom_site_fract_x
_atom_site_fract_y
_atom_site_fract_z
Si Si1 0.303562 0.925262 0.094470
Si Si2 0.122939 0.378136 0.759429
Si Si3 0.294967 0.192303 0.829947
Si Si4 0.635238 0.255004 0.332935
Si Si5 0.118531 0.799297 0.083665
Si Si6 0.715051 0.423047 0.445330
Si Si7 0.259877 0.311825 0.443821
O O1 0.312049 0.907656 0.180424
O O2 0.191392 0.871436 0.080989
O O3 0.234635 0.000000 0.107202
O O4 0.500000 0.922552 0.000000
O O5 0.198041 0.303843 0.727253
O O6 0.190569 0.411568 0.662691
O O7 0.906890 0.368820 0.830291
O O8 0.355093 0.196267 0.728106
O O9 0.369237 0.260258 0.842705
O O10 0.079588 0.194632 0.893961
O O11 0.472082 0.305940 0.365007
O O12 0.648756 0.214251 0.405412
O O13 0.250000 0.750000 0.000000
O O14 0.500000 0.408438 0.500000
O O15 0.735152 0.500000 0.458953
O O16 0.781022 0.375920 0.494111
O O17 0.250000 0.250000 0.500000
#
# Coordination Sequence:
#
# PCOD9221399 Si02
#       7
#     8   8   8   8   8   8   8
#     4  11  25  46  69  95 133 177 220 267 332 405
#     4  12  22  41  65  96 130 174 220 273 329 398
#     4  12  22  38  64  95 133 165 217 279 336 395
#     4  12  21  35  60  94 126 165 215 270 324 385
#     4  12  23  39  66 103 133 165 218 282 338 394
#     4  11  23  39  62  93 129 173 224 276 335 397
#     4  12  21  37  61  90 124 165 218 274 325 384
#
# _framework density 20.661909000000001
#
# number of rings (size 3 to 8) (size 9 to 14) (size 15 to 20)
#    0.000    0.286    7.143    3.000    0.000    0.000 
#    0.000    1.429    0.000   11.143    0.000    0.000 
#    0.000    0.000    0.000    0.000    0.000    0.000 
#
# Total GULP energy -156017.872551 kJ/mol
# GULP energy per Si atom -5572.066877 kJ/mol
# Density = 2.061488 g / cm^3
# Si number density = 20.661909 Si / 1000 Ang^3
#
#
#
# Elastic Constant Matrix: (Units=GPa)
#
#
# Indices 1 2 3 4 5 6 
#
# 1 78.5182 30.6727 27.2285 0.0000 -19.4749 0.0000
# 2 30.6727 119.0302 29.0838 0.0000 -0.3221 0.0000
# 3 27.2285 29.0838 96.8752 0.0000 6.7708 0.0000
# 4 0.0000 0.0000 0.0000 24.1142 0.0000 4.5569
# 5 -19.4749 -0.3221 6.7708 0.0000 38.7447 0.0000
# 6 0.0000 0.0000 0.0000 4.5569 0.0000 28.6730
#
#
#
# Elastic Compliance Matrix: (Units=1/GPa)
#
#
# Indices 1 2 3 4 5 6 
#
# 1 0.018231 -0.003506 -0.004768 0.000000 0.009968 0.000000
# 2 -0.003506 0.009752 -0.001848 0.000000 -0.001358 0.000000
# 3 -0.004768 -0.001848 0.012539 0.000000 -0.004603 0.000000
# 4 0.000000 0.000000 0.000000 0.042753 0.000000 -0.006795
# 5 0.009968 -0.001358 -0.004603 0.000000 0.031614 0.000000
# 6 0.000000 0.000000 0.000000 -0.006795 0.000000 0.035956
#
#
# Mechanical properties :
#
#
# Convention : Reuss Voigt Hill
#
# Bulk Modulus (GPa) = 49.31130 52.04375 50.67753
# Shear Modulus (GPa) = 28.11366 32.13561 30.12464
#
# Velocity S-wave (km/s) = 3.69270 3.94802 3.82249
# Velocity P-wave (km/s) = 6.48838 6.78420 6.63794
#
# Compressibility (1/GPa) = 0.02027933
#
# Stress axis : x y z
#
# Youngs Moduli (GPa) = 54.85020 102.53868 79.74986
#
# Poissons Ratio (x) = 0.35950 0.38028
# Poissons Ratio (y) = 0.19230 0.14734
# Poissons Ratio (z) = 0.26155 0.18944
#
# Static dielectric constant tensor:
#      x y z
#    x 1.718910 0.000000 -0.449660 
#    y 0.000000 1.678420 0.000000 
#    z -0.449660 0.000000 2.716210 
# 
# From -- ./inp_files/257986.got.cif
#   From: 2010.05.17/outbox.cif.g08.bks.cpg/sg12_129_cif.got.tgz:257986.got - 2010.06.03 13:09:07.
