data_PCOD9221559
_publ_section_title
;
Structure prediction by ZEFSAII (Michael W. Deem and Ramdas Pophale) SiO2 
 PCOD9221559
Probable space group: C 2/M
;
_chemical_formula_sum "Si O2"
_cell_formula_units_Z 24
_cell_length_a 8.334745
_cell_length_b 26.518239
_cell_length_c 8.921818
_cell_angle_alpha 90.000000
_cell_angle_beta 31.051497
_cell_angle_gamma 90.000000
_cell_volume 1017.135163
_symmetry_space_group_name_H-M "C 2/M"
_symmetry_group_IT_number 12
_symmetry_cell_setting 'monoclinic'
loop_
_space_group_symop_operation_xyz
x,y,z
-x,y,-z
-x,-y,-z
x,-y,z
1/2+x,1/2+y,z
1/2-x,1/2+y,-z
1/2-x,1/2-y,-z
1/2+x,1/2-y,z
loop_
_atom_site_type_symbol
_atom_site_label
_atom_site_fract_x
_atom_site_fract_y
_atom_site_fract_z
Si Si1 0.819480 0.108108 0.840853
Si Si2 0.546023 0.055996 0.640486
Si Si3 0.162601 0.218495 0.219211
O O1 0.979150 0.163479 0.699198
O O2 0.103053 0.069711 0.592307
O O3 0.500000 0.100111 0.000000
O O4 0.686936 0.097884 0.110905
O O5 0.500000 0.054998 0.500000
O O6 0.464216 0.000000 0.764234
O O7 0.000000 0.241699 0.500000
O O8 0.500000 0.203000 0.000000
O O9 0.250000 0.250000 0.000000
#
# Coordination Sequence:
#
# PCOD9221559 Si02
#       3
#     8   8   8
#     4  11  23  41  64  92 127 165 211 265 319 379
#     4  11  24  41  62  92 128 167 214 264 316 380
#     4  11  24  43  66  95 130 167 214 268 322 385
#
# _framework density 23.595687000000002
#
# number of rings (size 3 to 8) (size 9 to 14) (size 15 to 20)
#    0.000    1.000    0.000    8.000    0.000   10.667 
#    0.000    0.000    0.000    0.000    0.000    0.000 
#    0.000    0.000    0.000    0.000    0.000    0.000 
#
# Total GULP energy -66828.645869 kJ/mol
# GULP energy per Si atom -5569.053822 kJ/mol
# Density = 2.354198 g / cm^3
# Si number density = 23.595687 Si / 1000 Ang^3
#
#
#
# Elastic Constant Matrix: (Units=GPa)
#
#
# Indices 1 2 3 4 5 6 
#
# 1 69.3475 38.9465 24.0881 0.0000 11.5314 0.0000
# 2 38.9465 75.8772 17.2518 0.0000 21.1816 0.0000
# 3 24.0881 17.2518 130.5696 0.0000 27.5529 0.0000
# 4 0.0000 0.0000 0.0000 -8.8152 0.0000 41.7872
# 5 11.5314 21.1816 27.5529 0.0000 48.8112 0.0000
# 6 0.0000 0.0000 0.0000 41.7872 0.0000 -79.6794
#
#
#
# Elastic Compliance Matrix: (Units=1/GPa)
#
#
# Indices 1 2 3 4 5 6 
#
# 1 0.021091 -0.010518 -0.002739 0.000000 0.001128 0.000000
# 2 -0.010518 0.020296 0.000673 0.000000 -0.006703 0.000000
# 3 -0.002739 0.000673 0.009082 0.000000 -0.004772 0.000000
# 4 0.000000 0.000000 0.000000 0.076337 0.000000 0.040034
# 5 0.001128 -0.006703 -0.004772 0.000000 0.025823 0.000000
# 6 0.000000 0.000000 0.000000 0.040034 0.000000 0.008445
#
#
# Mechanical properties :
#
#
# Convention : Reuss Voigt Hill
#
# Bulk Modulus (GPa) = 39.52392 48.48524 44.00458
# Shear Modulus (GPa) = 25.68375 5.09718 15.39047
#
# Velocity S-wave (km/s) = 3.30281 1.47136 2.55670
# Velocity P-wave (km/s) = 5.59746 4.84556 5.23503
#
# Compressibility (1/GPa) = 0.02530114
#
# Stress axis : x y z
#
# Youngs Moduli (GPa) = 47.41369 49.27149 110.10700
#
# Poissons Ratio (x) = 0.51822 0.30161
# Poissons Ratio (y) = 0.49868 -0.07411
# Poissons Ratio (z) = 0.12988 -0.03316
#
# Static dielectric constant tensor:
#      x y z
#    x 2.089450 0.000000 0.032120 
#    y 0.000000 1.965440 0.000000 
#    z 0.032120 0.000000 1.957620 
# 
# From -- ./inp_files/41244.got.cif
#   From: 2010.05.17/outbox.cif.g08.bks.cpg/sg12_21_cif.got.tgz:41244.got - 2010.06.03 13:09:07.
