data_PCOD9221696
_publ_section_title
;
Structure prediction by ZEFSAII (Michael W. Deem and Ramdas Pophale) SiO2 
 PCOD9221696
Probable space group: C 2/M
;
_chemical_formula_sum "Si O2"
_cell_formula_units_Z 64
_cell_length_a 16.803432
_cell_length_b 14.895080
_cell_length_c 17.318122
_cell_angle_alpha 90.000000
_cell_angle_beta 42.068680
_cell_angle_gamma 90.000000
_cell_volume 2904.223233
_symmetry_space_group_name_H-M "C 2/M"
_symmetry_group_IT_number 12
_symmetry_cell_setting 'monoclinic'
loop_
_space_group_symop_operation_xyz
x,y,z
-x,y,-z
-x,-y,-z
x,-y,z
1/2+x,1/2+y,z
1/2-x,1/2+y,-z
1/2-x,1/2-y,-z
1/2+x,1/2-y,z
loop_
_atom_site_type_symbol
_atom_site_label
_atom_site_fract_x
_atom_site_fract_y
_atom_site_fract_z
Si Si1 0.314544 0.723622 0.230280
Si Si2 0.999115 0.103901 0.354332
Si Si3 0.776381 0.644513 0.986651
Si Si4 0.250398 0.681562 0.571176
Si Si5 0.987974 0.101541 0.838428
Si Si6 0.357886 0.901841 0.101456
Si Si7 0.504044 0.897161 0.717618
Si Si8 0.428267 0.215095 0.630726
O O1 0.249506 0.755933 0.354627
O O2 0.431882 0.668694 0.168658
O O3 0.338745 0.812726 0.164650
O O4 0.204387 0.673544 0.269451
O O5 0.865266 0.119757 0.480022
O O6 0.001354 0.124606 0.260671
O O7 0.074968 0.178707 0.344864
O O8 0.033732 0.000000 0.339472
O O9 0.893349 0.621932 0.853474
O O10 0.750000 0.750000 0.000000
O O11 0.652939 0.603498 0.044606
O O12 0.803814 0.614215 0.054749
O O13 0.250000 0.750000 0.500000
O O14 0.130151 0.624669 0.665079
O O15 0.032737 0.000000 0.816510
O O16 0.313282 0.000000 0.161658
O O17 0.500000 0.908934 0.000000
O O18 0.498283 0.831947 0.649001
O O19 0.499947 0.000000 0.696221
O O20 0.500000 0.202314 0.500000
#
# Coordination Sequence:
#
# PCOD9221696 Si02
#       8
#     8   8   8   8   8   8   8   8
#     4  12  24  41  68  96 136 180 224 281 356 412
#     4  11  23  42  69 100 136 183 233 284 349 423
#     4  12  24  46  74 100 140 186 235 288 347 417
#     4  12  21  43  68  96 140 181 232 286 336 411
#     4  11  24  43  70 102 136 184 237 286 337 409
#     4  11  24  41  65 101 140 174 220 284 350 414
#     4  12  26  44  72 102 133 184 236 280 338 414
#     4  12  25  45  64  97 141 176 221 290 350 418
#
# _framework density 22.036873
#
# number of rings (size 3 to 8) (size 9 to 14) (size 15 to 20)
#    0.000    0.375    3.750    6.000    0.000    4.500 
#    0.000    0.000    0.000    4.125    0.000    0.000 
#    0.000    0.000    0.000    0.000    0.000    0.000 
#
# Total GULP energy -178955.623584 kJ/mol
# GULP energy per Si atom -5592.363237 kJ/mol
# Density = 2.198672 g / cm^3
# Si number density = 22.036873 Si / 1000 Ang^3
#
#
#
# Elastic Constant Matrix: (Units=GPa)
#
#
# Indices 1 2 3 4 5 6 
#
# 1 98.5150 23.2234 38.8320 0.0000 -31.7876 0.0000
# 2 23.2234 89.2088 22.7344 0.0000 -4.3298 0.0000
# 3 38.8320 22.7344 96.0562 0.0000 -26.5885 0.0000
# 4 0.0000 0.0000 0.0000 30.2190 0.0000 -14.7992
# 5 -31.7876 -4.3298 -26.5885 0.0000 48.4334 0.0000
# 6 0.0000 0.0000 0.0000 -14.7992 0.0000 28.7772
#
#
#
# Elastic Compliance Matrix: (Units=1/GPa)
#
#
# Indices 1 2 3 4 5 6 
#
# 1 0.014422 -0.002590 -0.003138 0.000000 0.007511 0.000000
# 2 -0.002590 0.012408 -0.002421 0.000000 -0.001920 0.000000
# 3 -0.003138 -0.002421 0.013705 0.000000 0.005247 0.000000
# 4 0.000000 0.000000 0.000000 0.044232 0.000000 0.022747
# 5 0.007511 -0.001920 0.005247 0.000000 0.028286 0.000000
# 6 0.000000 0.000000 0.000000 0.022747 0.000000 0.046448
#
#
# Mechanical properties :
#
#
# Convention : Reuss Voigt Hill
#
# Bulk Modulus (GPa) = 41.26111 50.37329 45.81720
# Shear Modulus (GPa) = 27.19220 34.75192 30.97206
#
# Velocity S-wave (km/s) = 3.51656 3.97544 3.75302
# Velocity P-wave (km/s) = 5.93739 6.63177 6.29416
#
# Compressibility (1/GPa) = 0.02423589
#
# Stress axis : x y z
#
# Youngs Moduli (GPa) = 69.33924 80.59498 72.96769
#
# Poissons Ratio (x) = 0.20875 0.22898
# Poissons Ratio (y) = 0.17960 0.17665
# Poissons Ratio (z) = 0.21760 0.19512
#
# Static dielectric constant tensor:
#      x y z
#    x 1.924440 0.000000 -0.001000 
#    y 0.000000 1.793090 0.000000 
#    z -0.001000 0.000000 1.824510 
# 
# From -- ./inp_files/278122.got.cif
#   From: 2010.05.17/outbox.cif.g08.bks.cpg/sg12_140_cif.got.tgz:278122.got - 2010.06.03 13:09:07.
