data_PCOD9221495
_publ_section_title
;
Structure prediction by ZEFSAII (Michael W. Deem and Ramdas Pophale) SiO2 
 PCOD9221495
Probable space group: C 2/M
;
_chemical_formula_sum "Si O2"
_cell_formula_units_Z 56
_cell_length_a 9.232682
_cell_length_b 18.408872
_cell_length_c 14.767615
_cell_angle_alpha 90.000000
_cell_angle_beta 119.186050
_cell_angle_gamma 90.000000
_cell_volume 2191.290587
_symmetry_space_group_name_H-M "C 2/M"
_symmetry_group_IT_number 12
_symmetry_cell_setting 'monoclinic'
loop_
_space_group_symop_operation_xyz
x,y,z
-x,y,-z
-x,-y,-z
x,-y,z
1/2+x,1/2+y,z
1/2-x,1/2+y,-z
1/2-x,1/2-y,-z
1/2+x,1/2-y,z
loop_
_atom_site_type_symbol
_atom_site_label
_atom_site_fract_x
_atom_site_fract_y
_atom_site_fract_z
Si Si1 0.989783 0.117760 0.603151
Si Si2 0.390978 0.578627 0.832032
Si Si3 0.179146 0.581307 0.942527
Si Si4 0.836320 0.394710 0.395173
Si Si5 0.314597 0.687114 0.130106
Si Si6 0.344985 0.879966 0.750181
Si Si7 0.967880 0.279510 0.312202
O O1 0.164939 0.082882 0.686702
O O2 0.983021 0.200130 0.639497
O O3 0.000000 0.117932 0.500000
O O4 0.819711 0.087101 0.589477
O O5 0.473040 0.500000 0.847381
O O6 0.326216 0.587288 0.913815
O O7 0.225518 0.575715 0.720254
O O8 0.515777 0.640364 0.834449
O O9 0.186785 0.500000 0.989035
O O10 0.007019 0.580556 0.835106
O O11 0.205433 0.651122 0.016115
O O12 0.869972 0.312868 0.367924
O O13 0.000000 0.416439 0.500000
O O14 0.198439 0.673245 0.180801
O O15 0.379190 0.765800 0.186341
O O16 0.388696 0.836237 0.671705
#
# Coordination Sequence:
#
# PCOD9221495 Si02
#       7
#     8   8   8   8   8   8   8
#     4  11  23  40  66 103 138 182 227 280 351 422
#     4  11  24  47  71  97 135 184 241 291 338 410
#     4  11  25  46  71  97 133 187 241 288 344 412
#     4  12  24  44  72 102 141 188 229 287 347 421
#     4  11  24  42  69 101 135 181 231 290 349 407
#     4  11  23  40  65 101 143 175 225 289 348 411
#     4  11  23  42  68 103 145 179 228 277 358 416
#
# _framework density 25.555717000000001
#
# number of rings (size 3 to 8) (size 9 to 14) (size 15 to 20)
#    0.000    0.857    4.286    4.286    0.000    5.429 
#    0.000    1.429    0.000    1.714    0.000    0.000 
#    0.000    0.000    0.000    0.000    0.000    0.000 
#
# Total GULP energy -156037.837425 kJ/mol
# GULP energy per Si atom -5572.779908 kJ/mol
# Density = 2.549755 g / cm^3
# Si number density = 25.555717 Si / 1000 Ang^3
#
#
#
# Elastic Constant Matrix: (Units=GPa)
#
#
# Indices 1 2 3 4 5 6 
#
# 1 155.5151 14.1700 47.5784 0.0000 19.7020 0.0000
# 2 14.1700 67.2318 0.8299 0.0000 12.7347 0.0000
# 3 47.5784 0.8299 127.2901 0.0000 27.2942 0.0000
# 4 0.0000 0.0000 0.0000 -77.3467 0.0000 24.6071
# 5 19.7020 12.7347 27.2942 0.0000 66.8187 0.0000
# 6 0.0000 0.0000 0.0000 24.6071 0.0000 -35.2893
#
#
#
# Elastic Compliance Matrix: (Units=1/GPa)
#
#
# Indices 1 2 3 4 5 6 
#
# 1 0.007459 -0.001374 -0.002591 0.000000 -0.000879 0.000000
# 2 -0.001374 0.015723 0.001059 0.000000 -0.003024 0.000000
# 3 -0.002591 0.001059 0.009532 0.000000 -0.003332 0.000000
# 4 0.000000 0.000000 0.000000 -0.016615 0.000000 -0.011585
# 5 -0.000879 -0.003024 -0.003332 0.000000 0.017162 0.000000
# 6 0.000000 0.000000 0.000000 -0.011585 0.000000 -0.036416
#
#
# Mechanical properties :
#
#
# Convention : Reuss Voigt Hill
#
# Bulk Modulus (GPa) = 37.16807 52.79928 44.98367
# Shear Modulus (GPa) = 430.11786 10.00047 220.05917
#
# Velocity S-wave (km/s) = 12.98735 1.98033 9.28959
# Velocity P-wave (km/s) = 15.47484 5.09257 11.51965
#
# Compressibility (1/GPa) = 0.02690481
#
# Stress axis : x y z
#
# Youngs Moduli (GPa) = 134.05910 63.60032 104.91107
#
# Poissons Ratio (x) = 0.08736 0.27179
# Poissons Ratio (y) = 0.18414 -0.11114
# Poissons Ratio (z) = 0.34730 -0.06738
#
# Static dielectric constant tensor:
#      x y z
#    x 1.993660 0.000000 0.088360 
#    y 0.000000 2.253060 0.000000 
#    z 0.088360 0.000000 2.108680 
# 
# From -- ./inp_files/198948.got.cif
#   From: 2010.05.17/outbox.cif.g08.bks.cpg/sg12_100_cif.got.tgz:198948.got - 2010.06.03 13:09:07.
