data_PCOD9221400
_publ_section_title
;
Structure prediction by ZEFSAII (Michael W. Deem and Ramdas Pophale) SiO2 
 PCOD9221400
Probable space group: C 2/M
;
_chemical_formula_sum "Si O2"
_cell_formula_units_Z 40
_cell_length_a 13.466681
_cell_length_b 16.760091
_cell_length_c 9.032714
_cell_angle_alpha 90.000000
_cell_angle_beta 66.195351
_cell_angle_gamma 90.000000
_cell_volume 1865.269595
_symmetry_space_group_name_H-M "C 2/M"
_symmetry_group_IT_number 12
_symmetry_cell_setting 'monoclinic'
loop_
_space_group_symop_operation_xyz
x,y,z
-x,y,-z
-x,-y,-z
x,-y,z
1/2+x,1/2+y,z
1/2-x,1/2+y,-z
1/2-x,1/2-y,-z
1/2+x,1/2-y,z
loop_
_atom_site_type_symbol
_atom_site_label
_atom_site_fract_x
_atom_site_fract_y
_atom_site_fract_z
Si Si1 0.705521 0.409838 0.248171
Si Si2 0.106284 0.319865 0.027952
Si Si3 0.799506 0.835672 0.429329
Si Si4 0.390757 0.095008 0.657216
Si Si5 0.472205 0.645627 0.860727
O O1 0.748644 0.500000 0.214662
O O2 0.685365 0.385164 0.428944
O O3 0.597839 0.403299 0.213703
O O4 0.791361 0.348474 0.127245
O O5 0.108724 0.360444 0.186727
O O6 0.095930 0.225012 0.056264
O O7 0.000000 0.345025 0.000000
O O8 0.750000 0.750000 0.500000
O O9 0.713659 0.878923 0.374158
O O10 0.915342 0.827547 0.281089
O O11 0.500000 0.115453 0.500000
O O12 0.389338 0.000000 0.681700
O O13 0.500000 0.604212 0.000000
#
# Coordination Sequence:
#
# PCOD9221400 Si02
#       5
#     8   8   8   8   8
#     4  12  26  43  67  99 134 171 214 269 330 387
#     4  11  23  43  67  94 128 170 220 267 318 383
#     4  12  24  42  67  94 129 173 219 267 319 384
#     4  11  23  39  62  94 131 169 212 265 325 386
#     4  11  24  43  67  94 129 171 219 267 317 385
#
# _framework density 21.444621000000001
#
# number of rings (size 3 to 8) (size 9 to 14) (size 15 to 20)
#    0.000    0.600    0.000    9.600    0.000    6.000 
#    0.000    0.000    0.000    0.000    0.000    0.000 
#    0.000    0.000    0.000    0.000    0.000    0.000 
#
# Total GULP energy -112044.355220 kJ/mol
# GULP energy per Si atom -5602.217761 kJ/mol
# Density = 2.139581 g / cm^3
# Si number density = 21.444621 Si / 1000 Ang^3
#
#
#
# Elastic Constant Matrix: (Units=GPa)
#
#
# Indices 1 2 3 4 5 6 
#
# 1 104.8734 17.2863 34.4028 0.0000 24.2682 0.0000
# 2 17.2863 64.4402 20.9704 0.0000 6.0077 0.0000
# 3 34.4028 20.9704 120.5744 0.0000 30.1275 0.0000
# 4 0.0000 0.0000 0.0000 6.0838 0.0000 -14.6381
# 5 24.2682 6.0077 30.1275 0.0000 60.1684 0.0000
# 6 0.0000 0.0000 0.0000 -14.6381 0.0000 10.9669
#
#
#
# Elastic Compliance Matrix: (Units=1/GPa)
#
#
# Indices 1 2 3 4 5 6 
#
# 1 0.011316 -0.002062 -0.002036 0.000000 -0.003339 0.000000
# 2 -0.002062 0.016828 -0.002431 0.000000 0.000368 0.000000
# 3 -0.002036 -0.002431 0.010323 0.000000 -0.004105 0.000000
# 4 0.000000 0.000000 0.000000 -0.074325 0.000000 -0.099206
# 5 -0.003339 0.000368 -0.004105 0.000000 0.019985 0.000000
# 6 0.000000 0.000000 0.000000 -0.099206 0.000000 -0.041231
#
#
# Mechanical properties :
#
#
# Convention : Reuss Voigt Hill
#
# Bulk Modulus (GPa) = 39.35382 48.35632 43.85507
# Shear Modulus (GPa) = -140.53511 29.92571 -55.30470
#
# Velocity S-wave (km/s) = -8.10409 3.73968 -5.08385
# Velocity P-wave (km/s) = 8.31728 6.42225 3.73710
#
# Compressibility (1/GPa) = 0.02541050
#
# Stress axis : x y z
#
# Youngs Moduli (GPa) = 88.37388 59.42503 96.87168
#
# Poissons Ratio (x) = 0.12251 0.19721
# Poissons Ratio (y) = 0.18220 0.23545
# Poissons Ratio (z) = 0.17991 0.14443
#
# Static dielectric constant tensor:
#      x y z
#    x 1.763460 0.000000 0.011680 
#    y 0.000000 1.744390 0.000000 
#    z 0.011680 0.000000 1.754170 
# 
# From -- ./inp_files/46953.got.cif
#   From: 2010.05.17/outbox.cif.g08.bks.cpg/sg12_24_cif.got.tgz:46953.got - 2010.06.03 13:09:07.
