data_PCOD9221540
_publ_section_title
;
Structure prediction by ZEFSAII (Michael W. Deem and Ramdas Pophale) SiO2 
 PCOD9221540
Probable space group: C 2/M
;
_chemical_formula_sum "Si O2"
_cell_formula_units_Z 64
_cell_length_a 14.500360
_cell_length_b 30.628060
_cell_length_c 8.286045
_cell_angle_alpha 90.000000
_cell_angle_beta 97.598864
_cell_angle_gamma 90.000000
_cell_volume 3647.663878
_symmetry_space_group_name_H-M "C 2/M"
_symmetry_group_IT_number 12
_symmetry_cell_setting 'monoclinic'
loop_
_space_group_symop_operation_xyz
x,y,z
-x,y,-z
-x,-y,-z
x,-y,z
1/2+x,1/2+y,z
1/2-x,1/2+y,-z
1/2-x,1/2-y,-z
1/2+x,1/2-y,z
loop_
_atom_site_type_symbol
_atom_site_label
_atom_site_fract_x
_atom_site_fract_y
_atom_site_fract_z
Si Si1 0.547399 0.722278 0.290775
Si Si2 0.801743 0.364454 0.650687
Si Si3 0.393259 0.949984 0.172388
Si Si4 0.157893 0.360377 0.716911
Si Si5 0.235625 0.224577 0.162414
Si Si6 0.356865 0.298887 0.348395
Si Si7 0.977470 0.682715 0.808594
Si Si8 0.111238 0.450441 0.218018
O O1 0.626602 0.719702 0.174196
O O2 0.598712 0.706777 0.464512
O O3 0.446597 0.700147 0.251817
O O4 0.523132 0.773316 0.293956
O O5 0.824698 0.355129 0.468981
O O6 0.703957 0.342548 0.670123
O O7 0.877879 0.339547 0.775862
O O8 0.820761 0.415019 0.689845
O O9 0.332486 0.911146 0.233248
O O10 0.502802 0.944178 0.242383
O O11 0.367750 0.000000 0.209863
O O12 0.387774 0.946214 0.976512
O O13 0.219801 0.323479 0.819034
O O14 0.053937 0.348358 0.748132
O O15 0.290074 0.257093 0.298834
O O16 0.250000 0.250000 0.000000
O O17 0.000000 0.692196 0.000000
O O18 0.136743 0.500000 0.265520
#
# Coordination Sequence:
#
# PCOD9221540 Si02
#       8
#     8   8   8   8   8   8   8   8
#     4  11  23  41  55  75 114 155 198 234 287 326
#     4  12  23  36  55  84 115 149 196 234 285 343
#     4   9  19  36  57  83 114 150 183 229 291 348
#     4  12  23  35  53  87 113 156 191 232 286 339
#     4  12  24  37  57  84 114 153 201 240 279 338
#     4  11  24  38  58  77 111 157 189 242 278 340
#     4  12  23  34  54  80 112 154 195 236 277 338
#     4   9  19  36  58  82 114 147 185 232 287 354
#
# _framework density 17.545476000000001
#
# number of rings (size 3 to 8) (size 9 to 14) (size 15 to 20)
#    0.000    1.000    5.000    3.750    3.500    0.500 
#    0.000    1.250    0.000    0.000    0.000    2.625 
#    0.000    2.000    0.000    0.000    0.000    0.000 
#
# Total GULP energy -178692.240949 kJ/mol
# GULP energy per Si atom -5584.132530 kJ/mol
# Density = 1.750554 g / cm^3
# Si number density = 17.545476 Si / 1000 Ang^3
#
#
#
# Elastic Constant Matrix: (Units=GPa)
#
#
# Indices 1 2 3 4 5 6 
#
# 1 104.9604 50.2776 35.4123 0.0000 -8.7456 0.0000
# 2 50.2776 140.2593 32.6658 0.0000 9.1479 0.0000
# 3 35.4123 32.6658 41.0051 0.0000 0.5910 0.0000
# 4 0.0000 0.0000 0.0000 19.9272 0.0000 -4.0573
# 5 -8.7456 9.1479 0.5910 0.0000 13.1589 0.0000
# 6 0.0000 0.0000 0.0000 -4.0573 0.0000 6.8861
#
#
#
# Elastic Compliance Matrix: (Units=1/GPa)
#
#
# Indices 1 2 3 4 5 6 
#
# 1 0.016516 -0.004288 -0.011055 0.000000 0.014454 0.000000
# 2 -0.004288 0.010329 -0.004383 0.000000 -0.009834 0.000000
# 3 -0.011055 -0.004383 0.037513 0.000000 -0.005985 0.000000
# 4 0.000000 0.000000 0.000000 0.057023 0.000000 0.033598
# 5 0.014454 -0.009834 -0.005985 0.000000 0.092706 0.000000
# 6 0.000000 0.000000 0.000000 0.033598 0.000000 0.165016
#
#
# Mechanical properties :
#
#
# Convention : Reuss Voigt Hill
#
# Bulk Modulus (GPa) = 40.15441 58.10402 49.12921
# Shear Modulus (GPa) = 11.71349 19.18571 15.44960
#
# Velocity S-wave (km/s) = 2.58661 3.31038 2.97062
# Velocity P-wave (km/s) = 5.64414 6.91372 6.31094
#
# Compressibility (1/GPa) = 0.02490387
#
# Stress axis : x y z
#
# Youngs Moduli (GPa) = 60.54777 96.81418 26.65751
#
# Poissons Ratio (x) = 0.41517 0.29471
# Poissons Ratio (y) = 0.25965 0.11685
# Poissons Ratio (z) = 0.66938 0.42436
#
# Static dielectric constant tensor:
#      x y z
#    x 1.530380 0.000000 0.059680 
#    y 0.000000 1.614900 0.000000 
#    z 0.059680 0.000000 1.576690 
# 
# From -- ./inp_files/66981.got.cif
#   From: 2010.05.17/outbox.cif.g08.bks.cpg/sg12_34_cif.got.tgz:66981.got - 2010.06.03 13:09:07.
