data_PCOD9221810
_publ_section_title
;
Structure prediction by ZEFSAII (Michael W. Deem and Ramdas Pophale) SiO2 
 PCOD9221810
Probable space group: C 2/M
;
_chemical_formula_sum "Si O2"
_cell_formula_units_Z 48
_cell_length_a 8.627461
_cell_length_b 31.434302
_cell_length_c 15.980503
_cell_angle_alpha 90.000000
_cell_angle_beta 149.696612
_cell_angle_gamma 90.000000
_cell_volume 2186.785395
_symmetry_space_group_name_H-M "C 2/M"
_symmetry_group_IT_number 12
_symmetry_cell_setting 'monoclinic'
loop_
_space_group_symop_operation_xyz
x,y,z
-x,y,-z
-x,-y,-z
x,-y,z
1/2+x,1/2+y,z
1/2-x,1/2+y,-z
1/2-x,1/2-y,-z
1/2+x,1/2-y,z
loop_
_atom_site_type_symbol
_atom_site_label
_atom_site_fract_x
_atom_site_fract_y
_atom_site_fract_z
Si Si1 0.790733 0.636370 0.827106
Si Si2 0.219479 0.785928 0.183380
Si Si3 0.363157 0.126913 0.184539
Si Si4 0.992274 0.047530 0.267111
Si Si5 0.969487 0.547535 0.343622
Si Si6 0.367143 0.709374 0.671695
O O1 0.719394 0.587341 0.813504
O O2 0.486963 0.665162 0.689211
O O3 0.967341 0.638148 0.822269
O O4 0.000000 0.653328 0.000000
O O5 0.384277 0.831651 0.252703
O O6 0.460870 0.747701 0.294226
O O7 0.042042 0.786432 0.188063
O O8 0.000000 0.782649 0.000000
O O9 0.495854 0.084974 0.289628
O O10 0.000000 0.119503 0.000000
O O11 0.164817 0.053287 0.258644
O O12 0.253277 0.048593 0.460722
O O13 0.855206 0.000000 0.205058
O O14 0.961586 0.500000 0.302401
O O15 0.000000 0.712199 0.500000
#
# Coordination Sequence:
#
# PCOD9221810 Si02
#       6
#     8   8   8   8   8   8
#     4  12  25  42  66  95 130 174 217 265 325 386
#     4  11  23  44  68  93 134 176 218 267 324 390
#     4  11  24  41  64  95 129 174 219 266 319 384
#     4   9  20  39  65  94 127 170 214 263 323 386
#     4   9  19  39  65  93 130 170 212 265 325 382
#     4  12  26  44  69 101 133 171 218 272 325 392
#
# _framework density 21.950026999999999
#
# number of rings (size 3 to 8) (size 9 to 14) (size 15 to 20)
#    0.000    1.333    0.000    7.500    4.667    2.000 
#    0.000    1.667    0.000    0.000    0.000    0.000 
#    0.000    0.000    0.000    0.000    0.000    0.000 
#
# Total GULP energy -134290.769331 kJ/mol
# GULP energy per Si atom -5595.448722 kJ/mol
# Density = 2.190007 g / cm^3
# Si number density = 21.950027 Si / 1000 Ang^3
#
#
#
# Elastic Constant Matrix: (Units=GPa)
#
#
# Indices 1 2 3 4 5 6 
#
# 1 122.1103 47.7056 13.6641 0.0000 -3.1379 0.0000
# 2 47.7056 130.2942 14.2003 0.0000 6.1342 0.0000
# 3 13.6641 14.2003 45.3007 0.0000 6.1525 0.0000
# 4 0.0000 0.0000 0.0000 33.6769 0.0000 4.8464
# 5 -3.1379 6.1342 6.1525 0.0000 27.7645 0.0000
# 6 0.0000 0.0000 0.0000 4.8464 0.0000 39.5553
#
#
#
# Elastic Compliance Matrix: (Units=1/GPa)
#
#
# Indices 1 2 3 4 5 6 
#
# 1 0.009857 -0.003480 -0.002204 0.000000 0.002371 0.000000
# 2 -0.003480 0.009217 -0.001556 0.000000 -0.002085 0.000000
# 3 -0.002204 -0.001556 0.023935 0.000000 -0.005209 0.000000
# 4 0.000000 0.000000 0.000000 0.030227 0.000000 -0.003703
# 5 0.002371 -0.002085 -0.005209 0.000000 0.037900 0.000000
# 6 0.000000 0.000000 0.000000 -0.003703 0.000000 0.025735
#
#
# Mechanical properties :
#
#
# Convention : Reuss Voigt Hill
#
# Bulk Modulus (GPa) = 35.05458 49.87169 42.46314
# Shear Modulus (GPa) = 31.08276 35.00833 33.04555
#
# Velocity S-wave (km/s) = 3.76715 3.99797 3.88427
# Velocity P-wave (km/s) = 5.90989 6.63939 6.28523
#
# Compressibility (1/GPa) = 0.02852694
#
# Stress axis : x y z
#
# Youngs Moduli (GPa) = 101.45531 108.49552 41.77999
#
# Poissons Ratio (x) = 0.37759 0.09209
# Poissons Ratio (y) = 0.35309 0.06502
# Poissons Ratio (z) = 0.22362 0.16885
#
# Static dielectric constant tensor:
#      x y z
#    x 1.763990 0.000000 -0.012310 
#    y 0.000000 1.777200 0.000000 
#    z -0.012310 0.000000 1.843460 
# 
# From -- ./inp_files/260422.got.cif
#   From: 2010.05.17/outbox.cif.g08.bks.cpg/sg12_131_cif.got.tgz:260422.got - 2010.06.03 13:09:07.
