data_PCOD9221760
_publ_section_title
;
Structure prediction by ZEFSAII (Michael W. Deem and Ramdas Pophale) SiO2 
 PCOD9221760
Probable space group: C 2/M
;
_chemical_formula_sum "Si O2"
_cell_formula_units_Z 48
_cell_length_a 14.157794
_cell_length_b 24.053631
_cell_length_c 12.106017
_cell_angle_alpha 90.000000
_cell_angle_beta 147.053644
_cell_angle_gamma 90.000000
_cell_volume 2242.123360
_symmetry_space_group_name_H-M "C 2/M"
_symmetry_group_IT_number 12
_symmetry_cell_setting 'monoclinic'
loop_
_space_group_symop_operation_xyz
x,y,z
-x,y,-z
-x,-y,-z
x,-y,z
1/2+x,1/2+y,z
1/2-x,1/2+y,-z
1/2-x,1/2-y,-z
1/2+x,1/2-y,z
loop_
_atom_site_type_symbol
_atom_site_label
_atom_site_fract_x
_atom_site_fract_y
_atom_site_fract_z
Si Si1 0.203851 0.239504 0.583358
Si Si2 0.688126 0.653505 0.200561
Si Si3 0.396857 0.059362 0.513104
Si Si4 0.205100 0.116107 0.688149
Si Si5 0.372756 0.794241 0.180640
Si Si6 0.476525 0.104766 0.148709
O O1 0.250000 0.250000 0.500000
O O2 0.320612 0.284299 0.760953
O O3 0.209755 0.180164 0.649232
O O4 0.005331 0.260440 0.386088
O O5 0.785091 0.614882 0.384444
O O6 0.777329 0.662803 0.169418
O O7 0.500000 0.628718 0.000000
O O8 0.500000 0.056910 0.500000
O O9 0.521367 0.067543 0.739935
O O10 0.302291 0.000000 0.432668
O O11 0.341470 0.089984 0.733343
O O12 0.000000 0.100769 0.500000
O O13 0.310533 0.103755 0.904858
O O14 0.471511 0.831622 0.187392
O O15 0.250000 0.750000 0.000000
#
# Coordination Sequence:
#
# PCOD9221760 Si02
#       6
#     8   8   8   8   8   8
#     4  12  21  37  59  91 135 180 220 263 320 402
#     4  12  24  37  61  93 130 171 221 279 334 398
#     4  11  23  47  73  94 125 172 230 291 347 402
#     4  11  24  41  66 100 141 181 223 271 333 415
#     4  12  22  37  59  91 136 177 224 260 321 403
#     4  11  23  43  68  95 135 178 227 277 339 403
#
# _framework density 21.408277999999999
#
# number of rings (size 3 to 8) (size 9 to 14) (size 15 to 20)
#    0.000    0.500    5.000    4.500    2.333    1.667 
#    0.000    1.667    0.000    1.000    0.000    0.000 
#    0.000    0.000    0.000    0.000    0.000    0.000 
#
# Total GULP energy -133796.361005 kJ/mol
# GULP energy per Si atom -5574.848375 kJ/mol
# Density = 2.135955 g / cm^3
# Si number density = 21.408278 Si / 1000 Ang^3
#
#
#
# Elastic Constant Matrix: (Units=GPa)
#
#
# Indices 1 2 3 4 5 6 
#
# 1 114.7663 7.8980 65.5040 0.0000 -8.4612 0.0000
# 2 7.8980 41.1713 30.0647 0.0000 -2.3494 0.0000
# 3 65.5040 30.0647 139.7392 0.0000 -8.5403 0.0000
# 4 0.0000 0.0000 0.0000 3.7440 0.0000 10.2914
# 5 -8.4612 -2.3494 -8.5403 0.0000 34.5663 0.0000
# 6 0.0000 0.0000 0.0000 10.2914 0.0000 -23.5503
#
#
#
# Elastic Compliance Matrix: (Units=1/GPa)
#
#
# Indices 1 2 3 4 5 6 
#
# 1 0.012144 0.002192 -0.006065 0.000000 0.001623 0.000000
# 2 0.002192 0.029218 -0.007269 0.000000 0.000726 0.000000
# 3 -0.006065 -0.007269 0.011618 0.000000 0.000892 0.000000
# 4 0.000000 0.000000 0.000000 0.121340 0.000000 0.053025
# 5 0.001623 0.000726 0.000892 0.000000 0.029597 0.000000
# 6 0.000000 0.000000 0.000000 0.053025 0.000000 -0.019290
#
#
# Mechanical properties :
#
#
# Convention : Reuss Voigt Hill
#
# Bulk Modulus (GPa) = 32.57885 55.84559 44.21222
# Shear Modulus (GPa) = 23.02642 15.76601 19.39622
#
# Velocity S-wave (km/s) = 3.28317 2.71670 3.01327
# Velocity P-wave (km/s) = 5.44272 5.99860 5.72741
#
# Compressibility (1/GPa) = 0.03069476
#
# Stress axis : x y z
#
# Youngs Moduli (GPa) = 82.34673 34.22552 86.07623
#
# Poissons Ratio (x) = -0.07502 0.52204
# Poissons Ratio (y) = -0.18049 0.62571
# Poissons Ratio (z) = 0.49942 0.24879
#
# Static dielectric constant tensor:
#      x y z
#    x 1.882080 0.000000 0.014740 
#    y 0.000000 1.795420 0.000000 
#    z 0.014740 0.000000 1.775540 
# 
# From -- ./inp_files/149834.got.cif
#   From: 2010.05.17/outbox.cif.g08.bks.cpg/sg12_75_cif.got.tgz:149834.got - 2010.06.03 13:09:07.
