data_PCOD9221460
_publ_section_title
;
Structure prediction by ZEFSAII (Michael W. Deem and Ramdas Pophale) SiO2 
 PCOD9221460
Probable space group: C 2/M
;
_chemical_formula_sum "Si O2"
_cell_formula_units_Z 64
_cell_length_a 9.395103
_cell_length_b 17.836911
_cell_length_c 28.470873
_cell_angle_alpha 90.000000
_cell_angle_beta 143.850360
_cell_angle_gamma 90.000000
_cell_volume 2814.475982
_symmetry_space_group_name_H-M "C 2/M"
_symmetry_group_IT_number 12
_symmetry_cell_setting 'monoclinic'
loop_
_space_group_symop_operation_xyz
x,y,z
-x,y,-z
-x,-y,-z
x,-y,z
1/2+x,1/2+y,z
1/2-x,1/2+y,-z
1/2-x,1/2-y,-z
1/2+x,1/2-y,z
loop_
_atom_site_type_symbol
_atom_site_label
_atom_site_fract_x
_atom_site_fract_y
_atom_site_fract_z
Si Si1 0.023101 0.298358 0.853406
Si Si2 0.819455 0.204681 0.320436
Si Si3 0.213082 0.138273 0.923442
Si Si4 0.685284 0.089407 0.457437
Si Si5 0.756352 0.910676 0.373690
Si Si6 0.270899 0.340172 0.634754
Si Si7 0.828321 0.911925 0.191168
Si Si8 0.115628 0.918019 0.082481
O O1 0.820013 0.269648 0.763265
O O2 0.891014 0.356221 0.853191
O O3 0.149698 0.226724 0.909743
O O4 0.207964 0.347461 0.872395
O O5 0.689919 0.132378 0.308989
O O6 0.798208 0.266498 0.354450
O O7 0.083888 0.182449 0.372851
O O8 0.114493 0.106412 0.847665
O O9 0.086668 0.096218 0.932535
O O10 0.500000 0.127706 0.000000
O O11 0.631845 0.114187 0.389205
O O12 0.479986 0.117338 0.437083
O O13 0.959895 0.108736 0.542992
O O14 0.681011 0.000000 0.455032
O O15 0.731680 0.000000 0.362331
O O16 0.453776 0.389532 0.715684
O O17 0.770297 0.000000 0.181003
O O18 0.231112 0.000000 0.121411
O O19 0.000000 0.919379 0.000000
#
# Coordination Sequence:
#
# PCOD9221460 Si02
#       8
#     8   8   8   8   8   8   8   8
#     4  11  24  43  65  90 128 168 213 261 320 386
#     4  11  24  39  63  89 127 167 212 270 318 384
#     4  12  25  43  68  94 126 170 213 259 318 389
#     4   9  19  39  65  91 128 168 211 264 319 387
#     4   9  20  39  64  95 126 167 215 262 321 386
#     4  11  23  40  61  91 128 169 214 266 322 381
#     4  11  24  42  65  95 128 167 213 266 320 379
#     4  11  25  43  65  95 128 163 210 267 322 378
#
# _framework density 22.739578999999999
#
# number of rings (size 3 to 8) (size 9 to 14) (size 15 to 20)
#    0.000    1.375    1.250    4.500    1.750    8.500 
#    0.000    2.500    0.000    0.000    0.000    0.000 
#    0.000    0.000    0.000    0.000    0.000    0.000 
#
# Total GULP energy -178998.690860 kJ/mol
# GULP energy per Si atom -5593.709089 kJ/mol
# Density = 2.268782 g / cm^3
# Si number density = 22.739579 Si / 1000 Ang^3
#
#
#
# Elastic Constant Matrix: (Units=GPa)
#
#
# Indices 1 2 3 4 5 6 
#
# 1 129.2353 23.5972 5.9132 0.0004 -15.3454 0.0011
# 2 23.5972 83.2098 -2.8759 -0.0003 -11.0879 -0.0003
# 3 5.9132 -2.8759 23.7975 0.0018 -4.3519 0.0031
# 4 0.0004 -0.0003 0.0018 0.2572 0.0001 -4.7374
# 5 -15.3454 -11.0879 -4.3519 0.0001 29.3901 0.0006
# 6 0.0011 -0.0003 0.0031 -4.7374 0.0006 -1.5816
#
#
#
# Elastic Compliance Matrix: (Units=1/GPa)
#
#
# Indices 1 2 3 4 5 6 
#
# 1 0.008601 -0.002038 -0.001750 0.000001 0.003463 0.000000
# 2 -0.002038 0.013280 0.002912 0.000001 0.004377 0.000000
# 3 -0.001750 0.002912 0.044034 0.000023 0.006705 0.000018
# 4 0.000001 0.000001 0.000023 0.069219 0.000008 -0.207330
# 5 0.003463 0.004377 0.006705 0.000008 0.038477 0.000004
# 6 0.000000 0.000000 0.000018 -0.207330 0.000004 -0.011254
#
#
# Mechanical properties :
#
#
# Convention : Reuss Voigt Hill
#
# Bulk Modulus (GPa) = 15.58567 32.16797 23.87682
# Shear Modulus (GPa) = 26.95447 19.58700 23.27073
#
# Velocity S-wave (km/s) = 3.44663 2.93808 3.20247
# Velocity P-wave (km/s) = 4.76528 5.06821 4.91908
#
# Compressibility (1/GPa) = 0.06416151
#
# Stress axis : x y z
#
# Youngs Moduli (GPa) = 116.26208 75.30285 22.70959
#
# Poissons Ratio (x) = 0.15349 0.03975
# Poissons Ratio (y) = 0.23697 -0.06612
# Poissons Ratio (z) = 0.20350 -0.21926
#
# Static dielectric constant tensor:
#      x y z
#    x 1.830870 0.000000 0.000230 
#    y 0.000000 1.835570 0.000000 
#    z 0.000230 0.000000 1.868550 
# 
# From -- ./inp_files/373009.got.cif
#   From: 2010.05.17/outbox.cif.g08.bks.cpg/sg12_187_cif.got.tgz:373009.got - 2010.06.03 13:09:07.
