data_PCOD9221594
_publ_section_title
;
Structure prediction by ZEFSAII (Michael W. Deem and Ramdas Pophale) SiO2 
 PCOD9221594
Probable space group: C 2/M
;
_chemical_formula_sum "Si O2"
_cell_formula_units_Z 64
_cell_length_a 17.771963
_cell_length_b 15.402927
_cell_length_c 17.902393
_cell_angle_alpha 90.000000
_cell_angle_beta 41.850187
_cell_angle_gamma 90.000000
_cell_volume 3269.611460
_symmetry_space_group_name_H-M "C 2/M"
_symmetry_group_IT_number 12
_symmetry_cell_setting 'monoclinic'
loop_
_space_group_symop_operation_xyz
x,y,z
-x,y,-z
-x,-y,-z
x,-y,z
1/2+x,1/2+y,z
1/2-x,1/2+y,-z
1/2-x,1/2-y,-z
1/2+x,1/2-y,z
loop_
_atom_site_type_symbol
_atom_site_label
_atom_site_fract_x
_atom_site_fract_y
_atom_site_fract_z
Si Si1 0.127536 0.761137 0.379653
Si Si2 0.197684 0.737123 0.620182
Si Si3 0.863564 0.101137 0.759721
Si Si4 0.995495 0.601070 0.762149
Si Si5 0.046564 0.097302 0.752238
Si Si6 0.824215 0.689344 0.000881
Si Si7 0.587915 0.640669 0.000756
Si Si8 0.175901 0.597336 0.245414
O O1 0.206128 0.784414 0.391240
O O2 0.128971 0.836844 0.316909
O O3 0.174141 0.673595 0.306660
O O4 0.000000 0.746191 0.500000
O O5 0.250000 0.750000 0.500000
O O6 0.103099 0.662810 0.686523
O O7 0.136675 0.826344 0.690006
O O8 0.973085 0.110788 0.731731
O O9 0.852257 0.000000 0.748366
O O10 0.759074 0.132929 0.887383
O O11 0.024027 0.500000 0.749780
O O12 0.907719 0.631637 0.890277
O O13 0.928642 0.611780 0.733480
O O14 0.095019 0.000000 0.715684
O O15 0.961832 0.104618 0.885223
O O16 0.750000 0.750000 0.000000
O O17 0.893902 0.756692 0.999924
O O18 0.709483 0.603998 0.887700
O O19 0.500000 0.622703 0.000000
O O20 0.168774 0.500000 0.282296
#
# Coordination Sequence:
#
# PCOD9221594 Si02
#       8
#     8   8   8   8   8   8   8   8
#     4  12  26  45  68  92 126 169 218 272 328 388
#     4  12  26  45  68  92 126 169 218 272 329 389
#     4  11  23  41  67  98 130 172 219 265 319 384
#     4  11  23  41  67  99 132 171 214 264 325 388
#     4  11  23  41  66  96 130 169 215 267 322 384
#     4  12  19  37  67  94 135 174 216 255 316 385
#     4  12  23  36  61  97 134 170 208 257 318 379
#     4  11  23  41  66  97 132 168 209 264 328 391
#
# _framework density 19.574192
#
# number of rings (size 3 to 8) (size 9 to 14) (size 15 to 20)
#    0.000    0.500    5.000    3.750    0.000    6.000 
#    0.000    0.000    0.000    2.250    0.000    0.000 
#    0.000    0.000    0.000    0.000    0.000    0.000 
#
# Total GULP energy -179072.399529 kJ/mol
# GULP energy per Si atom -5596.012485 kJ/mol
# Density = 1.952964 g / cm^3
# Si number density = 19.574192 Si / 1000 Ang^3
#
#
#
# Elastic Constant Matrix: (Units=GPa)
#
#
# Indices 1 2 3 4 5 6 
#
# 1 119.6177 50.3558 37.8630 0.0000 1.8961 0.0000
# 2 50.3558 112.3681 34.0405 0.0000 2.1099 0.0000
# 3 37.8630 34.0405 110.6102 0.0000 2.5708 0.0000
# 4 0.0000 0.0000 0.0000 -8.5651 0.0000 1.8986
# 5 1.8961 2.1099 2.5708 0.0000 30.5786 0.0000
# 6 0.0000 0.0000 0.0000 1.8986 0.0000 8.9484
#
#
#
# Elastic Compliance Matrix: (Units=1/GPa)
#
#
# Indices 1 2 3 4 5 6 
#
# 1 0.010876 -0.004129 -0.002448 0.000000 -0.000184 0.000000
# 2 -0.004129 0.011387 -0.002083 0.000000 -0.000355 0.000000
# 3 -0.002448 -0.002083 0.010533 0.000000 -0.000590 0.000000
# 4 0.000000 0.000000 0.000000 -0.111508 0.000000 0.023659
# 5 -0.000184 -0.000355 -0.000590 0.000000 0.032788 0.000000
# 6 0.000000 0.000000 0.000000 0.023659 0.000000 0.106732
#
#
# Mechanical properties :
#
#
# Convention : Reuss Voigt Hill
#
# Bulk Modulus (GPa) = 64.61114 65.23493 64.92303
# Shear Modulus (GPa) = 60.03294 20.88147 40.45721
#
# Velocity S-wave (km/s) = 5.54401 3.26971 4.55121
# Velocity P-wave (km/s) = 8.60589 6.90319 7.80113
#
# Compressibility (1/GPa) = 0.01547721
#
# Stress axis : x y z
#
# Youngs Moduli (GPa) = 91.94676 87.81787 94.93560
#
# Poissons Ratio (x) = 0.36258 0.23240
# Poissons Ratio (y) = 0.37963 0.19774
# Poissons Ratio (z) = 0.22509 0.18291
#
# Static dielectric constant tensor:
#      x y z
#    x 1.677170 0.000000 0.001180 
#    y 0.000000 1.678220 0.000000 
#    z 0.001180 0.000000 1.659130 
# 
# From -- ./inp_files/278147.got.cif
#   From: 2010.05.17/outbox.cif.g08.bks.cpg/sg12_140_cif.got.tgz:278147.got - 2010.06.03 13:09:07.
