data_PCOD9221172
_publ_section_title
;
Structure prediction by ZEFSAII (Michael W. Deem and Ramdas Pophale) SiO2 
 PCOD9221172
Probable space group: C 2/M
;
_chemical_formula_sum "Si O2"
_cell_formula_units_Z 60
_cell_length_a 14.895811
_cell_length_b 17.531767
_cell_length_c 11.238523
_cell_angle_alpha 90.000000
_cell_angle_beta 108.152764
_cell_angle_gamma 90.000000
_cell_volume 2788.864830
_symmetry_space_group_name_H-M "C 2/M"
_symmetry_group_IT_number 12
_symmetry_cell_setting 'monoclinic'
loop_
_space_group_symop_operation_xyz
x,y,z
-x,y,-z
-x,-y,-z
x,-y,z
1/2+x,1/2+y,z
1/2-x,1/2+y,-z
1/2-x,1/2-y,-z
1/2+x,1/2-y,z
loop_
_atom_site_type_symbol
_atom_site_label
_atom_site_fract_x
_atom_site_fract_y
_atom_site_fract_z
Si Si1 0.947996 0.413839 0.355591
Si Si2 0.103065 0.644327 0.257656
Si Si3 0.638086 0.693321 0.355184
Si Si4 0.000000 0.726554 0.000000
Si Si5 0.796241 0.912614 0.414019
Si Si6 0.845422 0.171428 0.075540
Si Si7 0.539943 0.415677 0.707460
Si Si8 0.721791 0.811433 0.807103
O O1 0.910330 0.500000 0.353401
O O2 0.866432 0.356242 0.282716
O O3 0.000000 0.393290 0.500000
O O4 0.027367 0.410401 0.286933
O O5 0.113137 0.717731 0.349707
O O6 0.205009 0.605116 0.295843
O O7 0.060335 0.676139 0.117303
O O8 0.697745 0.652266 0.482863
O O9 0.540741 0.646877 0.316071
O O10 0.696251 0.686820 0.256900
O O11 0.073952 0.779099 0.958504
O O12 0.893022 0.907723 0.379353
O O13 0.787836 0.000000 0.456160
O O14 0.892109 0.097871 0.152209
O O15 0.807985 0.226168 0.166014
O O16 0.763375 0.155104 0.947176
O O17 0.497725 0.500000 0.689419
#
# Coordination Sequence:
#
# PCOD9221172 Si02
#       8
#     8   8   8   4   8   8   8   8
#     4  11  25  44  64  96 142 178 214 271 333 399
#     4  12  24  42  71  99 127 174 229 272 333 393
#     4  12  23  42  68  99 132 174 225 274 330 394
#     4  12  22  46  70  98 134 170 218 290 330 384
#     4  11  26  45  66  98 138 177 221 278 333 393
#     4  11  22  43  68  97 134 167 223 285 329 387
#     4  11  24  42  66  97 135 177 219 271 336 398
#     4  11  23  40  70  97 128 177 219 272 337 388
#
# _framework density 21.514130000000002
#
# number of rings (size 3 to 8) (size 9 to 14) (size 15 to 20)
#    0.000    0.667    4.000    3.200    1.867    5.867 
#    0.000    5.000    0.000    0.000    0.000    0.000 
#    0.000    0.000    0.000    0.000    0.000    0.000 
#
# Total GULP energy -167830.941782 kJ/mol
# GULP energy per Si atom -5594.364726 kJ/mol
# Density = 2.146516 g / cm^3
# Si number density = 21.514130 Si / 1000 Ang^3
#
#
#
# Elastic Constant Matrix: (Units=GPa)
#
#
# Indices 1 2 3 4 5 6 
#
# 1 87.7913 21.0838 10.9120 0.0000 2.0051 0.0000
# 2 21.0838 76.8735 32.6172 0.0000 5.0764 0.0000
# 3 10.9120 32.6172 106.5756 0.0000 17.0916 0.0000
# 4 0.0000 0.0000 0.0000 130.9457 0.0000 -43.2119
# 5 2.0051 5.0764 17.0916 0.0000 40.9996 0.0000
# 6 0.0000 0.0000 0.0000 -43.2119 0.0000 31.1580
#
#
#
# Elastic Compliance Matrix: (Units=1/GPa)
#
#
# Indices 1 2 3 4 5 6 
#
# 1 0.012200 -0.003237 -0.000243 0.000000 -0.000094 0.000000
# 2 -0.003237 0.015808 -0.004520 0.000000 0.000085 0.000000
# 3 -0.000243 -0.004520 0.011466 0.000000 -0.004208 0.000000
# 4 0.000000 0.000000 0.000000 0.014081 0.000000 0.019529
# 5 -0.000094 0.000085 -0.004208 0.000000 0.026139 0.000000
# 6 0.000000 0.000000 0.000000 0.019529 0.000000 0.059178
#
#
# Mechanical properties :
#
#
# Convention : Reuss Voigt Hill
#
# Bulk Modulus (GPa) = 42.60018 44.49628 43.54823
# Shear Modulus (GPa) = 30.73159 54.39581 42.56370
#
# Velocity S-wave (km/s) = 3.78357 5.03375 4.45275
# Velocity P-wave (km/s) = 6.23949 7.38323 6.83532
#
# Compressibility (1/GPa) = 0.02347408
#
# Stress axis : x y z
#
# Youngs Moduli (GPa) = 81.96476 63.25730 87.21202
#
# Poissons Ratio (x) = 0.20474 0.02123
# Poissons Ratio (y) = 0.26529 0.39424
# Poissons Ratio (z) = 0.01996 0.28595
#
# Static dielectric constant tensor:
#      x y z
#    x 1.782300 0.000000 0.019460 
#    y 0.000000 1.757750 0.000000 
#    z 0.019460 0.000000 1.802370 
# 
# From -- ./inp_files/146195.got.cif
#   From: 2010.05.17/outbox.cif.g08.bks.cpg/sg12_74_cif.got.tgz:146195.got - 2010.06.03 13:09:07.
