data_PCOD9221014
_publ_section_title
;
Structure prediction by ZEFSAII (Michael W. Deem and Ramdas Pophale) SiO2 
 PCOD9221014
Probable space group: C 2/M
;
_chemical_formula_sum "Si O2"
_cell_formula_units_Z 32
_cell_length_a 25.396167
_cell_length_b 12.961346
_cell_length_c 13.645818
_cell_angle_alpha 90.000000
_cell_angle_beta 161.305422
_cell_angle_gamma 90.000000
_cell_volume 1439.718318
_symmetry_space_group_name_H-M "C 2/M"
_symmetry_group_IT_number 12
_symmetry_cell_setting 'monoclinic'
loop_
_space_group_symop_operation_xyz
x,y,z
-x,y,-z
-x,-y,-z
x,-y,z
1/2+x,1/2+y,z
1/2-x,1/2+y,-z
1/2-x,1/2-y,-z
1/2+x,1/2-y,z
loop_
_atom_site_type_symbol
_atom_site_label
_atom_site_fract_x
_atom_site_fract_y
_atom_site_fract_z
Si Si1 0.910692 0.812645 0.749440
Si Si2 0.423379 0.379360 0.473345
Si Si3 0.254334 0.000000 0.606435
Si Si4 0.578038 0.000000 0.310664
Si Si5 0.052172 0.693485 0.836069
O O1 0.750000 0.750000 0.500000
O O2 0.850539 0.898023 0.568600
O O3 0.041894 0.740713 0.927315
O O4 0.000000 0.859876 0.000000
O O5 0.500000 0.373531 0.500000
O O6 0.446045 0.500000 0.545433
O O7 0.504313 0.285718 0.678555
O O8 0.228925 0.353882 0.124974
O O9 0.306571 0.000000 0.582162
O O10 0.404229 0.000000 0.945143
O O11 0.579433 0.100152 0.382714
#
# Coordination Sequence:
#
# PCOD9221014 Si02
#       5
#     8   8   4   4   8
#     4  12  24  39  62  98 141 182 230 274 332 407
#     4  11  26  50  75 101 134 177 231 295 353 410
#     4  11  23  40  60  96 143 192 228 270 324 405
#     4  11  22  40  68  96 142 188 222 278 345 393
#     4  12  24  44  72 101 138 183 230 282 349 407
#
# _framework density 22.226569999999999
#
# number of rings (size 3 to 8) (size 9 to 14) (size 15 to 20)
#    0.000    0.500    3.750    5.625    1.750    0.000 
#    2.250    0.625    0.000    0.000    0.000    0.000 
#    0.000    0.000    0.000    0.000    0.000    0.000 
#
# Total GULP energy -89415.351403 kJ/mol
# GULP energy per Si atom -5588.459463 kJ/mol
# Density = 2.217598 g / cm^3
# Si number density = 22.226570 Si / 1000 Ang^3
#
#
#
# Elastic Constant Matrix: (Units=GPa)
#
#
# Indices 1 2 3 4 5 6 
#
# 1 124.0973 55.4823 27.6560 0.0000 22.1075 0.0000
# 2 55.4823 165.7135 28.1169 0.0000 -7.7493 0.0000
# 3 27.6560 28.1169 58.2284 0.0000 6.4145 0.0000
# 4 0.0000 0.0000 0.0000 40.8076 0.0000 -4.3357
# 5 22.1075 -7.7493 6.4145 0.0000 41.0383 0.0000
# 6 0.0000 0.0000 0.0000 -4.3357 0.0000 46.9803
#
#
#
# Elastic Compliance Matrix: (Units=1/GPa)
#
#
# Indices 1 2 3 4 5 6 
#
# 1 0.011496 -0.003640 -0.002996 0.000000 -0.006412 0.000000
# 2 -0.003640 0.007854 -0.002486 0.000000 0.003833 0.000000
# 3 -0.002996 -0.002486 0.020016 0.000000 -0.001984 0.000000
# 4 0.000000 0.000000 0.000000 0.024748 0.000000 0.002284
# 5 -0.006412 0.003833 -0.001984 0.000000 0.028855 0.000000
# 6 0.000000 0.000000 0.000000 0.002284 0.000000 0.021496
#
#
# Mechanical properties :
#
#
# Convention : Reuss Voigt Hill
#
# Bulk Modulus (GPa) = 47.34502 63.39440 55.36971
# Shear Modulus (GPa) = 35.77826 41.55085 38.66456
#
# Velocity S-wave (km/s) = 4.01647 4.32837 4.17533
# Velocity P-wave (km/s) = 6.54650 7.31871 6.94335
#
# Compressibility (1/GPa) = 0.02112154
#
# Stress axis : x y z
#
# Youngs Moduli (GPa) = 86.98936 127.31781 49.96120
#
# Poissons Ratio (x) = 0.46349 0.14967
# Poissons Ratio (y) = 0.31668 0.12420
# Poissons Ratio (z) = 0.26060 0.31649
#
# Static dielectric constant tensor:
#      x y z
#    x 1.830940 0.000000 0.006040 
#    y 0.000000 1.874650 0.000000 
#    z 0.006040 0.000000 1.780760 
# 
# From -- ./inp_files/245800.got.cif
#   From: 2010.05.17/outbox.cif.g08.bks.cpg/sg12_123_cif.got.tgz:245800.got - 2010.06.03 13:09:07.
