data_PCOD9221073
_publ_section_title
;
Structure prediction by ZEFSAII (Michael W. Deem and Ramdas Pophale) SiO2 
 PCOD9221073
Probable space group: C 2/M
;
_chemical_formula_sum "Si O2"
_cell_formula_units_Z 52
_cell_length_a 8.329572
_cell_length_b 30.509018
_cell_length_c 15.504979
_cell_angle_alpha 90.000000
_cell_angle_beta 139.288391
_cell_angle_gamma 90.000000
_cell_volume 2570.026003
_symmetry_space_group_name_H-M "C 2/M"
_symmetry_group_IT_number 12
_symmetry_cell_setting 'monoclinic'
loop_
_space_group_symop_operation_xyz
x,y,z
-x,y,-z
-x,-y,-z
x,-y,z
1/2+x,1/2+y,z
1/2-x,1/2+y,-z
1/2-x,1/2-y,-z
1/2+x,1/2-y,z
loop_
_atom_site_type_symbol
_atom_site_label
_atom_site_fract_x
_atom_site_fract_y
_atom_site_fract_z
Si Si1 0.276588 0.313617 0.644157
Si Si2 0.777763 0.417507 0.151116
Si Si3 0.085624 0.000000 0.799379
Si Si4 0.500000 0.805031 0.000000
Si Si5 0.742942 0.413848 0.342288
Si Si6 0.787304 0.327304 0.086773
Si Si7 0.136000 0.257095 0.751563
Si Si8 0.091600 0.500000 0.901851
O O1 0.366442 0.364445 0.685239
O O2 0.244965 0.288779 0.722875
O O3 0.423780 0.278533 0.645203
O O4 0.000000 0.317910 0.500000
O O5 0.787946 0.416720 0.257913
O O6 0.891109 0.372632 0.163651
O O7 0.901626 0.458453 0.157170
O O8 0.500000 0.417708 0.000000
O O9 0.342685 0.000000 0.854332
O O10 0.934058 0.955835 0.714377
O O11 0.173384 0.000000 0.936344
O O12 0.675394 0.828066 0.001159
O O13 0.337975 0.774220 0.874937
O O14 0.000000 0.418121 0.500000
O O15 0.929642 0.289344 0.195919
O O16 0.500000 0.323158 0.000000
#
# Coordination Sequence:
#
# PCOD9221073 Si02
#       8
#     8   8   4   4   8   8   8   4
#     4  11  25  42  64  91 130 184 229 271 330 401
#     4  11  22  41  67  96 132 174 226 269 338 407
#     4  11  24  45  68 107 130 169 218 284 344 407
#     4  12  24  36  64  97 134 167 214 288 356 374
#     4  11  24  45  70  96 132 180 228 269 333 414
#     4  11  23  38  61  97 134 174 220 277 338 405
#     4  12  21  40  60  91 132 170 222 281 328 400
#     4  11  24  40  70 100 140 156 215 288 351 402
#
# _framework density 20.233257999999999
#
# number of rings (size 3 to 8) (size 9 to 14) (size 15 to 20)
#    0.000    0.769    5.385    2.769    2.154    2.462 
#    0.000    1.538    0.000    0.000    0.000    0.000 
#    0.000    0.000    0.000    0.000    0.000    0.000 
#
# Total GULP energy -144982.736324 kJ/mol
# GULP energy per Si atom -5576.259089 kJ/mol
# Density = 2.018721 g / cm^3
# Si number density = 20.233258 Si / 1000 Ang^3
#
#
#
# Elastic Constant Matrix: (Units=GPa)
#
#
# Indices 1 2 3 4 5 6 
#
# 1 63.3981 44.0867 12.4526 0.0000 -13.2668 0.0000
# 2 44.0867 162.6624 33.6270 0.0000 14.6607 0.0000
# 3 12.4526 33.6270 85.3388 0.0000 -4.5921 0.0000
# 4 0.0000 0.0000 0.0000 -27.7311 0.0000 -17.8445
# 5 -13.2668 14.6607 -4.5921 0.0000 27.6045 0.0000
# 6 0.0000 0.0000 0.0000 -17.8445 0.0000 16.3015
#
#
#
# Elastic Compliance Matrix: (Units=1/GPa)
#
#
# Indices 1 2 3 4 5 6 
#
# 1 0.024935 -0.008359 0.000544 0.000000 0.016514 0.000000
# 2 -0.008359 0.009971 -0.003239 0.000000 -0.009852 0.000000
# 3 0.000544 -0.003239 0.013139 0.000000 0.004168 0.000000
# 4 0.000000 0.000000 0.000000 -0.021157 0.000000 -0.023160
# 5 0.016514 -0.009852 0.004168 0.000000 0.050088 0.000000
# 6 0.000000 0.000000 0.000000 -0.023160 0.000000 0.035992
#
#
# Mechanical properties :
#
#
# Convention : Reuss Voigt Hill
#
# Bulk Modulus (GPa) = 38.55591 54.63688 46.59639
# Shear Modulus (GPa) = 34.78939 17.98385 26.38662
#
# Velocity S-wave (km/s) = 4.15108 2.98455 3.61518
# Velocity P-wave (km/s) = 6.48632 6.24010 6.36440
#
# Compressibility (1/GPa) = 0.02593636
#
# Stress axis : x y z
#
# Youngs Moduli (GPa) = 40.10415 100.29225 76.10752
#
# Poissons Ratio (x) = 0.83835 -0.04139
# Poissons Ratio (y) = 0.33523 0.24654
# Poissons Ratio (z) = -0.02181 0.32488
#
# Static dielectric constant tensor:
#      x y z
#    x 1.774680 0.000000 0.009000 
#    y 0.000000 1.763930 0.000000 
#    z 0.009000 0.000000 1.739860 
# 
# From -- ./inp_files/201387.got.cif
#   From: 2010.05.17/outbox.cif.g08.bks.cpg/sg12_101_cif.got.tgz:201387.got - 2010.06.03 13:09:07.
