data_PCOD9221515
_publ_section_title
;
Structure prediction by ZEFSAII (Michael W. Deem and Ramdas Pophale) SiO2 
 PCOD9221515
Probable space group: C 2/M
;
_chemical_formula_sum "Si O2"
_cell_formula_units_Z 40
_cell_length_a 12.652307
_cell_length_b 18.847719
_cell_length_c 17.859634
_cell_angle_alpha 90.000000
_cell_angle_beta 150.747758
_cell_angle_gamma 90.000000
_cell_volume 2081.151808
_symmetry_space_group_name_H-M "C 2/M"
_symmetry_group_IT_number 12
_symmetry_cell_setting 'monoclinic'
loop_
_space_group_symop_operation_xyz
x,y,z
-x,y,-z
-x,-y,-z
x,-y,z
1/2+x,1/2+y,z
1/2-x,1/2+y,-z
1/2-x,1/2-y,-z
1/2+x,1/2-y,z
loop_
_atom_site_type_symbol
_atom_site_label
_atom_site_fract_x
_atom_site_fract_y
_atom_site_fract_z
Si Si1 0.500000 0.794740 0.500000
Si Si2 0.700691 0.500000 0.924471
Si Si3 0.956824 0.726219 0.750231
Si Si4 0.742937 0.500000 0.124939
Si Si5 0.841605 0.340699 0.973620
Si Si6 0.020959 0.380528 0.370841
Si Si7 0.715834 0.000000 0.579918
O O1 0.715027 0.752817 0.613963
O O2 0.429729 0.842160 0.386779
O O3 0.781118 0.424815 0.939457
O O4 0.439065 0.500000 0.761808
O O5 0.773173 0.500000 0.055276
O O6 0.127164 0.790238 0.838396
O O7 0.931268 0.676576 0.662300
O O8 0.042852 0.683848 0.876968
O O9 0.852317 0.432349 0.228864
O O10 0.500000 0.500000 0.000000
O O11 0.000000 0.328018 0.000000
O O12 0.205561 0.431264 0.519608
O O13 0.500000 0.000000 0.500000
#
# Coordination Sequence:
#
# PCOD9221515 Si02
#       7
#     4   4   8   4   8   8   4
#     4  12  24  39  70  95 136 176 222 274 344 393
#     4  12  23  46  68  96 132 181 227 269 334 405
#     4  11  25  44  67 100 134 175 221 281 331 407
#     4  11  25  37  70  96 134 173 224 283 329 394
#     4  11  25  45  69  96 135 175 229 272 335 400
#     4  11  23  42  62  99 135 170 217 275 338 390
#     4  11  23  40  67 101 134 171 219 276 331 389
#
# _framework density 19.220127000000002
#
# number of rings (size 3 to 8) (size 9 to 14) (size 15 to 20)
#    0.000    0.800    3.000    4.500    2.800    2.400 
#    0.000    0.000    0.000    3.000    0.000    0.000 
#    0.000    0.000    0.000    0.000    0.000    0.000 
#
# Total GULP energy -111659.392740 kJ/mol
# GULP energy per Si atom -5582.969637 kJ/mol
# Density = 1.917638 g / cm^3
# Si number density = 19.220127 Si / 1000 Ang^3
#
#
#
# Elastic Constant Matrix: (Units=GPa)
#
#
# Indices 1 2 3 4 5 6 
#
# 1 145.8626 82.6896 58.7441 0.0036 -6.8178 0.0029
# 2 82.6896 154.3199 56.7266 0.0043 3.1039 0.0024
# 3 58.7441 56.7266 109.4648 0.0189 2.3917 0.0078
# 4 0.0036 0.0043 0.0189 60.6191 0.0027 21.1913
# 5 -6.8178 3.1039 2.3917 0.0027 39.0613 0.0018
# 6 0.0029 0.0024 0.0078 21.1913 0.0018 70.5464
#
#
#
# Elastic Compliance Matrix: (Units=1/GPa)
#
#
# Indices 1 2 3 4 5 6 
#
# 1 0.011054 -0.004661 -0.003572 0.000001 0.002519 0.000000
# 2 -0.004661 0.009976 -0.002637 0.000000 -0.001445 0.000000
# 3 -0.003572 -0.002637 0.012444 -0.000003 -0.001176 0.000000
# 4 0.000001 0.000000 -0.000003 0.018432 -0.000001 -0.005537
# 5 0.002519 -0.001445 -0.001176 -0.000001 0.026227 0.000000
# 6 0.000000 0.000000 0.000000 -0.005537 0.000000 0.015838
#
#
# Mechanical properties :
#
#
# Convention : Reuss Voigt Hill
#
# Bulk Modulus (GPa) = 85.21384 89.55201 87.38293
# Shear Modulus (GPa) = 41.79798 48.14448 44.97123
#
# Velocity S-wave (km/s) = 4.66843 5.01033 4.84239
# Velocity P-wave (km/s) = 8.57268 8.95350 8.76516
#
# Compressibility (1/GPa) = 0.01173518
#
# Stress axis : x y z
#
# Youngs Moduli (GPa) = 90.46247 100.24214 80.35759
#
# Poissons Ratio (x) = 0.46722 0.28703
# Poissons Ratio (y) = 0.42164 0.21189
# Poissons Ratio (z) = 0.32313 0.26432
#
# Static dielectric constant tensor:
#      x y z
#    x 1.733110 -0.000020 0.222160 
#    y -0.000020 1.740250 -0.000060 
#    z 0.222160 -0.000060 2.271670 
# 
# From -- ./inp_files/48664.got.cif
#   From: 2010.05.17/outbox.cif.g08.bks.cpg/sg12_25_cif.got.tgz:48664.got - 2010.06.03 13:09:07.
