data_PCOD9221576
_publ_section_title
;
Structure prediction by ZEFSAII (Michael W. Deem and Ramdas Pophale) SiO2 
 PCOD9221576
Probable space group: C 2/M
;
_chemical_formula_sum "Si O2"
_cell_formula_units_Z 56
_cell_length_a 11.838982
_cell_length_b 21.839404
_cell_length_c 22.657773
_cell_angle_alpha 90.000000
_cell_angle_beta 152.908008
_cell_angle_gamma 90.000000
_cell_volume 2667.994451
_symmetry_space_group_name_H-M "C 2/M"
_symmetry_group_IT_number 12
_symmetry_cell_setting 'monoclinic'
loop_
_space_group_symop_operation_xyz
x,y,z
-x,y,-z
-x,-y,-z
x,-y,z
1/2+x,1/2+y,z
1/2-x,1/2+y,-z
1/2-x,1/2-y,-z
1/2+x,1/2-y,z
loop_
_atom_site_type_symbol
_atom_site_label
_atom_site_fract_x
_atom_site_fract_y
_atom_site_fract_z
Si Si1 0.171585 0.160217 0.000824
Si Si2 0.659536 0.429195 0.215540
Si Si3 0.707935 0.225465 0.819388
Si Si4 0.604283 0.153238 0.466491
Si Si5 0.893356 0.641127 0.890758
Si Si6 0.440949 0.429982 0.695386
Si Si7 0.645238 0.711744 0.515433
O O1 0.026998 0.096305 0.921240
O O2 0.933925 0.205325 0.881221
O O3 0.264405 0.183647 0.108466
O O4 0.399085 0.158616 0.060784
O O5 0.725054 0.500000 0.235736
O O6 0.533102 0.424952 0.221610
O O7 0.902661 0.386623 0.337486
O O8 0.759000 0.297112 0.852002
O O9 0.431547 0.220213 0.666861
O O10 0.520047 0.221946 0.445301
O O11 0.838199 0.170620 0.534026
O O12 0.721300 0.114503 0.573381
O O13 0.684979 0.593025 0.775217
O O14 0.000000 0.612604 0.000000
O O15 0.379190 0.500000 0.652778
O O16 0.500000 0.680547 0.500000
#
# Coordination Sequence:
#
# PCOD9221576 Si02
#       7
#     8   8   8   8   8   8   8
#     4  11  24  41  65  92 129 168 214 255 315 379
#     4  11  23  42  67  92 127 167 213 264 309 376
#     4  11  24  42  64  94 127 170 206 262 317 381
#     4  11  23  41  65  93 128 166 206 258 323 379
#     4  12  23  38  63  93 128 166 204 259 318 371
#     4  11  24  40  62  94 127 164 210 258 318 377
#     4  11  24  39  67  97 127 158 209 264 319 377
#
# _framework density 20.989549
#
# number of rings (size 3 to 8) (size 9 to 14) (size 15 to 20)
#    0.000    0.857    5.714    2.143    2.000    2.000 
#    0.000    1.429    0.000    1.714    0.000    0.000 
#    0.000    0.000    0.000    0.000    0.000    0.000 
#
# Total GULP energy -156093.140995 kJ/mol
# GULP energy per Si atom -5574.755036 kJ/mol
# Density = 2.094178 g / cm^3
# Si number density = 20.989549 Si / 1000 Ang^3
#
#
#
# Elastic Constant Matrix: (Units=GPa)
#
#
# Indices 1 2 3 4 5 6 
#
# 1 91.3440 19.3762 2.7394 0.0000 14.8124 -0.0001
# 2 19.3762 109.7627 35.7046 0.0028 -2.3879 0.0013
# 3 2.7394 35.7046 77.3794 0.0019 -1.0753 0.0036
# 4 0.0000 0.0028 0.0019 25.8236 -0.0002 -4.5691
# 5 14.8124 -2.3879 -1.0753 -0.0002 34.0456 -0.0005
# 6 -0.0001 0.0013 0.0036 -4.5691 -0.0005 17.5090
#
#
#
# Elastic Compliance Matrix: (Units=1/GPa)
#
#
# Indices 1 2 3 4 5 6 
#
# 1 0.012358 -0.002512 0.000645 0.000000 -0.005533 0.000000
# 2 -0.002512 0.011242 -0.005075 -0.000001 0.001721 0.000000
# 3 0.000645 -0.005075 0.015240 -0.000001 -0.000155 -0.000003
# 4 0.000000 -0.000001 -0.000001 0.040599 0.000000 0.010595
# 5 -0.005533 0.001721 -0.000155 0.000000 0.031895 0.000001
# 6 0.000000 0.000000 -0.000003 0.010595 0.000001 0.059878
#
#
# Mechanical properties :
#
#
# Convention : Reuss Voigt Hill
#
# Bulk Modulus (GPa) = 40.06898 43.79185 41.93041
# Shear Modulus (GPa) = 25.85119 30.18668 28.01893
#
# Velocity S-wave (km/s) = 3.51325 3.79644 3.65759
# Velocity P-wave (km/s) = 5.96563 6.33453 6.15284
#
# Compressibility (1/GPa) = 0.02495696
#
# Stress axis : x y z
#
# Youngs Moduli (GPa) = 80.91777 88.95174 65.61743
#
# Poissons Ratio (x) = 0.22341 -0.04229
# Poissons Ratio (y) = 0.20323 0.33298
# Poissons Ratio (z) = -0.05215 0.45139
#
# Static dielectric constant tensor:
#      x y z
#    x 1.809730 0.000000 -0.026850 
#    y 0.000000 1.752900 0.000000 
#    z -0.026850 0.000000 1.827880 
# 
# From -- ./inp_files/336795.got.cif
#   From: 2010.05.17/outbox.cif.g08.bks.cpg/sg12_169_cif.got.tgz:336795.got - 2010.06.03 13:09:07.
