data_PCOD9221348
_publ_section_title
;
Structure prediction by ZEFSAII (Michael W. Deem and Ramdas Pophale) SiO2 
 PCOD9221348
Probable space group: C 2/M
;
_chemical_formula_sum "Si O2"
_cell_formula_units_Z 56
_cell_length_a 13.855256
_cell_length_b 21.590408
_cell_length_c 18.226630
_cell_angle_alpha 90.000000
_cell_angle_beta 149.902485
_cell_angle_gamma 90.000000
_cell_volume 2734.195232
_symmetry_space_group_name_H-M "C 2/M"
_symmetry_group_IT_number 12
_symmetry_cell_setting 'monoclinic'
loop_
_space_group_symop_operation_xyz
x,y,z
-x,y,-z
-x,-y,-z
x,-y,z
1/2+x,1/2+y,z
1/2-x,1/2+y,-z
1/2-x,1/2-y,-z
1/2+x,1/2-y,z
loop_
_atom_site_type_symbol
_atom_site_label
_atom_site_fract_x
_atom_site_fract_y
_atom_site_fract_z
Si Si1 0.863259 0.569852 0.251849
Si Si2 0.794012 0.429024 0.639783
Si Si3 0.028971 0.824135 0.398966
Si Si4 0.760159 0.287491 0.405587
Si Si5 0.610459 0.881174 0.139261
Si Si6 0.546266 0.240881 0.903017
Si Si7 0.000000 0.607871 0.500000
Si Si8 0.000000 0.159919 0.000000
O O1 0.791377 0.500000 0.193047
O O2 0.027322 0.581616 0.298510
O O3 0.953296 0.573833 0.393116
O O4 0.690415 0.618013 0.130097
O O5 0.726551 0.500000 0.583766
O O6 0.637799 0.377143 0.516687
O O7 0.853192 0.420229 0.763352
O O8 0.057565 0.755853 0.453436
O O9 0.145627 0.813697 0.400303
O O10 0.811749 0.847979 0.249082
O O11 0.617189 0.244290 0.266340
O O12 0.824067 0.346344 0.401585
O O13 0.470735 0.824858 0.069611
O O14 0.500000 0.914345 0.000000
O O15 0.750000 0.250000 0.000000
O O16 0.512158 0.295352 0.938183
#
# Coordination Sequence:
#
# PCOD9221348 Si02
#       8
#     8   8   8   8   8   8   4   4
#     4  11  25  45  66  95 133 175 224 272 326 396
#     4  11  25  46  69  94 131 180 227 274 331 399
#     4  11  24  41  68  97 133 172 219 277 331 400
#     4  11  23  38  67 100 132 167 218 272 336 394
#     4  12  25  43  66  97 134 172 220 279 336 390
#     4  12  24  39  63  99 138 169 212 273 337 401
#     4  12  21  42  68 100 129 170 216 276 334 390
#     4  12  25  40  68  94 129 178 216 262 336 394
#
# _framework density 20.481345999999998
#
# number of rings (size 3 to 8) (size 9 to 14) (size 15 to 20)
#    0.000    0.571    5.000    3.429    0.000    1.429 
#    0.000    0.000    0.000    0.000    0.000    0.000 
#    0.000    0.000    0.000    0.000    0.000    0.000 
#
# Total GULP energy -156573.007707 kJ/mol
# GULP energy per Si atom -5591.893132 kJ/mol
# Density = 2.043473 g / cm^3
# Si number density = 20.481346 Si / 1000 Ang^3
#
#
#
# Elastic Constant Matrix: (Units=GPa)
#
#
# Indices 1 2 3 4 5 6 
#
# 1 103.0314 24.4350 24.9392 -0.0003 -7.9436 0.0001
# 2 24.4350 75.5072 7.7661 0.0028 1.7770 -0.0018
# 3 24.9392 7.7661 83.3923 0.0069 -15.2911 -0.0014
# 4 -0.0003 0.0028 0.0069 13.8717 0.0024 3.7387
# 5 -7.9436 1.7770 -15.2911 0.0024 36.0818 -0.0013
# 6 0.0001 -0.0018 -0.0014 3.7387 -0.0013 14.0643
#
#
#
# Elastic Compliance Matrix: (Units=1/GPa)
#
#
# Indices 1 2 3 4 5 6 
#
# 1 0.011303 -0.003405 -0.002793 0.000002 0.001472 -0.000001
# 2 -0.003405 0.014453 -0.000646 -0.000003 -0.001735 0.000002
# 3 -0.002793 -0.000646 0.013857 -0.000009 0.005289 0.000004
# 4 0.000002 -0.000003 -0.000009 0.077652 -0.000009 -0.020642
# 5 0.001472 -0.001735 0.005289 -0.000009 0.030366 0.000005
# 6 -0.000001 0.000002 0.000004 -0.020642 0.000005 0.076589
#
#
# Mechanical properties :
#
#
# Convention : Reuss Voigt Hill
#
# Bulk Modulus (GPa) = 38.57340 41.80128 40.18734
# Shear Modulus (GPa) = 20.27985 26.45627 23.36806
#
# Velocity S-wave (km/s) = 3.15010 3.59796 3.38145
# Velocity P-wave (km/s) = 5.66614 6.14118 5.90844
#
# Compressibility (1/GPa) = 0.02592460
#
# Stress axis : x y z
#
# Youngs Moduli (GPa) = 88.47240 69.18996 72.16654
#
# Poissons Ratio (x) = 0.23560 0.20157
# Poissons Ratio (y) = 0.30126 0.04660
# Poissons Ratio (z) = 0.24712 0.04468
#
# Static dielectric constant tensor:
#      x y z
#    x 1.741810 0.000000 -0.032320 
#    y 0.000000 1.701490 0.000000 
#    z -0.032320 0.000000 1.739540 
# 
# From -- ./inp_files/272452.got.cif
#   From: 2010.05.17/outbox.cif.g08.bks.cpg/sg12_137_cif.got.tgz:272452.got - 2010.06.03 13:09:07.
