data_PCOD9221843
_publ_section_title
;
Structure prediction by ZEFSAII (Michael W. Deem and Ramdas Pophale) SiO2 
 PCOD9221843
Probable space group: C 2/M
;
_chemical_formula_sum "Si O2"
_cell_formula_units_Z 40
_cell_length_a 29.483825
_cell_length_b 14.455091
_cell_length_c 8.114232
_cell_angle_alpha 90.000000
_cell_angle_beta 147.120724
_cell_angle_gamma 90.000000
_cell_volume 1877.364044
_symmetry_space_group_name_H-M "C 2/M"
_symmetry_group_IT_number 12
_symmetry_cell_setting 'monoclinic'
loop_
_space_group_symop_operation_xyz
x,y,z
-x,y,-z
-x,-y,-z
x,-y,z
1/2+x,1/2+y,z
1/2-x,1/2+y,-z
1/2-x,1/2-y,-z
1/2+x,1/2-y,z
loop_
_atom_site_type_symbol
_atom_site_label
_atom_site_fract_x
_atom_site_fract_y
_atom_site_fract_z
Si Si1 0.567461 0.500000 0.351524
Si Si2 0.971964 0.500000 0.727781
Si Si3 0.249943 0.500000 0.132967
Si Si4 0.658983 0.163355 0.695230
Si Si5 0.088531 0.164270 0.680869
Si Si6 0.244722 0.670880 0.621816
Si Si7 0.153935 0.500000 0.174358
O O1 0.655371 0.500000 0.524803
O O2 0.568787 0.587610 0.480614
O O3 0.500000 0.500000 0.000000
O O4 0.917033 0.591373 0.542541
O O5 0.054370 0.500000 0.870297
O O6 0.000000 0.500000 0.000000
O O7 0.187061 0.500000 0.091465
O O8 0.232313 0.594219 0.979650
O O9 0.628575 0.245029 0.718852
O O10 0.691656 0.201486 0.620694
O O11 0.000000 0.183299 0.500000
O O12 0.162858 0.137961 0.036643
O O13 0.250000 0.750000 0.500000
O O14 0.191492 0.587749 0.382813
#
# Coordination Sequence:
#
# PCOD9221843 Si02
#       7
#     4   4   4   8   8   8   4
#     4  12  29  50  75 102 146 208 251 295 357 429
#     4  11  23  44  73 109 138 177 231 305 375 428
#     4  11  25  47  78 103 146 188 239 308 368 441
#     4  11  25  48  74 103 146 186 232 308 380 424
#     4  12  29  48  73 105 150 189 248 304 356 436
#     4  12  26  45  75 108 144 192 241 297 372 441
#     4  12  26  44  74 107 143 180 247 300 359 440
#
# _framework density 21.306470000000001
#
# number of rings (size 3 to 8) (size 9 to 14) (size 15 to 20)
#    0.000    0.400    4.000    3.300   11.200    1.600 
#    0.000    0.000    0.000    0.000    0.000    0.000 
#    0.000    0.000    0.000    0.000    0.000    0.000 
#
# Total GULP energy -111846.164305 kJ/mol
# GULP energy per Si atom -5592.308215 kJ/mol
# Density = 2.125798 g / cm^3
# Si number density = 21.306470 Si / 1000 Ang^3
#
#
#
# Elastic Constant Matrix: (Units=GPa)
#
#
# Indices 1 2 3 4 5 6 
#
# 1 150.5076 32.2319 49.2098 0.0000 26.0850 0.0000
# 2 32.2319 119.4133 52.1381 0.0000 4.9030 0.0000
# 3 49.2098 52.1381 164.0026 0.0000 11.9337 0.0000
# 4 0.0000 0.0000 0.0000 -491.0413 0.0000 -330.4238
# 5 26.0850 4.9030 11.9337 0.0000 39.2959 0.0000
# 6 0.0000 0.0000 0.0000 -330.4238 0.0000 -162.3907
#
#
#
# Elastic Compliance Matrix: (Units=1/GPa)
#
#
# Indices 1 2 3 4 5 6 
#
# 1 0.008327 -0.001291 -0.001736 0.000000 -0.004839 0.000000
# 2 -0.001291 0.009927 -0.002803 0.000000 0.000469 0.000000
# 3 -0.001736 -0.002803 0.007567 0.000000 -0.000796 0.000000
# 4 0.000000 0.000000 0.000000 0.005516 0.000000 -0.011224
# 5 -0.004839 0.000469 -0.000796 0.000000 0.028843 0.000000
# 6 0.000000 0.000000 0.000000 -0.011224 0.000000 0.016680
#
#
# Mechanical properties :
#
#
# Convention : Reuss Voigt Hill
#
# Bulk Modulus (GPa) = 70.61135 77.89814 74.25474
# Shear Modulus (GPa) = 53.62453 -102.80432 -24.58990
#
# Velocity S-wave (km/s) = 5.02223 -6.95378 -3.40090
# Velocity P-wave (km/s) = 8.17577 5.27572 4.41644
#
# Compressibility (1/GPa) = 0.01416203
#
# Stress axis : x y z
#
# Youngs Moduli (GPa) = 120.09195 100.73341 132.14725
#
# Poissons Ratio (x) = 0.13004 0.22941
# Poissons Ratio (y) = 0.15503 0.37038
# Poissons Ratio (z) = 0.20848 0.28233
#
# Static dielectric constant tensor:
#      x y z
#    x 1.773610 0.000000 -0.021920 
#    y 0.000000 1.795800 0.000000 
#    z -0.021920 0.000000 1.687010 
# 
# From -- ./inp_files/111888.got.cif
#   From: 2010.05.17/outbox.cif.g08.bks.cpg/sg12_56_cif.got.tgz:111888.got - 2010.06.03 13:09:07.
