data_PCOD9221531
_publ_section_title
;
Structure prediction by ZEFSAII (Michael W. Deem and Ramdas Pophale) SiO2 
 PCOD9221531
Probable space group: C 2/M
;
_chemical_formula_sum "Si O2"
_cell_formula_units_Z 34
_cell_length_a 20.526076
_cell_length_b 13.586972
_cell_length_c 7.669585
_cell_angle_alpha 90.000000
_cell_angle_beta 47.692660
_cell_angle_gamma 90.000000
_cell_volume 1581.848939
_symmetry_space_group_name_H-M "C 2/M"
_symmetry_group_IT_number 12
_symmetry_cell_setting 'monoclinic'
loop_
_space_group_symop_operation_xyz
x,y,z
-x,y,-z
-x,-y,-z
x,-y,z
1/2+x,1/2+y,z
1/2-x,1/2+y,-z
1/2-x,1/2-y,-z
1/2+x,1/2-y,z
loop_
_atom_site_type_symbol
_atom_site_label
_atom_site_fract_x
_atom_site_fract_y
_atom_site_fract_z
Si Si1 0.322911 0.786828 0.120944
Si Si2 0.894489 0.500000 0.895563
Si Si3 0.401897 0.000000 0.464099
Si Si4 0.975230 0.839304 0.733569
Si Si5 0.500000 0.500000 0.000000
Si Si6 0.138585 0.715364 0.546767
O O1 0.219299 0.766485 0.302086
O O2 0.352224 0.761518 0.265871
O O3 0.347173 0.899767 0.039363
O O4 0.380066 0.712638 0.901866
O O5 0.898668 0.500000 0.678815
O O6 0.995759 0.500000 0.777741
O O7 0.355789 0.901643 0.481974
O O8 0.000000 0.881581 0.500000
O O9 0.045686 0.752195 0.642745
O O10 0.984676 0.914867 0.875124
#
# Coordination Sequence:
#
# PCOD9221531 Si02
#       6
#     8   4   4   8   2   8
#     4  11  24  44  71 103 142 184 233 290 353 420
#     4  11  23  40  69 104 136 180 237 285 344 419
#     4  11  23  40  69 104 136 180 237 285 344 419
#     4  12  25  46  74 101 137 186 237 293 350 417
#     4  12  26  48  68  96 144 190 234 284 356 432
#     4  11  24  44  71 103 142 184 233 290 353 420
#
# _framework density 21.493834
#
# number of rings (size 3 to 8) (size 9 to 14) (size 15 to 20)
#    0.000    0.706    4.706    2.471    0.000    6.588 
#    0.000    0.000    0.000    0.000    0.000    0.000 
#    0.000    0.000    0.000    0.000    0.000    0.000 
#
# Total GULP energy -94864.400431 kJ/mol
# GULP energy per Si atom -5580.258849 kJ/mol
# Density = 2.144491 g / cm^3
# Si number density = 21.493834 Si / 1000 Ang^3
#
#
#
# Elastic Constant Matrix: (Units=GPa)
#
#
# Indices 1 2 3 4 5 6 
#
# 1 44.6749 1.3921 13.2886 0.0000 22.1269 0.0000
# 2 1.3921 139.2598 62.5954 0.0000 2.9749 0.0000
# 3 13.2886 62.5954 98.3293 0.0000 2.3472 0.0000
# 4 0.0000 0.0000 0.0000 43.3229 0.0000 12.1061
# 5 22.1269 2.9749 2.3472 0.0000 36.2579 0.0000
# 6 0.0000 0.0000 0.0000 12.1061 0.0000 11.1810
#
#
#
# Elastic Compliance Matrix: (Units=1/GPa)
#
#
# Indices 1 2 3 4 5 6 
#
# 1 0.034362 0.002753 -0.005899 0.000000 -0.020814 0.000000
# 2 0.002753 0.010286 -0.006870 0.000000 -0.002079 0.000000
# 3 -0.005899 -0.006870 0.015265 0.000000 0.003176 0.000000
# 4 0.000000 0.000000 0.000000 0.033096 0.000000 -0.035835
# 5 -0.020814 -0.002079 0.003176 0.000000 0.040247 0.000000
# 6 0.000000 0.000000 0.000000 -0.035835 0.000000 0.128237
#
#
# Mechanical properties :
#
#
# Convention : Reuss Voigt Hill
#
# Bulk Modulus (GPa) = 25.07598 48.53512 36.80555
# Shear Modulus (GPa) = 16.95955 31.81822 24.38889
#
# Velocity S-wave (km/s) = 2.81204 3.85170 3.37217
# Velocity P-wave (km/s) = 4.71543 6.51235 5.68533
#
# Compressibility (1/GPa) = 0.03987880
#
# Stress axis : x y z
#
# Youngs Moduli (GPa) = 29.10224 97.22155 65.50991
#
# Poissons Ratio (x) = -0.26763 0.38646
# Poissons Ratio (y) = -0.08011 0.45007
# Poissons Ratio (z) = 0.17168 0.66793
#
# Static dielectric constant tensor:
#      x y z
#    x 1.753560 0.000000 0.029480 
#    y 0.000000 1.711590 0.000000 
#    z 0.029480 0.000000 1.797710 
# 
# From -- ./inp_files/95566.got.cif
#   From: 2010.05.17/outbox.cif.g08.bks.cpg/sg12_48_cif.got.tgz:95566.got - 2010.06.03 13:09:07.
