data_PCOD9221595
_publ_section_title
;
Structure prediction by ZEFSAII (Michael W. Deem and Ramdas Pophale) SiO2 
 PCOD9221595
Probable space group: C 2/M
;
_chemical_formula_sum "Si O2"
_cell_formula_units_Z 56
_cell_length_a 20.313443
_cell_length_b 8.683719
_cell_length_c 18.978112
_cell_angle_alpha 90.000000
_cell_angle_beta 120.172366
_cell_angle_gamma 90.000000
_cell_volume 2894.116439
_symmetry_space_group_name_H-M "C 2/M"
_symmetry_group_IT_number 12
_symmetry_cell_setting 'monoclinic'
loop_
_space_group_symop_operation_xyz
x,y,z
-x,y,-z
-x,-y,-z
x,-y,z
1/2+x,1/2+y,z
1/2-x,1/2+y,-z
1/2-x,1/2-y,-z
1/2+x,1/2-y,z
loop_
_atom_site_type_symbol
_atom_site_label
_atom_site_fract_x
_atom_site_fract_y
_atom_site_fract_z
Si Si1 0.021613 0.817498 0.430650
Si Si2 0.104906 0.317816 0.739497
Si Si3 0.187120 0.683509 0.020324
Si Si4 0.443658 0.681936 0.139617
Si Si5 0.222225 0.816458 0.193059
Si Si6 0.888727 0.316092 0.749334
Si Si7 0.832870 0.315310 0.561512
O O1 0.961959 0.730557 0.348731
O O2 0.000000 0.791853 0.500000
O O3 0.105070 0.755567 0.457631
O O4 0.017782 0.000000 0.413935
O O5 0.100067 0.500000 0.752997
O O6 0.094533 0.225658 0.806274
O O7 0.187518 0.286492 0.750933
O O8 0.104971 0.730916 0.945713
O O9 0.305184 0.000000 0.972598
O O10 0.250000 0.750000 0.000000
O O11 0.199500 0.755507 0.103747
O O12 0.439418 0.500000 0.125542
O O13 0.530748 0.736511 0.191191
O O14 0.172971 0.735381 0.226504
O O15 0.210122 0.000000 0.189887
O O16 0.899274 0.500000 0.757088
O O17 0.859729 0.274719 0.655352
O O18 0.832475 0.500000 0.555492
O O19 0.750000 0.250000 0.500000
#
# Coordination Sequence:
#
# PCOD9221595 Si02
#       7
#     8   8   8   8   8   8   8
#     4  11  25  43  66  98 133 169 217 269 322 384
#     4  11  23  41  66  96 131 171 217 267 322 384
#     4  12  24  41  66  97 133 171 216 269 325 384
#     4  12  24  41  69  97 129 173 218 266 323 387
#     4  11  25  43  66  98 133 171 219 270 323 387
#     4  11  25  45  67  95 132 173 218 268 325 389
#     4  11  25  44  68  95 131 172 216 266 325 388
#
# _framework density 19.349601
#
# number of rings (size 3 to 8) (size 9 to 14) (size 15 to 20)
#    0.000    0.714    2.857    4.714    2.000    5.143 
#    0.000    2.857    0.000    0.000    0.000    0.000 
#    0.000    0.000    0.000    0.000    0.000    0.000 
#
# Total GULP energy -156734.663432 kJ/mol
# GULP energy per Si atom -5597.666551 kJ/mol
# Density = 1.930556 g / cm^3
# Si number density = 19.349601 Si / 1000 Ang^3
#
#
#
# Elastic Constant Matrix: (Units=GPa)
#
#
# Indices 1 2 3 4 5 6 
#
# 1 125.5539 22.2222 36.1644 0.0000 1.3935 0.0000
# 2 22.2222 41.5686 7.8147 0.0000 -2.3582 0.0000
# 3 36.1644 7.8147 54.6992 0.0000 12.8335 0.0000
# 4 0.0000 0.0000 0.0000 33.5457 0.0000 2.0858
# 5 1.3935 -2.3582 12.8335 0.0000 38.8724 0.0000
# 6 0.0000 0.0000 0.0000 2.0858 0.0000 37.2921
#
#
#
# Elastic Compliance Matrix: (Units=1/GPa)
#
#
# Indices 1 2 3 4 5 6 
#
# 1 0.010678 -0.004336 -0.006817 0.000000 0.001605 0.000000
# 2 -0.004336 0.026784 -0.001493 0.000000 0.002273 0.000000
# 3 -0.006817 -0.001493 0.024894 0.000000 -0.008065 0.000000
# 4 0.000000 0.000000 0.000000 0.029914 0.000000 -0.001673
# 5 0.001605 0.002273 -0.008065 0.000000 0.028468 0.000000
# 6 0.000000 0.000000 0.000000 -0.001673 0.000000 0.026909
#
#
# Mechanical properties :
#
#
# Convention : Reuss Voigt Hill
#
# Bulk Modulus (GPa) = 26.97992 39.35824 33.16908
# Shear Modulus (GPa) = 26.98419 32.31672 29.65046
#
# Velocity S-wave (km/s) = 3.73843 4.09118 3.91878
# Velocity P-wave (km/s) = 5.71036 6.53466 6.13636
#
# Compressibility (1/GPa) = 0.03706460
#
# Stress axis : x y z
#
# Youngs Moduli (GPa) = 93.65279 37.33549 40.17003
#
# Poissons Ratio (x) = 0.16187 0.27382
# Poissons Ratio (y) = 0.40605 0.05999
# Poissons Ratio (z) = 0.63840 0.05576
#
# Static dielectric constant tensor:
#      x y z
#    x 1.658040 0.000000 0.009860 
#    y 0.000000 1.652580 0.000000 
#    z 0.009860 0.000000 1.649860 
# 
# From -- ./inp_files/275657.got.cif
#   From: 2010.05.17/outbox.cif.g08.bks.cpg/sg12_138_cif.got.tgz:275657.got - 2010.06.03 13:09:07.
