data_PCOD9221908
_publ_section_title
;
Structure prediction by ZEFSAII (Michael W. Deem and Ramdas Pophale) SiO2 
 PCOD9221908
Probable space group: C 2/M
;
_chemical_formula_sum "Si O2"
_cell_formula_units_Z 48
_cell_length_a 10.333523
_cell_length_b 16.711013
_cell_length_c 11.748765
_cell_angle_alpha 90.000000
_cell_angle_beta 104.724531
_cell_angle_gamma 90.000000
_cell_volume 1962.191050
_symmetry_space_group_name_H-M "C 2/M"
_symmetry_group_IT_number 12
_symmetry_cell_setting 'monoclinic'
loop_
_space_group_symop_operation_xyz
x,y,z
-x,y,-z
-x,-y,-z
x,-y,z
1/2+x,1/2+y,z
1/2-x,1/2+y,-z
1/2-x,1/2-y,-z
1/2+x,1/2-y,z
loop_
_atom_site_type_symbol
_atom_site_label
_atom_site_fract_x
_atom_site_fract_y
_atom_site_fract_z
Si Si1 0.447331 0.912859 0.646592
Si Si2 0.195633 0.822503 0.579722
Si Si3 0.632378 0.090214 0.105161
Si Si4 0.805091 0.756123 0.185478
Si Si5 0.742875 0.910090 0.774980
Si Si6 0.969226 0.844016 0.676614
O O1 0.336265 0.856081 0.571695
O O2 0.416218 0.910460 0.774633
O O3 0.604789 0.900781 0.673401
O O4 0.415224 0.000000 0.594322
O O5 0.222452 0.757137 0.683407
O O6 0.110310 0.807878 0.448376
O O7 0.100842 0.879812 0.639809
O O8 0.725977 0.168762 0.115930
O O9 0.689664 0.000000 0.095957
O O10 0.500000 0.098918 0.000000
O O11 0.764308 0.666674 0.142356
O O12 0.962710 0.778844 0.223117
O O13 0.873698 0.900992 0.726058
O O14 0.738570 0.000000 0.823816
#
# Coordination Sequence:
#
# PCOD9221908 Si02
#       6
#     8   8   8   8   8   8
#     4   9  19  36  56  83 122 158 194 247 297 349
#     4   8  18  36  59  84 114 161 211 250 290 345
#     4   9  18  36  66  96 115 145 199 250 295 361
#     4   9  20  37  62  84 120 158 199 245 304 348
#     4  11  24  38  58  87 126 165 202 245 300 355
#     4   9  20  37  58  86 115 163 205 251 293 349
#
# _framework density 24.46245
#
# number of rings (size 3 to 8) (size 9 to 14) (size 15 to 20)
#    1.000    1.833    0.000    0.000    4.667    3.333 
#    3.000    4.167    0.000    0.500    0.000    0.000 
#    0.000    0.000    0.000    0.000    0.000    0.000 
#
# Total GULP energy -133703.598391 kJ/mol
# GULP energy per Si atom -5570.983266 kJ/mol
# Density = 2.440677 g / cm^3
# Si number density = 24.462450 Si / 1000 Ang^3
#
#
#
# Elastic Constant Matrix: (Units=GPa)
#
#
# Indices 1 2 3 4 5 6 
#
# 1 101.6408 56.5533 19.0148 0.0000 0.2511 0.0000
# 2 56.5533 202.7232 32.6879 0.0000 26.3880 0.0000
# 3 19.0148 32.6879 89.7090 0.0000 6.6580 0.0000
# 4 0.0000 0.0000 0.0000 -0.1474 0.0000 5.9932
# 5 0.2511 26.3880 6.6580 0.0000 27.8096 0.0000
# 6 0.0000 0.0000 0.0000 5.9932 0.0000 25.8261
#
#
#
# Elastic Compliance Matrix: (Units=1/GPa)
#
#
# Indices 1 2 3 4 5 6 
#
# 1 0.012128 -0.003617 -0.001526 0.000000 0.003688 0.000000
# 2 -0.003617 0.006968 -0.001307 0.000000 -0.006267 0.000000
# 3 -0.001526 -0.001307 0.012068 0.000000 -0.001635 0.000000
# 4 0.000000 0.000000 0.000000 -0.650125 0.000000 0.150867
# 5 0.003688 -0.006267 -0.001635 0.000000 0.042263 0.000000
# 6 0.000000 0.000000 0.000000 0.150867 0.000000 0.003710
#
#
# Mechanical properties :
#
#
# Convention : Reuss Voigt Hill
#
# Bulk Modulus (GPa) = 54.75618 67.84276 61.29947
# Shear Modulus (GPa) = -9.02531 29.75213 10.36341
#
# Velocity S-wave (km/s) = -1.92288 3.49124 2.06050
# Velocity P-wave (km/s) = 4.18359 6.63667 5.54742
#
# Compressibility (1/GPa) = 0.01826278
#
# Stress axis : x y z
#
# Youngs Moduli (GPa) = 82.45640 143.50456 82.86115
#
# Poissons Ratio (x) = 0.51908 0.12647
# Poissons Ratio (y) = 0.29826 0.10833
# Poissons Ratio (z) = 0.12585 0.18761
#
# Static dielectric constant tensor:
#      x y z
#    x 2.026620 0.000000 0.005550 
#    y 0.000000 2.040990 0.000000 
#    z 0.005550 0.000000 1.948750 
# 
# From -- ./inp_files/205718.got.cif
#   From: 2010.05.17/outbox.cif.g08.bks.cpg/sg12_103_cif.got.tgz:205718.got - 2010.06.03 13:09:07.
