data_PCOD9221182
_publ_section_title
;
Structure prediction by ZEFSAII (Michael W. Deem and Ramdas Pophale) SiO2 
 PCOD9221182
Probable space group: C 2/M
;
_chemical_formula_sum "Si O2"
_cell_formula_units_Z 42
_cell_length_a 16.974423
_cell_length_b 10.740951
_cell_length_c 9.090713
_cell_angle_alpha 90.000000
_cell_angle_beta 86.431095
_cell_angle_gamma 90.000000
_cell_volume 1654.217610
_symmetry_space_group_name_H-M "C 2/M"
_symmetry_group_IT_number 12
_symmetry_cell_setting 'monoclinic'
loop_
_space_group_symop_operation_xyz
x,y,z
-x,y,-z
-x,-y,-z
x,-y,z
1/2+x,1/2+y,z
1/2-x,1/2+y,-z
1/2-x,1/2-y,-z
1/2+x,1/2-y,z
loop_
_atom_site_type_symbol
_atom_site_label
_atom_site_fract_x
_atom_site_fract_y
_atom_site_fract_z
Si Si1 0.000000 0.500000 0.000000
Si Si2 0.538485 0.762091 0.199537
Si Si3 0.012890 0.000000 0.176332
Si Si4 0.862740 0.645255 0.548673
Si Si5 0.681840 0.686076 0.657658
Si Si6 0.593735 0.500000 0.455289
Si Si7 0.183177 0.855513 0.993963
O O1 0.989804 0.387337 0.875818
O O2 0.483618 0.639516 0.219434
O O3 0.571374 0.793353 0.356346
O O4 0.608721 0.702917 0.088970
O O5 0.090192 0.000000 0.279089
O O6 0.000000 0.000000 0.000000
O O7 0.873609 0.500000 0.562822
O O8 0.776299 0.679665 0.624195
O O9 0.854231 0.679735 0.377414
O O10 0.640841 0.610406 0.529543
O O11 0.669770 0.638835 0.821547
O O12 0.500000 0.500000 0.500000
O O13 0.202571 0.000000 0.034788
O O14 0.250000 0.750000 0.000000
#
# Coordination Sequence:
#
# PCOD9221182 Si02
#       7
#     2   8   4   8   8   4   8
#     4  12  28  44  70  96 138 192 238 280 350 410
#     4  12  25  44  71 101 139 186 237 291 349 419
#     4  12  26  46  68 102 132 183 246 290 342 434
#     4  11  22  43  72  97 137 181 232 292 346 417
#     4  11  24  43  67 100 136 180 226 285 351 418
#     4  12  26  41  69  95 133 179 226 281 353 414
#     4  12  26  43  71 109 146 181 229 297 361 418
#
# _framework density 25.389648999999999
#
# number of rings (size 3 to 8) (size 9 to 14) (size 15 to 20)
#    0.000    0.381    8.571    0.000    4.000    0.762 
#    0.000    0.000    0.000    1.714    0.000    0.000 
#    0.000    0.000    0.000    0.000    0.000    0.000 
#
# Total GULP energy -116948.296967 kJ/mol
# GULP energy per Si atom -5568.966522 kJ/mol
# Density = 2.533186 g / cm^3
# Si number density = 25.389649 Si / 1000 Ang^3
#
#
#
# Elastic Constant Matrix: (Units=GPa)
#
#
# Indices 1 2 3 4 5 6 
#
# 1 83.8865 38.6124 21.2833 0.0000 11.6040 0.0000
# 2 38.6124 237.2028 62.1933 0.0000 23.1653 0.0000
# 3 21.2833 62.1933 134.9528 0.0000 22.1485 0.0000
# 4 0.0000 0.0000 0.0000 61.1127 0.0000 20.0717
# 5 11.6040 23.1653 22.1485 0.0000 46.5112 0.0000
# 6 0.0000 0.0000 0.0000 20.0717 0.0000 21.3587
#
#
#
# Elastic Compliance Matrix: (Units=1/GPa)
#
#
# Indices 1 2 3 4 5 6 
#
# 1 0.013227 -0.001703 -0.000975 0.000000 -0.001987 0.000000
# 2 -0.001703 0.005106 -0.001884 0.000000 -0.001221 0.000000
# 3 -0.000975 -0.001884 0.008937 0.000000 -0.003074 0.000000
# 4 0.000000 0.000000 0.000000 0.023668 0.000000 -0.022242
# 5 -0.001987 -0.001221 -0.003074 0.000000 0.024068 0.000000
# 6 0.000000 0.000000 0.000000 -0.022242 0.000000 0.067721
#
#
# Mechanical properties :
#
#
# Convention : Reuss Voigt Hill
#
# Bulk Modulus (GPa) = 55.11135 77.80224 66.45680
# Shear Modulus (GPa) = 31.66531 48.06006 39.86269
#
# Velocity S-wave (km/s) = 3.53537 4.35547 3.96667
# Velocity P-wave (km/s) = 6.19826 7.48353 6.87102
#
# Compressibility (1/GPa) = 0.01814508
#
# Stress axis : x y z
#
# Youngs Moduli (GPa) = 75.60174 195.83351 111.89958
#
# Poissons Ratio (x) = 0.33360 0.10908
# Poissons Ratio (y) = 0.12879 0.21085
# Poissons Ratio (z) = 0.07370 0.36900
#
# Static dielectric constant tensor:
#      x y z
#    x 2.198270 0.000000 -0.107450 
#    y 0.000000 2.280350 0.000000 
#    z -0.107450 0.000000 2.009110 
# 
# From -- ./inp_files/84280.got.cif
#   From: 2010.05.17/outbox.cif.g08.bks.cpg/sg12_43_cif.got.tgz:84280.got - 2010.06.03 13:09:07.
