data_PCOD9221372
_publ_section_title
;
Structure prediction by ZEFSAII (Michael W. Deem and Ramdas Pophale) SiO2 
 PCOD9221372
Probable space group: C 2/M
;
_chemical_formula_sum "Si O2"
_cell_formula_units_Z 40
_cell_length_a 9.575986
_cell_length_b 18.217895
_cell_length_c 10.568084
_cell_angle_alpha 90.000000
_cell_angle_beta 105.366095
_cell_angle_gamma 90.000000
_cell_volume 1777.741754
_symmetry_space_group_name_H-M "C 2/M"
_symmetry_group_IT_number 12
_symmetry_cell_setting 'monoclinic'
loop_
_space_group_symop_operation_xyz
x,y,z
-x,y,-z
-x,-y,-z
x,-y,z
1/2+x,1/2+y,z
1/2-x,1/2+y,-z
1/2-x,1/2-y,-z
1/2+x,1/2-y,z
loop_
_atom_site_type_symbol
_atom_site_label
_atom_site_fract_x
_atom_site_fract_y
_atom_site_fract_z
Si Si1 0.805447 0.588765 0.556439
Si Si2 0.371346 0.587187 0.259273
Si Si3 0.394686 0.350479 0.853253
Si Si4 0.841044 0.299356 0.919536
Si Si5 0.617591 0.088119 0.706267
O O1 0.808257 0.500000 0.546720
O O2 0.665233 0.607203 0.604445
O O3 0.828229 0.615004 0.419309
O O4 0.949467 0.609514 0.671160
O O5 0.348727 0.500000 0.238829
O O6 0.527535 0.607809 0.242812
O O7 0.259402 0.635692 0.151703
O O8 0.377718 0.263994 0.825259
O O9 0.233957 0.382241 0.832748
O O10 0.500000 0.360021 0.000000
O O11 0.750000 0.250000 0.000000
O O12 0.000000 0.324986 0.000000
O O13 0.622634 0.000000 0.711772
#
# Coordination Sequence:
#
# PCOD9221372 Si02
#       5
#     8   8   8   8   8
#     4   8  18  36  59  89 122 162 209 259 311 357
#     4  11  23  39  63  95 123 157 213 264 300 367
#     4  11  23  39  59  90 128 166 200 249 322 371
#     4  11  23  44  60  85 126 176 204 248 315 378
#     4   9  18  36  60  88 126 166 206 256 311 370
#
# _framework density 22.500457000000001
#
# number of rings (size 3 to 8) (size 9 to 14) (size 15 to 20)
#    0.000    2.000    4.000    1.800    2.800    2.800 
#    0.000    4.000    0.000    0.000    0.000    0.000 
#    0.000    0.000    0.000    0.000    0.000    0.000 
#
# Total GULP energy -111612.932077 kJ/mol
# GULP energy per Si atom -5580.646604 kJ/mol
# Density = 2.244925 g / cm^3
# Si number density = 22.500457 Si / 1000 Ang^3
#
#
#
# Elastic Constant Matrix: (Units=GPa)
#
#
# Indices 1 2 3 4 5 6 
#
# 1 100.9318 10.1938 30.8775 0.0000 3.3166 0.0000
# 2 10.1938 63.0222 15.1331 0.0000 -3.0383 0.0000
# 3 30.8775 15.1331 42.7799 0.0000 8.8531 0.0000
# 4 0.0000 0.0000 0.0000 -17.4321 0.0000 -27.9505
# 5 3.3166 -3.0383 8.8531 0.0000 49.1298 0.0000
# 6 0.0000 0.0000 0.0000 -27.9505 0.0000 1.3660
#
#
#
# Elastic Compliance Matrix: (Units=1/GPa)
#
#
# Indices 1 2 3 4 5 6 
#
# 1 0.012751 0.000253 -0.009472 0.000000 0.000862 0.000000
# 2 0.000253 0.017591 -0.006884 0.000000 0.002311 0.000000
# 3 -0.009472 -0.006884 0.033866 0.000000 -0.005889 0.000000
# 4 0.000000 0.000000 0.000000 -0.001697 0.000000 -0.034719
# 5 0.000862 0.002311 -0.005889 0.000000 0.021500 0.000000
# 6 0.000000 0.000000 0.000000 -0.034719 0.000000 0.021654
#
#
# Mechanical properties :
#
#
# Convention : Reuss Voigt Hill
#
# Bulk Modulus (GPa) = 31.24631 35.46029 33.35330
# Shear Modulus (GPa) = 33.66171 16.64804 25.15487
#
# Velocity S-wave (km/s) = 3.87207 2.72306 3.34724
# Velocity P-wave (km/s) = 5.82303 5.06762 5.45841
#
# Compressibility (1/GPa) = 0.03200378
#
# Stress axis : x y z
#
# Youngs Moduli (GPa) = 78.42291 56.84787 29.52848
#
# Poissons Ratio (x) = -0.01440 0.27968
# Poissons Ratio (y) = -0.01987 0.20327
# Poissons Ratio (z) = 0.74279 0.39133
#
# Static dielectric constant tensor:
#      x y z
#    x 1.879850 0.000000 -0.038460 
#    y 0.000000 1.787190 0.000000 
#    z -0.038460 0.000000 1.901370 
# 
# From -- ./inp_files/120409.got.cif
#   From: 2010.05.17/outbox.cif.g08.bks.cpg/sg12_61_cif.got.tgz:120409.got - 2010.06.03 13:09:07.
