data_PCOD9221164
_publ_section_title
;
Structure prediction by ZEFSAII (Michael W. Deem and Ramdas Pophale) SiO2 
 PCOD9221164
Probable space group: C 2/M
;
_chemical_formula_sum "Si O2"
_cell_formula_units_Z 64
_cell_length_a 14.887104
_cell_length_b 29.367547
_cell_length_c 8.159593
_cell_angle_alpha 90.000000
_cell_angle_beta 127.890878
_cell_angle_gamma 90.000000
_cell_volume 2815.292307
_symmetry_space_group_name_H-M "C 2/M"
_symmetry_group_IT_number 12
_symmetry_cell_setting 'monoclinic'
loop_
_space_group_symop_operation_xyz
x,y,z
-x,y,-z
-x,-y,-z
x,-y,z
1/2+x,1/2+y,z
1/2-x,1/2+y,-z
1/2-x,1/2-y,-z
1/2+x,1/2-y,z
loop_
_atom_site_type_symbol
_atom_site_label
_atom_site_fract_x
_atom_site_fract_y
_atom_site_fract_z
Si Si1 0.562874 0.814942 0.315684
Si Si2 0.191460 0.946396 0.502407
Si Si3 0.552549 0.635435 0.235786
Si Si4 0.142730 0.448438 0.808179
Si Si5 0.616292 0.280283 0.528557
Si Si6 0.823917 0.318791 0.911489
Si Si7 0.089010 0.413941 0.393955
Si Si8 0.838793 0.902944 0.190453
O O1 0.611990 0.768175 0.436411
O O2 0.611934 0.823219 0.189591
O O3 0.600605 0.860660 0.450027
O O4 0.425447 0.810414 0.153066
O O5 0.324726 0.932746 0.644245
O O6 0.144098 0.933030 0.628183
O O7 0.132424 0.909425 0.315816
O O8 0.175504 0.000000 0.449347
O O9 0.615645 0.677744 0.396501
O O10 0.449558 0.619685 0.238096
O O11 0.500000 0.647853 0.000000
O O12 0.128080 0.500000 0.842471
O O13 0.118140 0.442134 0.589062
O O14 0.044025 0.420822 0.792012
O O15 0.270075 0.433141 0.985064
O O16 0.500000 0.285610 0.500000
O O17 0.725994 0.281710 0.768990
O O18 0.749145 0.362845 0.865111
#
# Coordination Sequence:
#
# PCOD9221164 Si02
#       8
#     8   8   8   8   8   8   8   8
#     4  11  25  42  72 105 139 187 235 284 355 419
#     4  12  25  44  73 103 136 184 239 291 352 420
#     4  12  27  47  71 100 139 184 233 293 356 418
#     4  11  24  40  64  99 143 186 230 289 354 418
#     4  12  25  47  73 103 144 186 238 292 349 416
#     4  11  23  46  68 102 141 182 224 295 343 417
#     4  11  22  43  65 100 143 180 229 289 351 413
#     4  12  23  45  69  97 140 181 232 289 352 418
#
# _framework density 22.732984999999999
#
# number of rings (size 3 to 8) (size 9 to 14) (size 15 to 20)
#    0.000    0.500    5.000    3.375    3.500    2.750 
#    2.250    1.250    0.000    0.000    0.000    0.000 
#    0.000    0.000    0.000    0.000    0.000    0.000 
#
# Total GULP energy -178948.923037 kJ/mol
# GULP energy per Si atom -5592.153845 kJ/mol
# Density = 2.268124 g / cm^3
# Si number density = 22.732985 Si / 1000 Ang^3
#
#
#
# Elastic Constant Matrix: (Units=GPa)
#
#
# Indices 1 2 3 4 5 6 
#
# 1 87.2785 13.0394 -1.8303 0.0000 12.9113 0.0000
# 2 13.0394 157.2368 16.2414 0.0000 11.0713 0.0000
# 3 -1.8303 16.2414 49.2829 0.0000 11.4643 0.0000
# 4 0.0000 0.0000 0.0000 5.9264 0.0000 24.4614
# 5 12.9113 11.0713 11.4643 0.0000 31.5827 0.0000
# 6 0.0000 0.0000 0.0000 24.4614 0.0000 -0.7882
#
#
#
# Elastic Compliance Matrix: (Units=1/GPa)
#
#
# Indices 1 2 3 4 5 6 
#
# 1 0.012445 -0.000853 0.002028 0.000000 -0.005525 0.000000
# 2 -0.000853 0.006723 -0.001944 0.000000 -0.001302 0.000000
# 3 0.002028 -0.001944 0.022982 0.000000 -0.008490 0.000000
# 4 0.000000 0.000000 0.000000 0.001307 0.000000 0.040564
# 5 -0.005525 -0.001302 -0.008490 0.000000 0.037460 0.000000
# 6 0.000000 0.000000 0.000000 0.040564 0.000000 -0.009828
#
#
# Mechanical properties :
#
#
# Convention : Reuss Voigt Hill
#
# Bulk Modulus (GPa) = 24.62263 38.74436 31.68349
# Shear Modulus (GPa) = 58.02900 25.10071 41.56486
#
# Velocity S-wave (km/s) = 5.05784 3.32649 4.28061
# Velocity P-wave (km/s) = 6.70550 5.64218 6.19669
#
# Compressibility (1/GPa) = 0.04061304
#
# Stress axis : x y z
#
# Youngs Moduli (GPa) = 80.35484 148.74153 43.51224
#
# Poissons Ratio (x) = 0.12680 -0.08826
# Poissons Ratio (y) = 0.06850 0.08460
# Poissons Ratio (z) = -0.16299 0.28920
#
# Static dielectric constant tensor:
#      x y z
#    x 1.865610 0.000000 0.016670 
#    y 0.000000 1.822760 0.000000 
#    z 0.016670 0.000000 1.871960 
# 
# From -- ./inp_files/68642.got.cif
#   From: 2010.05.17/outbox.cif.g08.bks.cpg/sg12_35_cif.got.tgz:68642.got - 2010.06.03 13:09:07.
