data_PCOD9221213
_publ_section_title
;
Structure prediction by ZEFSAII (Michael W. Deem and Ramdas Pophale) SiO2 
 PCOD9221213
Probable space group: C 2/M
;
_chemical_formula_sum "Si O2"
_cell_formula_units_Z 34
_cell_length_a 12.688641
_cell_length_b 14.780810
_cell_length_c 21.624067
_cell_angle_alpha 90.000000
_cell_angle_beta 158.871305
_cell_angle_gamma 90.000000
_cell_volume 1461.883043
_symmetry_space_group_name_H-M "C 2/M"
_symmetry_group_IT_number 12
_symmetry_cell_setting 'monoclinic'
loop_
_space_group_symop_operation_xyz
x,y,z
-x,y,-z
-x,-y,-z
x,-y,z
1/2+x,1/2+y,z
1/2-x,1/2+y,-z
1/2-x,1/2-y,-z
1/2+x,1/2-y,z
loop_
_atom_site_type_symbol
_atom_site_label
_atom_site_fract_x
_atom_site_fract_y
_atom_site_fract_z
Si Si1 0.644130 0.158230 0.487638
Si Si2 0.198772 0.221150 0.872026
Si Si3 0.000000 0.500000 0.500000
Si Si4 0.821444 0.397125 0.055065
Si Si5 0.539959 0.652077 0.595182
O O1 0.519291 0.077707 0.457480
O O2 0.420560 0.241901 0.365720
O O3 0.925000 0.199878 0.678016
O O4 0.764914 0.126835 0.487277
O O5 0.200453 0.322300 0.902236
O O6 0.500000 0.208108 0.000000
O O7 0.179177 0.148617 0.916990
O O8 0.720584 0.500000 0.012449
O O9 0.166593 0.399623 0.227990
O O10 0.500000 0.642709 0.500000
#
# Coordination Sequence:
#
# PCOD9221213 Si02
#       5
#     8   8   2   8   8
#     4  11  24  42  69 103 133 184 228 284 342 401
#     4  11  23  45  69  96 139 178 223 282 339 404
#     4  12  24  44  68 104 132 168 240 286 332 402
#     4  11  25  42  68 101 133 178 225 283 338 404
#     4  11  22  45  67  95 141 180 226 275 345 406
#
# _framework density 23.257674999999999
#
# number of rings (size 3 to 8) (size 9 to 14) (size 15 to 20)
#    0.000    0.941    5.882    0.000    3.294    1.412 
#    0.000    0.000    0.000    0.000    0.000    0.000 
#    0.000    0.000    0.000    0.000    0.000    0.000 
#
# Total GULP energy -94840.863990 kJ/mol
# GULP energy per Si atom -5578.874352 kJ/mol
# Density = 2.320474 g / cm^3
# Si number density = 23.257675 Si / 1000 Ang^3
#
#
#
# Elastic Constant Matrix: (Units=GPa)
#
#
# Indices 1 2 3 4 5 6 
#
# 1 125.8924 34.0600 11.6980 0.0063 -14.7039 -0.0043
# 2 34.0600 158.6499 9.8301 0.0108 -2.2854 0.0105
# 3 11.6980 9.8301 66.2555 0.0247 -6.4749 0.0165
# 4 0.0063 0.0108 0.0247 4.7017 0.0011 -1.7117
# 5 -14.7039 -2.2854 -6.4749 0.0011 33.8053 -0.0034
# 6 -0.0043 0.0105 0.0165 -1.7117 -0.0034 45.0509
#
#
#
# Elastic Compliance Matrix: (Units=1/GPa)
#
#
# Indices 1 2 3 4 5 6 
#
# 1 0.008940 -0.001808 -0.000960 -0.000003 0.003582 0.000002
# 2 -0.001808 0.006730 -0.000725 -0.000010 -0.000470 -0.000002
# 3 -0.000960 -0.000725 0.015617 -0.000083 0.002525 -0.000009
# 4 -0.000003 -0.000010 -0.000083 0.215674 -0.000024 0.008194
# 5 0.003582 -0.000470 0.002525 -0.000024 0.031591 0.000001
# 6 0.000002 -0.000002 -0.000009 0.008194 0.000001 0.022508
#
#
# Mechanical properties :
#
#
# Convention : Reuss Voigt Hill
#
# Bulk Modulus (GPa) = 41.15277 51.33043 46.24160
# Shear Modulus (GPa) = 15.81543 36.39223 26.10383
#
# Velocity S-wave (km/s) = 2.61053 3.95997 3.35382
# Velocity P-wave (km/s) = 5.17872 6.55948 5.90956
#
# Compressibility (1/GPa) = 0.02429970
#
# Stress axis : x y z
#
# Youngs Moduli (GPa) = 111.85509 148.59843 64.03301
#
# Poissons Ratio (x) = 0.26870 0.06148
# Poissons Ratio (y) = 0.20226 0.04643
# Poissons Ratio (z) = 0.10739 0.10776
#
# Static dielectric constant tensor:
#      x y z
#    x 1.881090 0.000000 0.005030 
#    y 0.000000 1.835980 -0.000010 
#    z 0.005030 -0.000010 1.912200 
# 
# From -- ./inp_files/129439.got.cif
#   From: 2010.05.17/outbox.cif.g08.bks.cpg/sg12_65_cif.got.tgz:129439.got - 2010.06.03 13:09:07.
