data_PCOD9221115
_publ_section_title
;
Structure prediction by ZEFSAII (Michael W. Deem and Ramdas Pophale) SiO2 
 PCOD9221115
Probable space group: C 2/M
;
_chemical_formula_sum "Si O2"
_cell_formula_units_Z 40
_cell_length_a 11.609240
_cell_length_b 10.176148
_cell_length_c 15.168290
_cell_angle_alpha 90.000000
_cell_angle_beta 62.058605
_cell_angle_gamma 90.000000
_cell_volume 1583.050095
_symmetry_space_group_name_H-M "C 2/M"
_symmetry_group_IT_number 12
_symmetry_cell_setting 'monoclinic'
loop_
_space_group_symop_operation_xyz
x,y,z
-x,y,-z
-x,-y,-z
x,-y,z
1/2+x,1/2+y,z
1/2-x,1/2+y,-z
1/2-x,1/2-y,-z
1/2+x,1/2-y,z
loop_
_atom_site_type_symbol
_atom_site_label
_atom_site_fract_x
_atom_site_fract_y
_atom_site_fract_z
Si Si1 0.777596 0.644159 0.358826
Si Si2 0.284736 0.000000 0.088386
Si Si3 0.881179 0.000000 0.172536
Si Si4 0.363741 0.000000 0.867123
Si Si5 0.426033 0.784828 0.148859
Si Si6 0.025228 0.000000 0.296169
Si Si7 0.447623 0.748708 0.435087
O O1 0.763405 0.500000 0.327561
O O2 0.809006 0.731165 0.263394
O O3 0.666743 0.675088 0.469192
O O4 0.903153 0.656424 0.375418
O O5 0.366525 0.126958 0.092375
O O6 0.148124 0.000000 0.187586
O O7 0.276330 0.000000 0.986898
O O8 0.952822 0.865401 0.116824
O O9 0.901362 0.000000 0.273123
O O10 0.735258 0.000000 0.180572
O O11 0.459126 0.128087 0.846852
O O12 0.020734 0.870492 0.359381
O O13 0.500000 0.826894 0.500000
#
# Coordination Sequence:
#
# PCOD9221115 Si02
#       7
#     8   4   4   4   8   4   8
#     4  11  22  42  66 101 140 187 238 292 366 432
#     4  11  26  50  83 104 145 198 247 315 383 443
#     4  12  29  47  78 112 153 197 249 310 373 457
#     4  11  28  54  75 114 150 191 254 313 379 448
#     4  11  24  50  77 110 155 194 245 313 375 443
#     4  12  24  47  70 105 142 197 248 297 380 443
#     4  11  24  40  66 101 140 183 245 298 352 439
#
# _framework density 25.267679999999999
#
# number of rings (size 3 to 8) (size 9 to 14) (size 15 to 20)
#    0.000    0.800    5.000    2.700    2.800    3.200 
#    3.600    0.000    0.000    0.000    0.000    0.000 
#    0.000    0.000    0.000    0.000    0.000    0.000 
#
# Total GULP energy -111655.961970 kJ/mol
# GULP energy per Si atom -5582.798099 kJ/mol
# Density = 2.521017 g / cm^3
# Si number density = 25.267680 Si / 1000 Ang^3
#
#
#
# Elastic Constant Matrix: (Units=GPa)
#
#
# Indices 1 2 3 4 5 6 
#
# 1 111.0097 29.4177 30.8646 0.0000 16.1016 0.0000
# 2 29.4177 158.7161 10.9752 0.0000 -6.7222 0.0000
# 3 30.8646 10.9752 158.1954 0.0000 -9.2231 0.0000
# 4 0.0000 0.0000 0.0000 10.3233 0.0000 2.3158
# 5 16.1016 -6.7222 -9.2231 0.0000 50.5224 0.0000
# 6 0.0000 0.0000 0.0000 2.3158 0.0000 20.1292
#
#
#
# Elastic Compliance Matrix: (Units=1/GPa)
#
#
# Indices 1 2 3 4 5 6 
#
# 1 0.010746 -0.002013 -0.002196 0.000000 -0.004093 0.000000
# 2 -0.002013 0.006738 0.000015 0.000000 0.001541 0.000000
# 3 -0.002196 0.000015 0.006863 0.000000 0.001955 0.000000
# 4 0.000000 0.000000 0.000000 0.099434 0.000000 -0.011440
# 5 -0.004093 0.001541 0.001955 0.000000 0.021660 0.000000
# 6 0.000000 0.000000 0.000000 -0.011440 0.000000 0.050995
#
#
# Mechanical properties :
#
#
# Convention : Reuss Voigt Hill
#
# Bulk Modulus (GPa) = 62.66018 63.38177 63.02098
# Shear Modulus (GPa) = 23.79339 39.97256 31.88298
#
# Velocity S-wave (km/s) = 3.07197 3.98171 3.55605
# Velocity P-wave (km/s) = 6.11842 6.80274 6.46963
#
# Compressibility (1/GPa) = 0.01595910
#
# Stress axis : x y z
#
# Youngs Moduli (GPa) = 93.05848 148.41352 145.71824
#
# Poissons Ratio (x) = 0.29880 0.31993
# Poissons Ratio (y) = 0.18735 -0.00221
# Poissons Ratio (z) = 0.20431 -0.00225
#
# Static dielectric constant tensor:
#      x y z
#    x 2.345500 0.000000 -0.110310 
#    y 0.000000 1.958100 0.000000 
#    z -0.110310 0.000000 1.932730 
# 
# From -- ./inp_files/203324.got.cif
#   From: 2010.05.17/outbox.cif.g08.bks.cpg/sg12_102_cif.got.tgz:203324.got - 2010.06.03 13:09:07.
