data_PCOD9221968
_publ_section_title
;
Structure prediction by ZEFSAII (Michael W. Deem and Ramdas Pophale) SiO2 
 PCOD9221968
Probable space group: C 2/M
;
_chemical_formula_sum "Si O2"
_cell_formula_units_Z 56
_cell_length_a 14.915604
_cell_length_b 9.098550
_cell_length_c 23.764068
_cell_angle_alpha 90.000000
_cell_angle_beta 61.865994
_cell_angle_gamma 90.000000
_cell_volume 2843.983918
_symmetry_space_group_name_H-M "C 2/M"
_symmetry_group_IT_number 12
_symmetry_cell_setting 'monoclinic'
loop_
_space_group_symop_operation_xyz
x,y,z
-x,y,-z
-x,-y,-z
x,-y,z
1/2+x,1/2+y,z
1/2-x,1/2+y,-z
1/2-x,1/2-y,-z
1/2+x,1/2-y,z
loop_
_atom_site_type_symbol
_atom_site_label
_atom_site_fract_x
_atom_site_fract_y
_atom_site_fract_z
Si Si1 0.217087 0.664666 0.064846
Si Si2 0.173623 0.675796 0.804135
Si Si3 0.571327 0.667606 0.930084
Si Si4 0.229095 0.824687 0.337964
Si Si5 0.625458 0.822151 0.201405
Si Si6 0.296937 0.674794 0.431450
Si Si7 0.975560 0.825360 0.671077
O O1 0.188136 0.500000 0.056467
O O2 0.318330 0.658727 0.073302
O O3 0.131711 0.721565 0.133705
O O4 0.250000 0.750000 0.000000
O O5 0.174734 0.500000 0.810066
O O6 0.084911 0.743739 0.868546
O O7 0.184772 0.709324 0.734700
O O8 0.276474 0.745625 0.799305
O O9 0.536487 0.500000 0.928799
O O10 0.500000 0.732643 0.000000
O O11 0.246636 0.737589 0.389671
O O12 0.119975 0.791296 0.341374
O O13 0.232123 0.000000 0.347646
O O14 0.536011 0.764791 0.267586
O O15 0.632423 0.000000 0.201393
O O16 0.283094 0.500000 0.438635
O O17 0.250000 0.750000 0.500000
O O18 0.417534 0.704917 0.390058
O O19 0.969465 0.000000 0.685676
#
# Coordination Sequence:
#
# PCOD9221968 Si02
#       7
#     8   8   8   8   8   8   8
#     4   9  18  31  47  70 100 136 174 219 273 325
#     4   9  17  31  53  78 105 141 182 226 277 333
#     4   9  18  33  50  70 101 138 181 230 278 325
#     4   9  19  38  61  84 114 150 189 233 283 337
#     4   9  17  31  53  78 104 138 182 229 276 326
#     4  11  24  41  61  88 121 153 189 233 283 340
#     4   9  20  39  61  85 114 151 191 230 281 340
#
# _framework density 19.690688000000002
#
# number of rings (size 3 to 8) (size 9 to 14) (size 15 to 20)
#    0.000    2.714    0.000    3.000    0.000    7.714 
#    2.571    2.857    0.000    0.000    0.000    0.000 
#    0.000    0.000    0.000    0.000    0.000    0.000 
#
# Total GULP energy -156087.763475 kJ/mol
# GULP energy per Si atom -5574.562981 kJ/mol
# Density = 1.964587 g / cm^3
# Si number density = 19.690688 Si / 1000 Ang^3
#
#
#
# Elastic Constant Matrix: (Units=GPa)
#
#
# Indices 1 2 3 4 5 6 
#
# 1 65.2658 29.7830 57.2796 0.0000 2.8878 0.0000
# 2 29.7830 66.4616 100.7231 0.0000 8.2334 0.0000
# 3 57.2796 100.7231 241.2182 0.0000 8.1562 0.0000
# 4 0.0000 0.0000 0.0000 42.6090 0.0000 1.7871
# 5 2.8878 8.2334 8.1562 0.0000 25.6476 0.0000
# 6 0.0000 0.0000 0.0000 1.7871 0.0000 18.2807
#
#
#
# Elastic Compliance Matrix: (Units=1/GPa)
#
#
# Indices 1 2 3 4 5 6 
#
# 1 0.019899 -0.004816 -0.002720 0.000000 0.000171 0.000000
# 2 -0.004816 0.043746 -0.016848 0.000000 -0.008143 0.000000
# 3 -0.002720 -0.016848 0.011760 0.000000 0.001975 0.000000
# 4 0.000000 0.000000 0.000000 0.023566 0.000000 -0.002304
# 5 0.000171 -0.008143 0.001975 0.000000 0.040957 0.000000
# 6 0.000000 0.000000 0.000000 -0.002304 0.000000 0.054928
#
#
# Mechanical properties :
#
#
# Convention : Reuss Voigt Hill
#
# Bulk Modulus (GPa) = 37.54147 83.16853 60.35500
# Shear Modulus (GPa) = 19.80180 29.65146 24.72663
#
# Velocity S-wave (km/s) = 3.17463 3.88475 3.54750
# Velocity P-wave (km/s) = 5.70479 7.90259 6.89187
#
# Compressibility (1/GPa) = 0.02663721
#
# Stress axis : x y z
#
# Youngs Moduli (GPa) = 50.25271 22.85923 85.03718
#
# Poissons Ratio (x) = 0.11010 0.23129
# Poissons Ratio (y) = 0.24204 1.43267
# Poissons Ratio (z) = 0.13668 0.38512
#
# Static dielectric constant tensor:
#      x y z
#    x 1.734150 0.000000 -0.038730 
#    y 0.000000 1.675290 0.000000 
#    z -0.038730 0.000000 1.724630 
# 
# From -- ./inp_files/338465.got.cif
#   From: 2010.05.17/outbox.cif.g08.bks.cpg/sg12_170_cif.got.tgz:338465.got - 2010.06.03 13:09:07.
