data_PCOD9221986
_publ_section_title
;
Structure prediction by ZEFSAII (Michael W. Deem and Ramdas Pophale) SiO2 
 PCOD9221986
Probable space group: C 2/M
;
_chemical_formula_sum "Si O2"
_cell_formula_units_Z 28
_cell_length_a 9.561740
_cell_length_b 32.302425
_cell_length_c 5.099722
_cell_angle_alpha 90.000000
_cell_angle_beta 119.022133
_cell_angle_gamma 90.000000
_cell_volume 1377.351486
_symmetry_space_group_name_H-M "C 2/M"
_symmetry_group_IT_number 12
_symmetry_cell_setting 'monoclinic'
loop_
_space_group_symop_operation_xyz
x,y,z
-x,y,-z
-x,-y,-z
x,-y,z
1/2+x,1/2+y,z
1/2-x,1/2+y,-z
1/2-x,1/2-y,-z
1/2+x,1/2-y,z
loop_
_atom_site_type_symbol
_atom_site_label
_atom_site_fract_x
_atom_site_fract_y
_atom_site_fract_z
Si Si1 0.311039 0.725223 0.302011
Si Si2 0.115542 0.000000 0.349884
Si Si3 0.313664 0.081143 0.379776
Si Si4 0.189147 0.871599 0.746747
O O1 0.500000 0.726042 0.500000
O O2 0.250000 0.750000 0.500000
O O3 0.272102 0.677130 0.208790
O O4 0.250000 0.750000 0.000000
O O5 0.224314 0.959554 0.408027
O O6 0.000000 0.000000 0.500000
O O7 0.000000 0.000000 0.000000
O O8 0.500000 0.072435 0.500000
O O9 0.293620 0.112526 0.600268
O O10 0.232138 0.102020 0.047232
O O11 0.000000 0.876810 0.500000
#
# Coordination Sequence:
#
# PCOD9221986 Si02
#       4
#     8   4   8   8
#     4  11  24  41  64  93 128 168 214 264 316 377
#     4  12  25  44  69  94 127 172 211 254 317 388
#     4  12  25  42  66  98 129 162 211 269 316 368
#     4  11  24  43  65  92 128 172 214 256 316 387
#
# _framework density 20.328869999999998
#
# number of rings (size 3 to 8) (size 9 to 14) (size 15 to 20)
#    0.000    0.571    0.000    9.000    0.000   11.429 
#    0.000    4.286    0.000    0.000    0.000    0.000 
#    0.000    0.000    0.000    0.000    0.000    0.000 
#
# Total GULP energy -78233.548902 kJ/mol
# GULP energy per Si atom -5588.110636 kJ/mol
# Density = 2.028260 g / cm^3
# Si number density = 20.328870 Si / 1000 Ang^3
#
#
#
# Elastic Constant Matrix: (Units=GPa)
#
#
# Indices 1 2 3 4 5 6 
#
# 1 164.5019 94.2782 62.7210 0.0000 -18.1705 0.0000
# 2 94.2782 185.0084 92.4402 0.0000 2.0514 0.0000
# 3 62.7210 92.4402 147.2305 0.0000 -31.5505 0.0000
# 4 0.0000 0.0000 0.0000 36.0855 0.0000 -4.6815
# 5 -18.1705 2.0514 -31.5505 0.0000 41.4632 0.0000
# 6 0.0000 0.0000 0.0000 -4.6815 0.0000 31.2928
#
#
#
# Elastic Compliance Matrix: (Units=1/GPa)
#
#
# Indices 1 2 3 4 5 6 
#
# 1 0.009298 -0.004754 -0.000063 0.000000 0.004262 0.000000
# 2 -0.004754 0.011265 -0.006707 0.000000 -0.007744 0.000000
# 3 -0.000063 -0.006707 0.013257 0.000000 0.010392 0.000000
# 4 0.000000 0.000000 0.000000 0.028260 0.000000 0.004228
# 5 0.004262 -0.007744 0.010392 0.000000 0.034276 0.000000
# 6 0.000000 0.000000 0.000000 0.004228 0.000000 0.032589
#
#
# Mechanical properties :
#
#
# Convention : Reuss Voigt Hill
#
# Bulk Modulus (GPa) = 92.83337 110.62440 101.72889
# Shear Modulus (GPa) = 32.13692 38.25507 35.19600
#
# Velocity S-wave (km/s) = 3.98031 4.34269 4.16544
# Velocity P-wave (km/s) = 8.17855 8.92641 8.56065
#
# Compressibility (1/GPa) = 0.01077199
#
# Stress axis : x y z
#
# Youngs Moduli (GPa) = 107.54498 88.77096 75.43318
#
# Poissons Ratio (x) = 0.42204 0.00474
# Poissons Ratio (y) = 0.51130 0.50593
# Poissons Ratio (z) = 0.00675 0.59539
#
# Static dielectric constant tensor:
#      x y z
#    x 1.688850 0.000000 0.018700 
#    y 0.000000 1.573420 0.000000 
#    z 0.018700 0.000000 1.691590 
# 
# From -- ./inp_files/3416.got.cif
#   From: 2010.05.17/outbox.cif.g08.bks.cpg/sg12_2_cif.got.tgz:3416.got - 2010.06.03 13:09:07.
