data_PCOD9221745
_publ_section_title
;
Structure prediction by ZEFSAII (Michael W. Deem and Ramdas Pophale) SiO2 
 PCOD9221745
Probable space group: C 2/M
;
_chemical_formula_sum "Si O2"
_cell_formula_units_Z 52
_cell_length_a 9.077991
_cell_length_b 18.872135
_cell_length_c 15.407510
_cell_angle_alpha 90.000000
_cell_angle_beta 97.791606
_cell_angle_gamma 90.000000
_cell_volume 2615.261292
_symmetry_space_group_name_H-M "C 2/M"
_symmetry_group_IT_number 12
_symmetry_cell_setting 'monoclinic'
loop_
_space_group_symop_operation_xyz
x,y,z
-x,y,-z
-x,-y,-z
x,-y,z
1/2+x,1/2+y,z
1/2-x,1/2+y,-z
1/2-x,1/2-y,-z
1/2+x,1/2-y,z
loop_
_atom_site_type_symbol
_atom_site_label
_atom_site_fract_x
_atom_site_fract_y
_atom_site_fract_z
Si Si1 0.045547 0.500000 0.200645
Si Si2 0.147981 0.420964 0.455656
Si Si3 0.197590 0.781362 0.256738
Si Si4 0.027219 0.652198 0.280485
Si Si5 0.342253 0.500000 0.139163
Si Si6 0.854274 0.188663 0.547605
Si Si7 0.710961 0.000000 0.940721
Si Si8 0.935197 0.119381 0.899819
O O1 0.223386 0.500000 0.205863
O O2 0.998312 0.573594 0.241296
O O3 0.956366 0.500000 0.103447
O O4 0.185851 0.500000 0.426088
O O5 0.276300 0.386605 0.523352
O O6 0.000000 0.426912 0.500000
O O7 0.102997 0.365685 0.378042
O O8 0.371736 0.804249 0.272155
O O9 0.133246 0.800983 0.347618
O O10 0.118622 0.821720 0.171215
O O11 0.150798 0.699271 0.241114
O O12 0.445102 0.569107 0.138806
O O13 0.245286 0.500000 0.044132
O O14 0.750000 0.250000 0.500000
O O15 0.000000 0.191843 0.500000
O O16 0.796598 0.931727 0.909902
O O17 0.000000 0.141884 0.000000
#
# Coordination Sequence:
#
# PCOD9221745 Si02
#       8
#     4   8   8   8   4   8   4   8
#     4  12  23  40  65 101 128 171 230 274 323 396
#     4  11  23  43  65  92 130 172 219 272 326 386
#     4  12  25  43  67  97 134 177 223 271 339 396
#     4  12  26  41  68  95 134 177 222 272 332 399
#     4   9  21  37  67  97 134 169 221 284 334 380
#     4  12  24  41  68  94 129 174 220 270 327 394
#     4   9  17  41  67  94 126 181 223 267 331 410
#     4   9  20  42  68  95 134 179 220 270 338 401
#
# _framework density 19.883289999999999
#
# number of rings (size 3 to 8) (size 9 to 14) (size 15 to 20)
#    0.000    1.077    5.385    2.538    2.154    0.308 
#    2.769    2.308    0.000    0.000    0.000    0.000 
#    0.000    0.000    0.000    0.000    0.000    0.000 
#
# Total GULP energy -145033.320242 kJ/mol
# GULP energy per Si atom -5578.204625 kJ/mol
# Density = 1.983803 g / cm^3
# Si number density = 19.883290 Si / 1000 Ang^3
#
#
#
# Elastic Constant Matrix: (Units=GPa)
#
#
# Indices 1 2 3 4 5 6 
#
# 1 97.4246 36.2258 4.5211 0.0000 -4.6962 0.0000
# 2 36.2258 125.3301 40.1325 0.0000 7.6170 0.0000
# 3 4.5211 40.1325 81.6073 0.0000 13.7707 0.0000
# 4 0.0000 0.0000 0.0000 -72.6870 0.0000 -83.9114
# 5 -4.6962 7.6170 13.7707 0.0000 28.2937 0.0000
# 6 0.0000 0.0000 0.0000 -83.9114 0.0000 -73.4655
#
#
#
# Elastic Compliance Matrix: (Units=1/GPa)
#
#
# Indices 1 2 3 4 5 6 
#
# 1 0.011770 -0.003811 0.000784 0.000000 0.002598 0.000000
# 2 -0.003811 0.010707 -0.004860 0.000000 -0.001149 0.000000
# 3 0.000784 -0.004860 0.015642 0.000000 -0.006175 0.000000
# 4 0.000000 0.000000 0.000000 0.043186 0.000000 -0.049327
# 5 0.002598 -0.001149 -0.006175 0.000000 0.039090 0.000000
# 6 0.000000 0.000000 0.000000 -0.049327 0.000000 0.042729
#
#
# Mechanical properties :
#
#
# Convention : Reuss Voigt Hill
#
# Bulk Modulus (GPa) = 44.75402 51.79120 48.27261
# Shear Modulus (GPa) = 26.83169 -8.67291 9.07939
#
# Velocity S-wave (km/s) = 3.67748 -2.09078 2.13922
# Velocity P-wave (km/s) = 6.37096 4.50285 5.51655
#
# Compressibility (1/GPa) = 0.02234436
#
# Stress axis : x y z
#
# Youngs Moduli (GPa) = 84.95992 93.40030 63.92850
#
# Poissons Ratio (x) = 0.35594 -0.05010
# Poissons Ratio (y) = 0.32378 0.31070
# Poissons Ratio (z) = -0.06658 0.45394
#
# Static dielectric constant tensor:
#      x y z
#    x 1.696460 0.000000 -0.011490 
#    y 0.000000 1.746380 0.000000 
#    z -0.011490 0.000000 1.715790 
# 
# From -- ./inp_files/256658.got.cif
#   From: 2010.05.17/outbox.cif.g08.bks.cpg/sg12_129_cif.got.tgz:256658.got - 2010.06.03 13:09:07.
