data_PCOD9221319
_publ_section_title
;
Structure prediction by ZEFSAII (Michael W. Deem and Ramdas Pophale) SiO2 
 PCOD9221319
Probable space group: C 2/M
;
_chemical_formula_sum "Si O2"
_cell_formula_units_Z 40
_cell_length_a 15.329042
_cell_length_b 8.081795
_cell_length_c 31.195847
_cell_angle_alpha 90.000000
_cell_angle_beta 30.180756
_cell_angle_gamma 90.000000
_cell_volume 1942.916387
_symmetry_space_group_name_H-M "C 2/M"
_symmetry_group_IT_number 12
_symmetry_cell_setting 'monoclinic'
loop_
_space_group_symop_operation_xyz
x,y,z
-x,y,-z
-x,-y,-z
x,-y,z
1/2+x,1/2+y,z
1/2-x,1/2+y,-z
1/2-x,1/2-y,-z
1/2+x,1/2-y,z
loop_
_atom_site_type_symbol
_atom_site_label
_atom_site_fract_x
_atom_site_fract_y
_atom_site_fract_z
Si Si1 0.205079 0.700090 0.724142
Si Si2 0.504853 0.203236 0.723937
Si Si3 0.423030 0.802756 0.402221
Si Si4 0.392244 0.815398 0.906849
Si Si5 0.179163 0.189052 0.908834
O O1 0.190365 0.500000 0.731232
O O2 0.130543 0.754116 0.709578
O O3 0.402240 0.746499 0.648355
O O4 0.076024 0.767155 0.816496
O O5 0.567195 0.259177 0.651056
O O6 0.308802 0.261273 0.818411
O O7 0.499224 0.000000 0.726967
O O8 0.250000 0.750000 0.500000
O O9 0.424618 0.000000 0.399624
O O10 0.296501 0.821491 0.901522
O O11 0.431548 0.000000 0.905495
O O12 0.250000 0.750000 0.000000
O O13 0.134542 0.000000 0.913694
O O14 0.000000 0.270808 0.000000
#
# Coordination Sequence:
#
# PCOD9221319 Si02
#       5
#     8   8   8   8   8
#     4   9  19  38  57  78 111 146 182 227 274 320
#     4   8  17  34  54  77 107 145 184 220 265 322
#     4  11  23  38  59  85 108 139 184 230 278 330
#     4   9  18  30  49  77 108 141 175 217 266 314
#     4   8  14  26  47  75 102 133 177 220 251 297
#
# _framework density 20.587607999999999
#
# number of rings (size 3 to 8) (size 9 to 14) (size 15 to 20)
#    0.000    3.000    0.000    3.000    2.800    1.600 
#    0.000    6.000    0.000    3.000    0.000    0.000 
#    0.000    0.000    0.000    0.000    0.000    0.000 
#
# Total GULP energy -111431.021514 kJ/mol
# GULP energy per Si atom -5571.551076 kJ/mol
# Density = 2.054075 g / cm^3
# Si number density = 20.587608 Si / 1000 Ang^3
#
#
#
# Elastic Constant Matrix: (Units=GPa)
#
#
# Indices 1 2 3 4 5 6 
#
# 1 87.5797 7.1937 92.3229 -0.0013 0.8683 -0.0017
# 2 7.1937 14.5779 18.2588 -0.0017 2.9133 -0.0043
# 3 92.3229 18.2588 248.5621 -0.0002 0.7095 -0.0018
# 4 -0.0013 -0.0017 -0.0002 23.0864 -0.0023 -4.1066
# 5 0.8683 2.9133 0.7095 -0.0023 39.5461 -0.0008
# 6 -0.0017 -0.0043 -0.0018 -4.1066 -0.0008 16.3697
#
#
#
# Elastic Compliance Matrix: (Units=1/GPa)
#
#
# Indices 1 2 3 4 5 6 
#
# 1 0.018773 -0.000530 -0.006933 0.000001 -0.000249 0.000001
# 2 -0.000530 0.076763 -0.005426 0.000009 -0.005546 0.000021
# 3 -0.006933 -0.005426 0.006996 -0.000001 0.000426 -0.000002
# 4 0.000001 0.000009 -0.000001 0.045339 0.000002 0.011374
# 5 -0.000249 -0.005546 0.000426 0.000002 0.025693 0.000000
# 6 0.000001 0.000021 -0.000002 0.011374 0.000000 0.063942
#
#
# Mechanical properties :
#
#
# Convention : Reuss Voigt Hill
#
# Bulk Modulus (GPa) = 13.02885 65.14115 39.08500
# Shear Modulus (GPa) = 17.30893 31.33008 24.31951
#
# Velocity S-wave (km/s) = 2.90271 3.90525 3.44069
# Velocity P-wave (km/s) = 4.19243 7.21417 5.90003
#
# Compressibility (1/GPa) = 0.07675274
#
# Stress axis : x y z
#
# Youngs Moduli (GPa) = 53.26871 13.02708 142.94621
#
# Poissons Ratio (x) = 0.00691 0.99105
# Poissons Ratio (y) = 0.02825 0.77563
# Poissons Ratio (z) = 0.36932 0.07069
#
# Static dielectric constant tensor:
#      x y z
#    x 1.727870 0.000000 0.006240 
#    y 0.000000 1.730080 0.000000 
#    z 0.006240 0.000000 1.799970 
# 
# From -- ./inp_files/211213.got.cif
#   From: 2010.05.17/outbox.cif.g08.bks.cpg/sg12_106_cif.got.tgz:211213.got - 2010.06.03 13:09:07.
