data_PCOD9221963
_publ_section_title
;
Structure prediction by ZEFSAII (Michael W. Deem and Ramdas Pophale) SiO2 
 PCOD9221963
Probable space group: C 2/M
;
_chemical_formula_sum "Si O2"
_cell_formula_units_Z 28
_cell_length_a 11.809521
_cell_length_b 20.858383
_cell_length_c 4.802458
_cell_angle_alpha 90.000000
_cell_angle_beta 70.833177
_cell_angle_gamma 90.000000
_cell_volume 1117.401113
_symmetry_space_group_name_H-M "C 2/M"
_symmetry_group_IT_number 12
_symmetry_cell_setting 'monoclinic'
loop_
_space_group_symop_operation_xyz
x,y,z
-x,y,-z
-x,-y,-z
x,-y,z
1/2+x,1/2+y,z
1/2-x,1/2+y,-z
1/2-x,1/2-y,-z
1/2+x,1/2-y,z
loop_
_atom_site_type_symbol
_atom_site_label
_atom_site_fract_x
_atom_site_fract_y
_atom_site_fract_z
Si Si1 0.241270 0.317606 0.352712
Si Si2 0.366085 0.000000 0.314903
Si Si3 0.806169 0.000000 0.038671
Si Si4 0.500000 0.112456 0.500000
Si Si5 0.624376 0.632302 0.256052
O O1 0.250000 0.250000 0.500000
O O2 0.282464 0.365654 0.565037
O O3 0.112878 0.341525 0.342089
O O4 0.332479 0.320444 0.021308
O O5 0.444748 0.937493 0.323079
O O6 0.314508 0.000000 0.048611
O O7 0.247596 0.000000 0.610082
O O8 0.877337 0.063253 0.891866
O O9 0.500000 0.649118 0.500000
#
# Coordination Sequence:
#
# PCOD9221963 Si02
#       5
#     8   4   4   4   8
#     4  12  28  49  74 107 149 202 258 308 371 450
#     4  11  24  40  75 112 153 184 250 317 382 450
#     4  12  21  47  70 116 148 191 245 310 383 454
#     4  11  24  48  76 110 148 197 250 320 380 441
#     4  12  26  49  73 110 151 200 248 306 378 454
#
# _framework density 25.058147000000002
#
# number of rings (size 3 to 8) (size 9 to 14) (size 15 to 20)
#    0.000    0.286    5.714    2.143    2.000    5.714 
#    5.143    4.286    0.000    0.000    0.000    0.000 
#    0.000    0.000    0.000    0.000    0.000    0.000 
#
# Total GULP energy -78443.512960 kJ/mol
# GULP energy per Si atom -5603.108069 kJ/mol
# Density = 2.500111 g / cm^3
# Si number density = 25.058147 Si / 1000 Ang^3
#
#
#
# Elastic Constant Matrix: (Units=GPa)
#
#
# Indices 1 2 3 4 5 6 
#
# 1 105.2395 50.9121 38.6362 0.0000 -22.2759 0.0000
# 2 50.9121 141.6521 64.2895 0.0000 -27.5755 0.0000
# 3 38.6362 64.2895 189.8923 0.0000 -41.8541 0.0000
# 4 0.0000 0.0000 0.0000 34.1451 0.0000 -8.4777
# 5 -22.2759 -27.5755 -41.8541 0.0000 46.4164 0.0000
# 6 0.0000 0.0000 0.0000 -8.4777 0.0000 11.6142
#
#
#
# Elastic Compliance Matrix: (Units=1/GPa)
#
#
# Indices 1 2 3 4 5 6 
#
# 1 0.012063 -0.003447 -0.000578 0.000000 0.003221 0.000000
# 2 -0.003447 0.009676 -0.002087 0.000000 0.002213 0.000000
# 3 -0.000578 -0.002087 0.007184 0.000000 0.004960 0.000000
# 4 0.000000 0.000000 0.000000 0.035769 0.000000 0.026110
# 5 0.003221 0.002213 0.004960 0.000000 0.028877 0.000000
# 6 0.000000 0.000000 0.000000 0.026110 0.000000 0.105160
#
#
# Mechanical properties :
#
#
# Convention : Reuss Voigt Hill
#
# Bulk Modulus (GPa) = 59.87802 82.71772 71.29787
# Shear Modulus (GPa) = 23.09265 37.29820 30.19542
#
# Velocity S-wave (km/s) = 3.03902 3.86225 3.47510
# Velocity P-wave (km/s) = 6.02177 7.27814 6.67956
#
# Compressibility (1/GPa) = 0.01670062
#
# Stress axis : x y z
#
# Youngs Moduli (GPa) = 82.89575 103.34585 139.20641
#
# Poissons Ratio (x) = 0.35619 0.08042
# Poissons Ratio (y) = 0.28571 0.29053
# Poissons Ratio (z) = 0.04789 0.21569
#
# Static dielectric constant tensor:
#      x y z
#    x 1.997710 0.000000 -0.019380 
#    y 0.000000 2.055370 0.000000 
#    z -0.019380 0.000000 1.928820 
# 
# From -- ./inp_files/5980.got.cif
#   From: 2010.05.17/outbox.cif.g08.bks.cpg/sg12_3_cif.got.tgz:5980.got - 2010.06.03 13:09:07.
