data_PCOD9221381
_publ_section_title
;
Structure prediction by ZEFSAII (Michael W. Deem and Ramdas Pophale) SiO2 
 PCOD9221381
Probable space group: C 2/M
;
_chemical_formula_sum "Si O2"
_cell_formula_units_Z 56
_cell_length_a 11.518832
_cell_length_b 17.181894
_cell_length_c 18.574097
_cell_angle_alpha 90.000000
_cell_angle_beta 123.623470
_cell_angle_gamma 90.000000
_cell_volume 3061.067297
_symmetry_space_group_name_H-M "C 2/M"
_symmetry_group_IT_number 12
_symmetry_cell_setting 'monoclinic'
loop_
_space_group_symop_operation_xyz
x,y,z
-x,y,-z
-x,-y,-z
x,-y,z
1/2+x,1/2+y,z
1/2-x,1/2+y,-z
1/2-x,1/2-y,-z
1/2+x,1/2-y,z
loop_
_atom_site_type_symbol
_atom_site_label
_atom_site_fract_x
_atom_site_fract_y
_atom_site_fract_z
Si Si1 0.392561 0.855602 0.175969
Si Si2 0.878209 0.588033 0.016391
Si Si3 0.625447 0.325823 0.864491
Si Si4 0.836934 0.405643 0.658554
Si Si5 0.614169 0.590713 0.474606
Si Si6 0.918683 0.091393 0.896758
Si Si7 0.883778 0.905914 0.291892
O O1 0.432730 0.899393 0.115627
O O2 0.381225 0.765091 0.153187
O O3 0.511609 0.871435 0.275255
O O4 0.242405 0.887406 0.148010
O O5 0.820545 0.500000 0.990797
O O6 0.757499 0.649239 0.958032
O O7 0.000000 0.596394 0.000000
O O8 0.490785 0.356571 0.860792
O O9 0.640387 0.369888 0.793849
O O10 0.845171 0.500000 0.658100
O O11 0.754621 0.377162 0.558905
O O12 0.738728 0.386584 0.693549
O O13 0.500000 0.591428 0.500000
O O14 0.642374 0.500000 0.468079
O O15 0.530357 0.622634 0.377411
O O16 0.933133 0.000000 0.883966
O O17 0.000000 0.104631 0.000000
O O18 0.888163 0.000000 0.288591
#
# Coordination Sequence:
#
# PCOD9221381 Si02
#       7
#     8   8   8   8   8   8   8
#     4  12  25  36  56  82 115 148 187 231 281 329
#     4  11  23  39  61  83 107 139 183 235 287 333
#     4  12  25  36  56  82 115 148 187 231 281 329
#     4   9  17  33  58  84 111 139 180 230 280 334
#     4   7  12  26  53  85 107 135 175 223 277 333
#     4  11  24  42  60  75 107 159 202 224 266 341
#     4   9  17  33  58  84 111 139 180 230 280 334
#
# _framework density 18.294273
#
# number of rings (size 3 to 8) (size 9 to 14) (size 15 to 20)
#    0.000    1.857    1.429    5.571    4.000    2.286 
#    0.000    0.714    0.000    0.857    0.000    4.000 
#    0.000    0.000    0.000    0.000    0.000    0.000 
#
# Total GULP energy -156270.767923 kJ/mol
# GULP energy per Si atom -5581.098854 kJ/mol
# Density = 1.825263 g / cm^3
# Si number density = 18.294273 Si / 1000 Ang^3
#
#
#
# Elastic Constant Matrix: (Units=GPa)
#
#
# Indices 1 2 3 4 5 6 
#
# 1 41.0312 8.2205 2.7617 0.0000 15.9979 0.0000
# 2 8.2205 42.0603 1.1696 0.0000 9.2160 0.0000
# 3 2.7617 1.1696 76.2661 0.0000 30.8085 0.0000
# 4 0.0000 0.0000 0.0000 68.8171 0.0000 16.1938
# 5 15.9979 9.2160 30.8085 0.0000 34.3474 0.0000
# 6 0.0000 0.0000 0.0000 16.1938 0.0000 20.5614
#
#
#
# Elastic Compliance Matrix: (Units=1/GPa)
#
#
# Indices 1 2 3 4 5 6 
#
# 1 0.032585 -0.001891 0.007488 0.000000 -0.021387 0.000000
# 2 -0.001891 0.026049 0.003351 0.000000 -0.009114 0.000000
# 3 0.007488 0.003351 0.022836 0.000000 -0.024870 0.000000
# 4 0.000000 0.000000 0.000000 0.017837 0.000000 -0.014048
# 5 -0.021387 -0.009114 -0.024870 0.000000 0.063829 0.000000
# 6 0.000000 0.000000 0.000000 -0.014048 0.000000 0.059699
#
#
# Mechanical properties :
#
#
# Convention : Reuss Voigt Hill
#
# Bulk Modulus (GPa) = 10.06372 20.40678 15.23525
# Shear Modulus (GPa) = 21.00315 34.55890 27.78103
#
# Velocity S-wave (km/s) = 3.39200 4.35104 3.90110
# Velocity P-wave (km/s) = 4.56660 6.03498 5.35140
#
# Compressibility (1/GPa) = 0.09936688
#
# Stress axis : x y z
#
# Youngs Moduli (GPa) = 30.68895 38.38947 43.79054
#
# Poissons Ratio (x) = 0.07258 -0.32792
# Poissons Ratio (y) = 0.05802 -0.14673
# Poissons Ratio (z) = -0.22981 -0.12864
#
# Static dielectric constant tensor:
#      x y z
#    x 1.612810 0.000000 0.022270 
#    y 0.000000 1.614380 0.000000 
#    z 0.022270 0.000000 1.647120 
# 
# From -- ./inp_files/264288.got.cif
#   From: 2010.05.17/outbox.cif.g08.bks.cpg/sg12_133_cif.got.tgz:264288.got - 2010.06.03 13:09:07.
