data_PCOD9221610
_publ_section_title
;
Structure prediction by ZEFSAII (Michael W. Deem and Ramdas Pophale) SiO2 
 PCOD9221610
Probable space group: C 2/M
;
_chemical_formula_sum "Si O2"
_cell_formula_units_Z 64
_cell_length_a 9.317799
_cell_length_b 24.271214
_cell_length_c 30.327595
_cell_angle_alpha 90.000000
_cell_angle_beta 151.903083
_cell_angle_gamma 90.000000
_cell_volume 3230.211082
_symmetry_space_group_name_H-M "C 2/M"
_symmetry_group_IT_number 12
_symmetry_cell_setting 'monoclinic'
loop_
_space_group_symop_operation_xyz
x,y,z
-x,y,-z
-x,-y,-z
x,-y,z
1/2+x,1/2+y,z
1/2-x,1/2+y,-z
1/2-x,1/2-y,-z
1/2+x,1/2-y,z
loop_
_atom_site_type_symbol
_atom_site_label
_atom_site_fract_x
_atom_site_fract_y
_atom_site_fract_z
Si Si1 0.750289 0.134096 0.968464
Si Si2 0.292446 0.934277 0.790418
Si Si3 0.763787 0.637242 0.324401
Si Si4 0.197638 0.211887 0.848934
Si Si5 0.303743 0.939003 0.611396
Si Si6 0.278347 0.120068 0.690325
Si Si7 0.695862 0.806296 0.510984
Si Si8 0.595617 0.676697 0.138484
O O1 0.576532 0.082871 0.898780
O O2 0.481893 0.176620 0.907795
O O3 0.000000 0.152522 0.000000
O O4 0.921781 0.131152 0.061816
O O5 0.320562 0.904522 0.750517
O O6 0.992116 0.906053 0.729549
O O7 0.268794 0.000000 0.779941
O O8 0.590182 0.690678 0.257855
O O9 0.965380 0.606747 0.342904
O O10 0.990065 0.654328 0.424697
O O11 0.300442 0.273662 0.865793
O O12 0.104581 0.199080 0.874537
O O13 0.223811 0.928032 0.640338
O O14 0.000000 0.934834 0.500000
O O15 0.434510 0.000000 0.640983
O O16 0.587992 0.150751 0.760884
O O17 0.999855 0.162537 0.609255
O O18 0.500000 0.791528 0.500000
O O19 0.750000 0.750000 0.500000
#
# Coordination Sequence:
#
# PCOD9221610 Si02
#       8
#     8   8   8   8   8   8   8   8
#     4  11  23  44  68  97 131 165 215 272 330 397
#     4  11  25  46  71  97 129 174 224 277 338 390
#     4  11  23  44  66  98 136 175 219 278 323 391
#     4  11  25  40  70  95 135 174 217 264 334 396
#     4  11  23  41  67  96 128 175 224 272 330 384
#     4  12  24  43  67  96 136 172 226 274 322 398
#     4  12  27  42  66  98 139 180 223 269 331 392
#     4  12  24  42  65  99 132 175 216 271 329 400
#
# _framework density 19.812946
#
# number of rings (size 3 to 8) (size 9 to 14) (size 15 to 20)
#    0.000    0.625    5.000    3.000    3.500    2.250 
#    0.000    0.625    0.000    1.500    0.000    0.000 
#    0.000    0.000    0.000    0.000    0.000    0.000 
#
# Total GULP energy -178695.621587 kJ/mol
# GULP energy per Si atom -5584.238175 kJ/mol
# Density = 1.976785 g / cm^3
# Si number density = 19.812946 Si / 1000 Ang^3
#
#
#
# Elastic Constant Matrix: (Units=GPa)
#
#
# Indices 1 2 3 4 5 6 
#
# 1 120.8284 45.7326 40.0963 -0.0057 -14.2284 0.0851
# 2 45.7326 94.8382 42.6313 -0.0021 1.3675 0.0307
# 3 40.0963 42.6313 108.0271 -0.0127 3.5833 0.0950
# 4 -0.0057 -0.0021 -0.0127 16.0506 -0.0047 -0.8104
# 5 -14.2284 1.3675 3.5833 -0.0047 20.3439 0.0603
# 6 0.0851 0.0307 0.0950 -0.8104 0.0603 61.5307
#
#
#
# Elastic Compliance Matrix: (Units=1/GPa)
#
#
# Indices 1 2 3 4 5 6 
#
# 1 0.012116 -0.004639 -0.002975 0.000003 0.009309 -0.000019
# 2 -0.004639 0.014595 -0.003920 -0.000003 -0.003535 0.000009
# 3 -0.002975 -0.003920 0.012039 0.000006 -0.003938 -0.000009
# 4 0.000003 -0.000003 0.000006 0.062344 0.000013 0.000821
# 5 0.009309 -0.003535 -0.003938 0.000013 0.056597 -0.000060
# 6 -0.000019 0.000009 -0.000009 0.000821 -0.000060 0.016263
#
#
# Mechanical properties :
#
#
# Convention : Reuss Voigt Hill
#
# Bulk Modulus (GPa) = 63.77539 64.51268 64.14404
# Shear Modulus (GPa) = 24.72198 32.60061 28.66129
#
# Velocity S-wave (km/s) = 3.53621 4.06078 3.80754
# Velocity P-wave (km/s) = 6.99512 7.39041 7.19548
#
# Compressibility (1/GPa) = 0.01568003
#
# Stress axis : x y z
#
# Youngs Moduli (GPa) = 82.53811 68.51815 83.06447
#
# Poissons Ratio (x) = 0.31788 0.24711
# Poissons Ratio (y) = 0.38292 0.32564
# Poissons Ratio (z) = 0.24554 0.26861
#
# Static dielectric constant tensor:
#      x y z
#    x 1.695740 0.000000 -0.030820 
#    y 0.000000 1.688740 -0.000020 
#    z -0.030820 -0.000020 1.733590 
# 
# From -- ./inp_files/373298.got.cif
#   From: 2010.05.17/outbox.cif.g08.bks.cpg/sg12_187_cif.got.tgz:373298.got - 2010.06.03 13:09:07.
