data_PCOD9221394
_publ_section_title
;
Structure prediction by ZEFSAII (Michael W. Deem and Ramdas Pophale) SiO2 
 PCOD9221394
Probable space group: C 2/M
;
_chemical_formula_sum "Si O2"
_cell_formula_units_Z 50
_cell_length_a 14.912191
_cell_length_b 15.085179
_cell_length_c 9.914285
_cell_angle_alpha 90.000000
_cell_angle_beta 98.999445
_cell_angle_gamma 90.000000
_cell_volume 2202.794168
_symmetry_space_group_name_H-M "C 2/M"
_symmetry_group_IT_number 12
_symmetry_cell_setting 'monoclinic'
loop_
_space_group_symop_operation_xyz
x,y,z
-x,y,-z
-x,-y,-z
x,-y,z
1/2+x,1/2+y,z
1/2-x,1/2+y,-z
1/2-x,1/2-y,-z
1/2+x,1/2-y,z
loop_
_atom_site_type_symbol
_atom_site_label
_atom_site_fract_x
_atom_site_fract_y
_atom_site_fract_z
Si Si1 0.645394 0.729542 0.950264
Si Si2 0.000000 0.000000 0.500000
Si Si3 0.559154 0.834682 0.395130
Si Si4 0.455087 0.650325 0.314538
Si Si5 0.878003 0.099413 0.813087
Si Si6 0.701333 0.896508 0.614418
Si Si7 0.563524 0.098562 0.838799
O O1 0.624959 0.684640 0.800327
O O2 0.590394 0.821240 0.940725
O O3 0.750000 0.750000 0.000000
O O4 0.614282 0.663761 0.059739
O O5 0.932954 0.919328 0.426462
O O6 0.500000 0.880786 0.500000
O O7 0.513039 0.738395 0.365870
O O8 0.658379 0.839599 0.482849
O O9 0.534570 0.884962 0.252526
O O10 0.527188 0.596143 0.241616
O O11 0.799935 0.130707 0.691625
O O12 0.851767 0.000000 0.850301
O O13 0.636433 0.892234 0.732002
O O14 0.704567 0.000000 0.573502
O O15 0.571602 0.000000 0.896043
#
# Coordination Sequence:
#
# PCOD9221394 Si02
#       7
#     8   2   8   8   8   8   8
#     4  11  23  39  62  91 125 163 219 260 313 386
#     4  12  24  44  62  92 130 168 224 252 326 392
#     4   9  17  32  56  85 116 156 210 253 311 370
#     4  11  24  40  63  89 127 171 207 267 317 377
#     4  11  23  39  61  94 130 167 210 258 316 379
#     4   9  17  31  55  87 119 155 203 254 307 368
#     4   9  17  33  56  85 116 157 204 261 309 369
#
# _framework density 22.698445
#
# number of rings (size 3 to 8) (size 9 to 14) (size 15 to 20)
#    0.000    1.920    3.200    0.960    1.120    3.200 
#    0.000    0.000    0.000    8.640    0.000    0.000 
#    0.000    0.000    0.000    0.000    0.000    0.000 
#
# Total GULP energy -139320.720417 kJ/mol
# GULP energy per Si atom -5572.828817 kJ/mol
# Density = 2.264678 g / cm^3
# Si number density = 22.698445 Si / 1000 Ang^3
#
#
#
# Elastic Constant Matrix: (Units=GPa)
#
#
# Indices 1 2 3 4 5 6 
#
# 1 44.4388 8.6665 32.6087 0.0000 22.3954 0.0000
# 2 8.6665 126.9595 66.4139 0.0000 33.4019 0.0000
# 3 32.6087 66.4139 108.2032 0.0000 46.9033 0.0000
# 4 0.0000 0.0000 0.0000 17.6133 0.0000 10.9539
# 5 22.3954 33.4019 46.9033 0.0000 41.0306 0.0000
# 6 0.0000 0.0000 0.0000 10.9539 0.0000 16.5938
#
#
#
# Elastic Compliance Matrix: (Units=1/GPa)
#
#
# Indices 1 2 3 4 5 6 
#
# 1 0.034162 0.005290 -0.007122 0.000000 -0.014812 0.000000
# 2 0.005290 0.012561 -0.007175 0.000000 -0.004911 0.000000
# 3 -0.007122 -0.007175 0.022945 0.000000 -0.016500 0.000000
# 4 0.000000 0.000000 0.000000 0.096317 0.000000 -0.063580
# 5 -0.014812 -0.004911 -0.016500 0.000000 0.055316 0.000000
# 6 0.000000 0.000000 0.000000 -0.063580 0.000000 0.102234
#
#
# Mechanical properties :
#
#
# Convention : Reuss Voigt Hill
#
# Bulk Modulus (GPa) = 19.35973 54.99775 37.17874
# Shear Modulus (GPa) = 13.93668 26.50837 20.22252
#
# Velocity S-wave (km/s) = 2.48058 3.42109 2.98807
# Velocity P-wave (km/s) = 4.09292 6.31565 5.32163
#
# Compressibility (1/GPa) = 0.05165361
#
# Stress axis : x y z
#
# Youngs Moduli (GPa) = 29.27269 79.61215 43.58286
#
# Poissons Ratio (x) = -0.42118 0.31039
# Poissons Ratio (y) = -0.15486 0.31273
# Poissons Ratio (z) = 0.20847 0.57125
#
# Static dielectric constant tensor:
#      x y z
#    x 1.897620 0.000000 -0.034620 
#    y 0.000000 1.864880 0.000000 
#    z -0.034620 0.000000 1.949260 
# 
# From -- ./inp_files/143819.got.cif
#   From: 2010.05.17/outbox.cif.g08.bks.cpg/sg12_72_cif.got.tgz:143819.got - 2010.06.03 13:09:07.
