data_PCOD9221397
_publ_section_title
;
Structure prediction by ZEFSAII (Michael W. Deem and Ramdas Pophale) SiO2 
 PCOD9221397
Probable space group: C 2/M
;
_chemical_formula_sum "Si O2"
_cell_formula_units_Z 48
_cell_length_a 25.472462
_cell_length_b 8.812511
_cell_length_c 12.519737
_cell_angle_alpha 90.000000
_cell_angle_beta 109.138137
_cell_angle_gamma 90.000000
_cell_volume 2655.057445
_symmetry_space_group_name_H-M "C 2/M"
_symmetry_group_IT_number 12
_symmetry_cell_setting 'monoclinic'
loop_
_space_group_symop_operation_xyz
x,y,z
-x,y,-z
-x,-y,-z
x,-y,z
1/2+x,1/2+y,z
1/2-x,1/2+y,-z
1/2-x,1/2-y,-z
1/2+x,1/2-y,z
loop_
_atom_site_type_symbol
_atom_site_label
_atom_site_fract_x
_atom_site_fract_y
_atom_site_fract_z
Si Si1 0.748908 0.818926 0.880346
Si Si2 0.125071 0.681174 0.717978
Si Si3 0.946113 0.319079 0.754329
Si Si4 0.940313 0.181354 0.514947
Si Si5 0.062597 0.181285 0.878746
Si Si6 0.361562 0.180825 0.883850
O O1 0.689339 0.786989 0.787508
O O2 0.800151 0.748657 0.850107
O O3 0.755578 0.000000 0.892414
O O4 0.750000 0.750000 0.000000
O O5 0.116305 0.500000 0.718724
O O6 0.105761 0.742769 0.590991
O O7 0.088024 0.762513 0.783426
O O8 0.953830 0.500000 0.750632
O O9 0.939817 0.247482 0.633413
O O10 0.893162 0.289826 0.794084
O O11 0.000735 0.247873 0.845096
O O12 0.000000 0.214081 0.500000
O O13 0.933426 0.000000 0.513176
O O14 0.061177 0.000000 0.880826
O O15 0.101826 0.245459 0.997693
O O16 0.359396 0.000000 0.900147
#
# Coordination Sequence:
#
# PCOD9221397 Si02
#       6
#     8   8   8   8   8   8
#     4  11  23  39  63  91 122 160 203 251 301 358
#     4  11  23  39  62  91 122 158 202 249 300 358
#     4  11  24  41  62  88 123 164 203 249 304 365
#     4  11  23  39  62  92 122 156 202 252 300 357
#     4  12  23  36  60  92 125 160 199 249 306 361
#     4  11  24  41  61  89 124 163 205 248 304 364
#
# _framework density 18.078704999999999
#
# number of rings (size 3 to 8) (size 9 to 14) (size 15 to 20)
#    0.000    0.833    3.333    4.500    0.000    7.333 
#    0.000    0.833    0.000    0.000    0.000    0.000 
#    0.000    0.000    0.000    0.000    0.000    0.000 
#
# Total GULP energy -134273.258840 kJ/mol
# GULP energy per Si atom -5594.719118 kJ/mol
# Density = 1.803756 g / cm^3
# Si number density = 18.078705 Si / 1000 Ang^3
#
#
#
# Elastic Constant Matrix: (Units=GPa)
#
#
# Indices 1 2 3 4 5 6 
#
# 1 123.7623 65.6078 22.1272 0.0000 7.7715 0.0000
# 2 65.6078 86.8442 32.9440 0.0000 8.0269 0.0000
# 3 22.1272 32.9440 64.1333 0.0000 11.5321 0.0000
# 4 0.0000 0.0000 0.0000 21.4334 0.0000 1.4761
# 5 7.7715 8.0269 11.5321 0.0000 27.7299 0.0000
# 6 0.0000 0.0000 0.0000 1.4761 0.0000 33.1692
#
#
#
# Elastic Compliance Matrix: (Units=1/GPa)
#
#
# Indices 1 2 3 4 5 6 
#
# 1 0.013538 -0.010467 0.000912 0.000000 -0.001143 0.000000
# 2 -0.010467 0.022431 -0.007858 0.000000 -0.000291 0.000000
# 3 0.000912 -0.007858 0.020483 0.000000 -0.006499 0.000000
# 4 0.000000 0.000000 0.000000 0.046800 0.000000 -0.002083
# 5 -0.001143 -0.000291 -0.006499 0.000000 0.039170 0.000000
# 6 0.000000 0.000000 0.000000 -0.002083 0.000000 0.030241
#
#
# Mechanical properties :
#
#
# Convention : Reuss Voigt Hill
#
# Bulk Modulus (GPa) = 46.24596 57.34421 51.79509
# Shear Modulus (GPa) = 23.28853 26.73722 25.01288
#
# Velocity S-wave (km/s) = 3.59301 3.84986 3.72365
# Velocity P-wave (km/s) = 6.54590 7.17983 6.87018
#
# Compressibility (1/GPa) = 0.02162351
#
# Stress axis : x y z
#
# Youngs Moduli (GPa) = 73.86779 44.58189 48.82028
#
# Poissons Ratio (x) = 0.46666 -0.04451
# Poissons Ratio (y) = 0.77321 0.38365
# Poissons Ratio (z) = -0.06735 0.35034
#
# Static dielectric constant tensor:
#      x y z
#    x 1.607520 0.000000 -0.000070 
#    y 0.000000 1.601830 0.000000 
#    z -0.000070 0.000000 1.588440 
# 
# From -- ./inp_files/172880.got.cif
#   From: 2010.05.17/outbox.cif.g08.bks.cpg/sg12_87_cif.got.tgz:172880.got - 2010.06.03 13:09:07.
