data_PCOD9221176
_publ_section_title
;
Structure prediction by ZEFSAII (Michael W. Deem and Ramdas Pophale) SiO2 
 PCOD9221176
Probable space group: C 2/M
;
_chemical_formula_sum "Si O2"
_cell_formula_units_Z 44
_cell_length_a 12.416237
_cell_length_b 20.968142
_cell_length_c 9.014481
_cell_angle_alpha 90.000000
_cell_angle_beta 64.833005
_cell_angle_gamma 90.000000
_cell_volume 2124.094732
_symmetry_space_group_name_H-M "C 2/M"
_symmetry_group_IT_number 12
_symmetry_cell_setting 'monoclinic'
loop_
_space_group_symop_operation_xyz
x,y,z
-x,y,-z
-x,-y,-z
x,-y,z
1/2+x,1/2+y,z
1/2-x,1/2+y,-z
1/2-x,1/2-y,-z
1/2+x,1/2-y,z
loop_
_atom_site_type_symbol
_atom_site_label
_atom_site_fract_x
_atom_site_fract_y
_atom_site_fract_z
Si Si1 0.052739 0.274439 0.740618
Si Si2 0.958973 0.870341 0.353330
Si Si3 0.747011 0.925139 0.315807
Si Si4 0.681408 0.803019 0.945216
Si Si5 0.324019 0.426622 0.937110
Si Si6 0.000000 0.639832 0.500000
O O1 0.026272 0.201708 0.714009
O O2 0.163499 0.279172 0.787534
O O3 0.058318 0.315335 0.589893
O O4 0.943961 0.304447 0.896746
O O5 0.823915 0.890767 0.397973
O O6 0.000000 0.874431 0.500000
O O7 0.045199 0.915023 0.204934
O O8 0.611749 0.901152 0.378012
O O9 0.745598 0.000000 0.348342
O O10 0.813476 0.914739 0.119561
O O11 0.743184 0.871656 0.911655
O O12 0.750000 0.750000 0.000000
O O13 0.287298 0.500000 0.931362
#
# Coordination Sequence:
#
# PCOD9221176 Si02
#       6
#     8   8   8   8   8   4
#     4  11  25  40  69 102 135 176 231 284 342 410
#     4  12  26  43  69 105 137 175 228 293 349 403
#     4  11  26  46  69  96 136 185 229 275 342 420
#     4  11  22  43  70 101 135 182 230 283 345 408
#     4  11  24  45  70 100 136 181 227 279 348 415
#     4  12  25  46  68 100 137 180 226 284 342 404
#
# _framework density 20.714707000000001
#
# number of rings (size 3 to 8) (size 9 to 14) (size 15 to 20)
#    0.000    0.727    4.545    2.455    5.091    3.636 
#    0.000    2.727    0.000    0.000    0.000    0.000 
#    0.000    0.000    0.000    0.000    0.000    0.000 
#
# Total GULP energy -122979.189509 kJ/mol
# GULP energy per Si atom -5589.963160 kJ/mol
# Density = 2.066756 g / cm^3
# Si number density = 20.714707 Si / 1000 Ang^3
#
#
#
# Elastic Constant Matrix: (Units=GPa)
#
#
# Indices 1 2 3 4 5 6 
#
# 1 114.7826 46.7045 44.1436 0.0000 23.4258 0.0000
# 2 46.7045 100.1947 36.3971 0.0000 8.6278 0.0000
# 3 44.1436 36.3971 78.6632 0.0000 23.1405 0.0000
# 4 0.0000 0.0000 0.0000 13.7434 0.0000 -0.1592
# 5 23.4258 8.6278 23.1405 0.0000 34.7016 0.0000
# 6 0.0000 0.0000 0.0000 -0.1592 0.0000 11.5512
#
#
#
# Elastic Compliance Matrix: (Units=1/GPa)
#
#
# Indices 1 2 3 4 5 6 
#
# 1 0.012936 -0.004207 -0.003796 0.000000 -0.005155 0.000000
# 2 -0.004207 0.013388 -0.004590 0.000000 0.002572 0.000000
# 3 -0.003796 -0.004590 0.019752 0.000000 -0.009467 0.000000
# 4 0.000000 0.000000 0.000000 0.072774 0.000000 0.001003
# 5 -0.005155 0.002572 -0.009467 0.000000 0.037971 0.000000
# 6 0.000000 0.000000 0.000000 0.001003 0.000000 0.086585
#
#
# Mechanical properties :
#
#
# Convention : Reuss Voigt Hill
#
# Bulk Modulus (GPa) = 47.87392 60.90343 54.38868
# Shear Modulus (GPa) = 18.14522 23.09225 20.61873
#
# Velocity S-wave (km/s) = 2.96287 3.34245 3.15837
# Velocity P-wave (km/s) = 5.90475 6.66039 6.29392
#
# Compressibility (1/GPa) = 0.02088820
#
# Stress axis : x y z
#
# Youngs Moduli (GPa) = 77.30342 74.69616 50.62855
#
# Poissons Ratio (x) = 0.31425 0.19220
# Poissons Ratio (y) = 0.32522 0.23240
# Poissons Ratio (z) = 0.29347 0.34287
#
# Static dielectric constant tensor:
#      x y z
#    x 1.773650 0.000000 0.008130 
#    y 0.000000 1.699560 0.000000 
#    z 0.008130 0.000000 1.738480 
# 
# From -- ./inp_files/49199.got.cif
#   From: 2010.05.17/outbox.cif.g08.bks.cpg/sg12_25_cif.got.tgz:49199.got - 2010.06.03 13:09:07.
