data_PCOD9221634
_publ_section_title
;
Structure prediction by ZEFSAII (Michael W. Deem and Ramdas Pophale) SiO2 
 PCOD9221634
Probable space group: C 2/M
;
_chemical_formula_sum "Si O2"
_cell_formula_units_Z 48
_cell_length_a 11.724460
_cell_length_b 16.939340
_cell_length_c 24.206916
_cell_angle_alpha 90.000000
_cell_angle_beta 27.674749
_cell_angle_gamma 90.000000
_cell_volume 2232.900877
_symmetry_space_group_name_H-M "C 2/M"
_symmetry_group_IT_number 12
_symmetry_cell_setting 'monoclinic'
loop_
_space_group_symop_operation_xyz
x,y,z
-x,y,-z
-x,-y,-z
x,-y,z
1/2+x,1/2+y,z
1/2-x,1/2+y,-z
1/2-x,1/2-y,-z
1/2+x,1/2-y,z
loop_
_atom_site_type_symbol
_atom_site_label
_atom_site_fract_x
_atom_site_fract_y
_atom_site_fract_z
Si Si1 0.807029 0.409556 0.305244
Si Si2 0.757208 0.910877 0.360136
Si Si3 0.042052 0.681420 0.649788
Si Si4 0.276293 0.348410 0.051754
Si Si5 0.870350 0.145641 0.418672
Si Si6 0.995481 0.816592 0.156973
O O1 0.729358 0.500000 0.347515
O O2 0.871939 0.364832 0.333812
O O3 0.595892 0.361792 0.364029
O O4 0.058696 0.405784 0.163108
O O5 0.500000 0.883832 0.500000
O O6 0.921511 0.909789 0.345169
O O7 0.896171 0.860150 0.254261
O O8 0.720237 0.000000 0.355851
O O9 0.163702 0.766942 0.591707
O O10 0.130844 0.630591 0.558899
O O11 0.755775 0.700979 0.768649
O O12 0.152981 0.260517 0.105299
O O13 0.500000 0.352610 0.000000
O O14 0.355587 0.363240 0.954291
#
# Coordination Sequence:
#
# PCOD9221634 Si02
#       6
#     8   8   8   8   8   8
#     4  12  26  44  68 102 141 178 226 285 348 409
#     4  11  24  41  65  97 140 179 216 273 341 416
#     4  11  23  41  70  98 133 176 222 282 337 406
#     4  11  24  44  69  98 132 180 232 288 337 396
#     4  11  24  42  69  99 136 175 227 275 340 413
#     4  11  23  43  70  98 129 174 233 282 330 406
#
# _framework density 21.496700000000001
#
# number of rings (size 3 to 8) (size 9 to 14) (size 15 to 20)
#    0.000    0.833    5.000    2.000    0.000    3.667 
#    0.000    0.000    0.000    2.500    0.000    0.000 
#    0.000    0.000    0.000    0.000    0.000    0.000 
#
# Total GULP energy -133947.494091 kJ/mol
# GULP energy per Si atom -5581.145587 kJ/mol
# Density = 2.144777 g / cm^3
# Si number density = 21.496700 Si / 1000 Ang^3
#
#
#
# Elastic Constant Matrix: (Units=GPa)
#
#
# Indices 1 2 3 4 5 6 
#
# 1 68.7674 17.5136 22.2741 -0.0436 13.1503 -0.0170
# 2 17.5136 79.2297 16.9558 -0.0276 15.6576 0.0029
# 3 22.2741 16.9558 114.1636 0.0197 22.0650 0.0123
# 4 -0.0436 -0.0276 0.0197 7.1209 0.0160 -7.9612
# 5 13.1503 15.6576 22.0650 0.0160 40.5755 -0.0080
# 6 -0.0170 0.0029 0.0123 -7.9612 -0.0080 12.6521
#
#
#
# Elastic Compliance Matrix: (Units=1/GPa)
#
#
# Indices 1 2 3 4 5 6 
#
# 1 0.016519 -0.002550 -0.002235 0.000439 -0.003155 0.000299
# 2 -0.002550 0.014189 -0.000795 0.000140 -0.004217 0.000079
# 3 -0.002235 -0.000795 0.010185 -0.000176 -0.004507 -0.000126
# 4 0.000439 0.000140 -0.000176 0.473639 -0.000228 0.298033
# 5 -0.003155 -0.004217 -0.004507 -0.000228 0.029746 -0.000124
# 6 0.000299 0.000079 -0.000126 0.298033 -0.000124 0.266572
#
#
# Mechanical properties :
#
#
# Convention : Reuss Voigt Hill
#
# Bulk Modulus (GPa) = 33.63216 41.73863 37.68539
# Shear Modulus (GPa) = 6.01020 25.76418 15.88719
#
# Velocity S-wave (km/s) = 1.67390 3.46572 2.72150
# Velocity P-wave (km/s) = 4.40626 5.95595 5.23873
#
# Compressibility (1/GPa) = 0.02973345
#
# Stress axis : x y z
#
# Youngs Moduli (GPa) = 60.53816 70.47921 98.18723
#
# Poissons Ratio (x) = 0.17969 0.21941
# Poissons Ratio (y) = 0.15435 0.07805
# Poissons Ratio (z) = 0.13528 0.05603
#
# Static dielectric constant tensor:
#      x y z
#    x 1.871430 0.000010 -0.006830 
#    y 0.000010 1.779560 0.000000 
#    z -0.006830 0.000000 1.820300 
# 
# From -- ./inp_files/336389.got.cif
#   From: 2010.05.17/outbox.cif.g08.bks.cpg/sg12_169_cif.got.tgz:336389.got - 2010.06.03 13:09:07.
