data_PCOD9221921
_publ_section_title
;
Structure prediction by ZEFSAII (Michael W. Deem and Ramdas Pophale) SiO2 
 PCOD9221921
Probable space group: C 2/M
;
_chemical_formula_sum "Si O2"
_cell_formula_units_Z 64
_cell_length_a 14.393855
_cell_length_b 17.729356
_cell_length_c 19.211562
_cell_angle_alpha 90.000000
_cell_angle_beta 39.989952
_cell_angle_gamma 90.000000
_cell_volume 3150.717567
_symmetry_space_group_name_H-M "C 2/M"
_symmetry_group_IT_number 12
_symmetry_cell_setting 'monoclinic'
loop_
_space_group_symop_operation_xyz
x,y,z
-x,y,-z
-x,-y,-z
x,-y,z
1/2+x,1/2+y,z
1/2-x,1/2+y,-z
1/2-x,1/2-y,-z
1/2+x,1/2-y,z
loop_
_atom_site_type_symbol
_atom_site_label
_atom_site_fract_x
_atom_site_fract_y
_atom_site_fract_z
Si Si1 0.882712 0.673007 0.131411
Si Si2 0.333211 0.674024 0.367897
Si Si3 0.542229 0.581041 0.896182
Si Si4 0.090464 0.662518 0.614416
Si Si5 0.516958 0.911178 0.188614
Si Si6 0.281022 0.822179 0.723393
Si Si7 0.214646 0.837148 0.010324
Si Si8 0.359192 0.589022 0.807228
O O1 0.955194 0.638603 0.159600
O O2 0.804774 0.753038 0.190720
O O3 0.748206 0.618437 0.190537
O O4 0.000000 0.677574 0.000000
O O5 0.221513 0.641219 0.488419
O O6 0.372150 0.758302 0.369926
O O7 0.254594 0.679424 0.338305
O O8 0.483154 0.627765 0.281124
O O9 0.505177 0.500000 0.884339
O O10 0.707720 0.600737 0.791696
O O11 0.500000 0.577517 0.000000
O O12 0.448612 0.648523 0.918535
O O13 0.063590 0.604899 0.692889
O O14 0.947014 0.676937 0.650753
O O15 0.678093 0.877066 0.104811
O O16 0.519224 0.000000 0.170837
O O17 0.250000 0.750000 0.000000
O O18 0.224529 0.882785 0.076015
O O19 0.373865 0.500000 0.796463
#
# Coordination Sequence:
#
# PCOD9221921 Si02
#       8
#     8   8   8   8   8   8   8   8
#     4  12  25  40  68 102 142 184 227 278 344 420
#     4  11  24  46  71  96 134 179 230 285 341 403
#     4  11  24  39  60  94 135 174 216 271 336 405
#     4  11  25  45  70  99 132 178 231 285 339 405
#     4  12  25  43  66  99 141 179 226 283 346 407
#     4  12  23  42  71 102 133 178 226 284 342 409
#     4  12  24  40  65  95 137 181 224 275 340 415
#     4  12  25  43  67  99 138 180 226 282 346 409
#
# _framework density 20.312833999999999
#
# number of rings (size 3 to 8) (size 9 to 14) (size 15 to 20)
#    0.000    0.375    5.000    4.500    1.750    2.500 
#    0.000    0.625    0.000    3.750    0.000    0.000 
#    0.000    0.000    0.000    0.000    0.000    0.000 
#
# Total GULP energy -178854.264806 kJ/mol
# GULP energy per Si atom -5589.195775 kJ/mol
# Density = 2.026660 g / cm^3
# Si number density = 20.312834 Si / 1000 Ang^3
#
#
#
# Elastic Constant Matrix: (Units=GPa)
#
#
# Indices 1 2 3 4 5 6 
#
# 1 98.4543 2.9576 29.6487 -0.0001 -1.3645 0.0001
# 2 2.9576 94.4668 26.0115 -0.0001 -1.3311 0.0001
# 3 29.6487 26.0115 118.9953 -0.0003 2.1901 0.0002
# 4 -0.0001 -0.0001 -0.0003 17.9685 0.0002 0.1669
# 5 -1.3645 -1.3311 2.1901 0.0002 28.4056 -0.0001
# 6 0.0001 0.0001 0.0002 0.1669 -0.0001 21.4811
#
#
#
# Elastic Compliance Matrix: (Units=1/GPa)
#
#
# Indices 1 2 3 4 5 6 
#
# 1 0.011015 0.000453 -0.002858 0.000000 0.000771 0.000000
# 2 0.000453 0.011297 -0.002596 0.000000 0.000751 0.000000
# 3 -0.002858 -0.002596 0.009702 0.000000 -0.001007 0.000000
# 4 0.000000 0.000000 0.000000 0.055657 0.000000 -0.000432
# 5 0.000771 0.000751 -0.001007 0.000000 0.035354 0.000000
# 6 0.000000 0.000000 0.000000 -0.000432 0.000000 0.046556
#
#
# Mechanical properties :
#
#
# Convention : Reuss Voigt Hill
#
# Bulk Modulus (GPa) = 45.43046 47.68355 46.55701
# Shear Modulus (GPa) = 26.74950 30.45760 28.60355
#
# Velocity S-wave (km/s) = 3.63282 3.87644 3.75661
# Velocity P-wave (km/s) = 6.32538 6.60010 6.46420
#
# Compressibility (1/GPa) = 0.02201166
#
# Stress axis : x y z
#
# Youngs Moduli (GPa) = 90.78860 88.51930 103.07478
#
# Poissons Ratio (x) = -0.04009 0.29454
# Poissons Ratio (y) = -0.04111 0.26759
# Poissons Ratio (z) = 0.25943 0.22980
#
# Static dielectric constant tensor:
#      x y z
#    x 1.731160 0.000000 0.018710 
#    y 0.000000 1.702870 0.000000 
#    z 0.018710 0.000000 1.715500 
# 
# From -- ./inp_files/271696.got.cif
#   From: 2010.05.17/outbox.cif.g08.bks.cpg/sg12_136_cif.got.tgz:271696.got - 2010.06.03 13:09:07.
