data_PCOD9221567
_publ_section_title
;
Structure prediction by ZEFSAII (Michael W. Deem and Ramdas Pophale) SiO2 
 PCOD9221567
Probable space group: C 2/M
;
_chemical_formula_sum "Si O2"
_cell_formula_units_Z 50
_cell_length_a 14.909582
_cell_length_b 17.434240
_cell_length_c 9.652570
_cell_angle_alpha 90.000000
_cell_angle_beta 66.142231
_cell_angle_gamma 90.000000
_cell_volume 2294.668774
_symmetry_space_group_name_H-M "C 2/M"
_symmetry_group_IT_number 12
_symmetry_cell_setting 'monoclinic'
loop_
_space_group_symop_operation_xyz
x,y,z
-x,y,-z
-x,-y,-z
x,-y,z
1/2+x,1/2+y,z
1/2-x,1/2+y,-z
1/2-x,1/2-y,-z
1/2+x,1/2-y,z
loop_
_atom_site_type_symbol
_atom_site_label
_atom_site_fract_x
_atom_site_fract_y
_atom_site_fract_z
Si Si1 0.146254 0.141051 0.393254
Si Si2 0.093721 0.187152 0.144990
Si Si3 0.362963 0.088305 0.209295
Si Si4 0.760562 0.087796 0.115688
Si Si5 0.905006 0.909253 0.284427
Si Si6 0.430108 0.860638 0.867482
Si Si7 0.500000 0.500000 0.500000
O O1 0.107841 0.199176 0.301392
O O2 0.261602 0.130986 0.299266
O O3 0.127996 0.144665 0.568396
O O4 0.079491 0.066970 0.400425
O O5 0.076485 0.270652 0.095391
O O6 0.005229 0.128250 0.169403
O O7 0.188925 0.146492 0.022229
O O8 0.457699 0.118803 0.231673
O O9 0.346050 0.000000 0.254831
O O10 0.393975 0.096333 0.029227
O O11 0.823413 0.090253 0.217236
O O12 0.647988 0.113000 0.198249
O O13 0.766650 0.000000 0.060679
O O14 0.920741 0.000000 0.324276
#
# Coordination Sequence:
#
# PCOD9221567 Si02
#       7
#     8   8   8   8   8   8   2
#     4  12  22  40  71  98 129 165 224 271 329 381
#     4  12  24  39  66  95 135 171 212 277 336 387
#     4  11  23  42  72  96 124 179 227 272 317 385
#     4  11  24  40  65  93 131 171 220 275 327 384
#     4  11  23  41  64  98 130 169 217 277 329 390
#     4  11  25  41  62  95 138 168 224 269 325 393
#     4  12  20  40  72 100 130 160 222 290 298 398
#
# _framework density 21.789636999999999
#
# number of rings (size 3 to 8) (size 9 to 14) (size 15 to 20)
#    0.000    0.640    4.800    3.360    5.600    1.280 
#    0.000    5.600    0.000    2.880    0.000    0.000 
#    0.000    0.000    0.000    0.000    0.000    0.000 
#
# Total GULP energy -139466.378935 kJ/mol
# GULP energy per Si atom -5578.655157 kJ/mol
# Density = 2.174004 g / cm^3
# Si number density = 21.789637 Si / 1000 Ang^3
#
#
#
# Elastic Constant Matrix: (Units=GPa)
#
#
# Indices 1 2 3 4 5 6 
#
# 1 148.6015 7.4597 19.3913 0.0000 -23.6753 0.0000
# 2 7.4597 42.8418 -17.4461 0.0000 12.7493 0.0000
# 3 19.3913 -17.4461 43.6805 0.0000 -2.8152 0.0000
# 4 0.0000 0.0000 0.0000 14.5394 0.0000 -0.5562
# 5 -23.6753 12.7493 -2.8152 0.0000 36.5537 0.0000
# 6 0.0000 0.0000 0.0000 -0.5562 0.0000 8.2700
#
#
#
# Elastic Compliance Matrix: (Units=1/GPa)
#
#
# Indices 1 2 3 4 5 6 
#
# 1 0.009041 -0.006290 -0.006037 0.000000 0.007585 0.000000
# 2 -0.006290 0.035472 0.015979 0.000000 -0.015215 0.000000
# 3 -0.006037 0.015979 0.031501 0.000000 -0.007057 0.000000
# 4 0.000000 0.000000 0.000000 0.068956 0.000000 0.004637
# 5 0.007585 -0.015215 -0.007057 0.000000 0.037033 0.000000
# 6 0.000000 0.000000 0.000000 0.004637 0.000000 0.121231
#
#
# Mechanical properties :
#
#
# Convention : Reuss Voigt Hill
#
# Bulk Modulus (GPa) = 12.00212 28.21485 20.10849
# Shear Modulus (GPa) = 15.44626 26.92053 21.18340
#
# Velocity S-wave (km/s) = 2.66537 3.51874 3.12136
# Velocity P-wave (km/s) = 3.87200 5.43006 4.71583
#
# Compressibility (1/GPa) = 0.08331858
#
# Stress axis : x y z
#
# Youngs Moduli (GPa) = 110.60262 28.19132 31.74507
#
# Poissons Ratio (x) = 0.17732 0.19165
# Poissons Ratio (y) = 0.69568 -0.50726
# Poissons Ratio (z) = 0.66773 -0.45048
#
# Static dielectric constant tensor:
#      x y z
#    x 1.731640 0.000000 -0.004500 
#    y 0.000000 1.812420 0.000000 
#    z -0.004500 0.000000 1.777320 
# 
# From -- ./inp_files/145436.got.cif
#   From: 2010.05.17/outbox.cif.g08.bks.cpg/sg12_73_cif.got.tgz:145436.got - 2010.06.03 13:09:07.
