data_PCOD9221270
_publ_section_title
;
Structure prediction by ZEFSAII (Michael W. Deem and Ramdas Pophale) SiO2 
 PCOD9221270
Probable space group: C 2/M
;
_chemical_formula_sum "Si O2"
_cell_formula_units_Z 34
_cell_length_a 7.397319
_cell_length_b 27.329473
_cell_length_c 10.698241
_cell_angle_alpha 90.000000
_cell_angle_beta 137.149003
_cell_angle_gamma 90.000000
_cell_volume 1470.913015
_symmetry_space_group_name_H-M "C 2/M"
_symmetry_group_IT_number 12
_symmetry_cell_setting 'monoclinic'
loop_
_space_group_symop_operation_xyz
x,y,z
-x,y,-z
-x,-y,-z
x,-y,z
1/2+x,1/2+y,z
1/2-x,1/2+y,-z
1/2-x,1/2-y,-z
1/2+x,1/2-y,z
loop_
_atom_site_type_symbol
_atom_site_label
_atom_site_fract_x
_atom_site_fract_y
_atom_site_fract_z
Si Si1 0.633669 0.179335 0.336039
Si Si2 0.609305 0.644388 0.758664
Si Si3 0.617220 0.279900 0.189029
Si Si4 0.500000 0.500000 0.500000
Si Si5 0.803396 0.946110 0.634592
O O1 0.856006 0.159934 0.543412
O O2 0.691522 0.234375 0.314100
O O3 0.363452 0.185731 0.275748
O O4 0.650711 0.146169 0.218977
O O5 0.603614 0.686760 0.857618
O O6 0.526893 0.593429 0.779773
O O7 0.500000 0.261431 0.000000
O O8 0.359856 0.458283 0.518137
O O9 0.500000 0.929705 0.500000
O O10 0.832568 0.000000 0.712447
#
# Coordination Sequence:
#
# PCOD9221270 Si02
#       5
#     8   8   8   2   8
#     4  11  23  36  56  81 113 153 188 238 277 333
#     4  11  23  36  59  86 115 148 189 234 286 335
#     4  12  24  38  56  78 118 158 195 231 276 333
#     4   8  14  28  52  78 106 138 168 220 288 314
#     4   9  18  33  54  82 116 140 178 233 282 338
#
# _framework density 23.114892999999999
#
# number of rings (size 3 to 8) (size 9 to 14) (size 15 to 20)
#    0.706    0.706    2.353    4.941    3.294    0.000 
#    0.000    0.000    0.000    0.706    0.000    1.647 
#    0.000    0.000    0.000    0.000    0.000    0.000 
#
# Total GULP energy -94661.126470 kJ/mol
# GULP energy per Si atom -5568.301557 kJ/mol
# Density = 2.306228 g / cm^3
# Si number density = 23.114893 Si / 1000 Ang^3
#
#
#
# Elastic Constant Matrix: (Units=GPa)
#
#
# Indices 1 2 3 4 5 6 
#
# 1 124.0437 7.7201 9.7446 0.0000 2.2599 0.0000
# 2 7.7201 109.2774 3.4319 0.0000 3.5848 0.0000
# 3 9.7446 3.4319 33.7506 0.0000 0.2461 0.0000
# 4 0.0000 0.0000 0.0000 5.9818 0.0000 11.7221
# 5 2.2599 3.5848 0.2461 0.0000 30.4021 0.0000
# 6 0.0000 0.0000 0.0000 11.7221 0.0000 26.0024
#
#
#
# Elastic Compliance Matrix: (Units=1/GPa)
#
#
# Indices 1 2 3 4 5 6 
#
# 1 0.008286 -0.000494 -0.002338 0.000000 -0.000539 0.000000
# 2 -0.000494 0.009245 -0.000790 0.000000 -0.001047 0.000000
# 3 -0.002338 -0.000790 0.030384 0.000000 0.000021 0.000000
# 4 0.000000 0.000000 0.000000 1.434064 0.000000 -0.646489
# 5 -0.000539 -0.001047 0.000021 0.000000 0.033056 0.000000
# 6 0.000000 0.000000 0.000000 -0.646489 0.000000 0.329901
#
#
# Mechanical properties :
#
#
# Convention : Reuss Voigt Hill
#
# Bulk Modulus (GPa) = 24.58751 34.31833 29.45292
# Shear Modulus (GPa) = 2.67991 28.88893 15.78442
#
# Velocity S-wave (km/s) = 1.07792 3.53908 2.61601
# Velocity P-wave (km/s) = 3.49419 5.61954 4.67913
#
# Compressibility (1/GPa) = 0.04067106
#
# Stress axis : x y z
#
# Youngs Moduli (GPa) = 120.68653 108.16550 32.91165
#
# Poissons Ratio (x) = 0.05346 0.07695
# Poissons Ratio (y) = 0.05965 0.02599
# Poissons Ratio (z) = 0.28218 0.08542
#
# Static dielectric constant tensor:
#      x y z
#    x 1.890760 0.000000 0.012850 
#    y 0.000000 1.901380 0.000000 
#    z 0.012850 0.000000 1.909930 
# 
# From -- ./inp_files/124936.got.cif
#   From: 2010.05.17/outbox.cif.g08.bks.cpg/sg12_63_cif.got.tgz:124936.got - 2010.06.03 13:09:07.
