data_PCOD9221798
_publ_section_title
;
Structure prediction by ZEFSAII (Michael W. Deem and Ramdas Pophale) SiO2 
 PCOD9221798
Probable space group: C 2/M
;
_chemical_formula_sum "Si O2"
_cell_formula_units_Z 32
_cell_length_a 11.340696
_cell_length_b 13.977104
_cell_length_c 17.199651
_cell_angle_alpha 90.000000
_cell_angle_beta 32.304699
_cell_angle_gamma 90.000000
_cell_volume 1457.003517
_symmetry_space_group_name_H-M "C 2/M"
_symmetry_group_IT_number 12
_symmetry_cell_setting 'monoclinic'
loop_
_space_group_symop_operation_xyz
x,y,z
-x,y,-z
-x,-y,-z
x,-y,z
1/2+x,1/2+y,z
1/2-x,1/2+y,-z
1/2-x,1/2-y,-z
1/2+x,1/2-y,z
loop_
_atom_site_type_symbol
_atom_site_label
_atom_site_fract_x
_atom_site_fract_y
_atom_site_fract_z
Si Si1 0.193802 0.500000 0.571721
Si Si2 0.841583 0.794984 0.869625
Si Si3 0.777549 0.788517 0.574383
Si Si4 0.310137 0.500000 0.210450
Si Si5 0.000000 0.160774 0.000000
Si Si6 0.531148 0.500000 0.241654
O O1 0.220054 0.401277 0.603792
O O2 0.399257 0.500000 0.396196
O O3 0.943886 0.500000 0.675783
O O4 0.708947 0.730080 0.882919
O O5 0.095633 0.769646 0.722337
O O6 0.750000 0.750000 0.000000
O O7 0.824456 0.905778 0.856544
O O8 0.750000 0.750000 0.500000
O O9 0.000000 0.775521 0.500000
O O10 0.449864 0.410504 0.098983
O O11 0.333931 0.500000 0.288696
#
# Coordination Sequence:
#
# PCOD9221798 Si02
#       6
#     4   8   8   4   4   4
#     4  12  25  47  74 107 152 196 254 311 385 459
#     4  12  27  46  75 109 153 199 256 322 382 456
#     4  12  29  50  76 113 157 206 252 317 386 455
#     4  11  23  43  73 110 143 199 260 305 378 459
#     4  11  24  45  72 104 150 199 250 307 392 452
#     4  12  26  43  73 113 144 202 259 314 377 460
#
# _framework density 21.962885
#
# number of rings (size 3 to 8) (size 9 to 14) (size 15 to 20)
#    0.000    0.250    7.500    0.750    7.000    1.500 
#    0.000    0.000    0.000    0.000    0.000    0.000 
#    0.000    0.000    0.000    0.000    0.000    0.000 
#
# Total GULP energy -89334.990991 kJ/mol
# GULP energy per Si atom -5583.436937 kJ/mol
# Density = 2.191290 g / cm^3
# Si number density = 21.962885 Si / 1000 Ang^3
#
#
#
# Elastic Constant Matrix: (Units=GPa)
#
#
# Indices 1 2 3 4 5 6 
#
# 1 73.9275 25.2720 7.9985 0.0004 -20.8376 -0.0004
# 2 25.2720 211.8894 36.0322 -0.0014 -5.7299 0.0001
# 3 7.9985 36.0322 75.1077 -0.0051 1.4755 0.0011
# 4 0.0004 -0.0014 -0.0051 31.6779 0.0018 -2.6344
# 5 -20.8376 -5.7299 1.4755 0.0018 47.9195 -0.0001
# 6 -0.0004 0.0001 0.0011 -2.6344 -0.0001 23.2589
#
#
#
# Elastic Compliance Matrix: (Units=1/GPa)
#
#
# Indices 1 2 3 4 5 6 
#
# 1 0.016107 -0.001547 -0.001108 -0.000001 0.006853 0.000000
# 2 -0.001547 0.005310 -0.002383 0.000000 0.000035 0.000000
# 3 -0.001108 -0.002383 0.014600 0.000002 -0.001216 0.000000
# 4 -0.000001 0.000000 0.000002 0.031868 -0.000002 0.003610
# 5 0.006853 0.000035 -0.001216 -0.000002 0.023890 0.000000
# 6 0.000000 0.000000 0.000000 0.003610 0.000000 0.043403
#
#
# Mechanical properties :
#
#
# Convention : Reuss Voigt Hill
#
# Bulk Modulus (GPa) = 38.55036 55.50333 47.02684
# Shear Modulus (GPa) = 32.48820 40.01271 36.25046
#
# Velocity S-wave (km/s) = 3.85025 4.27292 4.06708
# Velocity P-wave (km/s) = 6.11200 7.04770 6.59646
#
# Compressibility (1/GPa) = 0.02594009
#
# Stress axis : x y z
#
# Youngs Moduli (GPa) = 62.08374 188.31410 68.49547
#
# Poissons Ratio (x) = 0.29141 0.07586
# Poissons Ratio (y) = 0.09607 0.16326
# Poissons Ratio (z) = 0.06876 0.44884
#
# Static dielectric constant tensor:
#      x y z
#    x 1.936420 -0.000010 0.010700 
#    y -0.000010 1.627700 0.000000 
#    z 0.010700 0.000000 1.782630 
# 
# From -- ./inp_files/156472.got.cif
#   From: 2010.05.17/outbox.cif.g08.bks.cpg/sg12_79_cif.got.tgz:156472.got - 2010.06.03 13:09:07.
