data_PCOD9221896
_publ_section_title
;
Structure prediction by ZEFSAII (Michael W. Deem and Ramdas Pophale) SiO2 
 PCOD9221896
Probable space group: C 2/M
;
_chemical_formula_sum "Si O2"
_cell_formula_units_Z 50
_cell_length_a 9.193023
_cell_length_b 16.807355
_cell_length_c 25.941096
_cell_angle_alpha 90.000000
_cell_angle_beta 37.997692
_cell_angle_gamma 90.000000
_cell_volume 2467.548098
_symmetry_space_group_name_H-M "C 2/M"
_symmetry_group_IT_number 12
_symmetry_cell_setting 'monoclinic'
loop_
_space_group_symop_operation_xyz
x,y,z
-x,y,-z
-x,-y,-z
x,-y,z
1/2+x,1/2+y,z
1/2-x,1/2+y,-z
1/2-x,1/2-y,-z
1/2+x,1/2-y,z
loop_
_atom_site_type_symbol
_atom_site_label
_atom_site_fract_x
_atom_site_fract_y
_atom_site_fract_z
Si Si1 0.776567 0.908333 0.916437
Si Si2 0.564182 0.282714 0.210620
Si Si3 0.500000 0.000000 0.500000
Si Si4 0.652571 0.909505 0.626111
Si Si5 0.968263 0.189917 0.948307
Si Si6 0.440582 0.260507 0.677490
Si Si7 0.367219 0.619411 0.452041
O O1 0.891075 0.854708 0.840554
O O2 0.903724 0.888271 0.934462
O O3 0.791365 0.000000 0.898914
O O4 0.500000 0.886618 0.000000
O O5 0.516011 0.309400 0.282468
O O6 0.334301 0.234431 0.258367
O O7 0.797876 0.229400 0.140626
O O8 0.303977 0.931580 0.536639
O O9 0.491120 0.831687 0.678043
O O10 0.752892 0.891117 0.540653
O O11 0.863996 0.907736 0.609097
O O12 0.552717 0.000000 0.653633
O O13 0.750000 0.250000 0.000000
O O14 0.000000 0.177385 0.000000
O O15 0.592649 0.295966 0.587957
#
# Coordination Sequence:
#
# PCOD9221896 Si02
#       7
#     8   8   2   8   8   8   8
#     4  11  24  43  67  99 136 177 229 286 336 397
#     4  12  23  42  65  98 136 181 224 273 346 407
#     4  12  24  42  72 100 126 170 244 286 330 390
#     4  11  23  48  70  94 138 183 226 280 350 403
#     4  12  20  40  74  98 130 183 232 276 325 405
#     4  12  26  41  67 101 137 180 229 280 341 420
#     4  11  24  44  67  98 132 178 232 283 334 409
#
# _framework density 20.263030000000001
#
# number of rings (size 3 to 8) (size 9 to 14) (size 15 to 20)
#    0.000    0.480    8.000    0.960    2.240    2.240 
#    1.440    0.000    1.760    0.000    0.000    0.000 
#    0.000    0.000    0.000    0.000    0.000    0.000 
#
# Total GULP energy -139214.011325 kJ/mol
# GULP energy per Si atom -5568.560453 kJ/mol
# Density = 2.021691 g / cm^3
# Si number density = 20.263030 Si / 1000 Ang^3
#
#
#
# Elastic Constant Matrix: (Units=GPa)
#
#
# Indices 1 2 3 4 5 6 
#
# 1 112.6433 36.8827 26.9881 -0.0019 10.6379 0.0009
# 2 36.8827 99.1152 31.5436 -0.0030 -0.7250 0.0004
# 3 26.9881 31.5436 61.3545 -0.0173 9.4370 -0.0008
# 4 -0.0019 -0.0030 -0.0173 4.0273 0.0079 -5.4642
# 5 10.6379 -0.7250 9.4370 0.0079 35.8550 -0.0001
# 6 0.0009 0.0004 -0.0008 -5.4642 -0.0001 26.8743
#
#
#
# Elastic Compliance Matrix: (Units=1/GPa)
#
#
# Indices 1 2 3 4 5 6 
#
# 1 0.010812 -0.003173 -0.002732 -0.000006 -0.002553 -0.000002
# 2 -0.003173 0.013127 -0.005773 -0.000031 0.002726 -0.000006
# 3 -0.002732 -0.005773 0.021221 0.000133 -0.004891 0.000028
# 4 -0.000006 -0.000031 0.000133 0.342904 -0.000109 0.069721
# 5 -0.002553 0.002726 -0.004891 -0.000109 0.029990 -0.000022
# 6 -0.000002 -0.000006 0.000028 0.069721 -0.000022 0.051386
#
#
# Mechanical properties :
#
#
# Convention : Reuss Voigt Hill
#
# Bulk Modulus (GPa) = 45.86095 51.54910 48.70503
# Shear Modulus (GPa) = 9.99875 25.19791 17.59833
#
# Velocity S-wave (km/s) = 2.22378 3.53021 2.95022
# Velocity P-wave (km/s) = 5.41069 6.48936 5.97442
#
# Compressibility (1/GPa) = 0.02180504
#
# Stress axis : x y z
#
# Youngs Moduli (GPa) = 92.48938 76.17942 47.12376
#
# Poissons Ratio (x) = 0.24168 0.12875
# Poissons Ratio (y) = 0.29343 0.27203
# Poissons Ratio (z) = 0.25270 0.43975
#
# Static dielectric constant tensor:
#      x y z
#    x 1.776420 0.000000 0.038950 
#    y 0.000000 1.724040 0.000000 
#    z 0.038950 0.000000 1.738550 
# 
# From -- ./inp_files/356540.got.cif
#   From: 2010.05.17/outbox.cif.g08.bks.cpg/sg12_179_cif.got.tgz:356540.got - 2010.06.03 13:09:07.
