data_PCOD9221771
_publ_section_title
;
Structure prediction by ZEFSAII (Michael W. Deem and Ramdas Pophale) SiO2 
 PCOD9221771
Probable space group: C 2/M
;
_chemical_formula_sum "Si O2"
_cell_formula_units_Z 64
_cell_length_a 10.012638
_cell_length_b 17.300112
_cell_length_c 35.555280
_cell_angle_alpha 90.000000
_cell_angle_beta 32.339212
_cell_angle_gamma 90.000000
_cell_volume 3294.572419
_symmetry_space_group_name_H-M "C 2/M"
_symmetry_group_IT_number 12
_symmetry_cell_setting 'monoclinic'
loop_
_space_group_symop_operation_xyz
x,y,z
-x,y,-z
-x,-y,-z
x,-y,z
1/2+x,1/2+y,z
1/2-x,1/2+y,-z
1/2-x,1/2-y,-z
1/2+x,1/2-y,z
loop_
_atom_site_type_symbol
_atom_site_label
_atom_site_fract_x
_atom_site_fract_y
_atom_site_fract_z
Si Si1 0.901010 0.908128 0.064397
Si Si2 0.921698 0.411699 0.352245
Si Si3 0.214050 0.091937 0.064073
Si Si4 0.228954 0.825060 0.787916
Si Si5 0.923573 0.857072 0.433531
Si Si6 0.459696 0.823235 0.211274
Si Si7 0.472761 0.823127 0.596771
Si Si8 0.453389 0.410065 0.343240
O O1 0.660441 0.861445 0.135454
O O2 0.112296 0.897074 0.045954
O O3 0.842451 0.000000 0.077216
O O4 0.000000 0.884709 0.000000
O O5 0.966952 0.500000 0.352615
O O6 0.643639 0.402360 0.402068
O O7 0.113078 0.385005 0.274527
O O8 0.955919 0.356200 0.379696
O O9 0.024057 0.136284 0.136394
O O10 0.202155 0.000000 0.075100
O O11 0.500000 0.117301 0.000000
O O12 0.396019 0.803793 0.784460
O O13 0.161232 0.751649 0.778821
O O14 0.681123 0.850695 0.517279
O O15 0.869487 0.893780 0.406009
O O16 0.022045 0.769525 0.403850
O O17 0.240404 0.883850 0.272246
O O18 0.211583 0.857409 0.645007
O O19 0.423344 0.500000 0.341279
#
# Coordination Sequence:
#
# PCOD9221771 Si02
#       8
#     8   8   8   8   8   8   8   8
#     4   9  19  38  63  91 124 162 206 255 309 370
#     4  12  25  41  64  93 126 164 210 262 314 372
#     4   9  19  38  63  91 124 162 206 255 309 370
#     4  11  24  41  64  90 124 167 211 259 313 375
#     4  11  23  43  69  89 124 167 210 249 317 383
#     4  11  24  41  64  90 124 167 211 259 313 375
#     4  11  25  43  63  95 126 163 204 263 315 375
#     4  12  25  41  64  93 126 164 210 262 314 372
#
# _framework density 19.425889999999999
#
# number of rings (size 3 to 8) (size 9 to 14) (size 15 to 20)
#    0.000    1.250    1.250    4.500    1.750    7.500 
#    0.000    2.500    0.000    0.000    0.000    0.000 
#    0.000    0.000    0.000    0.000    0.000    0.000 
#
# Total GULP energy -179023.748564 kJ/mol
# GULP energy per Si atom -5594.492143 kJ/mol
# Density = 1.938168 g / cm^3
# Si number density = 19.425890 Si / 1000 Ang^3
#
#
#
# Elastic Constant Matrix: (Units=GPa)
#
#
# Indices 1 2 3 4 5 6 
#
# 1 33.1000 21.7320 -5.0624 -0.0108 -6.8912 -0.0169
# 2 21.7320 64.4604 29.3604 0.0148 -3.8547 -0.0046
# 3 -5.0624 29.3604 63.3267 0.0258 -4.0479 -0.0240
# 4 -0.0108 0.0148 0.0258 -14.1853 -0.0083 -8.3819
# 5 -6.8912 -3.8547 -4.0479 -0.0083 34.8385 0.0062
# 6 -0.0169 -0.0046 -0.0240 -8.3819 0.0062 24.0462
#
#
#
# Elastic Compliance Matrix: (Units=1/GPa)
#
#
# Indices 1 2 3 4 5 6 
#
# 1 0.049627 -0.023150 0.015278 -0.000054 0.009030 0.000025
# 2 -0.023150 0.030509 -0.016193 0.000031 -0.003085 -0.000015
# 3 0.015278 -0.016193 0.024783 -0.000004 0.004110 0.000030
# 4 -0.000054 0.000031 -0.000004 -0.058456 -0.000018 -0.020376
# 5 0.009030 -0.003085 0.004110 -0.000018 0.030626 -0.000004
# 6 0.000025 -0.000015 0.000030 -0.020376 -0.000004 0.034484
#
#
# Mechanical properties :
#
#
# Convention : Reuss Voigt Hill
#
# Bulk Modulus (GPa) = 17.60908 28.10525 22.85717
# Shear Modulus (GPa) = 27.99018 16.59703 22.29361
#
# Velocity S-wave (km/s) = 3.80000 2.92614 3.39133
# Velocity P-wave (km/s) = 5.32332 5.09075 5.20833
#
# Compressibility (1/GPa) = 0.05678887
#
# Stress axis : x y z
#
# Youngs Moduli (GPa) = 20.15017 32.77702 40.35061
#
# Poissons Ratio (x) = 0.75878 -0.61646
# Poissons Ratio (y) = 0.46647 0.65340
# Poissons Ratio (z) = -0.30785 0.53076
#
# Static dielectric constant tensor:
#      x y z
#    x 1.647950 -0.000010 -0.002840 
#    y -0.000010 1.650270 0.000010 
#    z -0.002840 0.000010 1.657130 
# 
# From -- ./inp_files/372887.got.cif
#   From: 2010.05.17/outbox.cif.g08.bks.cpg/sg12_187_cif.got.tgz:372887.got - 2010.06.03 13:09:07.
