data_PCOD9221885
_publ_section_title
;
Structure prediction by ZEFSAII (Michael W. Deem and Ramdas Pophale) SiO2 
 PCOD9221885
Probable space group: C 2/M
;
_chemical_formula_sum "Si O2"
_cell_formula_units_Z 36
_cell_length_a 10.778269
_cell_length_b 21.098124
_cell_length_c 15.274563
_cell_angle_alpha 90.000000
_cell_angle_beta 151.039625
_cell_angle_gamma 90.000000
_cell_volume 1681.862897
_symmetry_space_group_name_H-M "C 2/M"
_symmetry_group_IT_number 12
_symmetry_cell_setting 'monoclinic'
loop_
_space_group_symop_operation_xyz
x,y,z
-x,y,-z
-x,-y,-z
x,-y,z
1/2+x,1/2+y,z
1/2-x,1/2+y,-z
1/2-x,1/2-y,-z
1/2+x,1/2-y,z
loop_
_atom_site_type_symbol
_atom_site_label
_atom_site_fract_x
_atom_site_fract_y
_atom_site_fract_z
Si Si1 0.756921 0.876082 0.916117
Si Si2 0.109501 0.000000 0.706997
Si Si3 0.993253 0.872976 0.254291
Si Si4 0.000000 0.325638 0.500000
Si Si5 0.580219 0.000000 0.273028
Si Si6 0.702576 0.754583 0.790469
O O1 0.582046 0.937736 0.804838
O O2 0.612461 0.812138 0.797528
O O3 0.000000 0.883116 0.000000
O O4 0.858646 0.867266 0.076925
O O5 0.340054 0.000000 0.779882
O O6 0.103834 0.936669 0.760818
O O7 0.843749 0.000000 0.489071
O O8 0.296238 0.869866 0.423285
O O9 0.932707 0.811343 0.274606
O O10 0.150583 0.281205 0.661638
O O11 0.000000 0.745755 0.000000
#
# Coordination Sequence:
#
# PCOD9221885 Si02
#       6
#     8   4   8   4   4   8
#     4  11  23  46  73 104 139 186 236 285 351 419
#     4  11  29  45  67 107 138 189 234 291 360 414
#     4  12  26  45  72 103 143 187 236 292 348 423
#     4  12  24  45  72 107 144 184 234 290 354 411
#     4  11  26  48  71 101 146 180 234 297 352 422
#     4  11  25  45  72 107 142 185 235 287 352 415
#
# _framework density 21.404834999999999
#
# number of rings (size 3 to 8) (size 9 to 14) (size 15 to 20)
#    0.000    0.667    4.444    3.667    3.111    3.111 
#    0.000    0.000    0.000    0.000    0.000    0.000 
#    0.000    0.000    0.000    0.000    0.000    0.000 
#
# Total GULP energy -100754.486692 kJ/mol
# GULP energy per Si atom -5597.471483 kJ/mol
# Density = 2.135612 g / cm^3
# Si number density = 21.404835 Si / 1000 Ang^3
#
#
#
# Elastic Constant Matrix: (Units=GPa)
#
#
# Indices 1 2 3 4 5 6 
#
# 1 93.5385 66.9718 12.4338 0.0006 -12.8983 0.0013
# 2 66.9718 182.6232 9.3084 -0.0010 0.1388 -0.0010
# 3 12.4338 9.3084 65.9153 0.0015 -16.1694 -0.0103
# 4 0.0006 -0.0010 0.0015 32.1154 0.0004 -19.6682
# 5 -12.8983 0.1388 -16.1694 0.0004 40.4265 -0.0023
# 6 0.0013 -0.0010 -0.0103 -19.6682 -0.0023 16.1489
#
#
#
# Elastic Compliance Matrix: (Units=1/GPa)
#
#
# Indices 1 2 3 4 5 6 
#
# 1 0.015484 -0.005631 -0.001008 -0.000006 0.004557 -0.000009
# 2 -0.005631 0.007568 -0.000503 0.000002 -0.002024 0.000003
# 3 -0.001008 -0.000503 0.017024 0.000025 0.006489 0.000042
# 4 -0.000006 0.000002 0.000025 0.122535 0.000016 0.149239
# 5 0.004557 -0.002024 0.006489 0.000016 0.028792 0.000027
# 6 -0.000009 0.000003 0.000042 0.149239 0.000027 0.243686
#
#
# Mechanical properties :
#
#
# Convention : Reuss Voigt Hill
#
# Bulk Modulus (GPa) = 38.77000 57.72277 48.24639
# Shear Modulus (GPa) = 10.91772 34.62902 22.77337
#
# Velocity S-wave (km/s) = 2.26090 4.02657 3.26534
# Velocity P-wave (km/s) = 4.99676 6.97448 6.06675
#
# Compressibility (1/GPa) = 0.02579314
#
# Stress axis : x y z
#
# Youngs Moduli (GPa) = 64.58075 132.13907 58.74060
#
# Poissons Ratio (x) = 0.74402 0.05921
# Poissons Ratio (y) = 0.36363 0.02955
# Poissons Ratio (z) = 0.06510 0.06647
#
# Static dielectric constant tensor:
#      x y z
#    x 1.775640 0.000000 0.009180 
#    y 0.000000 1.729580 0.000000 
#    z 0.009180 0.000000 1.794700 
# 
# From -- ./inp_files/207891.got.cif
#   From: 2010.05.17/outbox.cif.g08.bks.cpg/sg12_104_cif.got.tgz:207891.got - 2010.06.03 13:09:07.
