data_PCOD9221455
_publ_section_title
;
Structure prediction by ZEFSAII (Michael W. Deem and Ramdas Pophale) SiO2 
 PCOD9221455
Probable space group: C 2/M
;
_chemical_formula_sum "Si O2"
_cell_formula_units_Z 48
_cell_length_a 8.935815
_cell_length_b 25.824952
_cell_length_c 11.707790
_cell_angle_alpha 90.000000
_cell_angle_beta 104.791368
_cell_angle_gamma 90.000000
_cell_volume 2612.239822
_symmetry_space_group_name_H-M "C 2/M"
_symmetry_group_IT_number 12
_symmetry_cell_setting 'monoclinic'
loop_
_space_group_symop_operation_xyz
x,y,z
-x,y,-z
-x,-y,-z
x,-y,z
1/2+x,1/2+y,z
1/2-x,1/2+y,-z
1/2-x,1/2-y,-z
1/2+x,1/2-y,z
loop_
_atom_site_type_symbol
_atom_site_label
_atom_site_fract_x
_atom_site_fract_y
_atom_site_fract_z
Si Si1 0.011211 0.944682 0.867729
Si Si2 0.089344 0.841000 0.244058
Si Si3 0.641597 0.244296 0.090087
Si Si4 0.755890 0.655773 0.720338
Si Si5 0.816597 0.306592 0.484773
Si Si6 0.373102 0.059871 0.875159
O O1 0.194717 0.938203 0.882734
O O2 0.904577 0.898192 0.805854
O O3 0.964323 0.000000 0.807323
O O4 0.000000 0.946523 0.000000
O O5 0.092728 0.798269 0.142439
O O6 0.226609 0.827432 0.356845
O O7 0.926299 0.844533 0.281169
O O8 0.693801 0.207482 0.202290
O O9 0.500000 0.217105 0.000000
O O10 0.750000 0.250000 0.000000
O O11 0.778498 0.660615 0.590104
O O12 0.860944 0.607557 0.784269
O O13 0.750000 0.250000 0.500000
O O14 0.000000 0.303987 0.500000
O O15 0.399370 0.000000 0.839121
O O16 0.500000 0.068728 0.000000
#
# Coordination Sequence:
#
# PCOD9221455 Si02
#       6
#     8   8   8   8   8   8
#     4   9  19  36  61  90 120 155 194 240 295 349
#     4  11  23  40  61  85 121 157 198 244 292 352
#     4  12  24  36  56  89 122 155 189 240 297 353
#     4  11  23  40  61  87 120 158 198 242 294 352
#     4  12  26  42  61  84 115 160 203 246 295 350
#     4   9  19  37  61  90 121 155 194 240 294 349
#
# _framework density 18.375036000000001
#
# number of rings (size 3 to 8) (size 9 to 14) (size 15 to 20)
#    0.000    1.333    3.333    2.500    4.667    1.333 
#    0.000    0.833    0.000    5.000    0.000    0.000 
#    0.000    0.000    0.000    0.000    0.000    0.000 
#
# Total GULP energy -133648.941136 kJ/mol
# GULP energy per Si atom -5568.705881 kJ/mol
# Density = 1.833321 g / cm^3
# Si number density = 18.375036 Si / 1000 Ang^3
#
#
#
# Elastic Constant Matrix: (Units=GPa)
#
#
# Indices 1 2 3 4 5 6 
#
# 1 59.4755 22.2318 26.3941 0.0000 5.6678 0.0000
# 2 22.2318 125.7625 51.6337 0.0000 12.4226 0.0000
# 3 26.3941 51.6337 104.2076 0.0000 8.5376 0.0000
# 4 0.0000 0.0000 0.0000 26.5409 0.0000 6.9362
# 5 5.6678 12.4226 8.5376 0.0000 37.7782 0.0000
# 6 0.0000 0.0000 0.0000 6.9362 0.0000 19.6140
#
#
#
# Elastic Compliance Matrix: (Units=1/GPa)
#
#
# Indices 1 2 3 4 5 6 
#
# 1 0.019325 -0.001646 -0.003959 0.000000 -0.001463 0.000000
# 2 -0.001646 0.010306 -0.004516 0.000000 -0.002121 0.000000
# 3 -0.003959 -0.004516 0.012905 0.000000 -0.000838 0.000000
# 4 0.000000 0.000000 0.000000 0.041514 0.000000 -0.014681
# 5 -0.001463 -0.002121 -0.000838 0.000000 0.027577 0.000000
# 6 0.000000 0.000000 0.000000 -0.014681 0.000000 0.056176
#
#
# Mechanical properties :
#
#
# Convention : Reuss Voigt Hill
#
# Bulk Modulus (GPa) = 44.85465 54.44053 49.64759
# Shear Modulus (GPa) = 25.57840 29.39902 27.48871
#
# Velocity S-wave (km/s) = 3.73502 4.00427 3.87199
# Velocity P-wave (km/s) = 6.56233 7.14637 6.86057
#
# Compressibility (1/GPa) = 0.02229423
#
# Stress axis : x y z
#
# Youngs Moduli (GPa) = 51.74516 97.03011 77.48814
#
# Poissons Ratio (x) = 0.15973 0.30680
# Poissons Ratio (y) = 0.08518 0.34992
# Poissons Ratio (z) = 0.20487 0.43817
#
# Static dielectric constant tensor:
#      x y z
#    x 1.622670 0.000000 -0.003930 
#    y 0.000000 1.678140 0.000000 
#    z -0.003930 0.000000 1.604790 
# 
# From -- ./inp_files/122541.got.cif
#   From: 2010.05.17/outbox.cif.g08.bks.cpg/sg12_62_cif.got.tgz:122541.got - 2010.06.03 13:09:07.
