data_PCOD9221587
_publ_section_title
;
Structure prediction by ZEFSAII (Michael W. Deem and Ramdas Pophale) SiO2 
 PCOD9221587
Probable space group: C 2/M
;
_chemical_formula_sum "Si O2"
_cell_formula_units_Z 50
_cell_length_a 15.557568
_cell_length_b 22.162660
_cell_length_c 8.751628
_cell_angle_alpha 90.000000
_cell_angle_beta 61.374745
_cell_angle_gamma 90.000000
_cell_volume 2648.708164
_symmetry_space_group_name_H-M "C 2/M"
_symmetry_group_IT_number 12
_symmetry_cell_setting 'monoclinic'
loop_
_space_group_symop_operation_xyz
x,y,z
-x,y,-z
-x,-y,-z
x,-y,z
1/2+x,1/2+y,z
1/2-x,1/2+y,-z
1/2-x,1/2-y,-z
1/2+x,1/2-y,z
loop_
_atom_site_type_symbol
_atom_site_label
_atom_site_fract_x
_atom_site_fract_y
_atom_site_fract_z
Si Si1 0.574099 0.150865 0.080610
Si Si2 0.215417 0.725131 0.365024
Si Si3 0.604472 0.341833 0.328727
Si Si4 0.101011 0.213117 0.008761
Si Si5 0.000000 0.500000 0.500000
Si Si6 0.900540 0.609826 0.430225
Si Si7 0.219596 0.427920 0.772247
O O1 0.611629 0.218763 0.066678
O O2 0.506232 0.130141 0.275534
O O3 0.500000 0.152931 0.000000
O O4 0.657605 0.103982 0.961129
O O5 0.250000 0.750000 0.500000
O O6 0.157825 0.781056 0.341285
O O7 0.149034 0.666781 0.447977
O O8 0.308081 0.706788 0.183026
O O9 0.500000 0.346320 0.500000
O O10 0.596835 0.332981 0.152739
O O11 0.673891 0.397806 0.312241
O O12 0.000000 0.210159 0.000000
O O13 0.921261 0.552525 0.515483
O O14 0.834695 0.590956 0.339111
O O15 0.219267 0.500000 0.787049
#
# Coordination Sequence:
#
# PCOD9221587 Si02
#       7
#     8   8   8   8   2   8   8
#     4   9  19  38  62  93 126 162 208 268 335 399
#     4  12  22  42  68  99 136 175 219 282 343 399
#     4  12  25  41  67  99 129 176 230 279 343 398
#     4  11  23  41  66 101 134 165 217 287 347 408
#     4  12  28  40  58 100 140 184 214 266 344 410
#     4  11  24  40  63  97 137 176 215 268 338 415
#     4  11  23  42  66  90 128 177 226 274 329 405
#
# _framework density 18.877127000000002
#
# number of rings (size 3 to 8) (size 9 to 14) (size 15 to 20)
#    0.000    0.960    4.000    4.320    4.480    1.280 
#    0.000    0.000    0.000    0.480    0.000    0.000 
#    0.000    0.000    0.000    0.000    0.000    0.000 
#
# Total GULP energy -139494.091801 kJ/mol
# GULP energy per Si atom -5579.763672 kJ/mol
# Density = 1.883416 g / cm^3
# Si number density = 18.877127 Si / 1000 Ang^3
#
#
#
# Elastic Constant Matrix: (Units=GPa)
#
#
# Indices 1 2 3 4 5 6 
#
# 1 99.3309 32.0498 48.2574 0.0000 -7.3177 0.0000
# 2 32.0498 83.5069 12.3228 0.0000 2.6518 0.0000
# 3 48.2574 12.3228 103.9252 0.0000 -22.1644 0.0000
# 4 0.0000 0.0000 0.0000 -16.1325 0.0000 -32.9114
# 5 -7.3177 2.6518 -22.1644 0.0000 35.0299 0.0000
# 6 0.0000 0.0000 0.0000 -32.9114 0.0000 9.2015
#
#
#
# Elastic Compliance Matrix: (Units=1/GPa)
#
#
# Indices 1 2 3 4 5 6 
#
# 1 0.014616 -0.004650 -0.006369 0.000000 -0.000624 0.000000
# 2 -0.004650 0.013806 0.000106 0.000000 -0.001949 0.000000
# 3 -0.006369 0.000106 0.014197 0.000000 0.007645 0.000000
# 4 0.000000 0.000000 0.000000 -0.007471 0.000000 -0.026722
# 5 -0.000624 -0.001949 0.007645 0.000000 0.033401 0.000000
# 6 0.000000 0.000000 0.000000 -0.026722 0.000000 0.013099
#
#
# Mechanical properties :
#
#
# Convention : Reuss Voigt Hill
#
# Bulk Modulus (GPa) = 48.08880 52.44700 50.26790
# Shear Modulus (GPa) = 45.28860 18.56198 31.92529
#
# Velocity S-wave (km/s) = 4.90340 3.13917 4.11690
# Velocity P-wave (km/s) = 7.58866 6.40179 7.02035
#
# Compressibility (1/GPa) = 0.02079486
#
# Stress axis : x y z
#
# Youngs Moduli (GPa) = 68.41965 72.43308 70.43601
#
# Poissons Ratio (x) = 0.33680 0.44858
# Poissons Ratio (y) = 0.31814 -0.00750
# Poissons Ratio (z) = 0.43574 -0.00771
#
# Static dielectric constant tensor:
#      x y z
#    x 1.685600 0.000000 0.038170 
#    y 0.000000 1.607810 0.000000 
#    z 0.038170 0.000000 1.680930 
# 
# From -- ./inp_files/65256.got.cif
#   From: 2010.05.17/outbox.cif.g08.bks.cpg/sg12_33_cif.got.tgz:65256.got - 2010.06.03 13:09:07.
