data_PCOD9221422
_publ_section_title
;
Structure prediction by ZEFSAII (Michael W. Deem and Ramdas Pophale) SiO2 
 PCOD9221422
Probable space group: C 2/M
;
_chemical_formula_sum "Si O2"
_cell_formula_units_Z 40
_cell_length_a 9.709484
_cell_length_b 15.597743
_cell_length_c 15.283392
_cell_angle_alpha 90.000000
_cell_angle_beta 64.842819
_cell_angle_gamma 90.000000
_cell_volume 2095.056883
_symmetry_space_group_name_H-M "C 2/M"
_symmetry_group_IT_number 12
_symmetry_cell_setting 'monoclinic'
loop_
_space_group_symop_operation_xyz
x,y,z
-x,y,-z
-x,-y,-z
x,-y,z
1/2+x,1/2+y,z
1/2-x,1/2+y,-z
1/2-x,1/2-y,-z
1/2+x,1/2-y,z
loop_
_atom_site_type_symbol
_atom_site_label
_atom_site_fract_x
_atom_site_fract_y
_atom_site_fract_z
Si Si1 0.921543 0.166609 0.820909
Si Si2 0.419438 0.400466 0.387028
Si Si3 0.462349 0.000000 0.908401
Si Si4 0.380050 0.500000 0.954910
Si Si5 0.607818 0.826062 0.800616
Si Si6 0.243653 0.899074 0.401069
O O1 0.763209 0.185949 0.813689
O O2 0.048156 0.144168 0.713109
O O3 0.989560 0.249923 0.849193
O O4 0.896735 0.084336 0.889392
O O5 0.384740 0.500000 0.379174
O O6 0.581495 0.398657 0.394076
O O7 0.293056 0.369334 0.490317
O O8 0.535625 0.915904 0.847951
O O9 0.500000 0.000000 0.000000
O O10 0.281948 0.000000 0.953685
O O11 0.500000 0.500000 0.000000
O O12 0.648734 0.840227 0.686921
O O13 0.291893 0.000000 0.389639
#
# Coordination Sequence:
#
# PCOD9221422 Si02
#       6
#     8   8   4   4   8   8
#     4  11  23  41  62  94 124 160 203 251 302 363
#     4   8  14  29  58  86 121 158 199 242 290 352
#     4  12  24  46  67  85 117 163 200 258 310 360
#     4  12  28  46  67  87 119 157 206 256 314 361
#     4  11  23  39  64  93 126 159 204 248 301 362
#     4   8  14  29  56  90 118 159 201 238 289 358
#
# _framework density 19.092561
#
# number of rings (size 3 to 8) (size 9 to 14) (size 15 to 20)
#    0.000    2.000    4.000    1.200    2.800    2.400 
#    0.000    0.000    0.000    0.000    0.000    4.200 
#    0.000    0.000    0.000    0.000    0.000    0.000 
#
# Total GULP energy -111531.454078 kJ/mol
# GULP energy per Si atom -5576.572704 kJ/mol
# Density = 1.904911 g / cm^3
# Si number density = 19.092561 Si / 1000 Ang^3
#
#
#
# Elastic Constant Matrix: (Units=GPa)
#
#
# Indices 1 2 3 4 5 6 
#
# 1 75.1937 33.1191 24.8451 0.0000 -9.2216 0.0000
# 2 33.1191 117.4761 32.4472 0.0000 -12.1166 0.0000
# 3 24.8451 32.4472 69.7420 0.0000 -11.6605 0.0000
# 4 0.0000 0.0000 0.0000 -10.8945 0.0000 -9.9037
# 5 -9.2216 -12.1166 -11.6605 0.0000 20.9850 0.0000
# 6 0.0000 0.0000 0.0000 -9.9037 0.0000 19.5042
#
#
#
# Elastic Compliance Matrix: (Units=1/GPa)
#
#
# Indices 1 2 3 4 5 6 
#
# 1 0.016371 -0.003237 -0.003788 0.000000 0.003220 0.000000
# 2 -0.003237 0.010637 -0.003315 0.000000 0.002878 0.000000
# 3 -0.003788 -0.003315 0.018335 0.000000 0.006610 0.000000
# 4 0.000000 0.000000 0.000000 -0.062801 0.000000 -0.031889
# 5 0.003220 0.002878 0.006610 0.000000 0.054403 0.000000
# 6 0.000000 0.000000 0.000000 -0.031889 0.000000 0.035079
#
#
# Mechanical properties :
#
#
# Convention : Reuss Voigt Hill
#
# Bulk Modulus (GPa) = 40.54354 49.24831 44.89593
# Shear Modulus (GPa) = 49.54216 17.38565 33.46390
#
# Velocity S-wave (km/s) = 5.09948 3.02089 4.19109
# Velocity P-wave (km/s) = 7.48026 6.16589 6.85465
#
# Compressibility (1/GPa) = 0.02466484
#
# Stress axis : x y z
#
# Youngs Moduli (GPa) = 61.08284 94.00894 54.54006
#
# Poissons Ratio (x) = 0.30432 0.20658
# Poissons Ratio (y) = 0.19773 0.18078
# Poissons Ratio (z) = 0.23136 0.31161
#
# Static dielectric constant tensor:
#      x y z
#    x 1.605480 0.000000 0.030490 
#    y 0.000000 1.769200 0.000000 
#    z 0.030490 0.000000 1.698750 
# 
# From -- ./inp_files/195327.got.cif
#   From: 2010.05.17/outbox.cif.g08.bks.cpg/sg12_98_cif.got.tgz:195327.got - 2010.06.03 13:09:07.
