data_PCOD9221136
_publ_section_title
;
Structure prediction by ZEFSAII (Michael W. Deem and Ramdas Pophale) SiO2 
 PCOD9221136
Probable space group: C 2/M
;
_chemical_formula_sum "Si O2"
_cell_formula_units_Z 56
_cell_length_a 15.050068
_cell_length_b 20.450220
_cell_length_c 14.094645
_cell_angle_alpha 90.000000
_cell_angle_beta 37.923340
_cell_angle_gamma 90.000000
_cell_volume 2666.169778
_symmetry_space_group_name_H-M "C 2/M"
_symmetry_group_IT_number 12
_symmetry_cell_setting 'monoclinic'
loop_
_space_group_symop_operation_xyz
x,y,z
-x,y,-z
-x,-y,-z
x,-y,z
1/2+x,1/2+y,z
1/2-x,1/2+y,-z
1/2-x,1/2-y,-z
1/2+x,1/2-y,z
loop_
_atom_site_type_symbol
_atom_site_label
_atom_site_fract_x
_atom_site_fract_y
_atom_site_fract_z
Si Si1 0.018213 0.425294 0.274419
Si Si2 0.616992 0.103770 0.981339
Si Si3 0.122321 0.811599 0.720758
Si Si4 0.169667 0.754401 0.967737
Si Si5 0.765709 0.333614 0.421420
Si Si6 0.830057 0.927970 0.656642
Si Si7 0.348242 0.841492 0.678957
O O1 0.969848 0.500000 0.332767
O O2 0.120417 0.399929 0.273334
O O3 0.893383 0.370215 0.370754
O O4 0.088563 0.422295 0.110405
O O5 0.615076 0.182400 0.987788
O O6 0.771706 0.081626 0.811336
O O7 0.500000 0.082289 0.000000
O O8 0.192113 0.739312 0.645351
O O9 0.128081 0.836813 0.607638
O O10 0.227742 0.852602 0.699830
O O11 0.968316 0.801017 0.899074
O O12 0.280680 0.782661 0.797616
O O13 0.250000 0.750000 0.000000
O O14 0.743046 0.373939 0.346039
O O15 0.000000 0.922571 0.500000
O O16 0.785014 0.000000 0.660954
O O17 0.500000 0.825244 0.500000
#
# Coordination Sequence:
#
# PCOD9221136 Si02
#       7
#     8   8   8   8   8   8   8
#     4  12  25  45  69 100 138 183 239 282 332 417
#     4  12  23  42  66 101 128 177 225 281 347 400
#     4  11  24  42  68 100 139 169 223 288 341 413
#     4  12  24  42  69 100 140 172 222 283 357 409
#     4  11  22  42  68  99 133 174 224 279 349 392
#     4  11  25  41  61  95 134 174 219 271 339 409
#     4  12  25  44  66 103 136 182 228 279 344 404
#
# _framework density 21.003913000000001
#
# number of rings (size 3 to 8) (size 9 to 14) (size 15 to 20)
#    0.000    0.429    5.714    3.000    4.000    2.000 
#    0.000    0.000    0.000    2.571    0.000    0.000 
#    0.000    0.000    0.000    0.000    0.000    0.000 
#
# Total GULP energy -156499.972842 kJ/mol
# GULP energy per Si atom -5589.284744 kJ/mol
# Density = 2.095611 g / cm^3
# Si number density = 21.003913 Si / 1000 Ang^3
#
#
#
# Elastic Constant Matrix: (Units=GPa)
#
#
# Indices 1 2 3 4 5 6 
#
# 1 78.8229 11.1970 27.8506 0.0002 10.3893 -0.0003
# 2 11.1970 43.3056 -0.9442 -0.0012 7.1964 0.0009
# 3 27.8506 -0.9442 146.6215 -0.0009 12.0907 0.0004
# 4 0.0002 -0.0012 -0.0009 11.0712 0.0002 -2.8634
# 5 10.3893 7.1964 12.0907 0.0002 33.3227 -0.0001
# 6 -0.0003 0.0009 0.0004 -2.8634 -0.0001 2.6948
#
#
#
# Elastic Compliance Matrix: (Units=1/GPa)
#
#
# Indices 1 2 3 4 5 6 
#
# 1 0.014427 -0.003309 -0.002525 0.000000 -0.002867 0.000003
# 2 -0.003309 0.024761 0.001179 0.000001 -0.004744 -0.000008
# 3 -0.002525 0.001179 0.007488 0.000000 -0.002184 -0.000001
# 4 0.000000 0.000001 0.000000 0.124554 -0.000001 0.132347
# 5 -0.002867 -0.004744 -0.002184 -0.000001 0.032720 0.000002
# 6 0.000003 -0.000008 -0.000001 0.132347 0.000002 0.511711
#
#
# Mechanical properties :
#
#
# Convention : Reuss Voigt Hill
#
# Bulk Modulus (GPa) = 26.76237 38.32854 32.54546
# Shear Modulus (GPa) = 6.78033 24.79417 15.78725
#
# Velocity S-wave (km/s) = 1.79865 3.43950 2.74457
# Velocity P-wave (km/s) = 4.13313 5.83622 5.05689
#
# Compressibility (1/GPa) = 0.03736590
#
# Stress axis : x y z
#
# Youngs Moduli (GPa) = 69.31522 40.38577 133.55327
#
# Poissons Ratio (x) = 0.13363 0.33725
# Poissons Ratio (y) = 0.22935 -0.15748
# Poissons Ratio (z) = 0.17504 -0.04762
#
# Static dielectric constant tensor:
#      x y z
#    x 1.781380 -0.000010 -0.004160 
#    y -0.000010 1.824930 0.000000 
#    z -0.004160 0.000000 1.798500 
# 
# From -- ./inp_files/217675.got.cif
#   From: 2010.05.17/outbox.cif.g08.bks.cpg/sg12_109_cif.got.tgz:217675.got - 2010.06.03 13:09:07.
