data_PCOD9221924
_publ_section_title
;
Structure prediction by ZEFSAII (Michael W. Deem and Ramdas Pophale) SiO2 
 PCOD9221924
Probable space group: C 2/M
;
_chemical_formula_sum "Si O2"
_cell_formula_units_Z 24
_cell_length_a 22.922945
_cell_length_b 7.603476
_cell_length_c 10.278393
_cell_angle_alpha 90.000000
_cell_angle_beta 51.148448
_cell_angle_gamma 90.000000
_cell_volume 1395.144456
_symmetry_space_group_name_H-M "C 2/M"
_symmetry_group_IT_number 12
_symmetry_cell_setting 'monoclinic'
loop_
_space_group_symop_operation_xyz
x,y,z
-x,y,-z
-x,-y,-z
x,-y,z
1/2+x,1/2+y,z
1/2-x,1/2+y,-z
1/2-x,1/2-y,-z
1/2+x,1/2-y,z
loop_
_atom_site_type_symbol
_atom_site_label
_atom_site_fract_x
_atom_site_fract_y
_atom_site_fract_z
Si Si1 0.286232 0.705870 0.088122
Si Si2 0.811704 0.793933 0.524089
Si Si3 0.096540 0.500000 0.004114
Si Si4 0.422420 0.000000 0.281177
O O1 0.305125 0.500000 0.068641
O O2 0.226727 0.750073 0.284749
O O3 0.357399 0.830150 0.013408
O O4 0.250000 0.750000 0.000000
O O5 0.750000 0.750000 0.500000
O O6 0.882375 0.670022 0.398369
O O7 0.829642 0.000000 0.492204
O O8 0.094733 0.500000 0.849485
O O9 0.011484 0.500000 0.172072
#
# Coordination Sequence:
#
# PCOD9221924 Si02
#       4
#     8   8   4   4
#     4  12  22  39  65  91 121 163 208 250 301 369
#     4  12  20  37  63  91 118 164 212 245 295 369
#     4  11  24  41  59  99 130 155 202 262 315 347
#     4  11  24  39  63  95 132 156 199 266 307 356
#
# _framework density 17.202521000000001
#
# number of rings (size 3 to 8) (size 9 to 14) (size 15 to 20)
#    0.000    0.333   10.000    0.000    0.000    1.333 
#    0.000    6.667    0.000    4.000    0.000    0.000 
#    0.000    0.000    0.000    0.000    0.000    0.000 
#
# Total GULP energy -67085.911560 kJ/mol
# GULP energy per Si atom -5590.492630 kJ/mol
# Density = 1.716337 g / cm^3
# Si number density = 17.202521 Si / 1000 Ang^3
#
#
#
# Elastic Constant Matrix: (Units=GPa)
#
#
# Indices 1 2 3 4 5 6 
#
# 1 117.4863 75.7079 91.1433 0.0000 -13.6067 0.0000
# 2 75.7079 229.1779 79.8157 0.0000 -27.8281 0.0000
# 3 91.1433 79.8157 155.9310 0.0000 -10.7322 0.0000
# 4 0.0000 0.0000 0.0000 32.6043 0.0000 -1.9843
# 5 -13.6067 -27.8281 -10.7322 0.0000 39.8009 0.0000
# 6 0.0000 0.0000 0.0000 -1.9843 0.0000 21.7200
#
#
#
# Elastic Compliance Matrix: (Units=1/GPa)
#
#
# Indices 1 2 3 4 5 6 
#
# 1 0.016859 -0.002388 -0.008508 0.000000 0.001800 0.000000
# 2 -0.002388 0.006034 -0.001487 0.000000 0.003002 0.000000
# 3 -0.008508 -0.001487 0.012100 0.000000 -0.000685 0.000000
# 4 0.000000 0.000000 0.000000 0.030842 0.000000 0.002818
# 5 0.001800 0.003002 -0.000685 0.000000 0.027655 0.000000
# 6 0.000000 0.000000 0.000000 0.002818 0.000000 0.046298
#
#
# Mechanical properties :
#
#
# Convention : Reuss Voigt Hill
#
# Bulk Modulus (GPa) = 97.76519 110.65878 104.21199
# Shear Modulus (GPa) = 29.76838 35.88693 32.82765
#
# Velocity S-wave (km/s) = 4.16440 4.57239 4.37315
# Velocity P-wave (km/s) = 8.94864 9.60949 9.28495
#
# Compressibility (1/GPa) = 0.01022859
#
# Stress axis : x y z
#
# Youngs Moduli (GPa) = 59.31446 165.71582 82.64378
#
# Poissons Ratio (x) = 0.39566 0.70317
# Poissons Ratio (y) = 0.14162 0.12286
# Poissons Ratio (z) = 0.50467 0.24636
#
# Static dielectric constant tensor:
#      x y z
#    x 1.553020 0.000000 0.011840 
#    y 0.000000 1.579860 0.000000 
#    z 0.011840 0.000000 1.567550 
# 
# From -- ./inp_files/55372.got.cif
#   From: 2010.05.17/outbox.cif.g08.bks.cpg/sg12_28_cif.got.tgz:55372.got - 2010.06.03 13:09:07.
