data_PCOD9221651
_publ_section_title
;
Structure prediction by ZEFSAII (Michael W. Deem and Ramdas Pophale) SiO2 
 PCOD9221651
Probable space group: C 2/M
;
_chemical_formula_sum "Si O2"
_cell_formula_units_Z 48
_cell_length_a 9.646785
_cell_length_b 26.664872
_cell_length_c 15.345689
_cell_angle_alpha 90.000000
_cell_angle_beta 145.752599
_cell_angle_gamma 90.000000
_cell_volume 2221.454649
_symmetry_space_group_name_H-M "C 2/M"
_symmetry_group_IT_number 12
_symmetry_cell_setting 'monoclinic'
loop_
_space_group_symop_operation_xyz
x,y,z
-x,y,-z
-x,-y,-z
x,-y,z
1/2+x,1/2+y,z
1/2-x,1/2+y,-z
1/2-x,1/2-y,-z
1/2+x,1/2-y,z
loop_
_atom_site_type_symbol
_atom_site_label
_atom_site_fract_x
_atom_site_fract_y
_atom_site_fract_z
Si Si1 0.669271 0.555658 0.717001
Si Si2 0.164033 0.807517 0.362437
Si Si3 0.337447 0.158182 0.839198
Si Si4 0.615540 0.057355 0.367884
Si Si5 0.611136 0.782091 0.852040
Si Si6 0.653758 0.843049 0.712364
O O1 0.710394 0.500000 0.772638
O O2 0.785284 0.600503 0.829967
O O3 0.375204 0.563766 0.554133
O O4 0.793431 0.559033 0.685353
O O5 0.409060 0.817578 0.543465
O O6 0.164852 0.843223 0.276666
O O7 0.929145 0.817269 0.300479
O O8 0.113089 0.752837 0.297345
O O9 0.489304 0.169403 0.832643
O O10 0.500000 0.181418 0.000000
O O11 0.429417 0.101866 0.297685
O O12 0.525807 0.000000 0.337512
O O13 0.740908 0.805497 0.834060
O O14 0.750000 0.750000 0.000000
#
# Coordination Sequence:
#
# PCOD9221651 Si02
#       6
#     8   8   8   8   8   8
#     4   9  18  35  62  94 122 156 208 261 312 371
#     4  11  25  40  59  94 130 162 211 257 320 366
#     4  12  23  40  64  90 124 165 212 260 310 376
#     4   9  17  35  64  93 120 159 206 257 316 374
#     4  12  25  43  63  89 122 174 212 255 310 376
#     4  11  23  42  63  93 128 164 205 264 312 379
#
# _framework density 21.607464
#
# number of rings (size 3 to 8) (size 9 to 14) (size 15 to 20)
#    0.000    1.333    5.000    2.500    0.000    2.333 
#    0.000    2.500    0.000    0.000    0.000    3.500 
#    0.000    0.000    0.000    0.000    0.000    0.000 
#
# Total GULP energy -133881.331477 kJ/mol
# GULP energy per Si atom -5578.388812 kJ/mol
# Density = 2.155828 g / cm^3
# Si number density = 21.607464 Si / 1000 Ang^3
#
#
#
# Elastic Constant Matrix: (Units=GPa)
#
#
# Indices 1 2 3 4 5 6 
#
# 1 59.3635 5.5388 8.6590 0.0000 -10.6644 0.0000
# 2 5.5388 117.0876 21.9545 0.0000 -4.0596 0.0000
# 3 8.6590 21.9545 61.9520 0.0000 -4.3197 0.0000
# 4 0.0000 0.0000 0.0000 -73.4622 0.0000 36.1138
# 5 -10.6644 -4.0596 -4.3197 0.0000 17.5854 0.0000
# 6 0.0000 0.0000 0.0000 36.1138 0.0000 11.8589
#
#
#
# Elastic Compliance Matrix: (Units=1/GPa)
#
#
# Indices 1 2 3 4 5 6 
#
# 1 0.019125 -0.000175 -0.001837 0.000000 0.011106 0.000000
# 2 -0.000175 0.009181 -0.003143 0.000000 0.001241 0.000000
# 3 -0.001837 -0.003143 0.017687 0.000000 0.002505 0.000000
# 4 0.000000 0.000000 0.000000 -0.005451 0.000000 0.016601
# 5 0.011106 0.001241 0.002505 0.000000 0.064503 0.000000
# 6 0.000000 0.000000 0.000000 0.016601 0.000000 0.033770
#
#
# Mechanical properties :
#
#
# Convention : Reuss Voigt Hill
#
# Bulk Modulus (GPa) = 28.02390 34.52308 31.27349
# Shear Modulus (GPa) = 31.05265 4.67982 17.86624
#
# Velocity S-wave (km/s) = 3.79506 1.47327 2.87863
# Velocity P-wave (km/s) = 5.67459 4.34812 5.05505
#
# Compressibility (1/GPa) = 0.03568383
#
# Stress axis : x y z
#
# Youngs Moduli (GPa) = 52.28798 108.91840 56.54009
#
# Poissons Ratio (x) = 0.01909 0.10384
# Poissons Ratio (y) = 0.00916 0.17768
# Poissons Ratio (z) = 0.09603 0.34228
#
# Static dielectric constant tensor:
#      x y z
#    x 1.851370 0.000000 -0.007000 
#    y 0.000000 1.795820 0.000000 
#    z -0.007000 0.000000 1.765590 
# 
# From -- ./inp_files/200218.got.cif
#   From: 2010.05.17/outbox.cif.g08.bks.cpg/sg12_101_cif.got.tgz:200218.got - 2010.06.03 13:09:07.
