data_PCOD9221852
_publ_section_title
;
Structure prediction by ZEFSAII (Michael W. Deem and Ramdas Pophale) SiO2 
 PCOD9221852
Probable space group: C 2/M
;
_chemical_formula_sum "Si O2"
_cell_formula_units_Z 32
_cell_length_a 18.728078
_cell_length_b 13.632554
_cell_length_c 10.065487
_cell_angle_alpha 90.000000
_cell_angle_beta 148.295409
_cell_angle_gamma 90.000000
_cell_volume 1350.550596
_symmetry_space_group_name_H-M "C 2/M"
_symmetry_group_IT_number 12
_symmetry_cell_setting 'monoclinic'
loop_
_space_group_symop_operation_xyz
x,y,z
-x,y,-z
-x,-y,-z
x,-y,z
1/2+x,1/2+y,z
1/2-x,1/2+y,-z
1/2-x,1/2-y,-z
1/2+x,1/2-y,z
loop_
_atom_site_type_symbol
_atom_site_label
_atom_site_fract_x
_atom_site_fract_y
_atom_site_fract_z
Si Si1 0.752970 0.000000 0.595033
Si Si2 0.652559 0.171803 0.278101
Si Si3 0.477797 0.500000 0.161696
Si Si4 0.922810 0.185709 0.243794
Si Si5 0.833753 0.385585 0.996922
O O1 0.658652 0.089096 0.400746
O O2 0.891541 0.000000 0.726709
O O3 0.826984 0.000000 0.854233
O O4 0.750000 0.250000 0.500000
O O5 0.705099 0.127770 0.220397
O O6 0.500000 0.205374 0.000000
O O7 0.485861 0.598704 0.258743
O O8 0.782682 0.138738 0.078347
O O9 0.000000 0.207892 0.500000
O O10 0.922349 0.287670 0.163810
O O11 0.875657 0.500000 0.081027
#
# Coordination Sequence:
#
# PCOD9221852 Si02
#       5
#     4   8   4   8   8
#     4  11  25  44  75 105 149 194 244 312 378 444
#     4  12  28  48  74 108 150 196 247 311 377 451
#     4  11  23  44  77 115 146 198 258 308 379 448
#     4  11  24  43  73 104 144 197 248 306 366 453
#     4  11  25  46  69 103 146 193 247 307 377 438
#
# _framework density 23.694040000000001
#
# number of rings (size 3 to 8) (size 9 to 14) (size 15 to 20)
#    0.000    0.750    2.500    3.750   10.500    0.500 
#    0.000    0.000    0.000    0.000    0.000    0.000 
#    0.000    0.000    0.000    0.000    0.000    0.000 
#
# Total GULP energy -89284.582908 kJ/mol
# GULP energy per Si atom -5580.286432 kJ/mol
# Density = 2.364011 g / cm^3
# Si number density = 23.694040 Si / 1000 Ang^3
#
#
#
# Elastic Constant Matrix: (Units=GPa)
#
#
# Indices 1 2 3 4 5 6 
#
# 1 90.2970 36.9925 20.7967 0.0000 -4.3802 0.0000
# 2 36.9925 218.6065 63.4560 0.0000 -0.0490 0.0000
# 3 20.7967 63.4560 147.3095 0.0000 -8.5006 0.0000
# 4 0.0000 0.0000 0.0000 28.6478 0.0000 -13.0518
# 5 -4.3802 -0.0490 -8.5006 0.0000 31.5366 0.0000
# 6 0.0000 0.0000 0.0000 -13.0518 0.0000 36.2320
#
#
#
# Elastic Compliance Matrix: (Units=1/GPa)
#
#
# Indices 1 2 3 4 5 6 
#
# 1 0.012076 -0.001797 -0.000847 0.000000 0.001446 0.000000
# 2 -0.001797 0.005507 -0.002166 0.000000 -0.000825 0.000000
# 3 -0.000847 -0.002166 0.007958 0.000000 0.002024 0.000000
# 4 0.000000 0.000000 0.000000 0.041760 0.000000 0.015043
# 5 0.001446 -0.000825 0.002024 0.000000 0.032454 0.000000
# 6 0.000000 0.000000 0.000000 0.015043 0.000000 0.033019
#
#
# Mechanical properties :
#
#
# Convention : Reuss Voigt Hill
#
# Bulk Modulus (GPa) = 62.81434 77.63371 70.22402
# Shear Modulus (GPa) = 33.85177 41.61446 37.73312
#
# Velocity S-wave (km/s) = 3.78392 4.19540 3.99496
# Velocity P-wave (km/s) = 6.75714 7.50365 7.14016
#
# Compressibility (1/GPa) = 0.01591993
#
# Stress axis : x y z
#
# Youngs Moduli (GPa) = 82.80791 181.58168 125.66054
#
# Poissons Ratio (x) = 0.32635 0.10646
# Poissons Ratio (y) = 0.14883 0.27220
# Poissons Ratio (z) = 0.07016 0.39334
#
# Static dielectric constant tensor:
#      x y z
#    x 1.656720 0.000000 -0.173000 
#    y 0.000000 1.127600 0.000000 
#    z -0.173000 0.000000 1.684020 
# 
# From -- ./inp_files/174983.got.cif
#   From: 2010.05.17/outbox.cif.g08.bks.cpg/sg12_88_cif.got.tgz:174983.got - 2010.06.03 13:09:07.
