data_PCOD9221732
_publ_section_title
;
Structure prediction by ZEFSAII (Michael W. Deem and Ramdas Pophale) SiO2 
 PCOD9221732
Probable space group: C 2/M
;
_chemical_formula_sum "Si O2"
_cell_formula_units_Z 58
_cell_length_a 18.498998
_cell_length_b 29.008504
_cell_length_c 11.668242
_cell_angle_alpha 90.000000
_cell_angle_beta 26.574482
_cell_angle_gamma 90.000000
_cell_volume 2801.153465
_symmetry_space_group_name_H-M "C 2/M"
_symmetry_group_IT_number 12
_symmetry_cell_setting 'monoclinic'
loop_
_space_group_symop_operation_xyz
x,y,z
-x,y,-z
-x,-y,-z
x,-y,z
1/2+x,1/2+y,z
1/2-x,1/2+y,-z
1/2-x,1/2-y,-z
1/2+x,1/2-y,z
loop_
_atom_site_type_symbol
_atom_site_label
_atom_site_fract_x
_atom_site_fract_y
_atom_site_fract_z
Si Si1 0.517935 0.816141 0.265544
Si Si2 0.754927 0.133280 0.075713
Si Si3 0.812952 0.137567 0.259134
Si Si4 0.839863 0.675633 0.179196
Si Si5 0.504502 0.287199 0.355473
Si Si6 0.000000 0.500000 0.000000
Si Si7 0.754220 0.419645 0.424161
Si Si8 0.553874 0.553809 0.293596
O O1 0.585577 0.847221 0.272186
O O2 0.328198 0.825300 0.514062
O O3 0.553915 0.763238 0.243542
O O4 0.621642 0.830960 0.008714
O O5 0.778586 0.124645 0.176339
O O6 0.800115 0.086770 0.946036
O O7 0.882843 0.172883 0.855389
O O8 0.787599 0.096456 0.387196
O O9 0.000000 0.153332 0.000000
O O10 0.677585 0.703620 0.426387
O O11 0.815919 0.626830 0.274684
O O12 0.000000 0.699683 0.000000
O O13 0.500000 0.288917 0.500000
O O14 0.886059 0.459441 0.221920
O O15 0.593536 0.435201 0.583498
O O16 0.500000 0.564024 0.500000
O O17 0.594482 0.500000 0.229656
#
# Coordination Sequence:
#
# PCOD9221732 Si02
#       8
#     8   8   8   8   8   2   8   8
#     4  12  27  44  72 103 140 191 251 295 352 434
#     4  12  24  46  73 101 145 191 232 302 358 430
#     4  12  25  46  71 101 148 186 232 286 371 428
#     4  12  24  44  68 101 147 179 239 306 352 412
#     4  12  25  44  70 103 138 196 248 297 357 427
#     4  12  24  44  84 100 142 178 258 286 348 430
#     4  12  23  46  70 110 137 190 233 297 358 421
#     4  11  23  42  73 107 135 180 236 289 358 421
#
# _framework density 20.705756000000001
#
# number of rings (size 3 to 8) (size 9 to 14) (size 15 to 20)
#    0.000    0.138    6.897    2.897    1.931    1.103 
#    1.241    1.034    0.000    0.828    0.000    0.000 
#    0.000    0.000    0.000    0.000    0.000    0.000 
#
# Total GULP energy -161924.428193 kJ/mol
# GULP energy per Si atom -5583.600972 kJ/mol
# Density = 2.065863 g / cm^3
# Si number density = 20.705756 Si / 1000 Ang^3
#
#
#
# Elastic Constant Matrix: (Units=GPa)
#
#
# Indices 1 2 3 4 5 6 
#
# 1 121.3668 43.5451 37.1297 -0.0469 16.7111 -0.0530
# 2 43.5451 78.6218 34.4540 0.0546 24.2482 0.0624
# 3 37.1297 34.4540 97.2973 -0.0234 -0.5874 -0.0248
# 4 -0.0469 0.0546 -0.0234 205.0271 -0.0129 201.0389
# 5 16.7111 24.2482 -0.5874 -0.0129 50.6795 -0.0159
# 6 -0.0530 0.0624 -0.0248 201.0389 -0.0159 235.0773
#
#
#
# Elastic Compliance Matrix: (Units=1/GPa)
#
#
# Indices 1 2 3 4 5 6 
#
# 1 0.010811 -0.004399 -0.002577 0.000001 -0.001490 0.000003
# 2 -0.004399 0.020099 -0.005488 -0.000001 -0.008230 -0.000006
# 3 -0.002577 -0.005488 0.013226 0.000001 0.003629 0.000002
# 4 0.000001 -0.000001 0.000001 0.030213 0.000000 -0.025839
# 5 -0.001490 -0.008230 0.003629 0.000000 0.024203 0.000004
# 6 0.000003 -0.000006 0.000002 -0.025839 0.000004 0.026351
#
#
# Mechanical properties :
#
#
# Convention : Reuss Voigt Hill
#
# Bulk Modulus (GPa) = 52.06099 58.61592 55.33846
# Shear Modulus (GPa) = 32.00307 110.30059 71.15183
#
# Velocity S-wave (km/s) = 3.93569 7.30658 5.86838
# Velocity P-wave (km/s) = 6.77132 9.97757 8.52651
#
# Compressibility (1/GPa) = 0.01920824
#
# Stress axis : x y z
#
# Youngs Moduli (GPa) = 92.49529 49.75433 75.60591
#
# Poissons Ratio (x) = 0.21887 0.19483
# Poissons Ratio (y) = 0.40690 0.41493
# Poissons Ratio (z) = 0.23836 0.27306
#
# Static dielectric constant tensor:
#      x y z
#    x 1.728980 0.000000 -0.056700 
#    y 0.000000 1.684650 0.000000 
#    z -0.056700 0.000000 1.730540 
# 
# From -- ./inp_files/160908.got.cif
#   From: 2010.05.17/outbox.cif.g08.bks.cpg/sg12_81_cif.got.tgz:160908.got - 2010.06.03 13:09:07.
