data_PCOD9221653
_publ_section_title
;
Structure prediction by ZEFSAII (Michael W. Deem and Ramdas Pophale) SiO2 
 PCOD9221653
Probable space group: C 2/M
;
_chemical_formula_sum "Si O2"
_cell_formula_units_Z 52
_cell_length_a 21.860779
_cell_length_b 32.414621
_cell_length_c 5.172231
_cell_angle_alpha 90.000000
_cell_angle_beta 128.060275
_cell_angle_gamma 90.000000
_cell_volume 2885.753962
_symmetry_space_group_name_H-M "C 2/M"
_symmetry_group_IT_number 12
_symmetry_cell_setting 'monoclinic'
loop_
_space_group_symop_operation_xyz
x,y,z
-x,y,-z
-x,-y,-z
x,-y,z
1/2+x,1/2+y,z
1/2-x,1/2+y,-z
1/2-x,1/2-y,-z
1/2+x,1/2-y,z
loop_
_atom_site_type_symbol
_atom_site_label
_atom_site_fract_x
_atom_site_fract_y
_atom_site_fract_z
Si Si1 0.721955 0.343140 0.803615
Si Si2 0.500000 0.158942 0.500000
Si Si3 0.091767 0.451418 0.303059
Si Si4 0.134838 0.402329 0.928936
Si Si5 0.423297 0.773546 0.646776
Si Si6 0.055477 0.818420 0.397410
Si Si7 0.731806 0.205195 0.565818
O O1 0.629407 0.349160 0.600550
O O2 0.729827 0.325066 0.536539
O O3 0.786541 0.379326 0.962293
O O4 0.746988 0.309908 0.090302
O O5 0.436259 0.129536 0.201175
O O6 0.554496 0.190275 0.486832
O O7 0.109369 0.500000 0.354769
O O8 0.107740 0.430781 0.620693
O O9 0.140768 0.428607 0.206560
O O10 0.000000 0.447042 0.000000
O O11 0.405095 0.727983 0.490182
O O12 0.360669 0.792826 0.673037
O O13 0.500000 0.764285 0.000000
O O14 0.000000 0.821731 0.500000
O O15 0.000000 0.823420 0.000000
O O16 0.750000 0.250000 0.500000
#
# Coordination Sequence:
#
# PCOD9221653 Si02
#       7
#     8   4   8   8   8   8   8
#     4  12  25  40  59  84 115 152 201 263 302 347
#     4  12  22  36  53  84 120 158 206 254 285 324
#     4  11  23  42  64  89 123 161 192 226 288 369
#     4  12  24  38  62  90 122 155 198 246 292 350
#     4  11  24  35  53  74 112 159 210 253 293 340
#     4  11  24  41  58  78 108 155 208 256 301 353
#     4  12  24  37  56  77 114 155 204 255 305 346
#
# _framework density 18.019553999999999
#
# number of rings (size 3 to 8) (size 9 to 14) (size 15 to 20)
#    0.000    0.462    5.385    3.692    4.308    1.231 
#    0.000    0.000    0.000    0.000    0.000    0.000 
#    0.000   12.308    0.000    0.000    0.000    0.000 
#
# Total GULP energy -144990.633986 kJ/mol
# GULP energy per Si atom -5576.562846 kJ/mol
# Density = 1.797854 g / cm^3
# Si number density = 18.019554 Si / 1000 Ang^3
#
#
#
# Elastic Constant Matrix: (Units=GPa)
#
#
# Indices 1 2 3 4 5 6 
#
# 1 107.6742 18.0249 21.8108 0.0000 0.6409 0.0000
# 2 18.0249 65.0597 16.6605 0.0000 3.4914 0.0000
# 3 21.8108 16.6605 49.9354 0.0000 5.0936 0.0000
# 4 0.0000 0.0000 0.0000 -2.7328 0.0000 9.7421
# 5 0.6409 3.4914 5.0936 0.0000 33.1446 0.0000
# 6 0.0000 0.0000 0.0000 9.7421 0.0000 2.7713
#
#
#
# Elastic Compliance Matrix: (Units=1/GPa)
#
#
# Indices 1 2 3 4 5 6 
#
# 1 0.010406 -0.001898 -0.003974 0.000000 0.000609 0.000000
# 2 -0.001898 0.017180 -0.004797 0.000000 -0.001036 0.000000
# 3 -0.003974 -0.004797 0.023674 0.000000 -0.003056 0.000000
# 4 0.000000 0.000000 0.000000 -0.027042 0.000000 0.095062
# 5 0.000609 -0.001036 -0.003056 0.000000 0.030738 0.000000
# 6 0.000000 0.000000 0.000000 0.095062 0.000000 0.026666
#
#
# Mechanical properties :
#
#
# Convention : Reuss Voigt Hill
#
# Bulk Modulus (GPa) = 33.42073 37.29575 35.35824
# Shear Modulus (GPa) = 44.27276 17.71482 30.99379
#
# Velocity S-wave (km/s) = 4.96212 3.13883 4.15180
# Velocity P-wave (km/s) = 7.17059 5.82053 6.53054
#
# Compressibility (1/GPa) = 0.02992154
#
# Stress axis : x y z
#
# Youngs Moduli (GPa) = 96.09444 58.20568 42.24034
#
# Poissons Ratio (x) = 0.11048 0.16787
# Poissons Ratio (y) = 0.18240 0.20264
# Poissons Ratio (z) = 0.38190 0.27923
#
# Static dielectric constant tensor:
#      x y z
#    x 1.579660 0.000000 -0.003430 
#    y 0.000000 1.704700 0.000000 
#    z -0.003430 0.000000 1.649060 
# 
# From -- ./inp_files/22820.got.cif
#   From: 2010.05.17/outbox.cif.g08.bks.cpg/sg12_12_cif.got.tgz:22820.got - 2010.06.03 13:09:07.
