data_PCOD9221955
_publ_section_title
;
Structure prediction by ZEFSAII (Michael W. Deem and Ramdas Pophale) SiO2 
 PCOD9221955
Probable space group: C 2/M
;
_chemical_formula_sum "Si O2"
_cell_formula_units_Z 26
_cell_length_a 10.556614
_cell_length_b 7.785747
_cell_length_c 20.508608
_cell_angle_alpha 90.000000
_cell_angle_beta 139.656009
_cell_angle_gamma 90.000000
_cell_volume 1091.232123
_symmetry_space_group_name_H-M "C 2/M"
_symmetry_group_IT_number 12
_symmetry_cell_setting 'monoclinic'
loop_
_space_group_symop_operation_xyz
x,y,z
-x,y,-z
-x,-y,-z
x,-y,z
1/2+x,1/2+y,z
1/2-x,1/2+y,-z
1/2-x,1/2-y,-z
1/2+x,1/2-y,z
loop_
_atom_site_type_symbol
_atom_site_label
_atom_site_fract_x
_atom_site_fract_y
_atom_site_fract_z
Si Si1 0.719315 0.808219 0.401059
Si Si2 0.705648 0.194137 0.709483
Si Si3 0.500000 0.000000 0.500000
Si Si4 0.031870 0.294540 0.937189
O O1 0.497236 0.768191 0.334524
O O2 0.733634 0.806044 0.327961
O O3 0.860616 0.655469 0.477369
O O4 0.775635 0.000000 0.444437
O O5 0.875523 0.203337 0.829376
O O6 0.685928 0.000000 0.671637
O O7 0.001396 0.500000 0.919952
O O8 0.250000 0.250000 0.000000
O O9 0.000000 0.245431 0.000000
#
# Coordination Sequence:
#
# PCOD9221955 Si02
#       4
#     8   8   2   8
#     4  11  26  46  70 102 135 182 224 283 343 404
#     4  11  24  45  69  99 139 180 225 278 343 401
#     4  12  26  48  72 100 136 176 232 286 342 410
#     4  11  24  40  65 100 136 179 226 276 329 400
#
# _framework density 23.826277000000001
#
# number of rings (size 3 to 8) (size 9 to 14) (size 15 to 20)
#    0.000    0.923    1.538    4.154    4.308    8.615 
#    0.000    0.000    0.000    0.000    0.000    0.000 
#    0.000    0.000    0.000    0.000    0.000    0.000 
#
# Total GULP energy -72678.233606 kJ/mol
# GULP energy per Si atom -5590.633354 kJ/mol
# Density = 2.377205 g / cm^3
# Si number density = 23.826277 Si / 1000 Ang^3
#
#
#
# Elastic Constant Matrix: (Units=GPa)
#
#
# Indices 1 2 3 4 5 6 
#
# 1 219.3295 56.8997 72.3704 0.0000 20.4887 0.0000
# 2 56.8997 148.6322 52.7509 0.0000 2.1567 0.0000
# 3 72.3704 52.7509 118.4333 0.0000 17.6073 0.0000
# 4 0.0000 0.0000 0.0000 38.5994 0.0000 -1.9148
# 5 20.4887 2.1567 17.6073 0.0000 54.0421 0.0000
# 6 0.0000 0.0000 0.0000 -1.9148 0.0000 39.6392
#
#
#
# Elastic Compliance Matrix: (Units=1/GPa)
#
#
# Indices 1 2 3 4 5 6 
#
# 1 0.005954 -0.001231 -0.002902 0.000000 -0.001263 0.000000
# 2 -0.001231 0.008286 -0.003109 0.000000 0.001149 0.000000
# 3 -0.002902 -0.003109 0.012001 0.000000 -0.002686 0.000000
# 4 0.000000 0.000000 0.000000 0.025969 0.000000 0.001254
# 5 -0.001263 0.001149 -0.002686 0.000000 0.019812 0.000000
# 6 0.000000 0.000000 0.000000 0.001254 0.000000 0.025288
#
#
# Mechanical properties :
#
#
# Convention : Reuss Voigt Hill
#
# Bulk Modulus (GPa) = 85.06109 94.49299 89.77704
# Shear Modulus (GPa) = 43.20941 46.74776 44.97858
#
# Velocity S-wave (km/s) = 4.26316 4.43428 4.34956
# Velocity P-wave (km/s) = 7.74666 8.12172 7.93641
#
# Compressibility (1/GPa) = 0.01175626
#
# Stress axis : x y z
#
# Youngs Moduli (GPa) = 167.94386 120.68383 83.32413
#
# Poissons Ratio (x) = 0.14857 0.24185
# Poissons Ratio (y) = 0.20674 0.25908
# Poissons Ratio (z) = 0.48745 0.37524
#
# Static dielectric constant tensor:
#      x y z
#    x 1.881740 0.000000 0.012350 
#    y 0.000000 1.905230 0.000000 
#    z 0.012350 0.000000 1.689970 
# 
# From -- ./inp_files/201637.got.cif
#   From: 2010.05.17/outbox.cif.g08.bks.cpg/sg12_101_cif.got.tgz:201637.got - 2010.06.03 13:09:07.
