data_PCOD9221201
_publ_section_title
;
Structure prediction by ZEFSAII (Michael W. Deem and Ramdas Pophale) SiO2 
 PCOD9221201
Probable space group: C 2/M
;
_chemical_formula_sum "Si O2"
_cell_formula_units_Z 36
_cell_length_a 8.211838
_cell_length_b 18.764005
_cell_length_c 9.505450
_cell_angle_alpha 90.000000
_cell_angle_beta 85.065036
_cell_angle_gamma 90.000000
_cell_volume 1459.236445
_symmetry_space_group_name_H-M "C 2/M"
_symmetry_group_IT_number 12
_symmetry_cell_setting 'monoclinic'
loop_
_space_group_symop_operation_xyz
x,y,z
-x,y,-z
-x,-y,-z
x,-y,z
1/2+x,1/2+y,z
1/2-x,1/2+y,-z
1/2-x,1/2-y,-z
1/2+x,1/2-y,z
loop_
_atom_site_type_symbol
_atom_site_label
_atom_site_fract_x
_atom_site_fract_y
_atom_site_fract_z
Si Si1 0.702059 0.500000 0.928035
Si Si2 0.000000 0.123186 0.500000
Si Si3 0.984169 0.656915 0.337458
Si Si4 0.547244 0.000000 0.760961
Si Si5 0.909300 0.000000 0.715896
Si Si6 0.500000 0.367308 0.000000
Si Si7 0.333751 0.708119 0.266576
O O1 0.576551 0.500000 0.797220
O O2 0.648354 0.424111 0.998069
O O3 0.890464 0.500000 0.873699
O O4 0.913435 0.069102 0.614954
O O5 0.886999 0.171758 0.410004
O O6 0.151967 0.681526 0.251093
O O7 0.000000 0.674518 0.500000
O O8 0.966849 0.573039 0.323390
O O9 0.845015 0.706993 0.282282
O O10 0.732237 0.000000 0.802900
O O11 0.543818 0.319761 0.862748
#
# Coordination Sequence:
#
# PCOD9221201 Si02
#       7
#     4   4   8   4   4   4   8
#     4  11  23  48  74 105 155 206 239 306 381 450
#     4  11  22  44  70 113 144 202 244 309 372 442
#     4  12  26  45  73 112 148 191 244 310 376 442
#     4  12  25  46  73 118 148 194 249 312 375 449
#     4  11  23  40  78 109 152 192 256 307 369 452
#     4  11  24  48  76  97 150 212 238 301 388 438
#     4  12  26  45  76 102 151 195 248 306 376 433
#
# _framework density 24.670437
#
# number of rings (size 3 to 8) (size 9 to 14) (size 15 to 20)
#    0.000    0.444    5.556    2.333    3.111    3.556 
#    0.000    2.222    0.000    0.000    0.000    0.000 
#    0.000    0.000    0.000    0.000    0.000    0.000 
#
# Total GULP energy -100741.814405 kJ/mol
# GULP energy per Si atom -5596.767467 kJ/mol
# Density = 2.461429 g / cm^3
# Si number density = 24.670437 Si / 1000 Ang^3
#
#
#
# Elastic Constant Matrix: (Units=GPa)
#
#
# Indices 1 2 3 4 5 6 
#
# 1 114.6549 27.0275 29.2130 0.0000 -20.0652 0.0000
# 2 27.0275 199.9825 34.8471 0.0000 2.2759 0.0000
# 3 29.2130 34.8471 90.7866 0.0000 -12.8380 0.0000
# 4 0.0000 0.0000 0.0000 27.5112 0.0000 27.4989
# 5 -20.0652 2.2759 -12.8380 0.0000 34.6804 0.0000
# 6 0.0000 0.0000 0.0000 27.4989 0.0000 34.1800
#
#
#
# Elastic Compliance Matrix: (Units=1/GPa)
#
#
# Indices 1 2 3 4 5 6 
#
# 1 0.010470 -0.001092 -0.002198 0.000000 0.005316 0.000000
# 2 -0.001092 0.005519 -0.002013 0.000000 -0.001739 0.000000
# 3 -0.002198 -0.002013 0.013015 0.000000 0.003678 0.000000
# 4 0.000000 0.000000 0.000000 0.185614 0.000000 -0.149332
# 5 0.005316 -0.001739 0.003678 0.000000 0.033386 0.000000
# 6 0.000000 0.000000 0.000000 -0.149332 0.000000 0.149399
#
#
# Mechanical properties :
#
#
# Convention : Reuss Voigt Hill
#
# Bulk Modulus (GPa) = 54.35693 65.28879 59.82286
# Shear Modulus (GPa) = 12.07319 40.23008 26.15164
#
# Velocity S-wave (km/s) = 2.21459 4.04257 3.25936
# Velocity P-wave (km/s) = 5.34979 6.95066 6.20210
#
# Compressibility (1/GPa) = 0.01839692
#
# Stress axis : x y z
#
# Youngs Moduli (GPa) = 95.51467 181.20599 76.83598
#
# Poissons Ratio (x) = 0.19796 0.16888
# Poissons Ratio (y) = 0.10435 0.15464
# Poissons Ratio (z) = 0.20993 0.36470
#
# Static dielectric constant tensor:
#      x y z
#    x 1.978740 0.000000 -0.007690 
#    y 0.000000 1.911560 0.000000 
#    z -0.007690 0.000000 2.053030 
# 
# From -- ./inp_files/118846.got.cif
#   From: 2010.05.17/outbox.cif.g08.bks.cpg/sg12_60_cif.got.tgz:118846.got - 2010.06.03 13:09:07.
