data_PCOD9221356
_publ_section_title
;
Structure prediction by ZEFSAII (Michael W. Deem and Ramdas Pophale) SiO2 
 PCOD9221356
Probable space group: C 2/M
;
_chemical_formula_sum "Si O2"
_cell_formula_units_Z 56
_cell_length_a 23.402686
_cell_length_b 18.228314
_cell_length_c 22.134153
_cell_angle_alpha 90.000000
_cell_angle_beta 18.948779
_cell_angle_gamma 90.000000
_cell_volume 3066.110741
_symmetry_space_group_name_H-M "C 2/M"
_symmetry_group_IT_number 12
_symmetry_cell_setting 'monoclinic'
loop_
_space_group_symop_operation_xyz
x,y,z
-x,y,-z
-x,-y,-z
x,-y,z
1/2+x,1/2+y,z
1/2-x,1/2+y,-z
1/2-x,1/2-y,-z
1/2+x,1/2-y,z
loop_
_atom_site_type_symbol
_atom_site_label
_atom_site_fract_x
_atom_site_fract_y
_atom_site_fract_z
Si Si1 0.204026 0.163468 0.550532
Si Si2 0.499985 0.202626 0.927377
Si Si3 0.787757 0.914729 0.212247
Si Si4 0.298926 0.815925 0.588760
Si Si5 0.296007 0.336527 0.958553
Si Si6 0.798935 0.684060 0.813374
Si Si7 0.499953 0.087456 0.825661
O O1 0.250000 0.250000 0.500000
O O2 0.238475 0.147516 0.586602
O O3 0.332167 0.117754 0.379573
O O4 0.000019 0.152426 0.739824
O O5 0.668404 0.249869 0.736870
O O6 0.499952 0.126774 0.890882
O O7 0.500000 0.196476 0.000000
O O8 0.331587 0.249888 0.073702
O O9 0.715615 0.874106 0.343072
O O10 0.715595 0.874131 0.225717
O O11 0.744133 0.000000 0.255882
O O12 0.000000 0.906430 0.000000
O O13 0.500004 0.790521 0.380976
O O14 0.250000 0.250000 0.000000
O O15 0.261554 0.352484 0.063525
O O16 0.167925 0.382257 0.043814
O O17 0.499970 0.000000 0.829123
#
# Coordination Sequence:
#
# PCOD9221356 Si02
#       7
#     8   8   8   8   8   8   8
#     4  12  21  40  71  99 128 170 217 270 327 398
#     4  12  24  43  68  96 127 169 231 277 325 379
#     4  11  23  39  57  88 137 174 210 266 328 389
#     4  12  21  37  66  96 127 170 220 265 320 396
#     4  12  21  40  71  99 128 170 217 270 327 398
#     4  12  21  37  66  96 127 170 220 265 320 396
#     4  12  28  45  66 101 138 172 223 283 341 389
#
# _framework density 18.264178999999999
#
# number of rings (size 3 to 8) (size 9 to 14) (size 15 to 20)
#    0.000    0.143   10.000    0.429    0.000    3.143 
#    0.000    0.000    0.000    0.000    0.000    4.000 
#    0.000    0.000    0.000    0.000    0.000    0.000 
#
# Total GULP energy -156603.711640 kJ/mol
# GULP energy per Si atom -5592.989701 kJ/mol
# Density = 1.822261 g / cm^3
# Si number density = 18.264179 Si / 1000 Ang^3
#
#
#
# Elastic Constant Matrix: (Units=GPa)
#
#
# Indices 1 2 3 4 5 6 
#
# 1 106.9250 33.6852 40.6851 0.0055 5.8373 -0.0044
# 2 33.6852 119.1281 48.1770 -0.0041 -4.1853 -0.0002
# 3 40.6851 48.1770 166.2234 0.0036 -22.9518 -0.0012
# 4 0.0055 -0.0041 0.0036 17.1617 -0.0012 2.1946
# 5 5.8373 -4.1853 -22.9518 -0.0012 31.2570 0.0051
# 6 -0.0044 -0.0002 -0.0012 2.1946 0.0051 24.7965
#
#
#
# Elastic Compliance Matrix: (Units=1/GPa)
#
#
# Indices 1 2 3 4 5 6 
#
# 1 0.011346 -0.002258 -0.002734 -0.000004 -0.004429 0.000003
# 2 -0.002258 0.009978 -0.002333 0.000004 0.000045 -0.000001
# 3 -0.002734 -0.002333 0.008222 -0.000001 0.006236 -0.000001
# 4 -0.000004 0.000004 -0.000001 0.058936 0.000004 -0.005216
# 5 -0.004429 0.000045 0.006236 0.000004 0.037405 -0.000009
# 6 0.000003 -0.000001 -0.000001 -0.005216 -0.000009 0.040790
#
#
# Mechanical properties :
#
#
# Convention : Reuss Voigt Hill
#
# Bulk Modulus (GPa) = 67.13352 70.81901 68.97626
# Shear Modulus (GPa) = 26.83945 32.62500 29.73222
#
# Velocity S-wave (km/s) = 3.83758 4.23103 4.03910
# Velocity P-wave (km/s) = 7.51484 7.92009 7.72012
#
# Compressibility (1/GPa) = 0.01489569
#
# Stress axis : x y z
#
# Youngs Moduli (GPa) = 88.13810 100.22115 121.61836
#
# Poissons Ratio (x) = 0.22631 0.33251
# Poissons Ratio (y) = 0.19902 0.28375
# Poissons Ratio (z) = 0.24098 0.23382
#
# Static dielectric constant tensor:
#      x y z
#    x 1.640320 0.000000 -0.001410 
#    y 0.000000 1.594840 0.000010 
#    z -0.001410 0.000010 1.645230 
# 
# From -- ./inp_files/322616.got.cif
#   From: 2010.05.17/outbox.cif.g08.bks.cpg/sg12_162_cif.got.tgz:322616.got - 2010.06.03 13:09:07.
