data_PCOD9221187
_publ_section_title
;
Structure prediction by ZEFSAII (Michael W. Deem and Ramdas Pophale) SiO2 
 PCOD9221187
Probable space group: C 2/M
;
_chemical_formula_sum "Si O2"
_cell_formula_units_Z 40
_cell_length_a 18.180522
_cell_length_b 12.774273
_cell_length_c 16.418791
_cell_angle_alpha 90.000000
_cell_angle_beta 32.496670
_cell_angle_gamma 90.000000
_cell_volume 2048.616270
_symmetry_space_group_name_H-M "C 2/M"
_symmetry_group_IT_number 12
_symmetry_cell_setting 'monoclinic'
loop_
_space_group_symop_operation_xyz
x,y,z
-x,y,-z
-x,-y,-z
x,-y,z
1/2+x,1/2+y,z
1/2-x,1/2+y,-z
1/2-x,1/2-y,-z
1/2+x,1/2-y,z
loop_
_atom_site_type_symbol
_atom_site_label
_atom_site_fract_x
_atom_site_fract_y
_atom_site_fract_z
Si Si1 0.849031 0.122683 0.180823
Si Si2 0.608570 0.880419 0.092069
Si Si3 0.694297 0.780000 0.176566
Si Si4 0.308451 0.790154 0.359846
Si Si5 0.530757 0.384479 0.566989
O O1 0.738765 0.162224 0.217278
O O2 0.836243 0.193684 0.272774
O O3 0.829085 0.000000 0.217480
O O4 0.000000 0.134913 0.000000
O O5 0.669384 0.858766 0.125214
O O6 0.448695 0.852548 0.241211
O O7 0.630961 0.000000 0.046953
O O8 0.685459 0.799863 0.961033
O O9 0.559970 0.708023 0.310798
O O10 0.250000 0.750000 0.500000
O O11 0.189645 0.861205 0.432415
O O12 0.500000 0.384557 0.500000
O O13 0.495301 0.500000 0.633450
#
# Coordination Sequence:
#
# PCOD9221187 Si02
#       5
#     8   8   8   8   8
#     4  11  24  44  70  96 128 175 223 269 323 380
#     4  11  24  41  66  95 128 170 214 264 325 387
#     4  11  22  44  65  94 129 164 221 268 313 385
#     4  12  24  44  63  97 137 167 212 273 324 390
#     4  11  23  40  64  91 127 167 205 260 325 380
#
# _framework density 19.525372999999998
#
# number of rings (size 3 to 8) (size 9 to 14) (size 15 to 20)
#    0.000    0.800    6.000    1.800    0.000    1.600 
#    0.000    2.000    0.000    0.000    0.000    0.000 
#    0.000    0.000    0.000    0.000    0.000    0.000 
#
# Total GULP energy -111823.369380 kJ/mol
# GULP energy per Si atom -5591.168469 kJ/mol
# Density = 1.948093 g / cm^3
# Si number density = 19.525373 Si / 1000 Ang^3
#
#
#
# Elastic Constant Matrix: (Units=GPa)
#
#
# Indices 1 2 3 4 5 6 
#
# 1 85.6721 35.4885 11.4726 0.0000 -3.2330 0.0000
# 2 35.4885 88.3167 10.9055 0.0000 -4.1908 0.0000
# 3 11.4726 10.9055 68.6787 0.0000 -16.4256 0.0000
# 4 0.0000 0.0000 0.0000 16.2857 0.0000 -9.8150
# 5 -3.2330 -4.1908 -16.4256 0.0000 40.3667 0.0000
# 6 0.0000 0.0000 0.0000 -9.8150 0.0000 8.0750
#
#
#
# Elastic Compliance Matrix: (Units=1/GPa)
#
#
# Indices 1 2 3 4 5 6 
#
# 1 0.014151 -0.005503 -0.001502 0.000000 -0.000049 0.000000
# 2 -0.005503 0.013699 -0.001131 0.000000 0.000521 0.000000
# 3 -0.001502 -0.001131 0.016544 0.000000 0.006494 0.000000
# 4 0.000000 0.000000 0.000000 0.229580 0.000000 0.279050
# 5 -0.000049 0.000521 0.006494 0.000000 0.027466 0.000000
# 6 0.000000 0.000000 0.000000 0.279050 0.000000 0.463017
#
#
# Mechanical properties :
#
#
# Convention : Reuss Voigt Hill
#
# Bulk Modulus (GPa) = 35.55999 39.82230 37.69114
# Shear Modulus (GPa) = 6.32828 25.26556 15.79692
#
# Velocity S-wave (km/s) = 1.80225 3.60110 2.84746
# Velocity P-wave (km/s) = 4.75211 6.14248 5.49147
#
# Compressibility (1/GPa) = 0.02812150
#
# Stress axis : x y z
#
# Youngs Moduli (GPa) = 70.66455 72.99942 60.44390
#
# Poissons Ratio (x) = 0.40174 0.09077
# Poissons Ratio (y) = 0.38889 0.06838
# Poissons Ratio (z) = 0.10612 0.08258
#
# Static dielectric constant tensor:
#      x y z
#    x 1.668560 0.000000 -0.004060 
#    y 0.000000 1.655470 0.000000 
#    z -0.004060 0.000000 1.671540 
# 
# From -- ./inp_files/71194.got.cif
#   From: 2010.05.17/outbox.cif.g08.bks.cpg/sg12_36_cif.got.tgz:71194.got - 2010.06.03 13:09:07.
