data_PCOD9221346
_publ_section_title
;
Structure prediction by ZEFSAII (Michael W. Deem and Ramdas Pophale) SiO2 
 PCOD9221346
Probable space group: C 2/M
;
_chemical_formula_sum "Si O2"
_cell_formula_units_Z 36
_cell_length_a 14.338943
_cell_length_b 10.768703
_cell_length_c 10.113390
_cell_angle_alpha 90.000000
_cell_angle_beta 73.604300
_cell_angle_gamma 90.000000
_cell_volume 1498.123633
_symmetry_space_group_name_H-M "C 2/M"
_symmetry_group_IT_number 12
_symmetry_cell_setting 'monoclinic'
loop_
_space_group_symop_operation_xyz
x,y,z
-x,y,-z
-x,-y,-z
x,-y,z
1/2+x,1/2+y,z
1/2-x,1/2+y,-z
1/2-x,1/2-y,-z
1/2+x,1/2-y,z
loop_
_atom_site_type_symbol
_atom_site_label
_atom_site_fract_x
_atom_site_fract_y
_atom_site_fract_z
Si Si1 0.067006 0.748667 0.688631
Si Si2 0.889348 0.000000 0.000888
Si Si3 0.142170 0.238357 0.168422
Si Si4 0.844692 0.644588 0.107688
Si Si5 0.392369 0.000000 0.478769
Si Si6 0.319337 0.500000 0.321537
O O1 0.072487 0.714619 0.843206
O O2 0.111921 0.628575 0.601210
O O3 0.952064 0.753887 0.702443
O O4 0.123941 0.877519 0.646995
O O5 0.830170 0.000000 0.159074
O O6 0.870070 0.117086 0.917501
O O7 0.000000 0.000000 0.000000
O O8 0.245947 0.214711 0.192878
O O9 0.147935 0.343839 0.053810
O O10 0.842985 0.500000 0.142055
O O11 0.500000 0.000000 0.500000
O O12 0.295147 0.000000 0.604605
#
# Coordination Sequence:
#
# PCOD9221346 Si02
#       6
#     8   4   8   8   4   4
#     4  12  25  48  74  99 142 188 239 294 351 425
#     4  12  18  39  69 105 140 175 225 287 355 421
#     4  11  23  38  68 109 143 182 229 285 361 434
#     4  11  23  38  66 107 148 182 227 289 362 429
#     4  12  32  51  71 101 141 194 248 302 355 404
#     4  12  26  48  74 101 141 192 237 289 351 426
#
# _framework density 24.030059000000001
#
# number of rings (size 3 to 8) (size 9 to 14) (size 15 to 20)
#    0.000    0.444    6.667    1.333    4.667    0.889 
#    0.000    0.556    0.000    0.000    0.000    0.000 
#    0.000    0.000    0.000    0.000    0.000    0.000 
#
# Total GULP energy -100774.473877 kJ/mol
# GULP energy per Si atom -5598.581882 kJ/mol
# Density = 2.397537 g / cm^3
# Si number density = 24.030059 Si / 1000 Ang^3
#
#
#
# Elastic Constant Matrix: (Units=GPa)
#
#
# Indices 1 2 3 4 5 6 
#
# 1 107.7703 26.5861 13.1987 0.0000 -32.1902 0.0000
# 2 26.5861 168.3718 38.0336 0.0000 -8.8827 0.0000
# 3 13.1987 38.0336 72.7602 0.0000 -38.4030 0.0000
# 4 0.0000 0.0000 0.0000 27.7175 0.0000 4.7834
# 5 -32.1902 -8.8827 -38.4030 0.0000 49.1245 0.0000
# 6 0.0000 0.0000 0.0000 4.7834 0.0000 20.4598
#
#
#
# Elastic Compliance Matrix: (Units=1/GPa)
#
#
# Indices 1 2 3 4 5 6 
#
# 1 0.012936 -0.002645 0.005546 0.000000 0.012334 0.000000
# 2 -0.002645 0.007478 -0.006180 0.000000 -0.005212 0.000000
# 3 0.005546 -0.006180 0.029446 0.000000 0.025536 0.000000
# 4 0.000000 0.000000 0.000000 0.037595 0.000000 -0.008790
# 5 0.012334 -0.005212 0.025536 0.000000 0.047459 0.000000
# 6 0.000000 0.000000 0.000000 -0.008790 0.000000 0.050931
#
#
# Mechanical properties :
#
#
# Convention : Reuss Voigt Hill
#
# Bulk Modulus (GPa) = 23.09333 56.05988 39.57661
# Shear Modulus (GPa) = 24.17343 37.53262 30.85302
#
# Velocity S-wave (km/s) = 3.17514 3.95638 3.58709
# Velocity P-wave (km/s) = 4.80344 6.65209 5.80187
#
# Compressibility (1/GPa) = 0.04330254
#
# Stress axis : x y z
#
# Youngs Moduli (GPa) = 77.30162 133.72747 33.95998
#
# Poissons Ratio (x) = 0.35367 -0.18833
# Poissons Ratio (y) = 0.20444 0.20988
# Poissons Ratio (z) = -0.42870 0.82646
#
# Static dielectric constant tensor:
#      x y z
#    x 1.956250 0.000000 -0.007900 
#    y 0.000000 1.931760 0.000000 
#    z -0.007900 0.000000 1.931170 
# 
# From -- ./inp_files/140200.got.cif
#   From: 2010.05.17/outbox.cif.g08.bks.cpg/sg12_71_cif.got.tgz:140200.got - 2010.06.03 13:09:07.
