data_PCOD9221052
_publ_section_title
;
Structure prediction by ZEFSAII (Michael W. Deem and Ramdas Pophale) SiO2 
 PCOD9221052
Probable space group: C 2/M
;
_chemical_formula_sum "Si O2"
_cell_formula_units_Z 50
_cell_length_a 9.498740
_cell_length_b 17.273184
_cell_length_c 18.362665
_cell_angle_alpha 90.000000
_cell_angle_beta 51.845296
_cell_angle_gamma 90.000000
_cell_volume 2369.122614
_symmetry_space_group_name_H-M "C 2/M"
_symmetry_group_IT_number 12
_symmetry_cell_setting 'monoclinic'
loop_
_space_group_symop_operation_xyz
x,y,z
-x,y,-z
-x,-y,-z
x,-y,z
1/2+x,1/2+y,z
1/2-x,1/2+y,-z
1/2-x,1/2-y,-z
1/2+x,1/2-y,z
loop_
_atom_site_type_symbol
_atom_site_label
_atom_site_fract_x
_atom_site_fract_y
_atom_site_fract_z
Si Si1 0.553483 0.410721 0.140617
Si Si2 0.500000 0.000000 0.500000
Si Si3 0.675233 0.857954 0.252658
Si Si4 0.596329 0.909665 0.774951
Si Si5 0.076953 0.181014 0.284586
Si Si6 0.320742 0.150717 0.576480
Si Si7 0.131011 0.672926 0.026745
O O1 0.540997 0.500000 0.164978
O O2 0.367914 0.385635 0.162560
O O3 0.573853 0.359857 0.206796
O O4 0.725459 0.393630 0.037323
O O5 0.355518 0.069174 0.526442
O O6 0.516085 0.901193 0.262940
O O7 0.653745 0.766473 0.250224
O O8 0.674288 0.871326 0.339447
O O9 0.791071 0.870362 0.708691
O O10 0.487439 0.856874 0.868059
O O11 0.607004 0.000000 0.793499
O O12 0.872212 0.186011 0.376788
O O13 0.500000 0.199109 0.500000
O O14 0.250000 0.750000 0.000000
O O15 0.000000 0.684334 0.000000
#
# Coordination Sequence:
#
# PCOD9221052 Si02
#       7
#     8   2   8   8   8   8   8
#     4  11  24  41  69  89 127 177 223 262 309 384
#     4   8  20  40  68  98 116 172 220 252 312 396
#     4  11  24  43  63  96 131 167 211 263 323 383
#     4  12  26  38  64  98 130 160 211 276 322 365
#     4  11  22  41  65  93 128 169 213 257 324 382
#     4   9  22  40  72  87 127 168 219 245 316 390
#     4  12  26  44  65  93 131 175 219 267 320 377
#
# _framework density 21.104859000000001
#
# number of rings (size 3 to 8) (size 9 to 14) (size 15 to 20)
#    0.480    0.640    1.600    5.280    8.960    1.280 
#    0.000    2.400    0.000    1.920    0.000    0.000 
#    0.000    0.000    0.000    0.000    0.000    0.000 
#
# Total GULP energy -139392.443795 kJ/mol
# GULP energy per Si atom -5575.697752 kJ/mol
# Density = 2.105682 g / cm^3
# Si number density = 21.104859 Si / 1000 Ang^3
#
#
#
# Elastic Constant Matrix: (Units=GPa)
#
#
# Indices 1 2 3 4 5 6 
#
# 1 110.8461 -9.6023 32.2942 0.0001 -19.5753 -0.0001
# 2 -9.6023 97.3165 -4.4876 0.0000 -7.1550 -0.0001
# 3 32.2942 -4.4876 54.5333 0.0001 -30.4976 -0.0002
# 4 0.0001 0.0000 0.0001 -6.4685 -0.0001 -12.4806
# 5 -19.5753 -7.1550 -30.4976 -0.0001 31.6849 0.0001
# 6 -0.0001 -0.0001 -0.0002 -12.4806 0.0001 19.6580
#
#
#
# Elastic Compliance Matrix: (Units=1/GPa)
#
#
# Indices 1 2 3 4 5 6 
#
# 1 0.011005 0.000966 -0.005444 0.000000 0.001777 0.000000
# 2 0.000966 0.011127 0.004511 0.000000 0.007451 0.000000
# 3 -0.005444 0.004511 0.044663 0.000000 0.040644 0.000000
# 4 0.000000 0.000000 0.000000 -0.069482 0.000000 -0.044113
# 5 0.001777 0.007451 0.040644 0.000000 0.073463 0.000000
# 6 0.000000 0.000000 0.000000 -0.044113 0.000000 0.022863
#
#
# Mechanical properties :
#
#
# Convention : Reuss Voigt Hill
#
# Bulk Modulus (GPa) = 14.95667 33.23381 24.09524
# Shear Modulus (GPa) = 43.15577 25.27432 34.21504
#
# Velocity S-wave (km/s) = 4.52688 3.46433 4.03077
# Velocity P-wave (km/s) = 5.86735 5.63767 5.75365
#
# Compressibility (1/GPa) = 0.06685980
#
# Stress axis : x y z
#
# Youngs Moduli (GPa) = 90.86774 89.87273 22.39013
#
# Poissons Ratio (x) = -0.08678 0.12188
# Poissons Ratio (y) = -0.08774 -0.10100
# Poissons Ratio (z) = 0.49465 -0.40539
#
# Static dielectric constant tensor:
#      x y z
#    x 1.804550 0.000000 -0.036500 
#    y 0.000000 1.735660 0.000000 
#    z -0.036500 0.000000 1.826370 
# 
# From -- ./inp_files/256966.got.cif
#   From: 2010.05.17/outbox.cif.g08.bks.cpg/sg12_129_cif.got.tgz:256966.got - 2010.06.03 13:09:07.
