data_PCOD9221655
_publ_section_title
;
Structure prediction by ZEFSAII (Michael W. Deem and Ramdas Pophale) SiO2 
 PCOD9221655
Probable space group: C 2/M
;
_chemical_formula_sum "Si O2"
_cell_formula_units_Z 40
_cell_length_a 16.566643
_cell_length_b 7.525352
_cell_length_c 17.473067
_cell_angle_alpha 90.000000
_cell_angle_beta 126.291412
_cell_angle_gamma 90.000000
_cell_volume 1755.798532
_symmetry_space_group_name_H-M "C 2/M"
_symmetry_group_IT_number 12
_symmetry_cell_setting 'monoclinic'
loop_
_space_group_symop_operation_xyz
x,y,z
-x,y,-z
-x,-y,-z
x,-y,z
1/2+x,1/2+y,z
1/2-x,1/2+y,-z
1/2-x,1/2-y,-z
1/2+x,1/2-y,z
loop_
_atom_site_type_symbol
_atom_site_label
_atom_site_fract_x
_atom_site_fract_y
_atom_site_fract_z
Si Si1 0.407682 0.789708 0.672650
Si Si2 0.838161 0.786066 0.952964
Si Si3 0.113534 0.706296 0.857585
Si Si4 0.291578 0.710494 0.763611
Si Si5 0.898079 0.000000 0.546548
Si Si6 0.634641 0.500000 0.647908
O O1 0.519493 0.723327 0.758344
O O2 0.344806 0.756604 0.714235
O O3 0.371193 0.672253 0.581526
O O4 0.408563 0.000000 0.656245
O O5 0.724004 0.718660 0.903753
O O6 0.858104 0.742944 0.875808
O O7 0.840873 0.000000 0.961281
O O8 0.902679 0.718866 0.060137
O O9 0.120179 0.500000 0.840325
O O10 0.270983 0.500000 0.755270
O O11 0.191058 0.826375 0.710727
O O12 0.851627 0.000000 0.436475
O O13 0.017778 0.000000 0.600122
#
# Coordination Sequence:
#
# PCOD9221655 Si02
#       6
#     8   8   8   8   4   4
#     4  11  23  42  64  95 132 168 211 263 323 379
#     4   9  19  34  56  87 123 168 213 255 310 372
#     4   9  19  34  56  87 123 168 213 255 310 372
#     4  11  23  42  64  95 132 168 211 263 323 379
#     4  11  26  46  70  97 123 165 217 264 325 388
#     4  11  26  46  70  97 123 165 217 264 325 388
#
# _framework density 22.781656000000002
#
# number of rings (size 3 to 8) (size 9 to 14) (size 15 to 20)
#    0.000    1.800    2.000    1.200    2.800    4.800 
#    0.000    6.000    0.000    0.000    0.000    0.000 
#    0.000    0.000    0.000    0.000    0.000    0.000 
#
# Total GULP energy -111811.976552 kJ/mol
# GULP energy per Si atom -5590.598828 kJ/mol
# Density = 2.272980 g / cm^3
# Si number density = 22.781656 Si / 1000 Ang^3
#
#
#
# Elastic Constant Matrix: (Units=GPa)
#
#
# Indices 1 2 3 4 5 6 
#
# 1 58.4869 2.6406 5.0053 0.0000 -14.6376 0.0000
# 2 2.6406 108.1275 28.5997 0.0000 -7.4611 0.0000
# 3 5.0053 28.5997 105.7869 0.0000 -29.8491 0.0000
# 4 0.0000 0.0000 0.0000 27.8295 0.0000 0.9836
# 5 -14.6376 -7.4611 -29.8491 0.0000 39.0043 0.0000
# 6 0.0000 0.0000 0.0000 0.9836 0.0000 9.0753
#
#
#
# Elastic Compliance Matrix: (Units=1/GPa)
#
#
# Indices 1 2 3 4 5 6 
#
# 1 0.019045 -0.000294 0.001504 0.000000 0.008242 0.000000
# 2 -0.000294 0.009966 -0.002772 0.000000 -0.000326 0.000000
# 3 0.001504 -0.002772 0.012934 0.000000 0.009932 0.000000
# 4 0.000000 0.000000 0.000000 0.036071 0.000000 -0.003909
# 5 0.008242 -0.000326 0.009932 0.000000 0.036270 0.000000
# 6 0.000000 0.000000 0.000000 -0.003909 0.000000 0.110612
#
#
# Mechanical properties :
#
#
# Convention : Reuss Voigt Hill
#
# Bulk Modulus (GPa) = 25.75982 38.32138 32.04060
# Shear Modulus (GPa) = 20.75001 30.92555 25.83778
#
# Velocity S-wave (km/s) = 3.02126 3.68839 3.37137
# Velocity P-wave (km/s) = 4.84793 5.91580 5.40829
#
# Compressibility (1/GPa) = 0.03882015
#
# Stress axis : x y z
#
# Youngs Moduli (GPa) = 52.50680 100.33766 77.31706
#
# Poissons Ratio (x) = 0.02952 -0.11629
# Poissons Ratio (y) = 0.01545 0.21435
# Poissons Ratio (z) = -0.07897 0.27817
#
# Static dielectric constant tensor:
#      x y z
#    x 1.887350 0.000000 -0.005920 
#    y 0.000000 1.835250 0.000000 
#    z -0.005920 0.000000 1.829450 
# 
# From -- ./inp_files/220627.got.cif
#   From: 2010.05.17/outbox.cif.g08.bks.cpg/sg12_111_cif.got.tgz:220627.got - 2010.06.03 13:09:07.
