data_PCOD9221482
_publ_section_title
;
Structure prediction by ZEFSAII (Michael W. Deem and Ramdas Pophale) SiO2 
 PCOD9221482
Probable space group: C 2/M
;
_chemical_formula_sum "Si O2"
_cell_formula_units_Z 36
_cell_length_a 24.897925
_cell_length_b 7.935005
_cell_length_c 13.931385
_cell_angle_alpha 90.000000
_cell_angle_beta 148.076175
_cell_angle_gamma 90.000000
_cell_volume 1455.422099
_symmetry_space_group_name_H-M "C 2/M"
_symmetry_group_IT_number 12
_symmetry_cell_setting 'monoclinic'
loop_
_space_group_symop_operation_xyz
x,y,z
-x,y,-z
-x,-y,-z
x,-y,z
1/2+x,1/2+y,z
1/2-x,1/2+y,-z
1/2-x,1/2-y,-z
1/2+x,1/2-y,z
loop_
_atom_site_type_symbol
_atom_site_label
_atom_site_fract_x
_atom_site_fract_y
_atom_site_fract_z
Si Si1 0.912132 0.298598 0.219932
Si Si2 0.281008 0.801695 0.695203
Si Si3 0.000000 0.754175 0.000000
Si Si4 0.786521 0.797887 0.195109
Si Si5 0.077744 0.693081 0.327271
O O1 0.915974 0.500000 0.213265
O O2 0.886602 0.263691 0.291874
O O3 0.009544 0.232668 0.310303
O O4 0.812547 0.233226 0.012422
O O5 0.381606 0.691956 0.830832
O O6 0.232346 0.754515 0.723810
O O7 0.184106 0.787229 0.479541
O O8 0.315288 0.000000 0.747268
O O9 0.014200 0.688832 0.131938
O O10 0.787740 0.000000 0.191062
O O11 0.104293 0.500000 0.389790
#
# Coordination Sequence:
#
# PCOD9221482 Si02
#       5
#     8   8   4   8   8
#     4   9  18  35  60  88 118 156 198 240 293 356
#     4  11  23  40  64  92 120 157 203 247 298 358
#     4  12  23  44  69  84 117 168 205 244 299 362
#     4   9  18  35  60  88 118 156 198 240 293 356
#     4  11  23  40  64  92 120 157 203 247 298 358
#
# _framework density 24.735092999999999
#
# number of rings (size 3 to 8) (size 9 to 14) (size 15 to 20)
#    0.000    1.778    2.222    2.667    0.000    2.667 
#    0.000    6.667    0.000    0.000    0.000    0.000 
#    0.000    0.000    0.000    0.000    0.000    0.000 
#
# Total GULP energy -100296.113095 kJ/mol
# GULP energy per Si atom -5572.006283 kJ/mol
# Density = 2.467879 g / cm^3
# Si number density = 24.735093 Si / 1000 Ang^3
#
#
#
# Elastic Constant Matrix: (Units=GPa)
#
#
# Indices 1 2 3 4 5 6 
#
# 1 200.3764 13.8605 57.2208 0.0000 36.5891 0.0000
# 2 13.8605 42.8603 18.5172 0.0000 5.6912 0.0000
# 3 57.2208 18.5172 149.0982 0.0000 34.3722 0.0000
# 4 0.0000 0.0000 0.0000 -26.0249 0.0000 -193.1137
# 5 36.5891 5.6912 34.3722 0.0000 37.6066 0.0000
# 6 0.0000 0.0000 0.0000 -193.1137 0.0000 -958.8648
#
#
#
# Elastic Compliance Matrix: (Units=1/GPa)
#
#
# Indices 1 2 3 4 5 6 
#
# 1 0.006282 -0.000874 -0.001170 0.000000 -0.004910 0.000000
# 2 -0.000874 0.024818 -0.002631 0.000000 -0.000500 0.000000
# 3 -0.001170 -0.002631 0.009032 0.000000 -0.006718 0.000000
# 4 0.000000 0.000000 0.000000 0.077713 0.000000 -0.015651
# 5 -0.004910 -0.000500 -0.006718 0.000000 0.037584 0.000000
# 6 0.000000 0.000000 0.000000 -0.015651 0.000000 0.002109
#
#
# Mechanical properties :
#
#
# Convention : Reuss Voigt Hill
#
# Bulk Modulus (GPa) = 32.48901 63.50354 47.99628
# Shear Modulus (GPa) = 28.22490 -169.27419 -70.52465
#
# Velocity S-wave (km/s) = 3.38166 -8.28151 -5.34545
# Velocity P-wave (km/s) = 5.33018 8.10650 4.31883
#
# Compressibility (1/GPa) = 0.03077964
#
# Stress axis : x y z
#
# Youngs Moduli (GPa) = 159.18910 40.29405 110.72111
#
# Poissons Ratio (x) = 0.03521 0.12959
# Poissons Ratio (y) = 0.13911 0.29136
# Poissons Ratio (z) = 0.18632 0.10603
#
# Static dielectric constant tensor:
#      x y z
#    x 1.996930 0.000000 -0.030060 
#    y 0.000000 1.936860 0.000000 
#    z -0.030060 0.000000 1.954510 
# 
# From -- ./inp_files/67253.got.cif
#   From: 2010.05.17/outbox.cif.g08.bks.cpg/sg12_34_cif.got.tgz:67253.got - 2010.06.03 13:09:07.
