data_PCOD9221846
_publ_section_title
;
Structure prediction by ZEFSAII (Michael W. Deem and Ramdas Pophale) SiO2 
 PCOD9221846
Probable space group: C 2/M
;
_chemical_formula_sum "Si O2"
_cell_formula_units_Z 36
_cell_length_a 8.151356
_cell_length_b 27.669245
_cell_length_c 12.127656
_cell_angle_alpha 90.000000
_cell_angle_beta 142.415212
_cell_angle_gamma 90.000000
_cell_volume 1668.351073
_symmetry_space_group_name_H-M "C 2/M"
_symmetry_group_IT_number 12
_symmetry_cell_setting 'monoclinic'
loop_
_space_group_symop_operation_xyz
x,y,z
-x,y,-z
-x,-y,-z
x,-y,z
1/2+x,1/2+y,z
1/2-x,1/2+y,-z
1/2-x,1/2-y,-z
1/2+x,1/2-y,z
loop_
_atom_site_type_symbol
_atom_site_label
_atom_site_fract_x
_atom_site_fract_y
_atom_site_fract_z
Si Si1 0.464476 0.724194 0.194624
Si Si2 0.173902 0.943552 0.313236
Si Si3 0.031633 0.859957 0.384686
Si Si4 0.422870 0.818546 0.284306
Si Si5 0.500000 0.611504 0.000000
O O1 0.376259 0.682549 0.234707
O O2 0.565550 0.771501 0.311674
O O3 0.693870 0.701061 0.242558
O O4 0.250000 0.750000 0.000000
O O5 0.500000 0.940748 0.500000
O O6 0.012292 0.912264 0.318469
O O7 0.103747 0.000000 0.280363
O O8 0.086571 0.919970 0.150444
O O9 0.344926 0.847503 0.533684
O O10 0.000000 0.859702 0.500000
O O11 0.257494 0.853596 0.114064
#
# Coordination Sequence:
#
# PCOD9221846 Si02
#       5
#     8   8   8   8   4
#     4  12  22  40  62  97 135 182 227 276 335 406
#     4  11  23  44  74 103 134 180 233 292 355 412
#     4  12  25  44  67  99 142 184 230 287 344 412
#     4  12  23  40  66  99 139 180 232 274 340 406
#     4  12  21  44  72 104 138 170 237 288 340 412
#
# _framework density 21.578192999999999
#
# number of rings (size 3 to 8) (size 9 to 14) (size 15 to 20)
#    0.000    0.222    6.667    3.000    0.000    0.444 
#    0.000    1.111    0.000    1.333    0.000    0.000 
#    0.000    0.000    0.000    0.000    0.000    0.000 
#
# Total GULP energy -100530.200325 kJ/mol
# GULP energy per Si atom -5585.011129 kJ/mol
# Density = 2.152908 g / cm^3
# Si number density = 21.578193 Si / 1000 Ang^3
#
#
#
# Elastic Constant Matrix: (Units=GPa)
#
#
# Indices 1 2 3 4 5 6 
#
# 1 92.1300 46.0733 35.4771 0.0000 -28.6783 0.0000
# 2 46.0733 195.2826 60.7883 0.0000 -27.0530 0.0000
# 3 35.4771 60.7883 130.4196 0.0000 -16.8808 0.0000
# 4 0.0000 0.0000 0.0000 35.0530 0.0000 -3.7654
# 5 -28.6783 -27.0530 -16.8808 0.0000 33.2177 0.0000
# 6 0.0000 0.0000 0.0000 -3.7654 0.0000 28.7260
#
#
#
# Elastic Compliance Matrix: (Units=1/GPa)
#
#
# Indices 1 2 3 4 5 6 
#
# 1 0.016025 -0.001513 -0.002165 0.000000 0.011503 0.000000
# 2 -0.001513 0.006591 -0.002285 0.000000 0.002900 0.000000
# 3 -0.002165 -0.002285 0.009461 0.000000 0.001078 0.000000
# 4 0.000000 0.000000 0.000000 0.028936 0.000000 0.003793
# 5 0.011503 0.002900 0.001078 0.000000 0.042945 0.000000
# 6 0.000000 0.000000 0.000000 0.003793 0.000000 0.035309
#
#
# Mechanical properties :
#
#
# Convention : Reuss Voigt Hill
#
# Bulk Modulus (GPa) = 49.62689 78.05661 63.84175
# Shear Modulus (GPa) = 31.66364 37.76558 34.71461
#
# Velocity S-wave (km/s) = 3.83481 4.18805 4.01531
# Velocity P-wave (km/s) = 6.53117 7.72261 7.15175
#
# Compressibility (1/GPa) = 0.02015036
#
# Stress axis : x y z
#
# Youngs Moduli (GPa) = 62.40130 151.72554 105.69686
#
# Poissons Ratio (x) = 0.22963 0.22883
# Poissons Ratio (y) = 0.09444 0.24151
# Poissons Ratio (z) = 0.13510 0.34668
#
# Static dielectric constant tensor:
#      x y z
#    x 1.836520 0.000000 -0.060550 
#    y 0.000000 1.829160 0.000000 
#    z -0.060550 0.000000 1.872430 
# 
# From -- ./inp_files/124006.got.cif
#   From: 2010.05.17/outbox.cif.g08.bks.cpg/sg12_63_cif.got.tgz:124006.got - 2010.06.03 13:09:07.
