data_PCOD9221973
_publ_section_title
;
Structure prediction by ZEFSAII (Michael W. Deem and Ramdas Pophale) SiO2 
 PCOD9221973
Probable space group: C 2/M
;
_chemical_formula_sum "Si O2"
_cell_formula_units_Z 40
_cell_length_a 9.879152
_cell_length_b 9.062479
_cell_length_c 21.837457
_cell_angle_alpha 90.000000
_cell_angle_beta 97.123266
_cell_angle_gamma 90.000000
_cell_volume 1940.008847
_symmetry_space_group_name_H-M "C 2/M"
_symmetry_group_IT_number 12
_symmetry_cell_setting 'monoclinic'
loop_
_space_group_symop_operation_xyz
x,y,z
-x,y,-z
-x,-y,-z
x,-y,z
1/2+x,1/2+y,z
1/2-x,1/2+y,-z
1/2-x,1/2-y,-z
1/2+x,1/2-y,z
loop_
_atom_site_type_symbol
_atom_site_label
_atom_site_fract_x
_atom_site_fract_y
_atom_site_fract_z
Si Si1 0.798917 0.325113 0.440230
Si Si2 0.623990 0.826088 0.169224
Si Si3 0.011076 0.825329 0.367379
Si Si4 0.647544 0.330519 0.040020
Si Si5 0.875636 0.325987 0.242850
O O1 0.821466 0.500000 0.449990
O O2 0.750000 0.250000 0.500000
O O3 0.931094 0.246851 0.419871
O O4 0.672675 0.305742 0.385911
O O5 0.637611 0.750993 0.104193
O O6 0.733337 0.751682 0.220446
O O7 0.474039 0.807425 0.189519
O O8 0.652319 0.000000 0.166198
O O9 0.952947 0.746933 0.304117
O O10 0.983222 0.000000 0.363787
O O11 0.690790 0.500000 0.052346
O O12 0.500000 0.330093 0.000000
O O13 0.750000 0.250000 0.000000
O O14 0.856494 0.500000 0.253160
#
# Coordination Sequence:
#
# PCOD9221973 Si02
#       5
#     8   8   8   8   8
#     4  11  24  41  63  91 123 160 202 249 301 358
#     4  11  24  41  63  91 123 160 202 249 301 358
#     4  11  24  41  62  90 123 159 202 250 300 357
#     4  11  24  41  63  91 123 160 202 249 301 357
#     4  11  24  41  63  91 122 159 202 248 301 359
#
# _framework density 20.618462000000001
#
# number of rings (size 3 to 8) (size 9 to 14) (size 15 to 20)
#    0.000    1.000    0.000    6.000    0.000   16.800 
#    0.000    0.000    0.000    0.000    0.000    0.000 
#    0.000    0.000    0.000    0.000    0.000    0.000 
#
# Total GULP energy -112008.602839 kJ/mol
# GULP energy per Si atom -5600.430142 kJ/mol
# Density = 2.057153 g / cm^3
# Si number density = 20.618462 Si / 1000 Ang^3
#
#
#
# Elastic Constant Matrix: (Units=GPa)
#
#
# Indices 1 2 3 4 5 6 
#
# 1 63.9381 37.2661 -14.6106 0.0000 -2.3684 0.0000
# 2 37.2661 114.7818 13.2484 0.0000 -7.3514 0.0000
# 3 -14.6106 13.2484 66.2761 0.0000 -5.4588 0.0000
# 4 0.0000 0.0000 0.0000 43.7960 0.0000 -1.5080
# 5 -2.3684 -7.3514 -5.4588 0.0000 32.6599 0.0000
# 6 0.0000 0.0000 0.0000 -1.5080 0.0000 33.8219
#
#
#
# Elastic Compliance Matrix: (Units=1/GPa)
#
#
# Indices 1 2 3 4 5 6 
#
# 1 0.021617 -0.007697 0.006378 0.000000 0.000901 0.000000
# 2 -0.007697 0.011756 -0.003929 0.000000 0.001431 0.000000
# 3 0.006378 -0.003929 0.017486 0.000000 0.002501 0.000000
# 4 0.000000 0.000000 0.000000 0.022868 0.000000 0.001020
# 5 0.000901 0.001431 0.002501 0.000000 0.031424 0.000000
# 6 0.000000 0.000000 0.000000 0.001020 0.000000 0.029612
#
#
# Mechanical properties :
#
#
# Convention : Reuss Voigt Hill
#
# Bulk Modulus (GPa) = 24.77441 35.20043 29.98742
# Shear Modulus (GPa) = 31.50329 35.99502 33.74915
#
# Velocity S-wave (km/s) = 3.91310 4.18277 4.05018
# Velocity P-wave (km/s) = 5.69721 6.35899 6.03717
#
# Compressibility (1/GPa) = 0.04036424
#
# Stress axis : x y z
#
# Youngs Moduli (GPa) = 46.25960 85.06083 57.18908
#
# Poissons Ratio (x) = 0.65471 -0.36477
# Poissons Ratio (y) = 0.35606 0.22469
# Poissons Ratio (z) = -0.29506 0.33420
#
# Static dielectric constant tensor:
#      x y z
#    x 1.709690 0.000000 0.003070 
#    y 0.000000 1.686800 0.000000 
#    z 0.003070 0.000000 1.717560 
# 
# From -- ./inp_files/303444.got.cif
#   From: 2010.05.17/outbox.cif.g08.bks.cpg/sg12_152_cif.got.tgz:303444.got - 2010.06.03 13:09:07.
