data_PCOD9221118
_publ_section_title
;
Structure prediction by ZEFSAII (Michael W. Deem and Ramdas Pophale) SiO2 
 PCOD9221118
Probable space group: C 2/M
;
_chemical_formula_sum "Si O2"
_cell_formula_units_Z 36
_cell_length_a 7.611640
_cell_length_b 18.517607
_cell_length_c 10.612833
_cell_angle_alpha 90.000000
_cell_angle_beta 101.790477
_cell_angle_gamma 90.000000
_cell_volume 1464.311141
_symmetry_space_group_name_H-M "C 2/M"
_symmetry_group_IT_number 12
_symmetry_cell_setting 'monoclinic'
loop_
_space_group_symop_operation_xyz
x,y,z
-x,y,-z
-x,-y,-z
x,-y,z
1/2+x,1/2+y,z
1/2-x,1/2+y,-z
1/2-x,1/2-y,-z
1/2+x,1/2-y,z
loop_
_atom_site_type_symbol
_atom_site_label
_atom_site_fract_x
_atom_site_fract_y
_atom_site_fract_z
Si Si1 0.549111 0.797083 0.233145
Si Si2 0.087925 0.850357 0.839361
Si Si3 0.644245 0.584580 0.410300
Si Si4 0.000000 0.320163 0.500000
Si Si5 0.163057 0.580780 0.923034
O O1 0.739908 0.828795 0.221546
O O2 0.505369 0.726169 0.147186
O O3 0.535641 0.776299 0.377616
O O4 0.404431 0.859545 0.184585
O O5 0.954569 0.897652 0.735734
O O6 0.171400 0.890757 0.970910
O O7 0.500000 0.599501 0.500000
O O8 0.689705 0.500000 0.423570
O O9 0.823261 0.630980 0.456213
O O10 0.189230 0.500000 0.876395
O O11 0.000000 0.577242 0.000000
#
# Coordination Sequence:
#
# PCOD9221118 Si02
#       5
#     8   8   8   4   8
#     4  11  24  39  67  97 136 177 225 273 334 396
#     4  11  22  42  66  96 133 176 225 277 334 397
#     4  11  24  42  66  97 135 176 221 273 331 396
#     4  12  25  44  66 100 137 178 222 278 325 404
#     4   9  20  40  66  95 129 174 224 278 337 396
#
# _framework density 24.584938999999999
#
# number of rings (size 3 to 8) (size 9 to 14) (size 15 to 20)
#    0.000    1.333    2.222    3.000    1.556    4.444 
#    0.000    3.333    0.000    6.667    0.000    0.000 
#    0.000    0.000    0.000    0.000    0.000    0.000 
#
# Total GULP energy -100963.040208 kJ/mol
# GULP energy per Si atom -5609.057789 kJ/mol
# Density = 2.452898 g / cm^3
# Si number density = 24.584939 Si / 1000 Ang^3
#
#
#
# Elastic Constant Matrix: (Units=GPa)
#
#
# Indices 1 2 3 4 5 6 
#
# 1 141.9851 13.4317 19.6643 0.0000 14.9751 0.0000
# 2 13.4317 100.3001 16.2384 0.0000 19.8898 0.0000
# 3 19.6643 16.2384 94.0015 0.0000 16.3936 0.0000
# 4 0.0000 0.0000 0.0000 36.9018 0.0000 7.6155
# 5 14.9751 19.8898 16.3936 0.0000 48.6952 0.0000
# 6 0.0000 0.0000 0.0000 7.6155 0.0000 24.1993
#
#
#
# Elastic Compliance Matrix: (Units=1/GPa)
#
#
# Indices 1 2 3 4 5 6 
#
# 1 0.007429 -0.000468 -0.001177 0.000000 -0.001697 0.000000
# 2 -0.000468 0.011001 -0.001109 0.000000 -0.003976 0.000000
# 3 -0.001177 -0.001109 0.011616 0.000000 -0.003095 0.000000
# 4 0.000000 0.000000 0.000000 0.028981 0.000000 -0.009120
# 5 -0.001697 -0.003976 -0.003095 0.000000 0.023724 0.000000
# 6 0.000000 0.000000 0.000000 -0.009120 0.000000 0.044194
#
#
# Mechanical properties :
#
#
# Convention : Reuss Voigt Hill
#
# Bulk Modulus (GPa) = 40.75369 48.32839 44.54104
# Shear Modulus (GPa) = 35.55371 41.08940 38.32156
#
# Velocity S-wave (km/s) = 3.80696 4.09262 3.95237
# Velocity P-wave (km/s) = 5.99472 6.48329 6.24379
#
# Compressibility (1/GPa) = 0.02453766
#
# Stress axis : x y z
#
# Youngs Moduli (GPa) = 134.60200 90.90288 86.08922
#
# Poissons Ratio (x) = 0.04252 0.10136
# Poissons Ratio (y) = 0.06295 0.09548
# Poissons Ratio (z) = 0.15847 0.10082
#
# Static dielectric constant tensor:
#      x y z
#    x 1.968740 0.000000 -0.055140 
#    y 0.000000 1.869500 0.000000 
#    z -0.055140 0.000000 1.930950 
# 
# From -- ./inp_files/118765.got.cif
#   From: 2010.05.17/outbox.cif.g08.bks.cpg/sg12_60_cif.got.tgz:118765.got - 2010.06.03 13:09:07.
