data_PCOD9221944
_publ_section_title
;
Structure prediction by ZEFSAII (Michael W. Deem and Ramdas Pophale) SiO2 
 PCOD9221944
Probable space group: C 2/M
;
_chemical_formula_sum "Si O2"
_cell_formula_units_Z 42
_cell_length_a 7.359825
_cell_length_b 15.492812
_cell_length_c 16.591916
_cell_angle_alpha 90.000000
_cell_angle_beta 104.432663
_cell_angle_gamma 90.000000
_cell_volume 1832.177521
_symmetry_space_group_name_H-M "C 2/M"
_symmetry_group_IT_number 12
_symmetry_cell_setting 'monoclinic'
loop_
_space_group_symop_operation_xyz
x,y,z
-x,y,-z
-x,-y,-z
x,-y,z
1/2+x,1/2+y,z
1/2-x,1/2+y,-z
1/2-x,1/2-y,-z
1/2+x,1/2-y,z
loop_
_atom_site_type_symbol
_atom_site_label
_atom_site_fract_x
_atom_site_fract_y
_atom_site_fract_z
Si Si1 0.484917 0.342714 0.589693
Si Si2 0.662699 0.396065 0.767812
Si Si3 0.922291 0.646422 0.379722
Si Si4 0.000000 0.500000 0.500000
Si Si5 0.481864 0.105664 0.089549
Si Si6 0.770932 0.895319 0.800683
O O1 0.500000 0.374688 0.500000
O O2 0.640870 0.370276 0.672089
O O3 0.285353 0.369221 0.604848
O O4 0.496631 0.239285 0.591032
O O5 0.664394 0.500000 0.769941
O O6 0.474866 0.365778 0.793805
O O7 0.843353 0.365299 0.836311
O O8 0.882742 0.636421 0.280870
O O9 0.041570 0.574409 0.436223
O O10 0.294186 0.129830 0.117398
O O11 0.486480 0.000000 0.088116
O O12 0.500000 0.135683 0.000000
O O13 0.770239 0.000000 0.795785
#
# Coordination Sequence:
#
# PCOD9221944 Si02
#       6
#     8   8   8   2   8   8
#     4  11  24  40  60  90 126 162 213 255 306 369
#     4   9  20  37  57  87 125 162 205 259 311 368
#     4  11  24  41  61  90 124 168 211 252 314 368
#     4  12  24  40  66  84 128 166 212 254 300 374
#     4   9  18  33  58  91 119 155 208 259 314 374
#     4   9  18  35  57  84 120 161 202 251 312 371
#
# _framework density 22.923542999999999
#
# number of rings (size 3 to 8) (size 9 to 14) (size 15 to 20)
#    0.000    2.095    1.905    0.571    4.000    1.143 
#    3.429    3.810    0.000    1.143    0.000    0.000 
#    0.000    0.000    0.000    0.000    0.000    0.000 
#
# Total GULP energy -117157.209933 kJ/mol
# GULP energy per Si atom -5578.914759 kJ/mol
# Density = 2.287137 g / cm^3
# Si number density = 22.923543 Si / 1000 Ang^3
#
#
#
# Elastic Constant Matrix: (Units=GPa)
#
#
# Indices 1 2 3 4 5 6 
#
# 1 68.9462 7.2730 60.6937 0.0000 -14.5912 0.0000
# 2 7.2730 15.3664 12.2023 0.0000 3.9225 0.0000
# 3 60.6937 12.2023 165.8930 0.0000 -31.2966 0.0000
# 4 0.0000 0.0000 0.0000 12.6794 0.0000 19.9820
# 5 -14.5912 3.9225 -31.2966 0.0000 41.3838 0.0000
# 6 0.0000 0.0000 0.0000 19.9820 0.0000 1.6520
#
#
#
# Elastic Compliance Matrix: (Units=1/GPa)
#
#
# Indices 1 2 3 4 5 6 
#
# 1 0.021921 -0.005506 -0.007067 0.000000 0.002907 0.000000
# 2 -0.005506 0.076139 -0.006198 0.000000 -0.013845 0.000000
# 3 -0.007067 -0.006198 0.010160 0.000000 0.005779 0.000000
# 4 0.000000 0.000000 0.000000 -0.004366 0.000000 0.052816
# 5 0.002907 -0.013845 0.005779 0.000000 0.030872 0.000000
# 6 0.000000 0.000000 0.000000 0.052816 0.000000 -0.033514
#
#
# Mechanical properties :
#
#
# Convention : Reuss Voigt Hill
#
# Bulk Modulus (GPa) = 14.14856 45.61596 29.88226
# Shear Modulus (GPa) = 30.80504 22.47880 26.64192
#
# Velocity S-wave (km/s) = 3.66979 3.13485 3.41282
# Velocity P-wave (km/s) = 4.91344 5.74851 5.34730
#
# Compressibility (1/GPa) = 0.07067857
#
# Stress axis : x y z
#
# Youngs Moduli (GPa) = 45.61886 13.13388 98.42967
#
# Poissons Ratio (x) = 0.07231 0.69557
# Poissons Ratio (y) = 0.25116 0.61008
# Poissons Ratio (z) = 0.32237 0.08141
#
# Static dielectric constant tensor:
#      x y z
#    x 1.910880 0.000000 -0.006080 
#    y 0.000000 1.819240 0.000000 
#    z -0.006080 0.000000 1.851460 
# 
# From -- ./inp_files/195644.got.cif
#   From: 2010.05.17/outbox.cif.g08.bks.cpg/sg12_98_cif.got.tgz:195644.got - 2010.06.03 13:09:07.
