data_PCOD9221483
_publ_section_title
;
Structure prediction by ZEFSAII (Michael W. Deem and Ramdas Pophale) SiO2 
 PCOD9221483
Probable space group: C 2/M
;
_chemical_formula_sum "Si O2"
_cell_formula_units_Z 48
_cell_length_a 14.228195
_cell_length_b 20.646064
_cell_length_c 16.379461
_cell_angle_alpha 90.000000
_cell_angle_beta 149.842687
_cell_angle_gamma 90.000000
_cell_volume 2417.216106
_symmetry_space_group_name_H-M "C 2/M"
_symmetry_group_IT_number 12
_symmetry_cell_setting 'monoclinic'
loop_
_space_group_symop_operation_xyz
x,y,z
-x,y,-z
-x,-y,-z
x,-y,z
1/2+x,1/2+y,z
1/2-x,1/2+y,-z
1/2-x,1/2-y,-z
1/2+x,1/2-y,z
loop_
_atom_site_type_symbol
_atom_site_label
_atom_site_fract_x
_atom_site_fract_y
_atom_site_fract_z
Si Si1 0.083036 0.681486 0.803059
Si Si2 0.818917 0.575388 0.672490
Si Si3 0.353479 0.770736 0.317417
Si Si4 0.517532 0.691102 0.176839
Si Si5 0.720661 0.129483 0.180296
Si Si6 0.527291 0.426140 0.305046
O O1 0.060428 0.685164 0.688873
O O2 0.982835 0.743648 0.768765
O O3 0.993272 0.618759 0.776163
O O4 0.304360 0.684992 0.986160
O O5 0.865992 0.500000 0.715754
O O6 0.746366 0.601004 0.704874
O O7 0.664754 0.582603 0.485712
O O8 0.500000 0.761200 0.500000
O O9 0.303883 0.701698 0.239889
O O10 0.164352 0.798972 0.214481
O O11 0.565367 0.628271 0.266334
O O12 0.822195 0.087166 0.188215
O O13 0.500000 0.132432 0.000000
O O14 0.544807 0.500000 0.288724
#
# Coordination Sequence:
#
# PCOD9221483 Si02
#       6
#     8   8   8   8   8   8
#     4  11  23  40  64  92 124 161 204 253 304 363
#     4  11  24  41  62  91 126 164 206 252 306 366
#     4  12  24  39  64  93 124 160 204 256 306 357
#     4  11  23  40  64  92 124 161 204 253 304 363
#     4  12  23  37  60  92 127 163 204 251 307 366
#     4  11  24  41  62  91 126 164 206 252 306 366
#
# _framework density 19.857552999999999
#
# number of rings (size 3 to 8) (size 9 to 14) (size 15 to 20)
#    0.000    0.667    3.333    5.500    0.000    6.000 
#    0.000    0.833    0.000    5.000    0.000    0.000 
#    0.000    0.000    0.000    0.000    0.000    0.000 
#
# Total GULP energy -134361.010990 kJ/mol
# GULP energy per Si atom -5598.375458 kJ/mol
# Density = 1.981236 g / cm^3
# Si number density = 19.857553 Si / 1000 Ang^3
#
#
#
# Elastic Constant Matrix: (Units=GPa)
#
#
# Indices 1 2 3 4 5 6 
#
# 1 70.2555 22.2299 -12.7518 0.0003 1.3250 0.0007
# 2 22.2299 98.8636 3.9541 0.0001 -5.0339 0.0009
# 3 -12.7518 3.9541 39.5756 0.0008 0.9405 0.0028
# 4 0.0003 0.0001 0.0008 13.8666 0.0004 -5.6298
# 5 1.3250 -5.0339 0.9405 0.0004 31.5829 0.0012
# 6 0.0007 0.0009 0.0028 -5.6298 0.0012 -11.9017
#
#
#
# Elastic Compliance Matrix: (Units=1/GPa)
#
#
# Indices 1 2 3 4 5 6 
#
# 1 0.016590 -0.004039 0.005785 0.000000 -0.001512 0.000002
# 2 -0.004039 0.011225 -0.002471 0.000000 0.002032 0.000000
# 3 0.005785 -0.002471 0.027414 0.000001 -0.001453 0.000006
# 4 0.000000 0.000000 0.000001 0.060497 0.000000 -0.028617
# 5 -0.001512 0.002032 -0.001453 0.000000 0.032093 0.000003
# 6 0.000002 0.000000 0.000006 -0.028617 0.000003 -0.070485
#
#
# Mechanical properties :
#
#
# Convention : Reuss Voigt Hill
#
# Bulk Modulus (GPa) = 18.59448 26.17323 22.38386
# Shear Modulus (GPa) = 51.70040 19.72704 35.71372
#
# Velocity S-wave (km/s) = 5.10805 3.15529 4.24547
# Velocity P-wave (km/s) = 6.64634 5.14622 5.94379
#
# Compressibility (1/GPa) = 0.05377940
#
# Stress axis : x y z
#
# Youngs Moduli (GPa) = 60.27644 89.08375 36.47829
#
# Poissons Ratio (x) = 0.35979 -0.21103
# Poissons Ratio (y) = 0.24344 0.09014
# Poissons Ratio (z) = -0.34870 0.22014
#
# Static dielectric constant tensor:
#      x y z
#    x 1.666980 0.000000 -0.009690 
#    y 0.000000 1.664880 0.000000 
#    z -0.009690 0.000000 1.724860 
# 
# From -- ./inp_files/61746.got.cif
#   From: 2010.05.17/outbox.cif.g08.bks.cpg/sg12_31_cif.got.tgz:61746.got - 2010.06.03 13:09:07.
