data_PCOD9221205
_publ_section_title
;
Structure prediction by ZEFSAII (Michael W. Deem and Ramdas Pophale) SiO2 
 PCOD9221205
Probable space group: C 2/M
;
_chemical_formula_sum "Si O2"
_cell_formula_units_Z 44
_cell_length_a 11.390612
_cell_length_b 23.432277
_cell_length_c 11.188615
_cell_angle_alpha 90.000000
_cell_angle_beta 39.128419
_cell_angle_gamma 90.000000
_cell_volume 1884.555725
_symmetry_space_group_name_H-M "C 2/M"
_symmetry_group_IT_number 12
_symmetry_cell_setting 'monoclinic'
loop_
_space_group_symop_operation_xyz
x,y,z
-x,y,-z
-x,-y,-z
x,-y,z
1/2+x,1/2+y,z
1/2-x,1/2+y,-z
1/2-x,1/2-y,-z
1/2+x,1/2-y,z
loop_
_atom_site_type_symbol
_atom_site_label
_atom_site_fract_x
_atom_site_fract_y
_atom_site_fract_z
Si Si1 0.984372 0.000000 0.201084
Si Si2 0.189283 0.678093 0.269422
Si Si3 0.346058 0.307882 0.725830
Si Si4 0.991903 0.600032 0.268765
Si Si5 0.000000 0.392443 0.000000
Si Si6 0.400947 0.625302 0.312581
Si Si7 0.176954 0.500000 0.251386
O O1 0.989483 0.062193 0.257937
O O2 0.785656 0.000000 0.289569
O O3 0.154292 0.000000 0.975765
O O4 0.234569 0.744173 0.216194
O O5 0.134912 0.650764 0.185682
O O6 0.336537 0.641026 0.228883
O O7 0.000000 0.676737 0.500000
O O8 0.500000 0.313259 0.500000
O O9 0.465498 0.324957 0.747424
O O10 0.180433 0.352607 0.845130
O O11 0.051279 0.553922 0.320149
O O12 0.786279 0.622089 0.460206
O O13 0.011180 0.576688 0.119364
#
# Coordination Sequence:
#
# PCOD9221205 Si02
#       7
#     4   8   8   8   4   8   4
#     4  11  23  41  69 103 137 178 225 293 348 398
#     4   9  22  39  69 100 132 178 228 287 337 399
#     4  11  24  45  68  98 143 182 228 281 340 413
#     4  11  23  42  67  98 135 178 227 283 339 406
#     4  12  26  43  64 100 140 183 228 274 344 414
#     4  11  22  44  73 100 133 181 234 282 345 405
#     4  11  23  42  64 102 142 169 230 293 341 406
#
# _framework density 23.347677999999998
#
# number of rings (size 3 to 8) (size 9 to 14) (size 15 to 20)
#    0.000    1.273    3.636    1.636    2.545    4.000 
#    3.273    1.364    0.000    0.000    0.000    0.000 
#    0.000    0.000    0.000    0.000    0.000    0.000 
#
# Total GULP energy -123007.708329 kJ/mol
# GULP energy per Si atom -5591.259469 kJ/mol
# Density = 2.329454 g / cm^3
# Si number density = 23.347678 Si / 1000 Ang^3
#
#
#
# Elastic Constant Matrix: (Units=GPa)
#
#
# Indices 1 2 3 4 5 6 
#
# 1 72.1652 8.2864 19.1279 0.0000 2.3957 0.0000
# 2 8.2864 79.6650 1.0392 0.0000 -6.2959 0.0000
# 3 19.1279 1.0392 90.9657 0.0000 0.9605 0.0000
# 4 0.0000 0.0000 0.0000 2.4963 0.0000 30.7108
# 5 2.3957 -6.2959 0.9605 0.0000 31.7761 0.0000
# 6 0.0000 0.0000 0.0000 30.7108 0.0000 -39.3730
#
#
#
# Elastic Compliance Matrix: (Units=1/GPa)
#
#
# Indices 1 2 3 4 5 6 
#
# 1 0.014910 -0.001617 -0.003102 0.000000 -0.001351 0.000000
# 2 -0.001617 0.012930 0.000164 0.000000 0.002679 0.000000
# 3 -0.003102 0.000164 0.011645 0.000000 -0.000086 0.000000
# 4 0.000000 0.000000 0.000000 0.037806 0.000000 0.029489
# 5 -0.001351 0.002679 -0.000086 0.000000 0.032105 0.000000
# 6 0.000000 0.000000 0.000000 0.029489 0.000000 -0.002397
#
#
# Mechanical properties :
#
#
# Convention : Reuss Voigt Hill
#
# Bulk Modulus (GPa) = 32.92321 33.30033 33.11177
# Shear Modulus (GPa) = 39.60862 13.26938 26.43900
#
# Velocity S-wave (km/s) = 4.12329 2.38657 3.36877
# Velocity P-wave (km/s) = 6.06635 4.67847 5.41704
#
# Compressibility (1/GPa) = 0.03037371
#
# Stress axis : x y z
#
# Youngs Moduli (GPa) = 67.06933 77.33748 85.87707
#
# Poissons Ratio (x) = 0.12507 0.26643
# Poissons Ratio (y) = 0.10846 -0.01409
# Poissons Ratio (z) = 0.20808 -0.01269
#
# Static dielectric constant tensor:
#      x y z
#    x 1.902060 0.000000 0.028210 
#    y 0.000000 1.881790 0.000000 
#    z 0.028210 0.000000 1.878240 
# 
# From -- ./inp_files/135801.got.cif
#   From: 2010.05.17/outbox.cif.g08.bks.cpg/sg12_68_cif.got.tgz:135801.got - 2010.06.03 13:09:07.
