data_PCOD9221584
_publ_section_title
;
Structure prediction by ZEFSAII (Michael W. Deem and Ramdas Pophale) SiO2 
 PCOD9221584
Probable space group: C 2/M
;
_chemical_formula_sum "Si O2"
_cell_formula_units_Z 48
_cell_length_a 12.036092
_cell_length_b 18.473125
_cell_length_c 11.570339
_cell_angle_alpha 90.000000
_cell_angle_beta 111.448898
_cell_angle_gamma 90.000000
_cell_volume 2394.430487
_symmetry_space_group_name_H-M "C 2/M"
_symmetry_group_IT_number 12
_symmetry_cell_setting 'monoclinic'
loop_
_space_group_symop_operation_xyz
x,y,z
-x,y,-z
-x,-y,-z
x,-y,z
1/2+x,1/2+y,z
1/2-x,1/2+y,-z
1/2-x,1/2-y,-z
1/2+x,1/2-y,z
loop_
_atom_site_type_symbol
_atom_site_label
_atom_site_fract_x
_atom_site_fract_y
_atom_site_fract_z
Si Si1 0.280237 0.323201 0.589331
Si Si2 0.120034 0.288624 0.975349
Si Si3 0.784546 0.417359 0.830141
Si Si4 0.460550 0.358087 0.361696
Si Si5 0.904871 0.303160 0.302644
Si Si6 0.606821 0.082816 0.383073
O O1 0.250000 0.250000 0.500000
O O2 0.417401 0.342643 0.658100
O O3 0.222627 0.322733 0.693977
O O4 0.220284 0.387812 0.495077
O O5 0.080695 0.298989 0.828590
O O6 0.250000 0.250000 0.000000
O O7 0.159287 0.360733 0.059291
O O8 0.000000 0.260164 0.000000
O O9 0.790435 0.500000 0.874306
O O10 0.647494 0.397469 0.743994
O O11 0.858248 0.412251 0.738609
O O12 0.500000 0.391121 0.500000
O O13 0.419577 0.275492 0.365088
O O14 0.001428 0.362477 0.374177
O O15 0.578000 0.000000 0.398781
#
# Coordination Sequence:
#
# PCOD9221584 Si02
#       6
#     8   8   8   8   8   8
#     4  12  23  38  64 100 137 175 217 272 341 407
#     4  12  27  45  72 101 133 177 235 282 333 397
#     4  11  25  45  67  98 135 175 226 278 329 403
#     4  12  22  39  67  99 135 172 221 272 335 403
#     4  12  24  40  67  96 133 175 220 281 332 397
#     4  11  23  41  65  97 136 172 217 276 335 398
#
# _framework density 20.046520999999998
#
# number of rings (size 3 to 8) (size 9 to 14) (size 15 to 20)
#    0.000    0.333    8.333    0.500    2.333    3.333 
#    0.000    0.000    0.000    3.500    0.000    0.000 
#    0.000    0.000    0.000    0.000    0.000    0.000 
#
# Total GULP energy -133792.161723 kJ/mol
# GULP energy per Si atom -5574.673405 kJ/mol
# Density = 2.000089 g / cm^3
# Si number density = 20.046521 Si / 1000 Ang^3
#
#
#
# Elastic Constant Matrix: (Units=GPa)
#
#
# Indices 1 2 3 4 5 6 
#
# 1 118.1557 36.5912 10.6784 0.0000 0.3907 0.0000
# 2 36.5912 59.6193 -2.8715 0.0000 -8.2564 0.0000
# 3 10.6784 -2.8715 72.7075 0.0000 -20.0519 0.0000
# 4 0.0000 0.0000 0.0000 65.4245 0.0000 -21.9745
# 5 0.3907 -8.2564 -20.0519 0.0000 34.1606 0.0000
# 6 0.0000 0.0000 0.0000 -21.9745 0.0000 41.4530
#
#
#
# Elastic Compliance Matrix: (Units=1/GPa)
#
#
# Indices 1 2 3 4 5 6 
#
# 1 0.011035 -0.007416 -0.002915 0.000000 -0.003629 0.000000
# 2 -0.007416 0.022637 0.004195 0.000000 0.008018 0.000000
# 3 -0.002915 0.004195 0.017463 0.000000 0.011298 0.000000
# 4 0.000000 0.000000 0.000000 0.018596 0.000000 0.009858
# 5 -0.003629 0.008018 0.011298 0.000000 0.037885 0.000000
# 6 0.000000 0.000000 0.000000 0.009858 0.000000 0.029349
#
#
# Mechanical properties :
#
#
# Convention : Reuss Voigt Hill
#
# Bulk Modulus (GPa) = 25.73095 37.69763 31.71429
# Shear Modulus (GPa) = 30.82758 41.94656 36.38707
#
# Velocity S-wave (km/s) = 3.92574 4.57930 4.26506
# Velocity P-wave (km/s) = 5.78031 6.84149 6.33317
#
# Compressibility (1/GPa) = 0.03886370
#
# Stress axis : x y z
#
# Youngs Moduli (GPa) = 90.61702 44.17528 57.26296
#
# Poissons Ratio (x) = 0.32760 0.16690
# Poissons Ratio (y) = 0.67202 -0.24019
# Poissons Ratio (z) = 0.26411 -0.18529
#
# Static dielectric constant tensor:
#      x y z
#    x 1.910750 0.000000 -0.100390 
#    y 0.000000 1.732840 0.000000 
#    z -0.100390 0.000000 1.920050 
# 
# From -- ./inp_files/131654.got.cif
#   From: 2010.05.17/outbox.cif.g08.bks.cpg/sg12_66_cif.got.tgz:131654.got - 2010.06.03 13:09:07.
