data_PCOD9221672
_publ_section_title
;
Structure prediction by ZEFSAII (Michael W. Deem and Ramdas Pophale) SiO2 
 PCOD9221672
Probable space group: C 2/M
;
_chemical_formula_sum "Si O2"
_cell_formula_units_Z 56
_cell_length_a 9.222776
_cell_length_b 17.422535
_cell_length_c 24.399364
_cell_angle_alpha 90.000000
_cell_angle_beta 41.657403
_cell_angle_gamma 90.000000
_cell_volume 2605.918967
_symmetry_space_group_name_H-M "C 2/M"
_symmetry_group_IT_number 12
_symmetry_cell_setting 'monoclinic'
loop_
_space_group_symop_operation_xyz
x,y,z
-x,y,-z
-x,-y,-z
x,-y,z
1/2+x,1/2+y,z
1/2-x,1/2+y,-z
1/2-x,1/2-y,-z
1/2+x,1/2-y,z
loop_
_atom_site_type_symbol
_atom_site_label
_atom_site_fract_x
_atom_site_fract_y
_atom_site_fract_z
Si Si1 0.313364 0.665853 0.665853
Si Si2 0.677427 0.911830 0.808122
Si Si3 0.161641 0.587334 0.606392
Si Si4 0.294782 0.170775 0.518066
Si Si5 0.460941 0.290652 0.796376
Si Si6 0.232286 0.140487 0.905863
Si Si7 0.808536 0.916026 0.202294
O O1 0.199723 0.602736 0.736456
O O2 0.303124 0.642480 0.605211
O O3 0.564074 0.661464 0.613385
O O4 0.173693 0.744033 0.713203
O O5 0.830736 0.846684 0.791983
O O6 0.424460 0.891766 0.890462
O O7 0.729382 0.000000 0.807012
O O8 0.235966 0.500000 0.592053
O O9 0.165549 0.610269 0.541928
O O10 0.919225 0.593325 0.700638
O O11 0.500000 0.172320 0.500000
O O12 0.250000 0.250000 0.500000
O O13 0.306621 0.224400 0.863737
O O14 0.543112 0.346219 0.820735
O O15 0.221808 0.089912 0.853873
O O16 0.000000 0.142163 0.000000
O O17 0.897111 0.000000 0.191838
#
# Coordination Sequence:
#
# PCOD9221672 Si02
#       7
#     8   8   8   8   8   8   8
#     4  11  24  42  70  97 137 180 232 285 341 408
#     4  11  24  42  69 102 136 178 225 278 339 405
#     4  11  24  45  70  98 137 182 230 285 351 414
#     4  12  28  44  66  99 136 181 235 287 346 407
#     4  11  24  41  68 102 136 178 225 282 342 405
#     4  11  24  44  71 100 134 177 225 276 337 413
#     4  11  23  42  66  98 136 178 223 276 344 410
#
# _framework density 21.489540999999999
#
# number of rings (size 3 to 8) (size 9 to 14) (size 15 to 20)
#    0.000    0.857    2.857    5.143    6.000    5.429 
#    0.000    0.000    0.000    2.571    0.000    0.000 
#    0.000    0.000    0.000    0.000    0.000    0.000 
#
# Total GULP energy -156503.076575 kJ/mol
# GULP energy per Si atom -5589.395592 kJ/mol
# Density = 2.144063 g / cm^3
# Si number density = 21.489541 Si / 1000 Ang^3
#
#
#
# Elastic Constant Matrix: (Units=GPa)
#
#
# Indices 1 2 3 4 5 6 
#
# 1 120.0257 43.1905 43.6533 0.0073 -21.3589 -0.0041
# 2 43.1905 141.0747 39.3967 -0.0023 -8.1419 -0.0002
# 3 43.6533 39.3967 136.7827 -0.0253 -22.4213 0.0020
# 4 0.0073 -0.0023 -0.0253 -8.8127 0.0103 6.0105
# 5 -21.3589 -8.1419 -22.4213 0.0103 20.7125 0.0010
# 6 -0.0041 -0.0002 0.0020 6.0105 0.0010 17.4432
#
#
#
# Elastic Compliance Matrix: (Units=1/GPa)
#
#
# Indices 1 2 3 4 5 6 
#
# 1 0.011407 -0.002572 -0.001383 0.000021 0.009255 -0.000005
# 2 -0.002572 0.008298 -0.001786 -0.000001 -0.001324 0.000000
# 3 -0.001383 -0.001786 0.009626 -0.000016 0.008292 0.000004
# 4 0.000021 -0.000001 -0.000016 -0.091880 0.000049 0.031659
# 5 0.009255 -0.001324 0.008292 0.000049 0.066280 -0.000019
# 6 -0.000005 0.000000 0.000004 0.031659 -0.000019 0.046420
#
#
# Mechanical properties :
#
#
# Convention : Reuss Voigt Hill
#
# Bulk Modulus (GPa) = 56.02435 72.26266 64.14351
# Shear Modulus (GPa) = 73.98359 23.97810 48.98084
#
# Velocity S-wave (km/s) = 5.87388 3.34399 4.77937
# Velocity P-wave (km/s) = 8.49296 6.97206 7.76981
#
# Compressibility (1/GPa) = 0.01784938
#
# Stress axis : x y z
#
# Youngs Moduli (GPa) = 87.66629 120.50648 103.88726
#
# Poissons Ratio (x) = 0.30995 0.14362
# Poissons Ratio (y) = 0.22548 0.18557
# Poissons Ratio (z) = 0.12120 0.21526
#
# Static dielectric constant tensor:
#      x y z
#    x 1.830120 0.000000 -0.068750 
#    y 0.000000 1.792110 0.000000 
#    z -0.068750 0.000000 1.990060 
# 
# From -- ./inp_files/356645.got.cif
#   From: 2010.05.17/outbox.cif.g08.bks.cpg/sg12_179_cif.got.tgz:356645.got - 2010.06.03 13:09:07.
