data_PCOD9221091
_publ_section_title
;
Structure prediction by ZEFSAII (Michael W. Deem and Ramdas Pophale) SiO2 
 PCOD9221091
Probable space group: C 2/M
;
_chemical_formula_sum "Si O2"
_cell_formula_units_Z 40
_cell_length_a 12.397766
_cell_length_b 30.937901
_cell_length_c 5.095977
_cell_angle_alpha 90.000000
_cell_angle_beta 77.393585
_cell_angle_gamma 90.000000
_cell_volume 1907.496041
_symmetry_space_group_name_H-M "C 2/M"
_symmetry_group_IT_number 12
_symmetry_cell_setting 'monoclinic'
loop_
_space_group_symop_operation_xyz
x,y,z
-x,y,-z
-x,-y,-z
x,-y,z
1/2+x,1/2+y,z
1/2-x,1/2+y,-z
1/2-x,1/2-y,-z
1/2+x,1/2-y,z
loop_
_atom_site_type_symbol
_atom_site_label
_atom_site_fract_x
_atom_site_fract_y
_atom_site_fract_z
Si Si1 0.237846 0.301205 0.495922
Si Si2 0.739366 0.452146 0.546282
Si Si3 0.421197 0.370843 0.291606
Si Si4 0.880943 0.433618 0.960589
Si Si5 0.614760 0.830340 0.063395
O O1 0.250000 0.250000 0.500000
O O2 0.343811 0.328451 0.344756
O O3 0.206977 0.317675 0.801864
O O4 0.143256 0.312508 0.333843
O O5 0.687603 0.500000 0.579882
O O6 0.657301 0.413124 0.660929
O O7 0.791860 0.443816 0.233226
O O8 0.837708 0.451245 0.708041
O O9 0.500000 0.371830 0.500000
O O10 0.500000 0.370796 0.000000
O O11 0.889341 0.382042 0.918757
O O12 0.000000 0.448959 0.000000
O O13 0.500000 0.814408 0.000000
#
# Coordination Sequence:
#
# PCOD9221091 Si02
#       5
#     8   8   8   8   8
#     4  12  25  44  69 101 133 170 221 274 336 407
#     4  12  25  43  68  99 137 180 232 283 331 399
#     4  12  26  46  69  93 135 181 226 280 334 386
#     4  11  22  41  69 100 137 177 217 271 348 409
#     4  11  22  42  70  97 133 172 212 268 337 409
#
# _framework density 20.969897
#
# number of rings (size 3 to 8) (size 9 to 14) (size 15 to 20)
#    0.000    0.400    4.000    4.800    0.000    8.800 
#    0.000    0.000    0.000    0.000    0.000    0.000 
#    0.000    0.000    0.000    0.000    0.000    0.000 
#
# Total GULP energy -111954.741098 kJ/mol
# GULP energy per Si atom -5597.737055 kJ/mol
# Density = 2.092217 g / cm^3
# Si number density = 20.969897 Si / 1000 Ang^3
#
#
#
# Elastic Constant Matrix: (Units=GPa)
#
#
# Indices 1 2 3 4 5 6 
#
# 1 90.1728 43.8388 -0.1709 0.0000 12.9719 0.0000
# 2 43.8388 164.2848 9.0158 0.0000 -2.4841 0.0000
# 3 -0.1709 9.0158 79.1191 0.0000 6.2708 0.0000
# 4 0.0000 0.0000 0.0000 6.2189 0.0000 9.6316
# 5 12.9719 -2.4841 6.2708 0.0000 50.1977 0.0000
# 6 0.0000 0.0000 0.0000 9.6316 0.0000 1.5301
#
#
#
# Elastic Compliance Matrix: (Units=1/GPa)
#
#
# Indices 1 2 3 4 5 6 
#
# 1 0.013418 -0.003678 0.000745 0.000000 -0.003742 0.000000
# 2 -0.003678 0.007141 -0.000934 0.000000 0.001421 0.000000
# 3 0.000745 -0.000934 0.012894 0.000000 -0.001849 0.000000
# 4 0.000000 0.000000 0.000000 -0.018379 0.000000 0.115692
# 5 -0.003742 0.001421 -0.001849 0.000000 0.021190 0.000000
# 6 0.000000 0.000000 0.000000 0.115692 0.000000 -0.074700
#
#
# Mechanical properties :
#
#
# Convention : Reuss Voigt Hill
#
# Bulk Modulus (GPa) = 38.88376 48.77157 43.82767
# Shear Modulus (GPa) = -225.94792 30.31553 -97.81620
#
# Velocity S-wave (km/s) = -10.39147 3.80632 -6.83720
# Velocity P-wave (km/s) = 11.19794 6.52885 6.43304
#
# Compressibility (1/GPa) = 0.02571767
#
# Stress axis : x y z
#
# Youngs Moduli (GPa) = 74.52867 140.03297 77.55652
#
# Poissons Ratio (x) = 0.51503 -0.05776
# Poissons Ratio (y) = 0.27411 0.07246
# Poissons Ratio (z) = -0.05550 0.13083
#
# Static dielectric constant tensor:
#      x y z
#    x 1.762680 0.000000 -0.008960 
#    y 0.000000 1.776460 0.000000 
#    z -0.008960 0.000000 1.698640 
# 
# From -- ./inp_files/8319.got.cif
#   From: 2010.05.17/outbox.cif.g08.bks.cpg/sg12_5_cif.got.tgz:8319.got - 2010.06.03 13:09:07.
