data_PCOD9221465
_publ_section_title
;
Structure prediction by ZEFSAII (Michael W. Deem and Ramdas Pophale) SiO2 
 PCOD9221465
Probable space group: C 2/M
;
_chemical_formula_sum "Si O2"
_cell_formula_units_Z 48
_cell_length_a 7.717431
_cell_length_b 27.562320
_cell_length_c 11.727531
_cell_angle_alpha 90.000000
_cell_angle_beta 90.292060
_cell_angle_gamma 90.000000
_cell_volume 2494.534261
_symmetry_space_group_name_H-M "C 2/M"
_symmetry_group_IT_number 12
_symmetry_cell_setting 'monoclinic'
loop_
_space_group_symop_operation_xyz
x,y,z
-x,y,-z
-x,-y,-z
x,-y,z
1/2+x,1/2+y,z
1/2-x,1/2+y,-z
1/2-x,1/2-y,-z
1/2+x,1/2-y,z
loop_
_atom_site_type_symbol
_atom_site_label
_atom_site_fract_x
_atom_site_fract_y
_atom_site_fract_z
Si Si1 0.270896 0.809434 0.615322
Si Si2 0.818396 0.700481 0.359615
Si Si3 0.507490 0.444841 0.375415
Si Si4 0.802539 0.594097 0.745182
Si Si5 0.709235 0.442618 0.993738
Si Si6 0.702071 0.107073 0.771527
O O1 0.207294 0.757509 0.659664
O O2 0.478430 0.806871 0.620112
O O3 0.225182 0.812979 0.480032
O O4 0.228030 0.854779 0.695849
O O5 0.771353 0.664031 0.257328
O O6 0.500000 0.421921 0.500000
O O7 0.567843 0.500000 0.387166
O O8 0.315532 0.443707 0.322956
O O9 0.644977 0.419087 0.295757
O O10 0.768249 0.582608 0.877073
O O11 0.009041 0.593301 0.726764
O O12 0.760555 0.500000 0.997923
O O13 0.500000 0.441610 0.000000
O O14 0.783372 0.412035 0.099746
#
# Coordination Sequence:
#
# PCOD9221465 Si02
#       6
#     8   8   8   8   8   8
#     4   9  19  35  58  89 121 157 200 247 303 366
#     4   9  19  35  58  89 121 157 200 247 303 366
#     4  11  24  39  59  89 123 162 203 249 311 372
#     4  11  23  40  62  89 123 160 206 256 309 362
#     4  11  23  41  64  88 116 159 213 260 306 365
#     4  11  23  40  62  89 123 160 206 256 309 362
#
# _framework density 19.242069000000001
#
# number of rings (size 3 to 8) (size 9 to 14) (size 15 to 20)
#    0.000    1.667    1.667    2.500    2.333    5.333 
#    0.000    2.500    0.000    0.000    0.000    0.000 
#    0.000    0.000    0.000    0.000    0.000    0.000 
#
# Total GULP energy -133856.915665 kJ/mol
# GULP energy per Si atom -5577.371486 kJ/mol
# Density = 1.919827 g / cm^3
# Si number density = 19.242069 Si / 1000 Ang^3
#
#
#
# Elastic Constant Matrix: (Units=GPa)
#
#
# Indices 1 2 3 4 5 6 
#
# 1 63.1234 4.8408 12.1079 0.0000 2.4736 0.0000
# 2 4.8408 122.3477 50.1305 0.0000 -5.7984 0.0000
# 3 12.1079 50.1305 116.1511 0.0000 8.4161 0.0000
# 4 0.0000 0.0000 0.0000 30.5904 0.0000 0.0314
# 5 2.4736 -5.7984 8.4161 0.0000 21.4707 0.0000
# 6 0.0000 0.0000 0.0000 0.0314 0.0000 29.8254
#
#
#
# Elastic Compliance Matrix: (Units=1/GPa)
#
#
# Indices 1 2 3 4 5 6 
#
# 1 0.016198 -0.000057 -0.001572 0.000000 -0.001265 0.000000
# 2 -0.000057 0.010368 -0.004809 0.000000 0.004692 0.000000
# 3 -0.001572 -0.004809 0.011249 0.000000 -0.005527 0.000000
# 4 0.000000 0.000000 0.000000 0.032690 0.000000 -0.000034
# 5 -0.001265 0.004692 -0.005527 0.000000 0.050155 0.000000
# 6 0.000000 0.000000 0.000000 -0.000034 0.000000 0.033529
#
#
# Mechanical properties :
#
#
# Convention : Reuss Voigt Hill
#
# Bulk Modulus (GPa) = 40.09717 48.42005 44.25861
# Shear Modulus (GPa) = 28.50990 32.01349 30.26170
#
# Velocity S-wave (km/s) = 3.85339 4.08330 3.97001
# Velocity P-wave (km/s) = 6.37822 6.88835 6.63819
#
# Compressibility (1/GPa) = 0.02493941
#
# Stress axis : x y z
#
# Youngs Moduli (GPa) = 61.73787 96.44620 88.89325
#
# Poissons Ratio (x) = 0.00545 0.13978
# Poissons Ratio (y) = 0.00349 0.42749
# Poissons Ratio (z) = 0.09708 0.46382
#
# Static dielectric constant tensor:
#      x y z
#    x 1.689530 0.000000 0.005280 
#    y 0.000000 1.691510 0.000000 
#    z 0.005280 0.000000 1.685910 
# 
# From -- ./inp_files/121965.got.cif
#   From: 2010.05.17/outbox.cif.g08.bks.cpg/sg12_61_cif.got.tgz:121965.got - 2010.06.03 13:09:07.
