data_PCOD9221064
_publ_section_title
;
Structure prediction by ZEFSAII (Michael W. Deem and Ramdas Pophale) SiO2 
 PCOD9221064
Probable space group: C 2/M
;
_chemical_formula_sum "Si O2"
_cell_formula_units_Z 42
_cell_length_a 14.670435
_cell_length_b 7.634000
_cell_length_c 18.817442
_cell_angle_alpha 90.000000
_cell_angle_beta 129.363060
_cell_angle_gamma 90.000000
_cell_volume 1629.353653
_symmetry_space_group_name_H-M "C 2/M"
_symmetry_group_IT_number 12
_symmetry_cell_setting 'monoclinic'
loop_
_space_group_symop_operation_xyz
x,y,z
-x,y,-z
-x,-y,-z
x,-y,z
1/2+x,1/2+y,z
1/2-x,1/2+y,-z
1/2-x,1/2-y,-z
1/2+x,1/2-y,z
loop_
_atom_site_type_symbol
_atom_site_label
_atom_site_fract_x
_atom_site_fract_y
_atom_site_fract_z
Si Si1 0.808286 0.206506 0.269117
Si Si2 0.070974 0.207178 0.878726
Si Si3 0.814890 0.289122 0.927605
Si Si4 0.654864 0.710603 0.319940
Si Si5 0.000000 0.000000 0.500000
Si Si6 0.062266 0.691780 0.420968
O O1 0.706764 0.266731 0.164266
O O2 0.764208 0.227793 0.327187
O O3 0.930863 0.303583 0.320890
O O4 0.831479 0.000000 0.267802
O O5 0.193149 0.274279 0.905018
O O6 0.958297 0.276886 0.781511
O O7 0.071856 0.000000 0.866701
O O8 0.080749 0.234318 0.968218
O O9 0.820048 0.500000 0.930175
O O10 0.652783 0.500000 0.319922
O O11 0.647595 0.776028 0.396389
O O12 0.947472 0.153289 0.527847
O O13 0.085484 0.500000 0.463996
#
# Coordination Sequence:
#
# PCOD9221064 Si02
#       6
#     8   8   8   8   2   8
#     4  11  22  41  66  98 139 181 228 284 335 400
#     4   9  18  33  55  85 129 179 228 282 332 380
#     4   9  18  33  55  85 129 179 228 282 332 380
#     4  11  22  41  66  98 139 181 228 284 335 400
#     4  12  26  52  80 102 144 166 214 284 340 414
#     4  12  25  47  78 105 134 178 221 267 348 415
#
# _framework density 25.777094000000002
#
# number of rings (size 3 to 8) (size 9 to 14) (size 15 to 20)
#    0.000    1.524    3.810    1.429    0.000    3.810 
#    0.000    4.762    0.000    0.000    0.000    0.000 
#    0.000    0.000    0.000    0.000    0.000    0.000 
#
# Total GULP energy -117331.523539 kJ/mol
# GULP energy per Si atom -5587.215407 kJ/mol
# Density = 2.571842 g / cm^3
# Si number density = 25.777094 Si / 1000 Ang^3
#
#
#
# Elastic Constant Matrix: (Units=GPa)
#
#
# Indices 1 2 3 4 5 6 
#
# 1 71.3301 -14.7355 45.4175 0.0000 -30.0807 0.0000
# 2 -14.7355 120.1873 17.1893 0.0000 -13.4557 0.0000
# 3 45.4175 17.1893 165.7119 0.0000 -8.4123 0.0000
# 4 0.0000 0.0000 0.0000 28.1828 0.0000 -15.0548
# 5 -30.0807 -13.4557 -8.4123 0.0000 52.8874 0.0000
# 6 0.0000 0.0000 0.0000 -15.0548 0.0000 2.0546
#
#
#
# Elastic Compliance Matrix: (Units=1/GPa)
#
#
# Indices 1 2 3 4 5 6 
#
# 1 0.026131 0.005913 -0.007001 0.000000 0.015253 0.000000
# 2 0.005913 0.010004 -0.002378 0.000000 0.005530 0.000000
# 3 -0.007001 -0.002378 0.008032 0.000000 -0.003309 0.000000
# 4 0.000000 0.000000 0.000000 -0.012176 0.000000 -0.089217
# 5 0.015253 0.005530 -0.003309 0.000000 0.028464 0.000000
# 6 0.000000 0.000000 0.000000 -0.089217 0.000000 -0.167016
#
#
# Mechanical properties :
#
#
# Convention : Reuss Voigt Hill
#
# Bulk Modulus (GPa) = 26.85586 50.33022 38.59304
# Shear Modulus (GPa) = -57.32801 37.24883 -10.03959
#
# Velocity S-wave (km/s) = -4.72104 3.80549 -1.97566
# Velocity P-wave (km/s) = 4.39050 6.23510 3.13050
#
# Compressibility (1/GPa) = 0.03723583
#
# Stress axis : x y z
#
# Youngs Moduli (GPa) = 38.26912 99.95563 124.50287
#
# Poissons Ratio (x) = -0.59101 0.87162
# Poissons Ratio (y) = -0.22627 0.29601
# Poissons Ratio (z) = 0.26791 0.23765
#
# Static dielectric constant tensor:
#      x y z
#    x 2.002910 0.000000 0.040290 
#    y 0.000000 1.951880 0.000000 
#    z 0.040290 0.000000 2.121220 
# 
# From -- ./inp_files/41786.got.cif
#   From: 2010.05.17/outbox.cif.g08.bks.cpg/sg12_21_cif.got.tgz:41786.got - 2010.06.03 13:09:07.
