data_PCOD9221499
_publ_section_title
;
Structure prediction by ZEFSAII (Michael W. Deem and Ramdas Pophale) SiO2 
 PCOD9221499
Probable space group: C 2/M
;
_chemical_formula_sum "Si O2"
_cell_formula_units_Z 56
_cell_length_a 17.294833
_cell_length_b 17.028768
_cell_length_c 8.638783
_cell_angle_alpha 90.000000
_cell_angle_beta 74.820524
_cell_angle_gamma 90.000000
_cell_volume 2455.438948
_symmetry_space_group_name_H-M "C 2/M"
_symmetry_group_IT_number 12
_symmetry_cell_setting 'monoclinic'
loop_
_space_group_symop_operation_xyz
x,y,z
-x,y,-z
-x,-y,-z
x,-y,z
1/2+x,1/2+y,z
1/2-x,1/2+y,-z
1/2-x,1/2-y,-z
1/2+x,1/2-y,z
loop_
_atom_site_type_symbol
_atom_site_label
_atom_site_fract_x
_atom_site_fract_y
_atom_site_fract_z
Si Si1 0.716207 0.088712 0.989163
Si Si2 0.851607 0.806774 0.412188
Si Si3 0.786735 0.412822 0.636261
Si Si4 0.061098 0.653129 0.597210
Si Si5 0.440039 0.167389 0.905002
Si Si6 0.640039 0.315609 0.223746
Si Si7 0.008676 0.907731 0.813102
O O1 0.714513 0.090366 0.177231
O O2 0.626794 0.111828 0.986870
O O3 0.737624 0.000000 0.929023
O O4 0.778876 0.151927 0.893954
O O5 0.768378 0.841580 0.394345
O O6 0.884116 0.720436 0.353996
O O7 0.849678 0.806852 0.598885
O O8 0.918121 0.863538 0.304506
O O9 0.756379 0.500000 0.606032
O O10 0.875963 0.402363 0.521680
O O11 0.000000 0.688596 0.500000
O O12 0.998707 0.621816 0.756049
O O13 0.392610 0.236179 0.839372
O O14 0.500000 0.202387 0.000000
O O15 0.571974 0.379764 0.226579
O O16 0.020527 0.000000 0.791882
O O17 0.000000 0.889836 0.000000
#
# Coordination Sequence:
#
# PCOD9221499 Si02
#       7
#     8   8   8   8   8   8   8
#     4  11  26  47  69  99 141 184 226 279 341 409
#     4  12  24  42  69 100 137 175 228 282 335 404
#     4  11  26  45  70 101 137 183 228 278 343 408
#     4  12  23  46  71 100 134 177 232 286 338 399
#     4  12  27  45  72 103 135 180 231 282 343 407
#     4  12  24  43  67  99 137 177 226 282 340 399
#     4  11  23  40  65  96 136 181 224 277 340 407
#
# _framework density 22.806512000000001
#
# number of rings (size 3 to 8) (size 9 to 14) (size 15 to 20)
#    0.000    0.429    4.286    3.429    4.000    6.286 
#    0.000    0.000    0.000    0.000    0.000    0.000 
#    0.000    0.000    0.000    0.000    0.000    0.000 
#
# Total GULP energy -156718.784793 kJ/mol
# GULP energy per Si atom -5597.099457 kJ/mol
# Density = 2.275460 g / cm^3
# Si number density = 22.806512 Si / 1000 Ang^3
#
#
#
# Elastic Constant Matrix: (Units=GPa)
#
#
# Indices 1 2 3 4 5 6 
#
# 1 109.4438 18.9439 30.6789 0.0000 -20.0098 0.0000
# 2 18.9439 44.4385 15.6096 0.0000 11.7296 0.0000
# 3 30.6789 15.6096 83.4442 0.0000 -26.5426 0.0000
# 4 0.0000 0.0000 0.0000 26.6589 0.0000 -9.2602
# 5 -20.0098 11.7296 -26.5426 0.0000 46.5810 0.0000
# 6 0.0000 0.0000 0.0000 -9.2602 0.0000 35.4326
#
#
#
# Elastic Compliance Matrix: (Units=1/GPa)
#
#
# Indices 1 2 3 4 5 6 
#
# 1 0.011593 -0.005995 -0.001315 0.000000 0.005741 0.000000
# 2 -0.005995 0.032332 -0.008858 0.000000 -0.015765 0.000000
# 3 -0.001315 -0.008858 0.017899 0.000000 0.011865 0.000000
# 4 0.000000 0.000000 0.000000 0.041256 0.000000 0.010782
# 5 0.005741 -0.015765 0.011865 0.000000 0.034664 0.000000
# 6 0.000000 0.000000 0.000000 0.010782 0.000000 0.031041
#
#
# Mechanical properties :
#
#
# Convention : Reuss Voigt Hill
#
# Bulk Modulus (GPa) = 33.91438 40.86570 37.39004
# Shear Modulus (GPa) = 23.70229 33.20742 28.45485
#
# Velocity S-wave (km/s) = 3.22728 3.81996 3.53606
# Velocity P-wave (km/s) = 5.36562 6.11666 5.75341
#
# Compressibility (1/GPa) = 0.02948602
#
# Stress axis : x y z
#
# Youngs Moduli (GPa) = 86.25909 30.92950 55.87041
#
# Poissons Ratio (x) = 0.18544 0.07345
# Poissons Ratio (y) = 0.51717 0.49492
# Poissons Ratio (z) = 0.11340 0.27399
#
# Static dielectric constant tensor:
#      x y z
#    x 1.845530 0.000000 0.079190 
#    y 0.000000 1.864500 0.000000 
#    z 0.079190 0.000000 2.339460 
# 
# From -- ./inp_files/75901.got.cif
#   From: 2010.05.17/outbox.cif.g08.bks.cpg/sg12_38_cif.got.tgz:75901.got - 2010.06.03 13:09:07.
