data_PCOD9221836
_publ_section_title
;
Structure prediction by ZEFSAII (Michael W. Deem and Ramdas Pophale) SiO2 
 PCOD9221836
Probable space group: C 2/M
;
_chemical_formula_sum "Si O2"
_cell_formula_units_Z 40
_cell_length_a 16.954241
_cell_length_b 13.113571
_cell_length_c 28.743220
_cell_angle_alpha 90.000000
_cell_angle_beta 161.159105
_cell_angle_gamma 90.000000
_cell_volume 2063.755834
_symmetry_space_group_name_H-M "C 2/M"
_symmetry_group_IT_number 12
_symmetry_cell_setting 'monoclinic'
loop_
_space_group_symop_operation_xyz
x,y,z
-x,y,-z
-x,-y,-z
x,-y,z
1/2+x,1/2+y,z
1/2-x,1/2+y,-z
1/2-x,1/2-y,-z
1/2+x,1/2-y,z
loop_
_atom_site_type_symbol
_atom_site_label
_atom_site_fract_x
_atom_site_fract_y
_atom_site_fract_z
Si Si1 0.688240 0.358089 0.446467
Si Si2 0.402300 0.000000 0.744219
Si Si3 0.558075 0.767957 0.851796
Si Si4 0.109664 0.000000 0.487952
Si Si5 0.129928 0.612416 0.622875
Si Si6 0.720917 0.381849 0.859978
O O1 0.750000 0.250000 0.500000
O O2 0.636142 0.410947 0.466113
O O3 0.458184 0.369434 0.283981
O O4 0.921797 0.389643 0.545969
O O5 0.527164 0.110350 0.824720
O O6 0.317402 0.000000 0.643104
O O7 0.151272 0.000000 0.633240
O O8 0.307812 0.709301 0.726477
O O9 0.646829 0.702691 0.856522
O O10 0.750000 0.750000 0.000000
O O11 0.254804 0.500000 0.694030
O O12 0.000000 0.620638 0.500000
O O13 0.694769 0.500000 0.862182
O O14 0.000000 0.368261 0.000000
#
# Coordination Sequence:
#
# PCOD9221836 Si02
#       6
#     8   4   8   4   8   8
#     4  12  23  41  71 106 136 179 232 284 350 413
#     4  11  28  48  65 103 142 181 234 284 352 432
#     4  12  28  45  72  98 142 192 228 283 351 420
#     4  11  24  44  70 101 137 177 224 289 351 407
#     4  11  23  44  72 104 138 175 235 298 341 402
#     4  11  25  45  71 105 141 178 233 293 341 413
#
# _framework density 19.382138000000001
#
# number of rings (size 3 to 8) (size 9 to 14) (size 15 to 20)
#    0.000    0.600    4.000    3.000   11.200    0.000 
#    0.000    0.500    0.000    0.000    0.000    0.000 
#    0.000    0.000    0.000    0.000    0.000    0.000 
#
# Total GULP energy -111579.061605 kJ/mol
# GULP energy per Si atom -5578.953080 kJ/mol
# Density = 1.933802 g / cm^3
# Si number density = 19.382138 Si / 1000 Ang^3
#
#
#
# Elastic Constant Matrix: (Units=GPa)
#
#
# Indices 1 2 3 4 5 6 
#
# 1 135.2311 57.8640 65.9605 0.0039 -13.5852 0.0011
# 2 57.8640 197.8884 81.5252 0.0314 -15.3187 -0.0016
# 3 65.9605 81.5252 125.5632 0.0796 -9.3474 0.0064
# 4 0.0039 0.0314 0.0796 23.2660 -0.0205 -7.0076
# 5 -13.5852 -15.3187 -9.3474 -0.0205 38.5517 -0.0066
# 6 0.0011 -0.0016 0.0064 -7.0076 -0.0066 29.6721
#
#
#
# Elastic Compliance Matrix: (Units=1/GPa)
#
#
# Indices 1 2 3 4 5 6 
#
# 1 0.010264 -0.000929 -0.004631 0.000019 0.002125 0.000006
# 2 -0.000929 0.007092 -0.004003 0.000007 0.001520 0.000003
# 3 -0.004631 -0.004003 0.012991 -0.000042 -0.000073 -0.000013
# 4 0.000019 0.000007 -0.000042 0.046273 0.000026 0.010928
# 5 0.002125 0.001520 -0.000073 0.000026 0.027274 0.000012
# 6 0.000006 0.000003 -0.000013 0.010928 0.000012 0.036283
#
#
# Mechanical properties :
#
#
# Convention : Reuss Voigt Hill
#
# Bulk Modulus (GPa) = 89.12151 96.59800 92.85976
# Shear Modulus (GPa) = 30.66666 35.18681 32.92674
#
# Velocity S-wave (km/s) = 3.98202 4.26540 4.12614
# Velocity P-wave (km/s) = 8.19897 8.61424 8.40917
#
# Compressibility (1/GPa) = 0.01122064
#
# Stress axis : x y z
#
# Youngs Moduli (GPa) = 97.42350 141.00337 76.97881
#
# Poissons Ratio (x) = 0.13102 0.35646
# Poissons Ratio (y) = 0.09053 0.30818
# Poissons Ratio (z) = 0.45113 0.56450
#
# Static dielectric constant tensor:
#      x y z
#    x 1.663000 -0.000010 0.015350 
#    y -0.000010 1.696700 0.000000 
#    z 0.015350 0.000000 1.663180 
# 
# From -- ./inp_files/378990.got.cif
#   From: 2010.05.17/outbox.cif.g08.bks.cpg/sg12_190_cif.got.tgz:378990.got - 2010.06.03 13:09:07.
