data_PCOD9221550
_publ_section_title
;
Structure prediction by ZEFSAII (Michael W. Deem and Ramdas Pophale) SiO2 
 PCOD9221550
Probable space group: C 2/M
;
_chemical_formula_sum "Si O2"
_cell_formula_units_Z 42
_cell_length_a 23.614175
_cell_length_b 12.949933
_cell_length_c 19.089398
_cell_angle_alpha 90.000000
_cell_angle_beta 21.711710
_cell_angle_gamma 90.000000
_cell_volume 2159.533194
_symmetry_space_group_name_H-M "C 2/M"
_symmetry_group_IT_number 12
_symmetry_cell_setting 'monoclinic'
loop_
_space_group_symop_operation_xyz
x,y,z
-x,y,-z
-x,-y,-z
x,-y,z
1/2+x,1/2+y,z
1/2-x,1/2+y,-z
1/2-x,1/2-y,-z
1/2+x,1/2-y,z
loop_
_atom_site_type_symbol
_atom_site_label
_atom_site_fract_x
_atom_site_fract_y
_atom_site_fract_z
Si Si1 0.132677 0.614711 0.289135
Si Si2 0.073430 0.726924 0.219463
Si Si3 0.953855 0.384016 0.222892
Si Si4 0.758752 0.327275 0.196405
Si Si5 0.670433 0.380083 0.448386
Si Si6 0.000000 0.000000 0.500000
O O1 0.204197 0.500000 0.207099
O O2 0.068010 0.640727 0.286529
O O3 0.234053 0.713843 0.192628
O O4 0.000000 0.614753 0.500000
O O5 0.988880 0.691651 0.246276
O O6 0.985445 0.826008 0.350590
O O7 0.250000 0.750000 0.000000
O O8 0.970186 0.500000 0.231821
O O9 0.789077 0.375585 0.375820
O O10 0.081195 0.368229 0.016518
O O11 0.746720 0.324328 0.294335
O O12 0.623463 0.407762 0.333619
O O13 0.643298 0.500000 0.456639
#
# Coordination Sequence:
#
# PCOD9221550 Si02
#       6
#     8   8   8   8   8   2
#     4  11  23  41  63  91 123 165 214 264 314 370
#     4  12  24  41  65  92 126 170 211 267 319 379
#     4  11  24  41  64  96 132 167 210 263 328 390
#     4  12  21  39  67  95 129 167 209 273 320 379
#     4  11  24  42  64  94 132 169 211 263 323 392
#     4  12  20  32  64 104 128 152 224 260 332 368
#
# _framework density 19.448647999999999
#
# number of rings (size 3 to 8) (size 9 to 14) (size 15 to 20)
#    0.000    0.571    6.667    1.714    0.000    3.048 
#    0.000    0.000    0.000    3.429    0.000    0.000 
#    0.000    0.000    0.000    0.000    0.000    0.000 
#
# Total GULP energy -117091.442676 kJ/mol
# GULP energy per Si atom -5575.782985 kJ/mol
# Density = 1.940438 g / cm^3
# Si number density = 19.448648 Si / 1000 Ang^3
#
#
#
# Elastic Constant Matrix: (Units=GPa)
#
#
# Indices 1 2 3 4 5 6 
#
# 1 72.6989 28.1966 25.8937 0.0004 19.9872 -0.0002
# 2 28.1966 125.3863 29.2182 0.0004 -9.3213 -0.0002
# 3 25.8937 29.2182 83.4034 0.0009 8.6067 -0.0005
# 4 0.0004 0.0004 0.0009 23.6612 -0.0005 2.5011
# 5 19.9872 -9.3213 8.6067 -0.0005 27.1756 0.0003
# 6 -0.0002 -0.0002 -0.0005 2.5011 0.0003 31.1149
#
#
#
# Elastic Compliance Matrix: (Units=1/GPa)
#
#
# Indices 1 2 3 4 5 6 
#
# 1 0.021522 -0.005363 -0.003080 0.000000 -0.016693 0.000000
# 2 -0.005363 0.010480 -0.002879 0.000000 0.008451 0.000000
# 3 -0.003080 -0.002879 0.014290 -0.000001 -0.003247 0.000000
# 4 0.000000 0.000000 -0.000001 0.042625 0.000001 -0.003426
# 5 -0.016693 0.008451 -0.003247 0.000001 0.053002 -0.000001
# 6 0.000000 0.000000 0.000000 -0.003426 -0.000001 0.032414
#
#
# Mechanical properties :
#
#
# Convention : Reuss Voigt Hill
#
# Bulk Modulus (GPa) = 42.28636 49.78950 46.03793
# Shear Modulus (GPa) = 24.40676 29.60234 27.00455
#
# Velocity S-wave (km/s) = 3.54635 3.90561 3.73031
# Velocity P-wave (km/s) = 6.20955 6.78192 6.50204
#
# Compressibility (1/GPa) = 0.02364829
#
# Stress axis : x y z
#
# Youngs Moduli (GPa) = 46.46397 95.41614 69.97976
#
# Poissons Ratio (x) = 0.51172 0.21557
# Poissons Ratio (y) = 0.24919 0.20144
# Poissons Ratio (z) = 0.14313 0.27466
#
# Static dielectric constant tensor:
#      x y z
#    x 1.262620 0.000000 0.074130 
#    y 0.000000 1.690400 0.000000 
#    z 0.074130 0.000000 1.625950 
# 
# From -- ./inp_files/327716.got.cif
#   From: 2010.05.17/outbox.cif.g08.bks.cpg/sg12_164_cif.got.tgz:327716.got - 2010.06.03 13:09:07.
