data_PCOD9221388
_publ_section_title
;
Structure prediction by ZEFSAII (Michael W. Deem and Ramdas Pophale) SiO2 
 PCOD9221388
Probable space group: C 2/M
;
_chemical_formula_sum "Si O2"
_cell_formula_units_Z 40
_cell_length_a 14.214525
_cell_length_b 15.051580
_cell_length_c 12.949122
_cell_angle_alpha 90.000000
_cell_angle_beta 143.094128
_cell_angle_gamma 90.000000
_cell_volume 1663.678303
_symmetry_space_group_name_H-M "C 2/M"
_symmetry_group_IT_number 12
_symmetry_cell_setting 'monoclinic'
loop_
_space_group_symop_operation_xyz
x,y,z
-x,y,-z
-x,-y,-z
x,-y,z
1/2+x,1/2+y,z
1/2-x,1/2+y,-z
1/2-x,1/2-y,-z
1/2+x,1/2-y,z
loop_
_atom_site_type_symbol
_atom_site_label
_atom_site_fract_x
_atom_site_fract_y
_atom_site_fract_z
Si Si1 0.640348 0.401095 0.218728
Si Si2 0.079756 0.405947 0.681767
Si Si3 0.373195 0.273772 0.198747
Si Si4 0.827285 0.898089 0.528092
Si Si5 0.858138 0.298485 0.813624
O O1 0.561554 0.500000 0.156940
O O2 0.739125 0.403386 0.199285
O O3 0.736883 0.400077 0.410742
O O4 0.576955 0.299777 0.161788
O O5 0.054310 0.500000 0.713300
O O6 0.040701 0.319763 0.710715
O O7 0.000000 0.404772 0.500000
O O8 0.502161 0.351403 0.306877
O O9 0.278401 0.289231 0.221530
O O10 0.250000 0.250000 0.000000
O O11 0.720483 0.845681 0.353241
O O12 0.845506 0.000000 0.509428
O O13 0.000000 0.344789 0.000000
#
# Coordination Sequence:
#
# PCOD9221388 Si02
#       5
#     8   8   8   8   8
#     4   9  19  37  63  91 118 154 201 255 312 364
#     4   9  18  35  60  89 119 151 193 250 308 356
#     4  11  23  39  61  90 123 163 205 249 304 366
#     4  11  24  43  65  89 124 168 208 249 304 370
#     4  11  23  39  62  92 126 163 207 257 305 362
#
# _framework density 24.043109999999999
#
# number of rings (size 3 to 8) (size 9 to 14) (size 15 to 20)
#    0.000    1.800    0.000    4.800    0.000    4.800 
#    0.000    4.000    0.000    0.000    0.000    0.000 
#    0.000    0.000    0.000    0.000    0.000    0.000 
#
# Total GULP energy -111512.406231 kJ/mol
# GULP energy per Si atom -5575.620312 kJ/mol
# Density = 2.398839 g / cm^3
# Si number density = 24.043110 Si / 1000 Ang^3
#
#
#
# Elastic Constant Matrix: (Units=GPa)
#
#
# Indices 1 2 3 4 5 6 
#
# 1 95.6764 27.6796 30.9780 0.0000 -5.8791 0.0000
# 2 27.6796 182.3972 79.8992 0.0000 -2.5788 0.0000
# 3 30.9780 79.8992 168.2666 0.0000 -21.7503 0.0000
# 4 0.0000 0.0000 0.0000 7.6506 0.0000 -0.4115
# 5 -5.8791 -2.5788 -21.7503 0.0000 35.3609 0.0000
# 6 0.0000 0.0000 0.0000 -0.4115 0.0000 9.4033
#
#
#
# Elastic Compliance Matrix: (Units=1/GPa)
#
#
# Indices 1 2 3 4 5 6 
#
# 1 0.011286 -0.001062 -0.001457 0.000000 0.000903 0.000000
# 2 -0.001062 0.007112 -0.003408 0.000000 -0.001754 0.000000
# 3 -0.001457 -0.003408 0.008437 0.000000 0.004699 0.000000
# 4 0.000000 0.000000 0.000000 0.131016 0.000000 0.005733
# 5 0.000903 -0.001754 0.004699 0.000000 0.031192 0.000000
# 6 0.000000 0.000000 0.000000 0.005733 0.000000 0.106597
#
#
# Mechanical properties :
#
#
# Convention : Reuss Voigt Hill
#
# Bulk Modulus (GPa) = 66.75074 80.38374 73.56724
# Shear Modulus (GPa) = 16.00062 31.00185 23.50124
#
# Velocity S-wave (km/s) = 2.58252 3.59476 3.12983
# Velocity P-wave (km/s) = 6.05935 7.12288 6.61253
#
# Compressibility (1/GPa) = 0.01498111
#
# Stress axis : x y z
#
# Youngs Moduli (GPa) = 88.60316 140.61026 118.52699
#
# Poissons Ratio (x) = 0.14929 0.17269
# Poissons Ratio (y) = 0.09408 0.40397
# Poissons Ratio (z) = 0.12909 0.47924
#
# Static dielectric constant tensor:
#      x y z
#    x 1.998820 0.000000 0.093030 
#    y 0.000000 1.935550 0.000000 
#    z 0.093030 0.000000 2.019320 
# 
# From -- ./inp_files/225825.got.cif
#   From: 2010.05.17/outbox.cif.g08.bks.cpg/sg12_113_cif.got.tgz:225825.got - 2010.06.03 13:09:07.
