data_PCOD9221629
_publ_section_title
;
Structure prediction by ZEFSAII (Michael W. Deem and Ramdas Pophale) SiO2 
 PCOD9221629
Probable space group: C 2/M
;
_chemical_formula_sum "Si O2"
_cell_formula_units_Z 40
_cell_length_a 16.222070
_cell_length_b 11.510344
_cell_length_c 9.777851
_cell_angle_alpha 90.000000
_cell_angle_beta 88.603257
_cell_angle_gamma 90.000000
_cell_volume 1825.193575
_symmetry_space_group_name_H-M "C 2/M"
_symmetry_group_IT_number 12
_symmetry_cell_setting 'monoclinic'
loop_
_space_group_symop_operation_xyz
x,y,z
-x,y,-z
-x,-y,-z
x,-y,z
1/2+x,1/2+y,z
1/2-x,1/2+y,-z
1/2-x,1/2-y,-z
1/2+x,1/2-y,z
loop_
_atom_site_type_symbol
_atom_site_label
_atom_site_fract_x
_atom_site_fract_y
_atom_site_fract_z
Si Si1 0.150192 0.233402 0.190342
Si Si2 0.881844 0.000000 0.386223
Si Si3 0.672231 0.752969 0.687555
Si Si4 0.088577 0.362518 0.445893
Si Si5 0.926253 0.000000 0.702464
Si Si6 0.907194 0.363932 0.060949
O O1 0.241721 0.217762 0.245131
O O2 0.105923 0.325696 0.291620
O O3 0.102021 0.113262 0.213647
O O4 0.146930 0.286630 0.040114
O O5 0.839053 0.884169 0.332113
O O6 0.884783 0.000000 0.552180
O O7 0.976338 0.000000 0.330507
O O8 0.658377 0.809873 0.540510
O O9 0.603015 0.808808 0.789199
O O10 0.088279 0.500000 0.459895
O O11 0.000000 0.315130 0.500000
O O12 0.882954 0.500000 0.064747
O O13 0.000000 0.357150 0.000000
#
# Coordination Sequence:
#
# PCOD9221629 Si02
#       6
#     8   4   8   8   4   8
#     4  12  26  42  68 100 138 173 224 281 335 395
#     4  11  24  43  69  99 138 179 221 271 335 407
#     4  12  26  42  68 100 138 173 224 281 335 395
#     4  11  23  41  69  99 133 177 229 275 329 401
#     4  11  24  43  69  99 138 179 221 271 335 407
#     4  11  25  47  71  93 131 177 223 277 339 405
#
# _framework density 21.915482999999998
#
# number of rings (size 3 to 8) (size 9 to 14) (size 15 to 20)
#    0.000    0.600    2.000    6.000    5.600    4.000 
#    0.000    2.000    0.000    0.000    0.000    0.000 
#    0.000    0.000    0.000    0.000    0.000    0.000 
#
# Total GULP energy -112047.533376 kJ/mol
# GULP energy per Si atom -5602.376669 kJ/mol
# Density = 2.186560 g / cm^3
# Si number density = 21.915483 Si / 1000 Ang^3
#
#
#
# Elastic Constant Matrix: (Units=GPa)
#
#
# Indices 1 2 3 4 5 6 
#
# 1 50.9409 -0.8629 -10.4723 0.0000 4.9426 0.0000
# 2 -0.8629 127.1481 18.6869 0.0000 0.4517 0.0000
# 3 -10.4723 18.6869 79.4497 0.0000 1.2109 0.0000
# 4 0.0000 0.0000 0.0000 797.2748 0.0000 -257.0999
# 5 4.9426 0.4517 1.2109 0.0000 33.2284 0.0000
# 6 0.0000 0.0000 0.0000 -257.0999 0.0000 105.2968
#
#
#
# Elastic Compliance Matrix: (Units=1/GPa)
#
#
# Indices 1 2 3 4 5 6 
#
# 1 0.020510 -0.000263 0.002813 0.000000 -0.003150 0.000000
# 2 -0.000263 0.008150 -0.001952 0.000000 -0.000001 0.000000
# 3 0.002813 -0.001952 0.013430 0.000000 -0.000881 0.000000
# 4 0.000000 0.000000 0.000000 0.005899 0.000000 0.014403
# 5 -0.003150 -0.000001 -0.000881 0.000000 0.030595 0.000000
# 6 0.000000 0.000000 0.000000 0.014403 0.000000 0.044665
#
#
# Mechanical properties :
#
#
# Convention : Reuss Voigt Hill
#
# Bulk Modulus (GPa) = 23.10154 30.24912 26.67533
# Shear Modulus (GPa) = 36.63523 203.83914 120.23719
#
# Velocity S-wave (km/s) = 4.09303 9.65471 7.41506
# Velocity P-wave (km/s) = 5.73596 11.75232 9.24712
#
# Compressibility (1/GPa) = 0.04328716
#
# Stress axis : x y z
#
# Youngs Moduli (GPa) = 48.75652 122.70116 74.46103
#
# Poissons Ratio (x) = 0.03228 -0.20948
# Poissons Ratio (y) = 0.01283 0.14531
# Poissons Ratio (z) = -0.13717 0.23946
#
# Static dielectric constant tensor:
#      x y z
#    x 1.853370 0.000000 -0.013330 
#    y 0.000000 1.744320 0.000000 
#    z -0.013330 0.000000 1.742360 
# 
# From -- ./inp_files/71351.got.cif
#   From: 2010.05.17/outbox.cif.g08.bks.cpg/sg12_36_cif.got.tgz:71351.got - 2010.06.03 13:09:07.
