data_PCOD9221203
_publ_section_title
;
Structure prediction by ZEFSAII (Michael W. Deem and Ramdas Pophale) SiO2 
 PCOD9221203
Probable space group: C 2/M
;
_chemical_formula_sum "Si O2"
_cell_formula_units_Z 42
_cell_length_a 23.500723
_cell_length_b 16.270048
_cell_length_c 4.803772
_cell_angle_alpha 90.000000
_cell_angle_beta 77.181130
_cell_angle_gamma 90.000000
_cell_volume 1790.981339
_symmetry_space_group_name_H-M "C 2/M"
_symmetry_group_IT_number 12
_symmetry_cell_setting 'monoclinic'
loop_
_space_group_symop_operation_xyz
x,y,z
-x,y,-z
-x,-y,-z
x,-y,z
1/2+x,1/2+y,z
1/2-x,1/2+y,-z
1/2-x,1/2-y,-z
1/2+x,1/2-y,z
loop_
_atom_site_type_symbol
_atom_site_label
_atom_site_fract_x
_atom_site_fract_y
_atom_site_fract_z
Si Si1 0.703818 0.340716 0.271303
Si Si2 0.000000 0.500000 0.000000
Si Si3 0.856953 0.096034 0.165829
Si Si4 0.039410 0.200489 0.700762
Si Si5 0.595281 0.133580 0.677901
Si Si6 0.324796 0.844327 0.877135
O O1 0.695094 0.361512 0.602194
O O2 0.693639 0.244116 0.230550
O O3 0.653611 0.384398 0.144691
O O4 0.764992 0.373202 0.086722
O O5 0.044066 0.571214 0.815804
O O6 0.914528 0.137826 0.222469
O O7 0.856533 0.000000 0.214502
O O8 0.069827 0.283874 0.564619
O O9 0.000000 0.164382 0.500000
O O10 0.000000 0.227912 0.000000
O O11 0.643499 0.104085 0.400225
O O12 0.629135 0.160843 0.920053
#
# Coordination Sequence:
#
# PCOD9221203 Si02
#       6
#     8   2   8   8   8   8
#     4  11  22  44  72 104 134 182 232 285 352 419
#     4  12  32  46  72 102 146 190 236 298 352 414
#     4  12  25  43  67 101 143 179 223 284 352 414
#     4  12  24  43  71  94 132 181 230 279 334 407
#     4  12  25  47  68 101 137 180 233 286 349 407
#     4  11  23  44  76  99 134 181 236 283 345 431
#
# _framework density 23.450831000000001
#
# number of rings (size 3 to 8) (size 9 to 14) (size 15 to 20)
#    0.000    0.381    4.762    4.000    0.000    5.333 
#   10.286    0.000    0.000    0.000    0.000    0.000 
#    0.000    0.000    0.000    0.000    0.000    0.000 
#
# Total GULP energy -117294.240894 kJ/mol
# GULP energy per Si atom -5585.440043 kJ/mol
# Density = 2.339746 g / cm^3
# Si number density = 23.450831 Si / 1000 Ang^3
#
#
#
# Elastic Constant Matrix: (Units=GPa)
#
#
# Indices 1 2 3 4 5 6 
#
# 1 97.7983 15.3554 23.7895 0.0000 -9.2567 0.0000
# 2 15.3554 68.1347 -17.4686 0.0000 1.0047 0.0000
# 3 23.7895 -17.4686 100.2363 0.0000 -13.2009 0.0000
# 4 0.0000 0.0000 0.0000 4.8214 0.0000 -11.3620
# 5 -9.2567 1.0047 -13.2009 0.0000 42.1935 0.0000
# 6 0.0000 0.0000 0.0000 -11.3620 0.0000 10.6403
#
#
#
# Elastic Compliance Matrix: (Units=1/GPa)
#
#
# Indices 1 2 3 4 5 6 
#
# 1 0.011696 -0.003471 -0.003162 0.000000 0.001659 0.000000
# 2 -0.003471 0.016403 0.003683 0.000000 0.000000 0.000000
# 3 -0.003162 0.003683 0.011750 0.000000 0.002895 0.000000
# 4 0.000000 0.000000 0.000000 -0.136775 0.000000 -0.146053
# 5 0.001659 0.000000 0.002895 0.000000 0.024970 0.000000
# 6 0.000000 0.000000 0.000000 -0.146053 0.000000 -0.061977
#
#
# Mechanical properties :
#
#
# Convention : Reuss Voigt Hill
#
# Bulk Modulus (GPa) = 29.45736 34.39132 31.92434
# Shear Modulus (GPa) = -42.83973 27.83058 -7.50457
#
# Velocity S-wave (km/s) = -4.27873 3.44868 -1.79083
# Velocity P-wave (km/s) = 3.43824 5.52766 3.06052
#
# Compressibility (1/GPa) = 0.03394737
#
# Stress axis : x y z
#
# Youngs Moduli (GPa) = 85.49597 60.96357 85.10670
#
# Poissons Ratio (x) = 0.21162 0.26914
# Poissons Ratio (y) = 0.29678 -0.31341
# Poissons Ratio (z) = 0.27037 -0.22450
#
# Static dielectric constant tensor:
#      x y z
#    x 1.923440 0.000000 -0.056140 
#    y 0.000000 1.859880 0.000000 
#    z -0.056140 0.000000 1.893550 
# 
# From -- ./inp_files/20365.got.cif
#   From: 2010.05.17/outbox.cif.g08.bks.cpg/sg12_11_cif.got.tgz:20365.got - 2010.06.03 13:09:07.
