data_PCOD9221923
_publ_section_title
;
Structure prediction by ZEFSAII (Michael W. Deem and Ramdas Pophale) SiO2 
 PCOD9221923
Probable space group: C 2/M
;
_chemical_formula_sum "Si O2"
_cell_formula_units_Z 56
_cell_length_a 9.282138
_cell_length_b 22.416755
_cell_length_c 16.164186
_cell_angle_alpha 90.000000
_cell_angle_beta 122.542314
_cell_angle_gamma 90.000000
_cell_volume 2835.301843
_symmetry_space_group_name_H-M "C 2/M"
_symmetry_group_IT_number 12
_symmetry_cell_setting 'monoclinic'
loop_
_space_group_symop_operation_xyz
x,y,z
-x,y,-z
-x,-y,-z
x,-y,z
1/2+x,1/2+y,z
1/2-x,1/2+y,-z
1/2-x,1/2-y,-z
1/2+x,1/2-y,z
loop_
_atom_site_type_symbol
_atom_site_label
_atom_site_fract_x
_atom_site_fract_y
_atom_site_fract_z
Si Si1 0.688424 0.500000 0.335284
Si Si2 0.498849 0.587186 0.595982
Si Si3 0.166454 0.792477 0.407043
Si Si4 0.000000 0.634975 0.500000
Si Si5 0.874373 0.565863 0.785048
Si Si6 0.101108 0.404179 0.697803
Si Si7 0.121171 0.724958 0.781238
Si Si8 0.444418 0.189860 0.888720
O O1 0.631182 0.551229 0.385999
O O2 0.750278 0.447315 0.288616
O O3 0.500000 0.570674 0.500000
O O4 0.452817 0.656885 0.590134
O O5 0.684139 0.574497 0.691272
O O6 0.250000 0.750000 0.500000
O O7 0.334629 0.826214 0.426790
O O8 0.051265 0.753966 0.309851
O O9 0.976298 0.598990 0.578030
O O10 0.888359 0.500000 0.827323
O O11 0.910879 0.620544 0.857291
O O12 0.999110 0.570333 0.744612
O O13 0.153171 0.338063 0.745186
O O14 0.274845 0.771236 0.819736
O O15 0.084989 0.711514 0.866132
O O16 0.500000 0.197608 0.000000
#
# Coordination Sequence:
#
# PCOD9221923 Si02
#       8
#     4   8   8   4   8   8   8   8
#     4  12  25  43  60  88 135 184 229 266 315 394
#     4  12  26  41  62  97 137 185 223 272 324 391
#     4  12  25  38  64  95 142 174 222 266 327 397
#     4  12  22  37  56  96 128 187 214 262 312 382
#     4  11  24  43  67  98 134 177 223 277 335 403
#     4  11  24  39  62  93 130 178 226 266 323 390
#     4  11  24  44  70 103 133 175 223 279 343 403
#     4  11  25  46  73 102 133 173 223 290 349 402
#
# _framework density 19.750983000000002
#
# number of rings (size 3 to 8) (size 9 to 14) (size 15 to 20)
#    0.000    0.571    5.714    2.357    3.000    0.571 
#    0.000    0.000    0.000    0.000    0.000    2.500 
#    0.000    0.000    0.000    0.000    0.000    0.000 
#
# Total GULP energy -155905.155921 kJ/mol
# GULP energy per Si atom -5568.041283 kJ/mol
# Density = 1.970603 g / cm^3
# Si number density = 19.750983 Si / 1000 Ang^3
#
#
#
# Elastic Constant Matrix: (Units=GPa)
#
#
# Indices 1 2 3 4 5 6 
#
# 1 79.7020 37.2396 31.1498 0.0000 -19.3500 0.0000
# 2 37.2396 136.6625 27.3837 0.0000 -7.5648 0.0000
# 3 31.1498 27.3837 81.7766 0.0000 -20.7298 0.0000
# 4 0.0000 0.0000 0.0000 16.8506 0.0000 -9.9455
# 5 -19.3500 -7.5648 -20.7298 0.0000 29.6487 0.0000
# 6 0.0000 0.0000 0.0000 -9.9455 0.0000 17.3011
#
#
#
# Elastic Compliance Matrix: (Units=1/GPa)
#
#
# Indices 1 2 3 4 5 6 
#
# 1 0.017561 -0.003653 -0.003400 0.000000 0.008152 0.000000
# 2 -0.003653 0.008604 -0.001869 0.000000 -0.001495 0.000000
# 3 -0.003400 -0.001869 0.016367 0.000000 0.008748 0.000000
# 4 0.000000 0.000000 0.000000 0.089819 0.000000 0.051632
# 5 0.008152 -0.001495 0.008748 0.000000 0.044783 0.000000
# 6 0.000000 0.000000 0.000000 0.051632 0.000000 0.087480
#
#
# Mechanical properties :
#
#
# Convention : Reuss Voigt Hill
#
# Bulk Modulus (GPa) = 40.50272 54.40970 47.45621
# Shear Modulus (GPa) = 17.20058 26.25129 21.72593
#
# Velocity S-wave (km/s) = 2.95426 3.64966 3.32021
# Velocity P-wave (km/s) = 5.67345 6.73555 6.22718
#
# Compressibility (1/GPa) = 0.02468970
#
# Stress axis : x y z
#
# Youngs Moduli (GPa) = 56.94312 116.21967 61.09972
#
# Poissons Ratio (x) = 0.42454 0.20771
# Poissons Ratio (y) = 0.20801 0.11419
# Poissons Ratio (z) = 0.19358 0.21720
#
# Static dielectric constant tensor:
#      x y z
#    x 1.773600 0.000000 -0.024530 
#    y 0.000000 1.736630 0.000000 
#    z -0.024530 0.000000 1.669730 
# 
# From -- ./inp_files/199010.got.cif
#   From: 2010.05.17/outbox.cif.g08.bks.cpg/sg12_100_cif.got.tgz:199010.got - 2010.06.03 13:09:07.
