data_PCOD9221684
_publ_section_title
;
Structure prediction by ZEFSAII (Michael W. Deem and Ramdas Pophale) SiO2 
 PCOD9221684
Probable space group: C 2/M
;
_chemical_formula_sum "Si O2"
_cell_formula_units_Z 40
_cell_length_a 14.786085
_cell_length_b 14.747386
_cell_length_c 24.854107
_cell_angle_alpha 90.000000
_cell_angle_beta 20.002907
_cell_angle_gamma 90.000000
_cell_volume 1853.867238
_symmetry_space_group_name_H-M "C 2/M"
_symmetry_group_IT_number 12
_symmetry_cell_setting 'monoclinic'
loop_
_space_group_symop_operation_xyz
x,y,z
-x,y,-z
-x,-y,-z
x,-y,z
1/2+x,1/2+y,z
1/2-x,1/2+y,-z
1/2-x,1/2-y,-z
1/2+x,1/2-y,z
loop_
_atom_site_type_symbol
_atom_site_label
_atom_site_fract_x
_atom_site_fract_y
_atom_site_fract_z
Si Si1 0.070309 0.869806 0.359267
Si Si2 0.066298 0.500000 0.379145
Si Si3 0.791847 0.842186 0.835712
Si Si4 0.626934 0.500000 0.123483
Si Si5 0.449969 0.000000 0.206618
Si Si6 0.366429 0.197042 0.517629
Si Si7 0.586867 0.000000 0.649128
O O1 0.023446 0.762820 0.390036
O O2 0.175838 0.889900 0.240617
O O3 0.788638 0.916165 0.527593
O O4 0.269177 0.913353 0.291227
O O5 0.325991 0.500000 0.270770
O O6 0.904603 0.591286 0.482496
O O7 0.115376 0.500000 0.287495
O O8 0.055038 0.782098 0.693384
O O9 0.813089 0.913789 0.872410
O O10 0.500000 0.799245 0.000000
O O11 0.805705 0.500000 0.970459
O O12 0.514256 0.000000 0.233566
O O13 0.500000 0.213452 0.500000
#
# Coordination Sequence:
#
# PCOD9221684 Si02
#       7
#     8   4   8   4   4   8   4
#     4  11  23  43  72 102 133 179 232 281 336 412
#     4  12  25  42  67 101 135 187 228 281 344 406
#     4  12  23  40  70 106 135 174 222 292 342 397
#     4  12  23  44  69 103 142 174 227 288 355 393
#     4  11  23  44  71 101 137 180 229 287 334 406
#     4  12  24  44  71 101 140 183 228 280 341 411
#     4  11  23  42  67  99 132 184 237 274 335 403
#
# _framework density 21.576518
#
# number of rings (size 3 to 8) (size 9 to 14) (size 15 to 20)
#    0.000    0.400    6.000    5.400    0.000    0.400 
#    0.000    6.000    0.000    0.000    0.000    0.000 
#    0.000    0.000    0.000    0.000    0.000    0.000 
#
# Total GULP energy -111803.808298 kJ/mol
# GULP energy per Si atom -5590.190415 kJ/mol
# Density = 2.152741 g / cm^3
# Si number density = 21.576518 Si / 1000 Ang^3
#
#
#
# Elastic Constant Matrix: (Units=GPa)
#
#
# Indices 1 2 3 4 5 6 
#
# 1 156.7291 2.9338 55.2307 0.0217 13.6659 -0.0037
# 2 2.9338 81.8778 36.7799 -0.0402 -1.0616 -0.0077
# 3 55.2307 36.7799 117.7450 -0.0231 1.6707 -0.0338
# 4 0.0217 -0.0402 -0.0231 11.1606 -0.0352 4.5976
# 5 13.6659 -1.0616 1.6707 -0.0352 52.1089 0.0163
# 6 -0.0037 -0.0077 -0.0338 4.5976 0.0163 1.6614
#
#
#
# Elastic Compliance Matrix: (Units=1/GPa)
#
#
# Indices 1 2 3 4 5 6 
#
# 1 0.008008 0.001586 -0.004224 0.000053 -0.001932 -0.000189
# 2 0.001586 0.014530 -0.005283 -0.000384 0.000049 0.001024
# 3 -0.004224 -0.005283 0.012116 0.000492 0.000612 -0.001156
# 4 0.000053 -0.000384 0.000492 -0.639982 -0.001024 1.771027
# 5 -0.001932 0.000049 0.000612 -0.001024 0.019677 0.002650
# 6 -0.000189 0.001024 -0.001156 1.771027 0.002650 -4.299079
#
#
# Mechanical properties :
#
#
# Convention : Reuss Voigt Hill
#
# Bulk Modulus (GPa) = 53.16181 60.69340 56.92761
# Shear Modulus (GPa) = -1.02825 30.41336 14.69255
#
# Velocity S-wave (km/s) = -0.69108 3.75848 2.61234
# Velocity P-wave (km/s) = 4.90463 6.85750 5.96158
#
# Compressibility (1/GPa) = 0.01881050
#
# Stress axis : x y z
#
# Youngs Moduli (GPa) = 124.87837 68.82217 82.53787
#
# Poissons Ratio (x) = -0.10912 0.34865
# Poissons Ratio (y) = -0.19800 0.43605
# Poissons Ratio (z) = 0.52750 0.36359
#
# Static dielectric constant tensor:
#      x y z
#    x 1.799110 -0.000010 -0.002210 
#    y -0.000010 1.809330 0.000050 
#    z -0.002210 0.000050 1.766850 
# 
# From -- ./inp_files/340617.got.cif
#   From: 2010.05.17/outbox.cif.g08.bks.cpg/sg12_171_cif.got.tgz:340617.got - 2010.06.03 13:09:07.
