data_PCOD9221561
_publ_section_title
;
Structure prediction by ZEFSAII (Michael W. Deem and Ramdas Pophale) SiO2 
 PCOD9221561
Probable space group: C 2/M
;
_chemical_formula_sum "Si O2"
_cell_formula_units_Z 40
_cell_length_a 8.806600
_cell_length_b 15.804507
_cell_length_c 15.394122
_cell_angle_alpha 90.000000
_cell_angle_beta 73.379101
_cell_angle_gamma 90.000000
_cell_volume 2053.092945
_symmetry_space_group_name_H-M "C 2/M"
_symmetry_group_IT_number 12
_symmetry_cell_setting 'monoclinic'
loop_
_space_group_symop_operation_xyz
x,y,z
-x,y,-z
-x,-y,-z
x,-y,z
1/2+x,1/2+y,z
1/2-x,1/2+y,-z
1/2-x,1/2-y,-z
1/2+x,1/2-y,z
loop_
_atom_site_type_symbol
_atom_site_label
_atom_site_fract_x
_atom_site_fract_y
_atom_site_fract_z
Si Si1 0.287152 0.661154 0.290803
Si Si2 0.020779 0.400689 0.094170
Si Si3 0.734351 0.500000 0.392273
Si Si4 0.626625 0.500000 0.607727
Si Si5 0.385051 0.599311 0.094170
Si Si6 0.077955 0.338846 0.709197
O O1 0.321541 0.582766 0.347811
O O2 0.386651 0.646126 0.185730
O O3 0.338654 0.750000 0.322692
O O4 0.102576 0.661912 0.294847
O O5 0.972149 0.500000 0.103287
O O6 0.927619 0.353874 0.185730
O O7 0.205760 0.397381 0.088479
O O8 0.000000 0.368091 0.000000
O O9 0.705092 0.500000 0.500000
O O10 0.562566 0.500000 0.374868
O O11 0.830648 0.417234 0.347811
O O12 0.424564 0.500000 0.103287
O O13 0.500000 0.631910 0.000000
#
# Coordination Sequence:
#
# PCOD9221561 Si02
#       6
#     8   8   4   4   8   8
#     4  11  23  41  64  93 127 163 206 252 303 364
#     4   9  18  34  56  85 121 162 205 247 296 354
#     4  11  25  45  68  93 120 155 202 255 314 373
#     4  11  25  45  68  93 120 155 202 255 314 373
#     4   9  18  34  56  85 121 162 205 247 296 354
#     4  11  23  41  64  93 127 163 206 252 303 364
#
# _framework density 19.482800999999998
#
# number of rings (size 3 to 8) (size 9 to 14) (size 15 to 20)
#    0.000    1.800    2.000    1.800    0.000    6.400 
#    0.000    4.000    0.000    0.000    0.000    0.000 
#    0.000    0.000    0.000    0.000    0.000    0.000 
#
# Total GULP energy -111772.005354 kJ/mol
# GULP energy per Si atom -5588.600268 kJ/mol
# Density = 1.943846 g / cm^3
# Si number density = 19.482801 Si / 1000 Ang^3
#
#
#
# Elastic Constant Matrix: (Units=GPa)
#
#
# Indices 1 2 3 4 5 6 
#
# 1 62.5835 58.5701 61.3382 0.0000 1.3412 0.0000
# 2 58.5701 161.6995 71.4968 0.0000 0.2794 0.0000
# 3 61.3382 71.4968 104.2784 0.0000 -0.4400 0.0000
# 4 0.0000 0.0000 0.0000 -8.6224 0.0000 -0.7968
# 5 1.3412 0.2794 -0.4400 0.0000 31.6036 0.0000
# 6 0.0000 0.0000 0.0000 -0.7968 0.0000 28.2352
#
#
#
# Elastic Compliance Matrix: (Units=1/GPa)
#
#
# Indices 1 2 3 4 5 6 
#
# 1 0.041649 -0.006094 -0.020329 0.000000 -0.001997 0.000000
# 2 -0.006094 0.009767 -0.003112 0.000000 0.000129 0.000000
# 3 -0.020329 -0.003112 0.023686 0.000000 0.001220 0.000000
# 4 0.000000 0.000000 0.000000 -0.115675 0.000000 -0.003264
# 5 -0.001997 0.000129 0.001220 0.000000 0.031743 0.000000
# 6 0.000000 0.000000 0.000000 -0.003264 0.000000 0.035325
#
#
# Mechanical properties :
#
#
# Convention : Reuss Voigt Hill
#
# Bulk Modulus (GPa) = 62.36962 79.04130 70.70546
# Shear Modulus (GPa) = 55.00125 19.38704 37.19414
#
# Velocity S-wave (km/s) = 5.31902 3.15792 4.37404
# Velocity P-wave (km/s) = 8.35492 7.34537 7.86636
#
# Compressibility (1/GPa) = 0.01603345
#
# Stress axis : x y z
#
# Youngs Moduli (GPa) = 24.01029 102.38300 42.21892
#
# Poissons Ratio (x) = 0.62391 0.85826
# Poissons Ratio (y) = 0.14632 0.13137
# Poissons Ratio (z) = 0.48810 0.31859
#
# Static dielectric constant tensor:
#      x y z
#    x 1.649910 0.000000 0.000490 
#    y 0.000000 1.678030 0.000000 
#    z 0.000490 0.000000 1.672490 
# 
# From -- ./inp_files/41435.got.cif
#   From: 2010.05.17/outbox.cif.g08.bks.cpg/sg12_21_cif.got.tgz:41435.got - 2010.06.03 13:09:07.
