data_PCOD9221850
_publ_section_title
;
Structure prediction by ZEFSAII (Michael W. Deem and Ramdas Pophale) SiO2 
 PCOD9221850
Probable space group: C 2/M
;
_chemical_formula_sum "Si O2"
_cell_formula_units_Z 26
_cell_length_a 11.099739
_cell_length_b 16.823029
_cell_length_c 10.215120
_cell_angle_alpha 90.000000
_cell_angle_beta 140.810081
_cell_angle_gamma 90.000000
_cell_volume 1205.324374
_symmetry_space_group_name_H-M "C 2/M"
_symmetry_group_IT_number 12
_symmetry_cell_setting 'monoclinic'
loop_
_space_group_symop_operation_xyz
x,y,z
-x,y,-z
-x,-y,-z
x,-y,z
1/2+x,1/2+y,z
1/2-x,1/2+y,-z
1/2-x,1/2-y,-z
1/2+x,1/2-y,z
loop_
_atom_site_type_symbol
_atom_site_label
_atom_site_fract_x
_atom_site_fract_y
_atom_site_fract_z
Si Si1 0.704153 0.857891 0.527058
Si Si2 0.716807 0.907979 0.233641
Si Si3 0.500000 0.000000 0.500000
Si Si4 0.428990 0.716247 0.229083
O O1 0.715236 0.886928 0.385231
O O2 0.641602 0.930308 0.562330
O O3 0.547958 0.787552 0.395485
O O4 0.913151 0.823481 0.732702
O O5 0.847983 0.848472 0.261917
O O6 0.774060 0.000000 0.262422
O O7 0.500000 0.899807 0.000000
O O8 0.250000 0.750000 0.000000
#
# Coordination Sequence:
#
# PCOD9221850 Si02
#       4
#     8   8   2   8
#     4  11  26  46  71 103 144 187 232 299 348 426
#     4  11  23  44  75 104 139 184 239 292 351 427
#     4  12  28  48  70 108 144 184 248 288 368 422
#     4  11  25  45  73 105 140 185 235 287 360 426
#
# _framework density 21.570957
#
# number of rings (size 3 to 8) (size 9 to 14) (size 15 to 20)
#    0.000    0.923    4.615    0.923   10.769    1.231 
#    0.000    1.538    0.000    0.000    0.000    0.000 
#    0.000    0.000    0.000    0.000    0.000    0.000 
#
# Total GULP energy -72517.651334 kJ/mol
# GULP energy per Si atom -5578.280872 kJ/mol
# Density = 2.152186 g / cm^3
# Si number density = 21.570957 Si / 1000 Ang^3
#
#
#
# Elastic Constant Matrix: (Units=GPa)
#
#
# Indices 1 2 3 4 5 6 
#
# 1 96.4918 84.3040 54.1733 0.0000 36.9124 0.0000
# 2 84.3040 208.8586 41.0727 0.0000 41.6634 0.0000
# 3 54.1733 41.0727 121.3208 0.0000 42.5632 0.0000
# 4 0.0000 0.0000 0.0000 -1.6246 0.0000 13.0128
# 5 36.9124 41.6634 42.5632 0.0000 34.3653 0.0000
# 6 0.0000 0.0000 0.0000 13.0128 0.0000 77.6308
#
#
#
# Elastic Compliance Matrix: (Units=1/GPa)
#
#
# Indices 1 2 3 4 5 6 
#
# 1 0.022146 -0.005772 -0.003615 0.000000 -0.012312 0.000000
# 2 -0.005772 0.007885 0.001922 0.000000 -0.005739 0.000000
# 3 -0.003615 0.001922 0.015317 0.000000 -0.017417 0.000000
# 4 0.000000 0.000000 0.000000 -0.262755 0.000000 0.044044
# 5 -0.012312 -0.005739 -0.017417 0.000000 0.070854 0.000000
# 6 0.000000 0.000000 0.000000 0.044044 0.000000 0.005499
#
#
# Mechanical properties :
#
#
# Convention : Reuss Voigt Hill
#
# Bulk Modulus (GPa) = 32.87746 87.30793 60.09270
# Shear Modulus (GPa) = -43.10956 38.54905 -2.28026
#
# Velocity S-wave (km/s) = -4.47531 4.23197 -1.02927
# Velocity P-wave (km/s) = 3.38081 8.02758 5.14841
#
# Compressibility (1/GPa) = 0.03041597
#
# Stress axis : x y z
#
# Youngs Moduli (GPa) = 45.15424 126.82590 65.28718
#
# Poissons Ratio (x) = 0.73207 0.23604
# Poissons Ratio (y) = 0.26064 -0.12546
# Poissons Ratio (z) = 0.16325 -0.24371
#
# Static dielectric constant tensor:
#      x y z
#    x 1.788680 0.000000 0.001460 
#    y 0.000000 1.771530 0.000000 
#    z 0.001460 0.000000 1.795500 
# 
# From -- ./inp_files/74861.got.cif
#   From: 2010.05.17/outbox.cif.g08.bks.cpg/sg12_38_cif.got.tgz:74861.got - 2010.06.03 13:09:07.
