data_PCOD9221786
_publ_section_title
;
Structure prediction by ZEFSAII (Michael W. Deem and Ramdas Pophale) SiO2 
 PCOD9221786
Probable space group: C 2/M
;
_chemical_formula_sum "Si O2"
_cell_formula_units_Z 56
_cell_length_a 18.035211
_cell_length_b 18.478944
_cell_length_c 6.843992
_cell_angle_alpha 90.000000
_cell_angle_beta 72.856341
_cell_angle_gamma 90.000000
_cell_volume 2179.564759
_symmetry_space_group_name_H-M "C 2/M"
_symmetry_group_IT_number 12
_symmetry_cell_setting 'monoclinic'
loop_
_space_group_symop_operation_xyz
x,y,z
-x,y,-z
-x,-y,-z
x,-y,z
1/2+x,1/2+y,z
1/2-x,1/2+y,-z
1/2-x,1/2-y,-z
1/2+x,1/2-y,z
loop_
_atom_site_type_symbol
_atom_site_label
_atom_site_fract_x
_atom_site_fract_y
_atom_site_fract_z
Si Si1 0.353059 0.673408 0.941639
Si Si2 0.024413 0.793724 0.707499
Si Si3 0.359020 0.578376 0.266813
Si Si4 0.811564 0.611194 0.529887
Si Si5 0.526465 0.126817 0.706404
Si Si6 0.857701 0.415492 0.941265
Si Si7 0.767973 0.706384 0.258139
O O1 0.443211 0.691084 0.877536
O O2 0.318686 0.692488 0.755902
O O3 0.345230 0.594863 0.046260
O O4 0.304601 0.724234 0.126659
O O5 0.087318 0.856164 0.699374
O O6 0.044479 0.710542 0.741835
O O7 0.000000 0.795562 0.500000
O O8 0.395970 0.500000 0.266926
O O9 0.273429 0.577281 0.429909
O O10 0.890950 0.585531 0.362382
O O11 0.832371 0.605620 0.740443
O O12 0.792578 0.691534 0.462555
O O13 0.500000 0.125703 0.500000
O O14 0.450414 0.098858 0.877116
O O15 0.841842 0.500000 0.984062
O O16 0.810957 0.361305 0.114494
#
# Coordination Sequence:
#
# PCOD9221786 Si02
#       7
#     8   8   8   8   8   8   8
#     4  11  24  44  70 102 142 182 239 292 343 416
#     4  11  23  43  71 102 138 179 233 294 344 416
#     4  12  27  45  67  98 139 189 234 289 355 410
#     4  11  24  43  68  99 139 183 230 281 340 420
#     4   9  21  40  69 100 135 179 227 277 352 411
#     4  11  23  44  68 100 143 182 227 289 354 419
#     4  11  24  43  72 105 137 188 238 283 350 411
#
# _framework density 25.693201999999999
#
# number of rings (size 3 to 8) (size 9 to 14) (size 15 to 20)
#    0.000    1.143    2.857    2.571    0.000    8.571 
#    0.000    2.143    0.000    0.000    0.000    0.000 
#    0.000    0.000    0.000    0.000    0.000    0.000 
#
# Total GULP energy -156643.141541 kJ/mol
# GULP energy per Si atom -5594.397912 kJ/mol
# Density = 2.563472 g / cm^3
# Si number density = 25.693202 Si / 1000 Ang^3
#
#
#
# Elastic Constant Matrix: (Units=GPa)
#
#
# Indices 1 2 3 4 5 6 
#
# 1 166.3890 36.4645 29.0067 0.0000 -18.4637 0.0000
# 2 36.4645 128.2967 1.6345 0.0000 -3.9114 0.0000
# 3 29.0067 1.6345 34.8322 0.0000 -9.1312 0.0000
# 4 0.0000 0.0000 0.0000 -9.3330 0.0000 6.2854
# 5 -18.4637 -3.9114 -9.1312 0.0000 59.2577 0.0000
# 6 0.0000 0.0000 0.0000 6.2854 0.0000 16.6346
#
#
#
# Elastic Compliance Matrix: (Units=1/GPa)
#
#
# Indices 1 2 3 4 5 6 
#
# 1 0.007640 -0.002055 -0.005916 0.000000 0.001333 0.000000
# 2 -0.002055 0.008365 0.001350 0.000000 0.000120 0.000000
# 3 -0.005916 0.001350 0.034506 0.000000 0.003563 0.000000
# 4 0.000000 0.000000 0.000000 -0.085412 0.000000 0.032273
# 5 0.001333 0.000120 0.003563 0.000000 0.017848 0.000000
# 6 0.000000 0.000000 0.000000 0.032273 0.000000 0.047921
#
#
# Mechanical properties :
#
#
# Convention : Reuss Voigt Hill
#
# Bulk Modulus (GPa) = 26.83182 51.52549 39.17865
# Shear Modulus (GPa) = 88.44397 30.80601 59.62499
#
# Velocity S-wave (km/s) = 5.87349 3.46641 4.82254
# Velocity P-wave (km/s) = 7.51418 6.00991 6.80375
#
# Compressibility (1/GPa) = 0.03726918
#
# Stress axis : x y z
#
# Youngs Moduli (GPa) = 130.89456 119.54499 28.98019
#
# Poissons Ratio (x) = 0.24571 0.17145
# Poissons Ratio (y) = 0.26903 -0.03914
# Poissons Ratio (z) = 0.77438 -0.16144
#
# Static dielectric constant tensor:
#      x y z
#    x 2.041810 0.000000 0.053660 
#    y 0.000000 1.977470 0.000000 
#    z 0.053660 0.000000 2.188510 
# 
# From -- ./inp_files/75911.got.cif
#   From: 2010.05.17/outbox.cif.g08.bks.cpg/sg12_38_cif.got.tgz:75911.got - 2010.06.03 13:09:07.
