data_PCOD9221100
_publ_section_title
;
Structure prediction by ZEFSAII (Michael W. Deem and Ramdas Pophale) SiO2 
 PCOD9221100
Probable space group: C 2/M
;
_chemical_formula_sum "Si O2"
_cell_formula_units_Z 42
_cell_length_a 9.875985
_cell_length_b 27.157691
_cell_length_c 8.417339
_cell_angle_alpha 90.000000
_cell_angle_beta 118.138714
_cell_angle_gamma 90.000000
_cell_volume 1990.775641
_symmetry_space_group_name_H-M "C 2/M"
_symmetry_group_IT_number 12
_symmetry_cell_setting 'monoclinic'
loop_
_space_group_symop_operation_xyz
x,y,z
-x,y,-z
-x,-y,-z
x,-y,z
1/2+x,1/2+y,z
1/2-x,1/2+y,-z
1/2-x,1/2-y,-z
1/2+x,1/2-y,z
loop_
_atom_site_type_symbol
_atom_site_label
_atom_site_fract_x
_atom_site_fract_y
_atom_site_fract_z
Si Si1 0.678802 0.324420 0.614700
Si Si2 0.741138 0.924637 0.218135
Si Si3 0.171447 0.354053 0.628018
Si Si4 0.086608 0.444008 0.797239
Si Si5 0.000000 0.000000 0.500000
Si Si6 0.179079 0.235417 0.126806
O O1 0.500000 0.312216 0.500000
O O2 0.709361 0.367531 0.758673
O O3 0.736412 0.349605 0.484295
O O4 0.771695 0.275707 0.714182
O O5 0.586093 0.930598 0.239426
O O6 0.878318 0.957160 0.365985
O O7 0.690811 0.940458 0.013377
O O8 0.147682 0.406828 0.697414
O O9 0.257309 0.317514 0.792234
O O10 0.000000 0.334846 0.500000
O O11 0.087107 0.500000 0.739698
O O12 0.250000 0.250000 0.000000
O O13 0.000000 0.234722 0.000000
#
# Coordination Sequence:
#
# PCOD9221100 Si02
#       6
#     8   8   8   8   2   8
#     4  12  25  44  70 103 139 186 236 299 362 429
#     4  11  22  41  72 103 144 189 237 289 359 426
#     4  12  25  45  69 104 140 186 242 293 356 434
#     4  11  23  44  69 104 142 189 241 294 350 427
#     4  12  20  42  72 108 142 186 240 284 362 418
#     4  12  26  46  72 102 140 185 236 303 366 431
#
# _framework density 21.097306
#
# number of rings (size 3 to 8) (size 9 to 14) (size 15 to 20)
#    0.000    0.381    4.762    5.143    2.667    0.381 
#    1.714    0.000    0.000    2.857    0.000    0.000 
#    0.000    0.000    0.000    0.000    0.000    0.000 
#
# Total GULP energy -117259.353311 kJ/mol
# GULP energy per Si atom -5583.778729 kJ/mol
# Density = 2.104929 g / cm^3
# Si number density = 21.097306 Si / 1000 Ang^3
#
#
#
# Elastic Constant Matrix: (Units=GPa)
#
#
# Indices 1 2 3 4 5 6 
#
# 1 104.1448 24.8082 68.9294 0.0000 17.5831 0.0000
# 2 24.8082 134.8568 47.0797 0.0000 13.6526 0.0000
# 3 68.9294 47.0797 125.5663 0.0000 26.6227 0.0000
# 4 0.0000 0.0000 0.0000 32.4453 0.0000 6.5218
# 5 17.5831 13.6526 26.6227 0.0000 56.5106 0.0000
# 6 0.0000 0.0000 0.0000 6.5218 0.0000 46.1239
#
#
#
# Elastic Compliance Matrix: (Units=1/GPa)
#
#
# Indices 1 2 3 4 5 6 
#
# 1 0.015124 0.000162 -0.008173 0.000000 -0.000894 0.000000
# 2 0.000162 0.008553 -0.003163 0.000000 -0.000627 0.000000
# 3 -0.008173 -0.003163 0.014371 0.000000 -0.003463 0.000000
# 4 0.000000 0.000000 0.000000 0.031723 0.000000 -0.004486
# 5 -0.000894 -0.000627 -0.003463 0.000000 0.019757 0.000000
# 6 0.000000 0.000000 0.000000 -0.004486 0.000000 0.022315
#
#
# Mechanical properties :
#
#
# Convention : Reuss Voigt Hill
#
# Bulk Modulus (GPa) = 63.69802 71.80029 67.74916
# Shear Modulus (GPa) = 35.86167 41.93268 38.89717
#
# Velocity S-wave (km/s) = 4.12736 4.46307 4.29849
# Velocity P-wave (km/s) = 7.27815 7.78880 7.53780
#
# Compressibility (1/GPa) = 0.01569907
#
# Stress axis : x y z
#
# Youngs Moduli (GPa) = 66.11953 116.91626 69.58571
#
# Poissons Ratio (x) = -0.01891 0.56875
# Poissons Ratio (y) = -0.01069 0.22009
# Poissons Ratio (z) = 0.54042 0.36978
#
# Static dielectric constant tensor:
#      x y z
#    x 1.862560 0.000000 -0.137510 
#    y 0.000000 1.756390 0.000000 
#    z -0.137510 0.000000 1.848270 
# 
# From -- ./inp_files/42381.got.cif
#   From: 2010.05.17/outbox.cif.g08.bks.cpg/sg12_22_cif.got.tgz:42381.got - 2010.06.03 13:09:07.
