data_PCOD9221580
_publ_section_title
;
Structure prediction by ZEFSAII (Michael W. Deem and Ramdas Pophale) SiO2 
 PCOD9221580
Probable space group: C 2/M
;
_chemical_formula_sum "Si O2"
_cell_formula_units_Z 48
_cell_length_a 14.584687
_cell_length_b 9.269955
_cell_length_c 16.469061
_cell_angle_alpha 90.000000
_cell_angle_beta 100.432031
_cell_angle_gamma 90.000000
_cell_volume 2189.802110
_symmetry_space_group_name_H-M "C 2/M"
_symmetry_group_IT_number 12
_symmetry_cell_setting 'monoclinic'
loop_
_space_group_symop_operation_xyz
x,y,z
-x,y,-z
-x,-y,-z
x,-y,z
1/2+x,1/2+y,z
1/2-x,1/2+y,-z
1/2-x,1/2-y,-z
1/2+x,1/2-y,z
loop_
_atom_site_type_symbol
_atom_site_label
_atom_site_fract_x
_atom_site_fract_y
_atom_site_fract_z
Si Si1 0.107520 0.665676 0.678149
Si Si2 0.617607 0.167999 0.361018
Si Si3 0.794700 0.328617 0.131724
Si Si4 0.126929 0.326141 0.181735
Si Si5 0.386049 0.665168 0.479603
Si Si6 0.955016 0.832129 0.081885
O O1 0.127154 0.500000 0.658963
O O2 0.151117 0.691110 0.773393
O O3 0.141882 0.764691 0.610166
O O4 0.995257 0.681297 0.664652
O O5 0.654930 0.211781 0.278739
O O6 0.647237 0.255269 0.444675
O O7 0.638120 0.000000 0.376918
O O8 0.784055 0.500000 0.114838
O O9 0.697804 0.248526 0.131383
O O10 0.856823 0.248545 0.074754
O O11 0.124469 0.500000 0.173988
O O12 0.026720 0.257462 0.148480
O O13 0.500000 0.672527 0.500000
O O14 0.358076 0.500000 0.477481
O O15 0.946658 0.000000 0.105501
O O16 0.000000 0.828772 0.000000
#
# Coordination Sequence:
#
# PCOD9221580 Si02
#       6
#     8   8   8   8   8   8
#     4   9  17  33  55  80 115 159 204 249 302 360
#     4   9  17  33  55  80 115 159 204 249 302 360
#     4  11  23  41  65  95 127 164 207 253 308 367
#     4  11  23  41  65  95 127 164 207 253 308 367
#     4   9  17  27  46  81 116 152 202 254 302 350
#     4  11  25  45  69  96 125 160 201 249 308 371
#
# _framework density 21.919789999999999
#
# number of rings (size 3 to 8) (size 9 to 14) (size 15 to 20)
#    0.000    2.000    1.667    2.000    0.000    6.667 
#    0.000    0.833    0.000    0.000    0.000    0.000 
#    0.000    0.000    0.000    0.000    0.000    0.000 
#
# Total GULP energy -134230.738225 kJ/mol
# GULP energy per Si atom -5592.947426 kJ/mol
# Density = 2.186990 g / cm^3
# Si number density = 21.919790 Si / 1000 Ang^3
#
#
#
# Elastic Constant Matrix: (Units=GPa)
#
#
# Indices 1 2 3 4 5 6 
#
# 1 83.8616 36.4012 18.4052 0.0000 -20.7409 0.0000
# 2 36.4012 102.9744 58.7305 0.0000 -26.1687 0.0000
# 3 18.4052 58.7305 84.8703 0.0000 -20.9431 0.0000
# 4 0.0000 0.0000 0.0000 31.0622 0.0000 -4.6957
# 5 -20.7409 -26.1687 -20.9431 0.0000 38.5743 0.0000
# 6 0.0000 0.0000 0.0000 -4.6957 0.0000 20.6273
#
#
#
# Elastic Compliance Matrix: (Units=1/GPa)
#
#
# Indices 1 2 3 4 5 6 
#
# 1 0.015049 -0.004651 0.001354 0.000000 0.005672 0.000000
# 2 -0.004651 0.018604 -0.010817 0.000000 0.004247 0.000000
# 3 0.001354 -0.010817 0.020027 0.000000 0.004263 0.000000
# 4 0.000000 0.000000 0.000000 0.033341 0.000000 0.007590
# 5 0.005672 0.004247 0.004263 0.000000 0.034169 0.000000
# 6 0.000000 0.000000 0.000000 0.007590 0.000000 0.050207
#
#
# Mechanical properties :
#
#
# Convention : Reuss Voigt Hill
#
# Bulk Modulus (GPa) = 39.29004 55.42001 47.35502
# Shear Modulus (GPa) = 24.02595 28.59739 26.31167
#
# Velocity S-wave (km/s) = 3.31431 3.61590 3.46838
# Velocity P-wave (km/s) = 5.71048 6.53995 6.13924
#
# Compressibility (1/GPa) = 0.02545175
#
# Stress axis : x y z
#
# Youngs Moduli (GPa) = 66.45124 53.75134 49.93363
#
# Poissons Ratio (x) = 0.24999 -0.06763
# Poissons Ratio (y) = 0.30905 0.54016
# Poissons Ratio (z) = -0.09001 0.58145
#
# Static dielectric constant tensor:
#      x y z
#    x 1.897840 0.000000 0.034470 
#    y 0.000000 1.726590 0.000000 
#    z 0.034470 0.000000 1.810850 
# 
# From -- ./inp_files/267707.got.cif
#   From: 2010.05.17/outbox.cif.g08.bks.cpg/sg12_134_cif.got.tgz:267707.got - 2010.06.03 13:09:07.
