data_PCOD9221245
_publ_section_title
;
Structure prediction by ZEFSAII (Michael W. Deem and Ramdas Pophale) SiO2 
 PCOD9221245
Probable space group: C 2/M
;
_chemical_formula_sum "Si O2"
_cell_formula_units_Z 48
_cell_length_a 28.875064
_cell_length_b 8.814476
_cell_length_c 11.622607
_cell_angle_alpha 90.000000
_cell_angle_beta 78.323536
_cell_angle_gamma 90.000000
_cell_volume 2896.952914
_symmetry_space_group_name_H-M "C 2/M"
_symmetry_group_IT_number 12
_symmetry_cell_setting 'monoclinic'
loop_
_space_group_symop_operation_xyz
x,y,z
-x,y,-z
-x,-y,-z
x,-y,z
1/2+x,1/2+y,z
1/2-x,1/2+y,-z
1/2-x,1/2-y,-z
1/2+x,1/2-y,z
loop_
_atom_site_type_symbol
_atom_site_label
_atom_site_fract_x
_atom_site_fract_y
_atom_site_fract_z
Si Si1 0.454465 0.181484 0.097330
Si Si2 0.258031 0.681524 0.122839
Si Si3 0.663050 0.317150 0.221815
Si Si4 0.428070 0.684323 0.595683
Si Si5 0.638537 0.681996 0.968805
Si Si6 0.474563 0.316522 0.335141
O O1 0.406860 0.239013 0.060979
O O2 0.459381 0.246994 0.222733
O O3 0.454304 0.000000 0.101923
O O4 0.500000 0.231365 0.000000
O O5 0.254694 0.500000 0.119050
O O6 0.214632 0.746891 0.217527
O O7 0.312550 0.720289 0.122422
O O8 0.250000 0.750000 0.000000
O O9 0.667055 0.500000 0.224259
O O10 0.622023 0.265245 0.329007
O O11 0.646561 0.278672 0.099532
O O12 0.427596 0.500000 0.596806
O O13 0.471999 0.728552 0.655436
O O14 0.441410 0.729652 0.459331
O O15 0.632270 0.500000 0.966717
O O16 0.473497 0.500000 0.327871
#
# Coordination Sequence:
#
# PCOD9221245 Si02
#       6
#     8   8   8   8   8   8
#     4  11  23  34  45  67  98 126 153 189 233 277
#     4   9  17  29  45  68  95 122 155 192 232 275
#     4   9  16  28  48  74  99 120 150 191 234 278
#     4   8  15  29  51  75  94 118 155 194 228 270
#     4   9  18  31  48  69  93 124 158 190 224 271
#     4   9  17  32  52  70  92 124 159 191 225 270
#
# _framework density 16.569133000000001
#
# number of rings (size 3 to 8) (size 9 to 14) (size 15 to 20)
#    0.000    2.833    0.000    4.000    0.000    6.000 
#    0.000    3.333    0.000    1.000    0.000    0.000 
#    0.000    0.000    0.000    0.000    0.000    0.000 
#
# Total GULP energy -133710.108265 kJ/mol
# GULP energy per Si atom -5571.254511 kJ/mol
# Density = 1.653142 g / cm^3
# Si number density = 16.569133 Si / 1000 Ang^3
#
#
#
# Elastic Constant Matrix: (Units=GPa)
#
#
# Indices 1 2 3 4 5 6 
#
# 1 153.0147 42.6482 71.4976 0.0000 -28.1295 0.0000
# 2 42.6482 23.1873 27.3085 0.0000 -4.3771 0.0000
# 3 71.4976 27.3085 80.0087 0.0000 -16.2995 0.0000
# 4 0.0000 0.0000 0.0000 15.7039 0.0000 -5.7736
# 5 -28.1295 -4.3771 -16.2995 0.0000 33.4687 0.0000
# 6 0.0000 0.0000 0.0000 -5.7736 0.0000 20.5675
#
#
#
# Elastic Compliance Matrix: (Units=1/GPa)
#
#
# Indices 1 2 3 4 5 6 
#
# 1 0.017390 -0.023630 -0.005692 0.000000 0.008754 0.000000
# 2 -0.023630 0.104468 -0.017544 0.000000 -0.014742 0.000000
# 3 -0.005692 -0.017544 0.024569 0.000000 0.004887 0.000000
# 4 0.000000 0.000000 0.000000 0.071007 0.000000 0.019933
# 5 0.008754 -0.014742 0.004887 0.000000 0.037688 0.000000
# 6 0.000000 0.000000 0.000000 0.019933 0.000000 0.054216
#
#
# Mechanical properties :
#
#
# Convention : Reuss Voigt Hill
#
# Bulk Modulus (GPa) = 18.97679 59.90215 39.43947
# Shear Modulus (GPa) = 11.88683 21.59846 16.74264
#
# Velocity S-wave (km/s) = 2.68135 3.61437 3.18224
# Velocity P-wave (km/s) = 4.58957 7.32459 6.11203
#
# Compressibility (1/GPa) = 0.05269595
#
# Stress axis : x y z
#
# Youngs Moduli (GPa) = 57.50424 9.57227 40.70249
#
# Poissons Ratio (x) = 0.22619 0.23166
# Poissons Ratio (y) = 1.35881 0.71410
# Poissons Ratio (z) = 0.32729 0.16794
#
# Static dielectric constant tensor:
#      x y z
#    x 1.568010 0.000000 -0.036080 
#    y 0.000000 1.557250 0.000000 
#    z -0.036080 0.000000 1.556980 
# 
# From -- ./inp_files/172286.got.cif
#   From: 2010.05.17/outbox.cif.g08.bks.cpg/sg12_87_cif.got.tgz:172286.got - 2010.06.03 13:09:07.
