data_PCOD9221707
_publ_section_title
;
Structure prediction by ZEFSAII (Michael W. Deem and Ramdas Pophale) SiO2 
 PCOD9221707
Probable space group: C 2/M
;
_chemical_formula_sum "Si O2"
_cell_formula_units_Z 36
_cell_length_a 18.176020
_cell_length_b 14.714001
_cell_length_c 9.497264
_cell_angle_alpha 90.000000
_cell_angle_beta 42.553374
_cell_angle_gamma 90.000000
_cell_volume 1717.720606
_symmetry_space_group_name_H-M "C 2/M"
_symmetry_group_IT_number 12
_symmetry_cell_setting 'monoclinic'
loop_
_space_group_symop_operation_xyz
x,y,z
-x,y,-z
-x,-y,-z
x,-y,z
1/2+x,1/2+y,z
1/2-x,1/2+y,-z
1/2-x,1/2-y,-z
1/2+x,1/2-y,z
loop_
_atom_site_type_symbol
_atom_site_label
_atom_site_fract_x
_atom_site_fract_y
_atom_site_fract_z
Si Si1 0.183165 0.897026 0.040247
Si Si2 0.000000 0.834365 0.500000
Si Si3 0.083928 0.716210 0.639946
Si Si4 0.176356 0.220976 0.778757
Si Si5 0.130462 0.392663 0.009981
O O1 0.094865 0.889710 0.289178
O O2 0.189015 0.000000 0.980320
O O3 0.151482 0.831479 0.957601
O O4 0.298867 0.872896 0.948782
O O5 0.050128 0.771733 0.550541
O O6 0.094978 0.780064 0.762108
O O7 0.207107 0.684784 0.437794
O O8 0.993677 0.639707 0.794850
O O9 0.179355 0.327319 0.820682
O O10 0.138486 0.500000 0.969662
#
# Coordination Sequence:
#
# PCOD9221707 Si02
#       5
#     8   4   8   8   8
#     4  11  24  42  68  98 132 177 226 274 331 398
#     4  12  21  42  67  94 126 180 221 274 323 400
#     4  11  24  39  70  96 132 172 219 271 337 394
#     4  11  23  44  64  99 135 175 214 275 341 395
#     4  11  23  42  70 100 131 173 224 273 330 397
#
# _framework density 20.958008
#
# number of rings (size 3 to 8) (size 9 to 14) (size 15 to 20)
#    0.000    0.889    4.444    3.000    0.000    2.667 
#    0.000    9.444    0.000    0.000    0.000    0.000 
#    0.000    0.000    0.000    0.000    0.000    0.000 
#
# Total GULP energy -100577.930492 kJ/mol
# GULP energy per Si atom -5587.662805 kJ/mol
# Density = 2.091031 g / cm^3
# Si number density = 20.958008 Si / 1000 Ang^3
#
#
#
# Elastic Constant Matrix: (Units=GPa)
#
#
# Indices 1 2 3 4 5 6 
#
# 1 156.0192 51.1696 40.4558 0.0000 13.5771 0.0000
# 2 51.1696 69.4367 22.4264 0.0000 9.9970 0.0000
# 3 40.4558 22.4264 114.0424 0.0000 -3.0788 0.0000
# 4 0.0000 0.0000 0.0000 13.3350 0.0000 -10.0649
# 5 13.5771 9.9970 -3.0788 0.0000 42.4191 0.0000
# 6 0.0000 0.0000 0.0000 -10.0649 0.0000 22.9794
#
#
#
# Elastic Compliance Matrix: (Units=1/GPa)
#
#
# Indices 1 2 3 4 5 6 
#
# 1 0.008967 -0.005685 -0.002109 0.000000 -0.001683 0.000000
# 2 -0.005685 0.019637 -0.001925 0.000000 -0.002948 0.000000
# 3 -0.002109 -0.001925 0.009945 0.000000 0.001850 0.000000
# 4 0.000000 0.000000 0.000000 0.112025 0.000000 0.049066
# 5 -0.001683 -0.002948 0.001850 0.000000 0.024942 0.000000
# 6 0.000000 0.000000 0.000000 0.049066 0.000000 0.065008
#
#
# Mechanical properties :
#
#
# Convention : Reuss Voigt Hill
#
# Bulk Modulus (GPa) = 52.31942 63.06689 57.69316
# Shear Modulus (GPa) = 18.77365 30.77645 24.77505
#
# Velocity S-wave (km/s) = 2.99620 3.83623 3.44194
# Velocity P-wave (km/s) = 6.08175 7.05547 6.58663
#
# Compressibility (1/GPa) = 0.01911336
#
# Stress axis : x y z
#
# Youngs Moduli (GPa) = 111.51828 50.92474 100.55215
#
# Poissons Ratio (x) = 0.28949 0.21202
# Poissons Ratio (y) = 0.63395 0.19352
# Poissons Ratio (z) = 0.23515 0.09801
#
# Static dielectric constant tensor:
#      x y z
#    x 1.772680 0.000000 -0.028710 
#    y 0.000000 1.706640 0.000000 
#    z -0.028710 0.000000 1.807460 
# 
# From -- ./inp_files/72775.got.cif
#   From: 2010.05.17/outbox.cif.g08.bks.cpg/sg12_37_cif.got.tgz:72775.got - 2010.06.03 13:09:07.
