data_PCOD9221045
_publ_section_title
;
Structure prediction by ZEFSAII (Michael W. Deem and Ramdas Pophale) SiO2 
 PCOD9221045
Probable space group: C 2/M
;
_chemical_formula_sum "Si O2"
_cell_formula_units_Z 42
_cell_length_a 20.757483
_cell_length_b 7.787201
_cell_length_c 14.280939
_cell_angle_alpha 90.000000
_cell_angle_beta 124.501708
_cell_angle_gamma 90.000000
_cell_volume 1902.381687
_symmetry_space_group_name_H-M "C 2/M"
_symmetry_group_IT_number 12
_symmetry_cell_setting 'monoclinic'
loop_
_space_group_symop_operation_xyz
x,y,z
-x,y,-z
-x,-y,-z
x,-y,z
1/2+x,1/2+y,z
1/2-x,1/2+y,-z
1/2-x,1/2-y,-z
1/2+x,1/2-y,z
loop_
_atom_site_type_symbol
_atom_site_label
_atom_site_fract_x
_atom_site_fract_y
_atom_site_fract_z
Si Si1 0.184376 0.193738 0.372721
Si Si2 0.500000 0.500000 0.000000
Si Si3 0.888768 0.708563 0.337463
Si Si4 0.560326 0.791497 0.415488
Si Si5 0.737339 0.293896 0.097522
Si Si6 0.112258 0.311943 0.134080
O O1 0.250000 0.250000 0.500000
O O2 0.103506 0.212018 0.362983
O O3 0.174704 0.297349 0.269742
O O4 0.202093 0.000000 0.359778
O O5 0.553819 0.652765 0.092756
O O6 0.888208 0.500000 0.337351
O O7 0.895975 0.759868 0.452034
O O8 0.812557 0.765328 0.219223
O O9 0.969896 0.758552 0.353987
O O10 0.564311 0.000000 0.411104
O O11 0.729530 0.500000 0.101480
O O12 0.659843 0.211150 0.076911
O O13 0.750000 0.250000 0.000000
O O14 0.076037 0.500000 0.111155
#
# Coordination Sequence:
#
# PCOD9221045 Si02
#       6
#     8   2   8   8   8   8
#     4  12  24  41  64 100 141 183 232 291 357 429
#     4  12  26  52  72 102 144 188 242 292 352 434
#     4   8  17  34  61  89 128 171 219 280 337 410
#     4   9  17  35  61  94 124 169 223 275 350 412
#     4  11  22  41  64  97 136 181 235 288 348 415
#     4  12  26  48  74 104 140 188 241 297 362 425
#
# _framework density 22.077587000000001
#
# number of rings (size 3 to 8) (size 9 to 14) (size 15 to 20)
#    0.000    1.524    1.905    4.857    0.000    3.048 
#    0.000    7.619    0.000    0.000    0.000    0.000 
#    0.000    0.000    0.000    0.000    0.000    0.000 
#
# Total GULP energy -117180.150476 kJ/mol
# GULP energy per Si atom -5580.007166 kJ/mol
# Density = 2.202734 g / cm^3
# Si number density = 22.077587 Si / 1000 Ang^3
#
#
#
# Elastic Constant Matrix: (Units=GPa)
#
#
# Indices 1 2 3 4 5 6 
#
# 1 42.6314 -0.0240 8.8647 0.0000 -20.7861 0.0000
# 2 -0.0240 133.8175 29.1507 0.0000 8.6871 0.0000
# 3 8.8647 29.1507 89.0381 0.0000 5.6246 0.0000
# 4 0.0000 0.0000 0.0000 22.3910 0.0000 -4.9650
# 5 -20.7861 8.6871 5.6246 0.0000 32.2517 0.0000
# 6 0.0000 0.0000 0.0000 -4.9650 0.0000 20.8069
#
#
#
# Elastic Compliance Matrix: (Units=1/GPa)
#
#
# Indices 1 2 3 4 5 6 
#
# 1 0.036442 -0.000491 -0.005015 0.000000 0.024493 0.000000
# 2 -0.000491 0.008150 -0.002488 0.000000 -0.002078 0.000000
# 3 -0.005015 -0.002488 0.012848 0.000000 -0.004802 0.000000
# 4 0.000000 0.000000 0.000000 0.047156 0.000000 0.011253
# 5 0.024493 -0.002078 -0.004802 0.000000 0.048189 0.000000
# 6 0.000000 0.000000 0.000000 0.011253 0.000000 0.050746
#
#
# Mechanical properties :
#
#
# Convention : Reuss Voigt Hill
#
# Bulk Modulus (GPa) = 24.12414 37.94109 31.03262
# Shear Modulus (GPa) = 21.42830 30.25629 25.84230
#
# Velocity S-wave (km/s) = 3.11881 3.70598 3.42500
# Velocity P-wave (km/s) = 4.89081 5.96113 5.45229
#
# Compressibility (1/GPa) = 0.04145225
#
# Stress axis : x y z
#
# Youngs Moduli (GPa) = 27.44101 122.70468 77.83109
#
# Poissons Ratio (x) = 0.06026 0.39029
# Poissons Ratio (y) = 0.01348 0.19364
# Poissons Ratio (z) = 0.13761 0.30529
#
# Static dielectric constant tensor:
#      x y z
#    x 1.821410 0.000000 0.028820 
#    y 0.000000 1.804780 0.000000 
#    z 0.028820 0.000000 1.804060 
# 
# From -- ./inp_files/221856.got.cif
#   From: 2010.05.17/outbox.cif.g08.bks.cpg/sg12_111_cif.got.tgz:221856.got - 2010.06.03 13:09:07.
