data_PCOD9221505
_publ_section_title
;
Structure prediction by ZEFSAII (Michael W. Deem and Ramdas Pophale) SiO2 
 PCOD9221505
Probable space group: C 2/M
;
_chemical_formula_sum "Si O2"
_cell_formula_units_Z 52
_cell_length_a 14.877424
_cell_length_b 31.629416
_cell_length_c 8.442584
_cell_angle_alpha 90.000000
_cell_angle_beta 38.458427
_cell_angle_gamma 90.000000
_cell_volume 2470.855902
_symmetry_space_group_name_H-M "C 2/M"
_symmetry_group_IT_number 12
_symmetry_cell_setting 'monoclinic'
loop_
_space_group_symop_operation_xyz
x,y,z
-x,y,-z
-x,-y,-z
x,-y,z
1/2+x,1/2+y,z
1/2-x,1/2+y,-z
1/2-x,1/2-y,-z
1/2+x,1/2-y,z
loop_
_atom_site_type_symbol
_atom_site_label
_atom_site_fract_x
_atom_site_fract_y
_atom_site_fract_z
Si Si1 0.761302 0.000000 0.413064
Si Si2 0.216990 0.738979 0.364753
Si Si3 0.529229 0.593379 0.279954
Si Si4 0.921844 0.000000 0.864209
Si Si5 0.908734 0.707409 0.854634
Si Si6 0.000000 0.354673 0.000000
Si Si7 0.254950 0.847779 0.796617
Si Si8 0.275762 0.907348 0.473868
O O1 0.683480 0.956327 0.560517
O O2 0.914253 0.000000 0.295138
O O3 0.810099 0.000000 0.163268
O O4 0.250000 0.750000 0.500000
O O5 0.290953 0.693048 0.240223
O O6 0.041566 0.736002 0.608305
O O7 0.286604 0.767757 0.127680
O O8 0.500000 0.606211 0.500000
O O9 0.591210 0.545235 0.202600
O O10 0.390827 0.593454 0.353326
O O11 0.638163 0.626399 0.054503
O O12 0.851661 0.677012 0.793496
O O13 0.981036 0.675766 0.878809
O O14 0.863754 0.384364 0.215529
O O15 0.306346 0.881933 0.594538
#
# Coordination Sequence:
#
# PCOD9221505 Si02
#       8
#     4   8   8   4   8   4   8   8
#     4   9  18  37  66 100 134 178 232 278 339 411
#     4  12  25  47  71 100 135 179 231 288 350 416
#     4  11  23  40  66 107 138 179 230 289 341 411
#     4   9  17  36  66  97 139 178 221 286 343 397
#     4  12  26  47  71 103 135 183 230 290 349 419
#     4  12  24  45  70  96 140 182 226 281 356 412
#     4  12  25  42  70  98 139 176 225 284 350 408
#     4  11  23  42  69 100 138 184 232 282 348 408
#
# _framework density 21.045338999999998
#
# number of rings (size 3 to 8) (size 9 to 14) (size 15 to 20)
#    0.000    0.769    4.615    2.538    0.000    5.231 
#    0.000    0.000    0.000    2.769    0.000    0.000 
#    0.000    0.000    0.000    0.000    0.000    0.000 
#
# Total GULP energy -145030.764897 kJ/mol
# GULP energy per Si atom -5578.106342 kJ/mol
# Density = 2.099744 g / cm^3
# Si number density = 21.045339 Si / 1000 Ang^3
#
#
#
# Elastic Constant Matrix: (Units=GPa)
#
#
# Indices 1 2 3 4 5 6 
#
# 1 94.9311 38.8212 31.2951 0.0000 13.5696 0.0000
# 2 38.8212 126.2504 59.4600 0.0000 -1.1837 0.0000
# 3 31.2951 59.4600 117.8924 0.0000 4.6191 0.0000
# 4 0.0000 0.0000 0.0000 -3.8396 0.0000 4.0317
# 5 13.5696 -1.1837 4.6191 0.0000 31.1736 0.0000
# 6 0.0000 0.0000 0.0000 4.0317 0.0000 34.0016
#
#
#
# Elastic Compliance Matrix: (Units=1/GPa)
#
#
# Indices 1 2 3 4 5 6 
#
# 1 0.013249 -0.003377 -0.001592 0.000000 -0.005659 0.000000
# 2 -0.003377 0.011292 -0.004902 0.000000 0.002625 0.000000
# 3 -0.001592 -0.004902 0.011424 0.000000 -0.001186 0.000000
# 4 0.000000 0.000000 0.000000 -0.231609 0.000000 0.027462
# 5 -0.005659 0.002625 -0.001186 0.000000 0.034817 0.000000
# 6 0.000000 0.000000 0.000000 0.027462 0.000000 0.026154
#
#
# Mechanical properties :
#
#
# Convention : Reuss Voigt Hill
#
# Bulk Modulus (GPa) = 61.64080 66.46959 64.05519
# Shear Modulus (GPa) = -45.65223 26.23363 -9.70930
#
# Velocity S-wave (km/s) = -4.66255 3.53445 -2.15024
# Velocity P-wave (km/s) = 0.60599 6.95047 4.93337
#
# Compressibility (1/GPa) = 0.01622302
#
# Stress axis : x y z
#
# Youngs Moduli (GPa) = 75.47853 88.55469 87.53810
#
# Poissons Ratio (x) = 0.29907 0.13935
# Poissons Ratio (y) = 0.25491 0.42909
# Poissons Ratio (z) = 0.12015 0.43408
#
# Static dielectric constant tensor:
#      x y z
#    x 1.880190 0.000000 0.057270 
#    y 0.000000 1.763470 0.000000 
#    z 0.057270 0.000000 1.825190 
# 
# From -- ./inp_files/68561.got.cif
#   From: 2010.05.17/outbox.cif.g08.bks.cpg/sg12_35_cif.got.tgz:68561.got - 2010.06.03 13:09:07.
