data_PCOD9221309
_publ_section_title
;
Structure prediction by ZEFSAII (Michael W. Deem and Ramdas Pophale) SiO2 
 PCOD9221309
Probable space group: C 2/M
;
_chemical_formula_sum "Si O2"
_cell_formula_units_Z 48
_cell_length_a 13.035271
_cell_length_b 14.072196
_cell_length_c 20.688890
_cell_angle_alpha 90.000000
_cell_angle_beta 140.355216
_cell_angle_gamma 90.000000
_cell_volume 2421.349839
_symmetry_space_group_name_H-M "C 2/M"
_symmetry_group_IT_number 12
_symmetry_cell_setting 'monoclinic'
loop_
_space_group_symop_operation_xyz
x,y,z
-x,y,-z
-x,-y,-z
x,-y,z
1/2+x,1/2+y,z
1/2-x,1/2+y,-z
1/2-x,1/2-y,-z
1/2+x,1/2-y,z
loop_
_atom_site_type_symbol
_atom_site_label
_atom_site_fract_x
_atom_site_fract_y
_atom_site_fract_z
Si Si1 0.597393 0.808765 0.614756
Si Si2 0.769466 0.891312 0.130127
Si Si3 0.565336 0.257705 0.252760
Si Si4 0.502224 0.397361 0.579742
Si Si5 0.137259 0.393280 0.397496
Si Si6 0.002612 0.609524 0.892917
O O1 0.500000 0.811534 0.500000
O O2 0.785376 0.824890 0.694706
O O3 0.589832 0.700012 0.637563
O O4 0.500603 0.874159 0.617199
O O5 0.645382 0.880700 0.128990
O O6 0.915479 0.819162 0.203005
O O7 0.827857 0.000000 0.158309
O O8 0.662919 0.877452 0.013679
O O9 0.626873 0.187633 0.338759
O O10 0.512898 0.188009 0.169492
O O11 0.500000 0.401212 0.500000
O O12 0.567989 0.500000 0.633511
O O13 0.317942 0.388009 0.513559
O O14 0.122085 0.500000 0.362954
O O15 0.001814 0.500000 0.868163
#
# Coordination Sequence:
#
# PCOD9221309 Si02
#       6
#     8   8   8   8   8   8
#     4  11  23  38  56  79 118 154 193 230 281 330
#     4   9  20  39  60  86 117 147 181 231 284 336
#     4  12  21  35  61  87 114 148 192 230 277 339
#     4   9  17  34  57  79 103 142 190 236 275 316
#     4  11  23  38  56  79 112 150 192 240 279 323
#     4   9  19  38  62  87 115 144 184 232 284 338
#
# _framework density 19.823651999999999
#
# number of rings (size 3 to 8) (size 9 to 14) (size 15 to 20)
#    0.000    1.833    3.333    3.500    0.000    1.667 
#    0.000    0.833    0.000    0.000    0.000   10.500 
#    0.000    0.000    0.000    0.000    0.000    0.000 
#
# Total GULP energy -134103.197653 kJ/mol
# GULP energy per Si atom -5587.633236 kJ/mol
# Density = 1.977853 g / cm^3
# Si number density = 19.823652 Si / 1000 Ang^3
#
#
#
# Elastic Constant Matrix: (Units=GPa)
#
#
# Indices 1 2 3 4 5 6 
#
# 1 60.5300 9.6982 7.8407 0.0000 15.7100 0.0000
# 2 9.6982 47.9118 12.6151 0.0000 14.9382 0.0000
# 3 7.8407 12.6151 46.3210 0.0000 8.4042 0.0000
# 4 0.0000 0.0000 0.0000 14.2212 0.0000 2.7717
# 5 15.7100 14.9382 8.4042 0.0000 35.5025 0.0000
# 6 0.0000 0.0000 0.0000 2.7717 0.0000 11.9848
#
#
#
# Elastic Compliance Matrix: (Units=1/GPa)
#
#
# Indices 1 2 3 4 5 6 
#
# 1 0.018844 -0.001063 -0.001534 0.000000 -0.007528 0.000000
# 2 -0.001063 0.025207 -0.005063 0.000000 -0.008937 0.000000
# 3 -0.001534 -0.005063 0.023737 0.000000 -0.002810 0.000000
# 4 0.000000 0.000000 0.000000 0.073636 0.000000 -0.017030
# 5 -0.007528 -0.008937 -0.002810 0.000000 0.035924 0.000000
# 6 0.000000 0.000000 0.000000 -0.017030 0.000000 0.087377
#
#
# Mechanical properties :
#
#
# Convention : Reuss Voigt Hill
#
# Bulk Modulus (GPa) = 19.06020 23.89674 21.47847
# Shear Modulus (GPa) = 16.80478 20.64896 18.72687
#
# Velocity S-wave (km/s) = 2.91471 3.23093 3.07689
# Velocity P-wave (km/s) = 4.57855 5.09896 4.84575
#
# Compressibility (1/GPa) = 0.05246536
#
# Stress axis : x y z
#
# Youngs Moduli (GPa) = 53.06842 39.67228 42.12848
#
# Poissons Ratio (x) = 0.04218 0.06464
# Poissons Ratio (y) = 0.05642 0.21331
# Poissons Ratio (z) = 0.08142 0.20087
#
# Static dielectric constant tensor:
#      x y z
#    x 1.701400 0.000000 -0.009390 
#    y 0.000000 1.682730 0.000000 
#    z -0.009390 0.000000 1.715510 
# 
# From -- ./inp_files/204584.got.cif
#   From: 2010.05.17/outbox.cif.g08.bks.cpg/sg12_103_cif.got.tgz:204584.got - 2010.06.03 13:09:07.
