data_PCOD9221650
_publ_section_title
;
Structure prediction by ZEFSAII (Michael W. Deem and Ramdas Pophale) SiO2 
 PCOD9221650
Probable space group: C 2/M
;
_chemical_formula_sum "Si O2"
_cell_formula_units_Z 44
_cell_length_a 11.309469
_cell_length_b 26.149203
_cell_length_c 11.480258
_cell_angle_alpha 90.000000
_cell_angle_beta 40.255915
_cell_angle_gamma 90.000000
_cell_volume 2193.921753
_symmetry_space_group_name_H-M "C 2/M"
_symmetry_group_IT_number 12
_symmetry_cell_setting 'monoclinic'
loop_
_space_group_symop_operation_xyz
x,y,z
-x,y,-z
-x,-y,-z
x,-y,z
1/2+x,1/2+y,z
1/2-x,1/2+y,-z
1/2-x,1/2-y,-z
1/2+x,1/2-y,z
loop_
_atom_site_type_symbol
_atom_site_label
_atom_site_fract_x
_atom_site_fract_y
_atom_site_fract_z
Si Si1 0.121380 0.750726 0.292643
Si Si2 0.803063 0.441865 0.797188
Si Si3 0.500000 0.196024 0.000000
Si Si4 0.444744 0.558316 0.231933
Si Si5 0.071509 0.149765 0.579092
Si Si6 0.504408 0.846270 0.242067
O O1 0.000000 0.743328 0.500000
O O2 0.028841 0.799470 0.298694
O O3 0.107943 0.699622 0.228976
O O4 0.327834 0.768344 0.161593
O O5 0.875426 0.500000 0.743211
O O6 0.725349 0.430286 0.726703
O O7 0.938611 0.399669 0.744146
O O8 0.625347 0.440732 0.015173
O O9 0.547958 0.160331 0.073209
O O10 0.423795 0.500000 0.290980
O O11 0.463269 0.600115 0.317588
O O12 0.287127 0.160163 0.417089
O O13 0.000000 0.142767 0.500000
#
# Coordination Sequence:
#
# PCOD9221650 Si02
#       6
#     8   8   4   8   8   8
#     4  11  25  44  64  97 133 167 217 268 317 387
#     4   9  21  41  65  96 126 164 219 272 319 384
#     4  12  24  44  65  96 133 176 210 262 324 392
#     4   9  20  41  67  94 129 167 214 269 323 382
#     4  11  23  42  63  90 138 170 209 271 315 382
#     4  12  25  40  68  92 132 171 216 266 326 381
#
# _framework density 20.055409000000001
#
# number of rings (size 3 to 8) (size 9 to 14) (size 15 to 20)
#    0.000    1.455    3.636    3.273    2.545    2.545 
#    0.000    2.273    0.000    0.000    0.000    0.000 
#    0.000    0.000    0.000    0.000    0.000    0.000 
#
# Total GULP energy -122980.369430 kJ/mol
# GULP energy per Si atom -5590.016792 kJ/mol
# Density = 2.000976 g / cm^3
# Si number density = 20.055409 Si / 1000 Ang^3
#
#
#
# Elastic Constant Matrix: (Units=GPa)
#
#
# Indices 1 2 3 4 5 6 
#
# 1 84.2447 72.2061 11.7476 0.0000 -8.2544 0.0000
# 2 72.2061 128.5943 18.0130 0.0000 12.6569 0.0000
# 3 11.7476 18.0130 44.8751 0.0000 -7.4423 0.0000
# 4 0.0000 0.0000 0.0000 -7.8185 0.0000 -29.5576
# 5 -8.2544 12.6569 -7.4423 0.0000 37.8960 0.0000
# 6 0.0000 0.0000 0.0000 -29.5576 0.0000 23.7009
#
#
#
# Elastic Compliance Matrix: (Units=1/GPa)
#
#
# Indices 1 2 3 4 5 6 
#
# 1 0.026926 -0.016477 0.001499 0.000000 0.011663 0.000000
# 2 -0.016477 0.018802 -0.005034 0.000000 -0.010857 0.000000
# 3 0.001499 -0.005034 0.025062 0.000000 0.006930 0.000000
# 4 0.000000 0.000000 0.000000 -0.022381 0.000000 -0.027912
# 5 0.011663 -0.010857 0.006930 0.000000 0.033916 0.000000
# 6 0.000000 0.000000 0.000000 -0.027912 0.000000 0.007383
#
#
# Mechanical properties :
#
#
# Convention : Reuss Voigt Hill
#
# Bulk Modulus (GPa) = 32.50379 51.29414 41.89897
# Shear Modulus (GPa) = 35.71740 21.13883 28.42811
#
# Velocity S-wave (km/s) = 4.22469 3.25009 3.76903
# Velocity P-wave (km/s) = 6.32768 6.30205 6.31488
#
# Compressibility (1/GPa) = 0.03076564
#
# Stress axis : x y z
#
# Youngs Moduli (GPa) = 37.13829 53.18517 39.90148
#
# Poissons Ratio (x) = 0.87634 -0.05982
# Poissons Ratio (y) = 0.61193 0.20088
# Poissons Ratio (z) = -0.05568 0.26776
#
# Static dielectric constant tensor:
#      x y z
#    x 1.695530 0.000000 -0.003120 
#    y 0.000000 1.677770 0.000000 
#    z -0.003120 0.000000 1.746740 
# 
# From -- ./inp_files/135739.got.cif
#   From: 2010.05.17/outbox.cif.g08.bks.cpg/sg12_68_cif.got.tgz:135739.got - 2010.06.03 13:09:07.
