data_PCOD9221452
_publ_section_title
;
Structure prediction by ZEFSAII (Michael W. Deem and Ramdas Pophale) SiO2 
 PCOD9221452
Probable space group: C 2/M
;
_chemical_formula_sum "Si O2"
_cell_formula_units_Z 52
_cell_length_a 15.728466
_cell_length_b 9.350104
_cell_length_c 21.197842
_cell_angle_alpha 90.000000
_cell_angle_beta 52.819826
_cell_angle_gamma 90.000000
_cell_volume 2483.765438
_symmetry_space_group_name_H-M "C 2/M"
_symmetry_group_IT_number 12
_symmetry_cell_setting 'monoclinic'
loop_
_space_group_symop_operation_xyz
x,y,z
-x,y,-z
-x,-y,-z
x,-y,z
1/2+x,1/2+y,z
1/2-x,1/2+y,-z
1/2-x,1/2-y,-z
1/2+x,1/2-y,z
loop_
_atom_site_type_symbol
_atom_site_label
_atom_site_fract_x
_atom_site_fract_y
_atom_site_fract_z
Si Si1 0.806774 0.832930 0.169154
Si Si2 0.140416 0.337223 0.054945
Si Si3 0.316591 0.670554 0.523981
Si Si4 0.000794 0.335378 0.617761
Si Si5 0.739830 0.164453 0.327719
Si Si6 0.000000 0.737728 0.000000
Si Si7 0.581469 0.826300 0.215371
O O1 0.813095 0.777323 0.237838
O O2 0.910698 0.818442 0.080491
O O3 0.701207 0.776417 0.181294
O O4 0.785454 0.000000 0.188063
O O5 0.172314 0.500000 0.054865
O O6 0.072541 0.284287 0.146215
O O7 0.250000 0.250000 0.000000
O O8 0.070203 0.336959 0.023032
O O9 0.313245 0.500000 0.521829
O O10 0.250000 0.750000 0.500000
O O11 0.434271 0.732628 0.457259
O O12 0.269396 0.729463 0.610184
O O13 0.042467 0.500000 0.596271
O O14 0.878632 0.341433 0.649769
O O15 0.996774 0.281688 0.692506
O O16 0.767646 0.000000 0.334214
O O17 0.575886 0.000000 0.220792
#
# Coordination Sequence:
#
# PCOD9221452 Si02
#       7
#     8   8   8   8   8   4   8
#     4   9  18  34  60  91 120 158 205 249 299 370
#     4  11  23  40  60  86 124 165 209 260 314 371
#     4  12  25  39  57  84 120 156 199 249 303 362
#     4   9  18  36  64  89 114 155 202 244 298 363
#     4   9  19  38  62  88 120 155 199 246 296 362
#     4  12  22  34  60  96 131 160 209 268 321 360
#     4   8  16  35  60  84 116 161 205 243 294 369
#
# _framework density 20.935955
#
# number of rings (size 3 to 8) (size 9 to 14) (size 15 to 20)
#    0.000    2.154    1.538    4.154    0.000    4.308 
#    0.000    3.846    0.000    0.000    0.000    0.000 
#    0.000    0.000    0.000    0.000    0.000    0.000 
#
# Total GULP energy -144925.655407 kJ/mol
# GULP energy per Si atom -5574.063670 kJ/mol
# Density = 2.088830 g / cm^3
# Si number density = 20.935955 Si / 1000 Ang^3
#
#
#
# Elastic Constant Matrix: (Units=GPa)
#
#
# Indices 1 2 3 4 5 6 
#
# 1 62.2183 21.5185 40.0298 0.0000 11.1402 0.0000
# 2 21.5185 78.5756 47.4224 0.0000 12.5129 0.0000
# 3 40.0298 47.4224 165.1126 0.0000 29.5312 0.0000
# 4 0.0000 0.0000 0.0000 24.8134 0.0000 3.4949
# 5 11.1402 12.5129 29.5312 0.0000 40.0425 0.0000
# 6 0.0000 0.0000 0.0000 3.4949 0.0000 15.5166
#
#
#
# Elastic Compliance Matrix: (Units=1/GPa)
#
#
# Indices 1 2 3 4 5 6 
#
# 1 0.019747 -0.002927 -0.003603 0.000000 -0.001922 0.000000
# 2 -0.002927 0.015941 -0.003598 0.000000 -0.001513 0.000000
# 3 -0.003603 -0.003598 0.008735 0.000000 -0.004315 0.000000
# 4 0.000000 0.000000 0.000000 0.041621 0.000000 -0.009375
# 5 -0.001922 -0.001513 -0.004315 0.000000 0.029164 0.000000
# 6 0.000000 0.000000 0.000000 -0.009375 0.000000 0.066558
#
#
# Mechanical properties :
#
#
# Convention : Reuss Voigt Hill
#
# Bulk Modulus (GPa) = 41.37974 58.20530 49.79252
# Shear Modulus (GPa) = 23.80063 29.20356 26.50210
#
# Velocity S-wave (km/s) = 3.37535 3.73889 3.56176
# Velocity P-wave (km/s) = 5.91595 6.81916 6.38355
#
# Compressibility (1/GPa) = 0.02416641
#
# Stress axis : x y z
#
# Youngs Moduli (GPa) = 50.64049 62.73223 114.47927
#
# Poissons Ratio (x) = 0.18364 0.41246
# Poissons Ratio (y) = 0.14824 0.41190
# Poissons Ratio (z) = 0.18246 0.22571
#
# Static dielectric constant tensor:
#      x y z
#    x 1.837400 0.000000 -0.000820 
#    y 0.000000 1.720600 0.000000 
#    z -0.000820 0.000000 1.840450 
# 
# From -- ./inp_files/314692.got.cif
#   From: 2010.05.17/outbox.cif.g08.bks.cpg/sg12_158_cif.got.tgz:314692.got - 2010.06.03 13:09:07.
