data_PCOD9221365
_publ_section_title
;
Structure prediction by ZEFSAII (Michael W. Deem and Ramdas Pophale) SiO2 
 PCOD9221365
Probable space group: C 2/M
;
_chemical_formula_sum "Si O2"
_cell_formula_units_Z 58
_cell_length_a 24.277497
_cell_length_b 12.208807
_cell_length_c 15.081300
_cell_angle_alpha 90.000000
_cell_angle_beta 141.413169
_cell_angle_gamma 90.000000
_cell_volume 2787.992675
_symmetry_space_group_name_H-M "C 2/M"
_symmetry_group_IT_number 12
_symmetry_cell_setting 'monoclinic'
loop_
_space_group_symop_operation_xyz
x,y,z
-x,y,-z
-x,-y,-z
x,-y,z
1/2+x,1/2+y,z
1/2-x,1/2+y,-z
1/2-x,1/2-y,-z
1/2+x,1/2-y,z
loop_
_atom_site_type_symbol
_atom_site_label
_atom_site_fract_x
_atom_site_fract_y
_atom_site_fract_z
Si Si1 0.177518 0.128026 0.819599
Si Si2 0.415528 0.778449 0.443236
Si Si3 0.050459 0.705588 0.239128
Si Si4 0.378911 0.716759 0.846528
Si Si5 0.500000 0.500000 0.000000
Si Si6 0.199997 0.624643 0.556567
Si Si7 0.491534 0.627258 0.292299
Si Si8 0.865271 0.624703 0.996028
O O1 0.141757 0.208543 0.698482
O O2 0.113105 0.145161 0.822554
O O3 0.282823 0.141595 0.958768
O O4 0.162184 0.000000 0.774414
O O5 0.500000 0.828695 0.500000
O O6 0.356778 0.861337 0.424929
O O7 0.457190 0.693551 0.567003
O O8 0.065051 0.711805 0.153330
O O9 0.136344 0.664169 0.397877
O O10 0.026413 0.827030 0.243576
O O11 0.963920 0.637190 0.158250
O O12 0.425077 0.599280 0.919810
O O13 0.286725 0.695779 0.680190
O O14 0.361238 0.785494 0.913128
O O15 0.225178 0.500000 0.572672
O O16 0.510010 0.500000 0.323478
O O17 0.856034 0.500000 0.949898
#
# Coordination Sequence:
#
# PCOD9221365 Si02
#       8
#     8   8   8   8   2   8   8   8
#     4   9  17  33  58  87 117 152 197 251 298 353
#     4   9  17  33  57  85 117 153 196 247 297 357
#     4  11  24  39  57  87 123 160 196 241 300 365
#     4  12  24  43  64  90 117 160 204 251 302 352
#     4  12  24  44  70  88 118 152 212 258 296 350
#     4  11  23  39  59  84 121 157 196 246 302 359
#     4   9  19  33  56  87 120 158 198 246 305 353
#     4  11  23  40  65  89 120 158 205 249 301 362
#
# _framework density 20.803497
#
# number of rings (size 3 to 8) (size 9 to 14) (size 15 to 20)
#    0.000    1.655    3.448    1.241    0.966    4.138 
#    0.000    0.000    0.000    0.000    0.000    0.000 
#    0.000    0.000    0.000    0.000    0.000    0.000 
#
# Total GULP energy -161599.464273 kJ/mol
# GULP energy per Si atom -5572.395320 kJ/mol
# Density = 2.075615 g / cm^3
# Si number density = 20.803497 Si / 1000 Ang^3
#
#
#
# Elastic Constant Matrix: (Units=GPa)
#
#
# Indices 1 2 3 4 5 6 
#
# 1 37.0020 -12.8615 -3.9099 0.0000 10.2522 0.0000
# 2 -12.8615 56.0764 9.7562 0.0000 4.7125 0.0000
# 3 -3.9099 9.7562 98.3429 0.0000 19.3074 0.0000
# 4 0.0000 0.0000 0.0000 20.9961 0.0000 11.0835
# 5 10.2522 4.7125 19.3074 0.0000 30.3786 0.0000
# 6 0.0000 0.0000 0.0000 11.0835 0.0000 20.2094
#
#
#
# Elastic Compliance Matrix: (Units=1/GPa)
#
#
# Indices 1 2 3 4 5 6 
#
# 1 0.034616 0.008609 0.003517 0.000000 -0.015253 0.000000
# 2 0.008609 0.020385 -0.000558 0.000000 -0.005713 0.000000
# 3 0.003517 -0.000558 0.012088 0.000000 -0.008783 0.000000
# 4 0.000000 0.000000 0.000000 0.067035 0.000000 -0.036764
# 5 -0.015253 -0.005713 -0.008783 0.000000 0.044534 0.000000
# 6 0.000000 0.000000 0.000000 -0.036764 0.000000 0.069644
#
#
# Mechanical properties :
#
#
# Convention : Reuss Voigt Hill
#
# Bulk Modulus (GPa) = 11.08355 19.71009 15.39682
# Shear Modulus (GPa) = 19.58937 27.54594 23.56766
#
# Velocity S-wave (km/s) = 3.07194 3.64277 3.36946
# Velocity P-wave (km/s) = 4.23341 5.21421 4.74920
#
# Compressibility (1/GPa) = 0.09022379
#
# Stress axis : x y z
#
# Youngs Moduli (GPa) = 28.88855 49.05651 82.72644
#
# Poissons Ratio (x) = -0.42234 -0.29093
# Poissons Ratio (y) = -0.24871 0.04619
# Poissons Ratio (z) = -0.10159 0.02739
#
# Static dielectric constant tensor:
#      x y z
#    x 1.750680 0.000000 0.023810 
#    y 0.000000 1.721430 0.000000 
#    z 0.023810 0.000000 1.778410 
# 
# From -- ./inp_files/293294.got.cif
#   From: 2010.05.17/outbox.cif.g08.bks.cpg/sg12_147_cif.got.tgz:293294.got - 2010.06.03 13:09:07.
