data_PCOD9221995
_publ_section_title
;
Structure prediction by ZEFSAII (Michael W. Deem and Ramdas Pophale) SiO2 
 PCOD9221995
Probable space group: C 2/M
;
_chemical_formula_sum "Si O2"
_cell_formula_units_Z 64
_cell_length_a 8.822477
_cell_length_b 29.932632
_cell_length_c 14.392233
_cell_angle_alpha 90.000000
_cell_angle_beta 129.546152
_cell_angle_gamma 90.000000
_cell_volume 2930.765476
_symmetry_space_group_name_H-M "C 2/M"
_symmetry_group_IT_number 12
_symmetry_cell_setting 'monoclinic'
loop_
_space_group_symop_operation_xyz
x,y,z
-x,y,-z
-x,-y,-z
x,-y,z
1/2+x,1/2+y,z
1/2-x,1/2+y,-z
1/2-x,1/2-y,-z
1/2+x,1/2-y,z
loop_
_atom_site_type_symbol
_atom_site_label
_atom_site_fract_x
_atom_site_fract_y
_atom_site_fract_z
Si Si1 0.631659 0.550449 0.277736
Si Si2 0.680759 0.800475 0.996985
Si Si3 0.864451 0.549840 0.178512
Si Si4 0.485980 0.300823 0.262473
Si Si5 0.801946 0.362761 0.379120
Si Si6 0.714263 0.052857 0.061900
Si Si7 0.036215 0.647717 0.756011
Si Si8 0.213025 0.218461 0.632759
O O1 0.636439 0.500000 0.315616
O O2 0.709555 0.549257 0.201917
O O3 0.777202 0.584629 0.382878
O O4 0.409289 0.569019 0.189012
O O5 0.873646 0.817082 0.127062
O O6 0.500000 0.800890 0.000000
O O7 0.750000 0.750000 0.000000
O O8 0.625388 0.828381 0.882896
O O9 0.960222 0.500000 0.214800
O O10 0.994715 0.594554 0.240444
O O11 0.760597 0.555380 0.038710
O O12 0.613826 0.340934 0.350935
O O13 0.642821 0.260671 0.319014
O O14 0.326401 0.285732 0.273563
O O15 0.817885 0.350484 0.275942
O O16 0.000000 0.345318 0.500000
O O17 0.704510 0.000000 0.082231
O O18 0.500000 0.073138 0.000000
O O19 0.839765 0.675107 0.653825
O O20 0.000000 0.223144 0.500000
#
# Coordination Sequence:
#
# PCOD9221995 Si02
#       8
#     8   8   8   8   8   8   8   8
#     4   9  19  37  60  88 122 166 218 268 322 375
#     4  12  25  44  66  98 136 163 205 264 330 398
#     4   9  19  36  59  86 124 170 216 261 319 389
#     4  12  24  42  65  94 129 169 208 266 319 386
#     4  11  25  43  63  93 128 171 226 268 315 384
#     4   9  17  30  51  83 120 156 197 252 315 381
#     4  11  24  41  65  95 131 171 214 271 330 378
#     4  12  24  43  68  94 128 173 217 259 314 387
#
# _framework density 21.837298000000001
#
# number of rings (size 3 to 8) (size 9 to 14) (size 15 to 20)
#    0.000    1.375    2.500    2.625    3.500    3.250 
#    0.000    0.000    0.000    0.375    0.000    0.000 
#    0.000    0.000    0.000    0.000    0.000    0.000 
#
# Total GULP energy -178530.685607 kJ/mol
# GULP energy per Si atom -5579.083925 kJ/mol
# Density = 2.178760 g / cm^3
# Si number density = 21.837298 Si / 1000 Ang^3
#
#
#
# Elastic Constant Matrix: (Units=GPa)
#
#
# Indices 1 2 3 4 5 6 
#
# 1 43.6684 28.9588 4.3632 0.0000 10.9001 0.0000
# 2 28.9588 114.7607 26.3418 0.0000 10.7189 0.0000
# 3 4.3632 26.3418 83.6388 0.0000 18.1261 0.0000
# 4 0.0000 0.0000 0.0000 19.4605 0.0000 7.0047
# 5 10.9001 10.7189 18.1261 0.0000 34.5148 0.0000
# 6 0.0000 0.0000 0.0000 7.0047 0.0000 18.1790
#
#
#
# Elastic Compliance Matrix: (Units=1/GPa)
#
#
# Indices 1 2 3 4 5 6 
#
# 1 0.029564 -0.007263 0.002573 0.000000 -0.008432 0.000000
# 2 -0.007263 0.011250 -0.003277 0.000000 0.000521 0.000000
# 3 0.002573 -0.003277 0.014455 0.000000 -0.007386 0.000000
# 4 0.000000 0.000000 0.000000 0.059661 0.000000 -0.022988
# 5 -0.008432 0.000521 -0.007386 0.000000 0.035353 0.000000
# 6 0.000000 0.000000 0.000000 -0.022988 0.000000 0.063866
#
#
# Mechanical properties :
#
#
# Convention : Reuss Voigt Hill
#
# Bulk Modulus (GPa) = 25.42362 40.15505 32.78933
# Shear Modulus (GPa) = 20.55956 26.59113 23.57535
#
# Velocity S-wave (km/s) = 3.07170 3.49333 3.28928
# Velocity P-wave (km/s) = 4.92423 5.89062 5.42897
#
# Compressibility (1/GPa) = 0.03933351
#
# Stress axis : x y z
#
# Youngs Moduli (GPa) = 33.82479 88.88758 69.18119
#
# Poissons Ratio (x) = 0.64561 -0.17798
# Poissons Ratio (y) = 0.24568 0.22672
# Poissons Ratio (z) = -0.08702 0.29131
#
# Static dielectric constant tensor:
#      x y z
#    x 1.794980 0.000000 -0.009880 
#    y 0.000000 1.842590 0.000000 
#    z -0.009880 0.000000 1.830330 
# 
# From -- ./inp_files/201321.got.cif
#   From: 2010.05.17/outbox.cif.g08.bks.cpg/sg12_101_cif.got.tgz:201321.got - 2010.06.03 13:09:07.
