data_PCOD9221378
_publ_section_title
;
Structure prediction by ZEFSAII (Michael W. Deem and Ramdas Pophale) SiO2 
 PCOD9221378
Probable space group: C 2/M
;
_chemical_formula_sum "Si O2"
_cell_formula_units_Z 42
_cell_length_a 16.286518
_cell_length_b 10.237132
_cell_length_c 13.620789
_cell_angle_alpha 90.000000
_cell_angle_beta 59.721673
_cell_angle_gamma 90.000000
_cell_volume 1961.166984
_symmetry_space_group_name_H-M "C 2/M"
_symmetry_group_IT_number 12
_symmetry_cell_setting 'monoclinic'
loop_
_space_group_symop_operation_xyz
x,y,z
-x,y,-z
-x,-y,-z
x,-y,z
1/2+x,1/2+y,z
1/2-x,1/2+y,-z
1/2-x,1/2-y,-z
1/2+x,1/2-y,z
loop_
_atom_site_type_symbol
_atom_site_label
_atom_site_fract_x
_atom_site_fract_y
_atom_site_fract_z
Si Si1 0.699696 0.849117 0.728083
Si Si2 0.514812 0.248518 0.131393
Si Si3 0.525780 0.849168 0.325114
Si Si4 0.341714 0.149565 0.562218
Si Si5 0.500000 0.500000 0.000000
Si Si6 0.792806 0.646979 0.050029
O O1 0.588551 0.815821 0.797867
O O2 0.758051 0.752968 0.622934
O O3 0.732904 0.829129 0.821167
O O4 0.714091 0.000000 0.692702
O O5 0.548824 0.249420 0.224121
O O6 0.507636 0.384992 0.080294
O O7 0.593312 0.163463 0.027437
O O8 0.596338 0.840679 0.374762
O O9 0.419258 0.828544 0.430491
O O10 0.532447 0.000000 0.284716
O O11 0.306575 0.000000 0.575974
O O12 0.765003 0.500000 0.038994
O O13 0.750000 0.750000 0.000000
#
# Coordination Sequence:
#
# PCOD9221378 Si02
#       6
#     8   8   8   8   2   8
#     4  11  23  39  60  89 128 167 210 260 318 380
#     4  12  24  43  63  88 129 167 215 260 325 375
#     4   9  19  41  68  94 123 169 213 261 318 384
#     4   9  20  40  67  96 128 164 215 263 314 377
#     4  12  28  44  62  94 128 170 216 276 314 386
#     4  11  24  40  64  91 123 166 212 264 321 383
#
# _framework density 21.41582
#
# number of rings (size 3 to 8) (size 9 to 14) (size 15 to 20)
#    0.000    1.524    1.905    4.000    2.667    4.571 
#    3.429    0.952    0.000    0.000    0.000    0.000 
#    0.000    0.000    0.000    0.000    0.000    0.000 
#
# Total GULP energy -117143.915765 kJ/mol
# GULP energy per Si atom -5578.281703 kJ/mol
# Density = 2.136708 g / cm^3
# Si number density = 21.415820 Si / 1000 Ang^3
#
#
#
# Elastic Constant Matrix: (Units=GPa)
#
#
# Indices 1 2 3 4 5 6 
#
# 1 56.3838 20.3530 8.7860 0.0000 -6.9635 0.0000
# 2 20.3530 104.0169 52.4769 0.0000 -0.6692 0.0000
# 3 8.7860 52.4769 97.6695 0.0000 4.4811 0.0000
# 4 0.0000 0.0000 0.0000 35.2260 0.0000 8.2511
# 5 -6.9635 -0.6692 4.4811 0.0000 44.7868 0.0000
# 6 0.0000 0.0000 0.0000 8.2511 0.0000 11.8637
#
#
#
# Elastic Compliance Matrix: (Units=1/GPa)
#
#
# Indices 1 2 3 4 5 6 
#
# 1 0.019474 -0.003895 0.000206 0.000000 0.002949 0.000000
# 2 -0.003895 0.014005 -0.007189 0.000000 0.000323 0.000000
# 3 0.000206 -0.007189 0.014151 0.000000 -0.001491 0.000000
# 4 0.000000 0.000000 0.000000 0.033913 0.000000 -0.023586
# 5 0.002949 0.000323 -0.001491 0.000000 0.022941 0.000000
# 6 0.000000 0.000000 0.000000 -0.023586 0.000000 0.100695
#
#
# Mechanical properties :
#
#
# Convention : Reuss Voigt Hill
#
# Bulk Modulus (GPa) = 38.65076 46.81134 42.73105
# Shear Modulus (GPa) = 21.22603 30.13891 25.68247
#
# Velocity S-wave (km/s) = 3.15165 3.75550 3.46675
# Velocity P-wave (km/s) = 5.59739 6.38050 6.00173
#
# Compressibility (1/GPa) = 0.02587271
#
# Stress axis : x y z
#
# Youngs Moduli (GPa) = 51.35097 71.40268 70.66534
#
# Poissons Ratio (x) = 0.27814 -0.01454
# Poissons Ratio (y) = 0.20003 0.50803
# Poissons Ratio (z) = -0.01057 0.51333
#
# Static dielectric constant tensor:
#      x y z
#    x 1.856960 0.000000 0.034450 
#    y 0.000000 1.714600 0.000000 
#    z 0.034450 0.000000 1.772390 
# 
# From -- ./inp_files/221418.got.cif
#   From: 2010.05.17/outbox.cif.g08.bks.cpg/sg12_111_cif.got.tgz:221418.got - 2010.06.03 13:09:07.
