data_PCOD9221638
_publ_section_title
;
Structure prediction by ZEFSAII (Michael W. Deem and Ramdas Pophale) SiO2 
 PCOD9221638
Probable space group: C 2/M
;
_chemical_formula_sum "Si O2"
_cell_formula_units_Z 40
_cell_length_a 8.122528
_cell_length_b 14.466273
_cell_length_c 14.727325
_cell_angle_alpha 90.000000
_cell_angle_beta 68.516956
_cell_angle_gamma 90.000000
_cell_volume 1610.275746
_symmetry_space_group_name_H-M "C 2/M"
_symmetry_group_IT_number 12
_symmetry_cell_setting 'monoclinic'
loop_
_space_group_symop_operation_xyz
x,y,z
-x,y,-z
-x,-y,-z
x,-y,z
1/2+x,1/2+y,z
1/2-x,1/2+y,-z
1/2-x,1/2-y,-z
1/2+x,1/2-y,z
loop_
_atom_site_type_symbol
_atom_site_label
_atom_site_fract_x
_atom_site_fract_y
_atom_site_fract_z
Si Si1 0.494168 0.599443 0.245331
Si Si2 0.732506 0.346898 0.883649
Si Si3 0.898815 0.778620 0.614768
Si Si4 0.200282 0.369771 0.936350
Si Si5 0.472932 0.888791 0.310787
O O1 0.428470 0.500000 0.290107
O O2 0.392785 0.627261 0.174223
O O3 0.494479 0.672420 0.325135
O O4 0.695788 0.590925 0.169453
O O5 0.709906 0.239225 0.910909
O O6 0.927455 0.369674 0.805094
O O7 0.703941 0.391699 0.987362
O O8 0.716803 0.837322 0.647132
O O9 0.000000 0.787699 0.500000
O O10 0.905107 0.670109 0.642438
O O11 0.000000 0.393938 0.000000
O O12 0.462908 0.000000 0.327628
#
# Coordination Sequence:
#
# PCOD9221638 Si02
#       5
#     8   8   8   8   8
#     4  12  26  45  74 109 153 207 261 321 392 462
#     4  11  23  43  72 110 150 202 255 314 388 465
#     4  12  28  53  80 113 159 205 258 331 395 454
#     4  11  23  41  72 108 152 206 253 310 388 466
#     4  12  27  49  82 117 154 205 263 319 392 468
#
# _framework density 24.840464000000001
#
# number of rings (size 3 to 8) (size 9 to 14) (size 15 to 20)
#    0.000    0.400    2.000    7.200    0.000    4.800 
#    0.000    1.000    0.000    0.000    0.000    0.000 
#    0.000    0.000    0.000    0.000    0.000    0.000 
#
# Total GULP energy -111891.242934 kJ/mol
# GULP energy per Si atom -5594.562147 kJ/mol
# Density = 2.478393 g / cm^3
# Si number density = 24.840464 Si / 1000 Ang^3
#
#
#
# Elastic Constant Matrix: (Units=GPa)
#
#
# Indices 1 2 3 4 5 6 
#
# 1 124.9129 45.2708 32.9179 0.0000 -4.9722 0.0000
# 2 45.2708 213.1239 45.5444 0.0000 1.1945 0.0000
# 3 32.9179 45.5444 170.7779 0.0000 -0.1742 0.0000
# 4 0.0000 0.0000 0.0000 39.8792 0.0000 42.8782
# 5 -4.9722 1.1945 -0.1742 0.0000 25.0935 0.0000
# 6 0.0000 0.0000 0.0000 42.8782 0.0000 46.9694
#
#
#
# Elastic Compliance Matrix: (Units=1/GPa)
#
#
# Indices 1 2 3 4 5 6 
#
# 1 0.009019 -0.001649 -0.001297 0.000000 0.001857 0.000000
# 2 -0.001649 0.005279 -0.001091 0.000000 -0.000586 0.000000
# 3 -0.001297 -0.001091 0.006396 0.000000 -0.000161 0.000000
# 4 0.000000 0.000000 0.000000 1.358854 0.000000 -1.240492
# 5 0.001857 -0.000586 -0.000161 0.000000 0.040246 0.000000
# 6 0.000000 0.000000 0.000000 -1.240492 0.000000 1.153731
#
#
# Mechanical properties :
#
#
# Convention : Reuss Voigt Hill
#
# Bulk Modulus (GPa) = 79.23201 84.03122 81.63161
# Shear Modulus (GPa) = 1.93363 48.06053 24.99708
#
# Velocity S-wave (km/s) = 0.88324 4.40337 3.17567
# Velocity P-wave (km/s) = 5.74506 7.73012 6.81030
#
# Compressibility (1/GPa) = 0.01262116
#
# Stress axis : x y z
#
# Youngs Moduli (GPa) = 110.87897 189.44020 156.34355
#
# Poissons Ratio (x) = 0.31239 0.20274
# Poissons Ratio (y) = 0.18284 0.17049
# Poissons Ratio (z) = 0.14378 0.20659
#
# Static dielectric constant tensor:
#      x y z
#    x 2.143230 0.000000 -0.034420 
#    y 0.000000 2.029310 0.000000 
#    z -0.034420 0.000000 1.889260 
# 
# From -- ./inp_files/194438.got.cif
#   From: 2010.05.17/outbox.cif.g08.bks.cpg/sg12_98_cif.got.tgz:194438.got - 2010.06.03 13:09:07.
