data_PCOD9221768
_publ_section_title
;
Structure prediction by ZEFSAII (Michael W. Deem and Ramdas Pophale) SiO2 
 PCOD9221768
Probable space group: C 2/M
;
_chemical_formula_sum "Si O2"
_cell_formula_units_Z 50
_cell_length_a 9.083570
_cell_length_b 17.144004
_cell_length_c 16.600622
_cell_angle_alpha 90.000000
_cell_angle_beta 65.500450
_cell_angle_gamma 90.000000
_cell_volume 2352.435098
_symmetry_space_group_name_H-M "C 2/M"
_symmetry_group_IT_number 12
_symmetry_cell_setting 'monoclinic'
loop_
_space_group_symop_operation_xyz
x,y,z
-x,y,-z
-x,-y,-z
x,-y,z
1/2+x,1/2+y,z
1/2-x,1/2+y,-z
1/2-x,1/2-y,-z
1/2+x,1/2-y,z
loop_
_atom_site_type_symbol
_atom_site_label
_atom_site_fract_x
_atom_site_fract_y
_atom_site_fract_z
Si Si1 0.160727 0.911648 0.519757
Si Si2 0.649716 0.833416 0.657118
Si Si3 0.080721 0.290422 0.060073
Si Si4 0.500000 0.500000 0.000000
Si Si5 0.034904 0.830220 0.302384
Si Si6 0.967736 0.129634 0.145324
Si Si7 0.118993 0.412706 0.194413
O O1 0.284143 0.854253 0.446387
O O2 0.096532 0.881159 0.619297
O O3 0.000000 0.912879 0.500000
O O4 0.223226 0.000000 0.510167
O O5 0.542444 0.755705 0.685900
O O6 0.536263 0.902710 0.714750
O O7 0.802034 0.826374 0.682495
O O8 0.102979 0.352222 0.125286
O O9 0.970042 0.217696 0.111515
O O10 0.250000 0.250000 0.000000
O O11 0.000000 0.327685 0.000000
O O12 0.524547 0.569032 0.064455
O O13 0.063662 0.865946 0.207466
O O14 0.782424 0.107033 0.204831
O O15 0.139292 0.500000 0.157051
#
# Coordination Sequence:
#
# PCOD9221768 Si02
#       7
#     8   8   8   2   8   8   8
#     4   9  20  40  65  98 141 182 226 290 350 409
#     4  11  23  43  69 103 142 184 231 290 350 415
#     4  12  25  45  71  96 132 181 232 287 353 421
#     4  12  24  48  72 102 138 180 238 298 350 416
#     4  11  24  41  72 102 134 187 241 280 346 430
#     4  12  25  46  71 101 136 185 232 286 357 414
#     4  12  26  46  68 104 140 179 228 295 354 412
#
# _framework density 21.254570999999999
#
# number of rings (size 3 to 8) (size 9 to 14) (size 15 to 20)
#    0.000    0.800    4.800    1.920    3.360    0.960 
#    0.000    2.400    0.000    4.800    0.000    0.000 
#    0.000    0.000    0.000    0.000    0.000    0.000 
#
# Total GULP energy -139543.353873 kJ/mol
# GULP energy per Si atom -5581.734155 kJ/mol
# Density = 2.120619 g / cm^3
# Si number density = 21.254571 Si / 1000 Ang^3
#
#
#
# Elastic Constant Matrix: (Units=GPa)
#
#
# Indices 1 2 3 4 5 6 
#
# 1 58.8999 11.8865 -4.1665 0.0000 -7.5672 0.0000
# 2 11.8865 121.8524 14.3489 0.0000 2.6029 0.0000
# 3 -4.1665 14.3489 57.9078 0.0000 5.4619 0.0000
# 4 0.0000 0.0000 0.0000 39.4226 0.0000 -3.4155
# 5 -7.5672 2.6029 5.4619 0.0000 31.2324 0.0000
# 6 0.0000 0.0000 0.0000 -3.4155 0.0000 12.3688
#
#
#
# Elastic Compliance Matrix: (Units=1/GPa)
#
#
# Indices 1 2 3 4 5 6 
#
# 1 0.018035 -0.002015 0.001392 0.000000 0.004294 0.000000
# 2 -0.002015 0.008682 -0.002219 0.000000 -0.000824 0.000000
# 3 0.001392 -0.002219 0.018169 0.000000 -0.002655 0.000000
# 4 0.000000 0.000000 0.000000 0.025988 0.000000 0.007176
# 5 0.004294 -0.000824 -0.002655 0.000000 0.033591 0.000000
# 6 0.000000 0.000000 0.000000 0.007176 0.000000 0.082830
#
#
# Mechanical properties :
#
#
# Convention : Reuss Voigt Hill
#
# Bulk Modulus (GPa) = 25.50844 31.42198 28.46521
# Shear Modulus (GPa) = 24.26642 31.04417 27.65530
#
# Velocity S-wave (km/s) = 3.38258 3.82591 3.61105
# Velocity P-wave (km/s) = 5.22333 5.85940 5.55048
#
# Compressibility (1/GPa) = 0.03920271
#
# Stress axis : x y z
#
# Youngs Moduli (GPa) = 55.44857 115.18014 55.03831
#
# Poissons Ratio (x) = 0.23208 -0.07661
# Poissons Ratio (y) = 0.11172 0.12211
# Poissons Ratio (z) = -0.07718 0.25554
#
# Static dielectric constant tensor:
#      x y z
#    x 1.781290 0.000000 -0.051710 
#    y 0.000000 1.762030 0.000000 
#    z -0.051710 0.000000 1.816190 
# 
# From -- ./inp_files/256497.got.cif
#   From: 2010.05.17/outbox.cif.g08.bks.cpg/sg12_129_cif.got.tgz:256497.got - 2010.06.03 13:09:07.
