data_PCOD9221171
_publ_section_title
;
Structure prediction by ZEFSAII (Michael W. Deem and Ramdas Pophale) SiO2 
 PCOD9221171
Probable space group: C 2/M
;
_chemical_formula_sum "Si O2"
_cell_formula_units_Z 40
_cell_length_a 13.351707
_cell_length_b 12.861767
_cell_length_c 12.069647
_cell_angle_alpha 90.000000
_cell_angle_beta 108.554443
_cell_angle_gamma 90.000000
_cell_volume 1964.944497
_symmetry_space_group_name_H-M "C 2/M"
_symmetry_group_IT_number 12
_symmetry_cell_setting 'monoclinic'
loop_
_space_group_symop_operation_xyz
x,y,z
-x,y,-z
-x,-y,-z
x,-y,z
1/2+x,1/2+y,z
1/2-x,1/2+y,-z
1/2-x,1/2-y,-z
1/2+x,1/2-y,z
loop_
_atom_site_type_symbol
_atom_site_label
_atom_site_fract_x
_atom_site_fract_y
_atom_site_fract_z
Si Si1 0.051021 0.000000 0.864332
Si Si2 0.780206 0.826427 0.609705
Si Si3 0.950443 0.000000 0.604339
Si Si4 0.025300 0.500000 0.831608
Si Si5 0.774816 0.500000 0.934068
Si Si6 0.607918 0.000000 0.609826
Si Si7 0.000000 0.177838 0.000000
Si Si8 0.142796 0.678669 0.166458
O O1 0.166364 0.000000 0.960950
O O2 0.041241 0.000000 0.729845
O O3 0.998508 0.103146 0.893945
O O4 0.750000 0.750000 0.500000
O O5 0.875218 0.901054 0.602302
O O6 0.815120 0.753749 0.723984
O O7 0.681733 0.900506 0.608027
O O8 0.000000 0.000000 0.500000
O O9 0.074507 0.500000 0.726813
O O10 0.951010 0.601541 0.823893
O O11 0.119478 0.500000 0.955350
O O12 0.772998 0.600419 0.855194
O O13 0.500000 0.000000 0.500000
O O14 0.900803 0.252428 0.949979
#
# Coordination Sequence:
#
# PCOD9221171 Si02
#       8
#     4   8   4   4   4   4   4   8
#     4  11  26  40  64  99 134 166 214 275 325 384
#     4  11  26  45  69  93 125 175 221 264 330 388
#     4  11  26  45  65  96 132 168 220 274 321 384
#     4  11  23  41  67  97 135 170 214 270 324 385
#     4  11  25  39  63 103 132 170 214 266 326 386
#     4  11  26  47  67  96 132 165 218 279 323 390
#     4  11  22  43  68  90 134 173 206 267 330 384
#     4  11  22  44  66  94 132 171 217 264 323 391
#
# _framework density 20.356809999999999
#
# number of rings (size 3 to 8) (size 9 to 14) (size 15 to 20)
#    0.000    1.000    4.000    1.800    5.600    6.400 
#    0.000    0.000    0.000    0.000    0.000    0.000 
#    0.000    0.000    0.000    0.000    0.000    0.000 
#
# Total GULP energy -111714.324385 kJ/mol
# GULP energy per Si atom -5585.716219 kJ/mol
# Density = 2.031048 g / cm^3
# Si number density = 20.356810 Si / 1000 Ang^3
#
#
#
# Elastic Constant Matrix: (Units=GPa)
#
#
# Indices 1 2 3 4 5 6 
#
# 1 86.6474 35.1498 24.5560 0.0000 4.9936 0.0000
# 2 35.1498 139.7595 51.9341 0.0000 9.6601 0.0000
# 3 24.5560 51.9341 128.3435 0.0000 2.3962 0.0000
# 4 0.0000 0.0000 0.0000 -26.4570 0.0000 17.5292
# 5 4.9936 9.6601 2.3962 0.0000 37.6845 0.0000
# 6 0.0000 0.0000 0.0000 17.5292 0.0000 2.1425
#
#
#
# Elastic Compliance Matrix: (Units=1/GPa)
#
#
# Indices 1 2 3 4 5 6 
#
# 1 0.013089 -0.002710 -0.001390 0.000000 -0.000951 0.000000
# 2 -0.002710 0.009127 -0.003142 0.000000 -0.001781 0.000000
# 3 -0.001390 -0.003142 0.009321 0.000000 0.000397 0.000000
# 4 0.000000 0.000000 0.000000 -0.005887 0.000000 0.048163
# 5 -0.000951 -0.001781 0.000397 0.000000 0.027093 0.000000
# 6 0.000000 0.000000 0.000000 0.048163 0.000000 0.072693
#
#
# Mechanical properties :
#
#
# Convention : Reuss Voigt Hill
#
# Bulk Modulus (GPa) = 58.63422 64.22559 61.42991
# Shear Modulus (GPa) = 34.33959 18.88137 26.61048
#
# Velocity S-wave (km/s) = 4.11163 3.04883 3.61945
# Velocity P-wave (km/s) = 7.16983 6.63417 6.90719
#
# Compressibility (1/GPa) = 0.01705489
#
# Stress axis : x y z
#
# Youngs Moduli (GPa) = 76.40001 109.56366 107.27997
#
# Poissons Ratio (x) = 0.29687 0.14913
# Poissons Ratio (y) = 0.20701 0.33703
# Poissons Ratio (z) = 0.10621 0.34421
#
# Static dielectric constant tensor:
#      x y z
#    x 1.715940 0.000000 0.009800 
#    y 0.000000 1.721470 0.000000 
#    z 0.009800 0.000000 1.695610 
# 
# From -- ./inp_files/141182.got.cif
#   From: 2010.05.17/outbox.cif.g08.bks.cpg/sg12_71_cif.got.tgz:141182.got - 2010.06.03 13:09:07.
