data_PCOD9221970
_publ_section_title
;
Structure prediction by ZEFSAII (Michael W. Deem and Ramdas Pophale) SiO2 
 PCOD9221970
Probable space group: C 2/M
;
_chemical_formula_sum "Si O2"
_cell_formula_units_Z 40
_cell_length_a 10.161526
_cell_length_b 9.045398
_cell_length_c 22.473174
_cell_angle_alpha 90.000000
_cell_angle_beta 83.536154
_cell_angle_gamma 90.000000
_cell_volume 2052.491865
_symmetry_space_group_name_H-M "C 2/M"
_symmetry_group_IT_number 12
_symmetry_cell_setting 'monoclinic'
loop_
_space_group_symop_operation_xyz
x,y,z
-x,y,-z
-x,-y,-z
x,-y,z
1/2+x,1/2+y,z
1/2-x,1/2+y,-z
1/2-x,1/2-y,-z
1/2+x,1/2-y,z
loop_
_atom_site_type_symbol
_atom_site_label
_atom_site_fract_x
_atom_site_fract_y
_atom_site_fract_z
Si Si1 0.791156 0.826611 0.436466
Si Si2 0.040375 0.326711 0.361758
Si Si3 0.609046 0.175808 0.836971
Si Si4 0.392810 0.324261 0.766563
Si Si5 0.855724 0.172941 0.037565
O O1 0.750000 0.750000 0.500000
O O2 0.669488 0.814598 0.396702
O O3 0.918051 0.748120 0.401619
O O4 0.818406 0.000000 0.445141
O O5 0.012343 0.500000 0.353027
O O6 0.068178 0.247838 0.297913
O O7 0.483477 0.252409 0.812930
O O8 0.738820 0.200931 0.789665
O O9 0.637657 0.245471 0.899682
O O10 0.588227 0.000000 0.843283
O O11 0.415846 0.500000 0.763772
O O12 0.822290 0.000000 0.047437
O O13 0.750000 0.250000 0.000000
O O14 0.000000 0.181659 0.000000
#
# Coordination Sequence:
#
# PCOD9221970 Si02
#       5
#     8   8   8   8   8
#     4  11  24  41  63  91 123 160 202 249 301 357
#     4  11  24  41  62  90 122 158 202 248 298 358
#     4  11  24  41  63  91 122 159 202 248 301 359
#     4  11  24  41  62  90 122 157 200 248 299 357
#     4  11  24  41  62  90 123 159 202 250 300 358
#
# _framework density 19.488505
#
# number of rings (size 3 to 8) (size 9 to 14) (size 15 to 20)
#    0.000    1.000    0.000    6.000    0.000   18.400 
#    0.000    0.000    0.000    0.000    0.000    0.000 
#    0.000    0.000    0.000    0.000    0.000    0.000 
#
# Total GULP energy -111975.729545 kJ/mol
# GULP energy per Si atom -5598.786477 kJ/mol
# Density = 1.944415 g / cm^3
# Si number density = 19.488505 Si / 1000 Ang^3
#
#
#
# Elastic Constant Matrix: (Units=GPa)
#
#
# Indices 1 2 3 4 5 6 
#
# 1 53.6514 41.9804 -18.4015 0.0000 -4.9752 0.0000
# 2 41.9804 112.7718 24.2097 0.0000 -11.6603 0.0000
# 3 -18.4015 24.2097 75.7171 0.0000 -6.3387 0.0000
# 4 0.0000 0.0000 0.0000 44.6321 0.0000 1.1018
# 5 -4.9752 -11.6603 -6.3387 0.0000 35.8882 0.0000
# 6 0.0000 0.0000 0.0000 1.1018 0.0000 38.1114
#
#
#
# Elastic Compliance Matrix: (Units=1/GPa)
#
#
# Indices 1 2 3 4 5 6 
#
# 1 0.036716 -0.016524 0.014396 0.000000 0.002264 0.000000
# 2 -0.016524 0.017202 -0.009379 0.000000 0.001642 0.000000
# 3 0.014396 -0.009379 0.019911 0.000000 0.002465 0.000000
# 4 0.000000 0.000000 0.000000 0.022421 0.000000 -0.000648
# 5 0.002264 0.001642 0.002465 0.000000 0.029147 0.000000
# 6 0.000000 0.000000 0.000000 -0.000648 0.000000 0.026258
#
#
# Mechanical properties :
#
#
# Convention : Reuss Voigt Hill
#
# Bulk Modulus (GPa) = 19.67912 37.52417 28.60164
# Shear Modulus (GPa) = 26.09500 36.68310 31.38905
#
# Velocity S-wave (km/s) = 3.66320 4.34325 4.01764
# Velocity P-wave (km/s) = 5.29261 6.66694 6.01913
#
# Compressibility (1/GPa) = 0.05081528
#
# Stress axis : x y z
#
# Youngs Moduli (GPa) = 27.23585 58.13269 50.22382
#
# Poissons Ratio (x) = 0.96061 -0.72303
# Poissons Ratio (y) = 0.45006 0.47103
# Poissons Ratio (z) = -0.39209 0.54521
#
# Static dielectric constant tensor:
#      x y z
#    x 1.649420 0.000000 -0.004880 
#    y 0.000000 1.653140 0.000000 
#    z -0.004880 0.000000 1.632650 
# 
# From -- ./inp_files/331751.got.cif
#   From: 2010.05.17/outbox.cif.g08.bks.cpg/sg12_166_cif.got.tgz:331751.got - 2010.06.03 13:09:07.
