data_PCOD9221314
_publ_section_title
;
Structure prediction by ZEFSAII (Michael W. Deem and Ramdas Pophale) SiO2 
 PCOD9221314
Probable space group: C 2/M
;
_chemical_formula_sum "Si O2"
_cell_formula_units_Z 48
_cell_length_a 9.032327
_cell_length_b 21.555171
_cell_length_c 12.240473
_cell_angle_alpha 90.000000
_cell_angle_beta 109.050150
_cell_angle_gamma 90.000000
_cell_volume 2252.621966
_symmetry_space_group_name_H-M "C 2/M"
_symmetry_group_IT_number 12
_symmetry_cell_setting 'monoclinic'
loop_
_space_group_symop_operation_xyz
x,y,z
-x,y,-z
-x,-y,-z
x,-y,z
1/2+x,1/2+y,z
1/2-x,1/2+y,-z
1/2-x,1/2-y,-z
1/2+x,1/2-y,z
loop_
_atom_site_type_symbol
_atom_site_label
_atom_site_fract_x
_atom_site_fract_y
_atom_site_fract_z
Si Si1 0.604291 0.931268 0.135430
Si Si2 0.970787 0.930432 0.174006
Si Si3 0.184541 0.310408 0.546298
Si Si4 0.158693 0.187369 0.179666
Si Si5 0.039647 0.307735 0.881162
Si Si6 0.357956 0.567626 0.549766
O O1 0.785546 0.919648 0.147598
O O2 0.534665 0.872066 0.182112
O O3 0.596336 0.000000 0.186437
O O4 0.500000 0.935531 0.000000
O O5 0.056492 0.874092 0.135166
O O6 0.058115 0.930441 0.312089
O O7 0.989228 0.000000 0.131505
O O8 0.250000 0.250000 0.500000
O O9 0.240016 0.315331 0.685303
O O10 0.247374 0.373753 0.507774
O O11 0.000000 0.306927 0.500000
O O12 0.279783 0.195711 0.109462
O O13 0.045625 0.245259 0.174842
O O14 0.000000 0.309885 0.000000
O O15 0.500000 0.571424 0.500000
O O16 0.280049 0.500000 0.519078
#
# Coordination Sequence:
#
# PCOD9221314 Si02
#       6
#     8   8   8   8   8   8
#     4   9  19  37  59  84 114 147 186 234 286 338
#     4   9  19  37  60  85 114 149 190 234 281 337
#     4  11  23  38  58  86 119 152 190 237 286 341
#     4  11  23  39  61  85 114 153 194 236 287 341
#     4  11  23  39  59  84 115 149 192 241 285 339
#     4   9  19  36  58  84 114 151 191 231 280 337
#
# _framework density 21.308502000000001
#
# number of rings (size 3 to 8) (size 9 to 14) (size 15 to 20)
#    0.000    2.000    0.000    3.000    0.000    7.667 
#    0.000    0.000    0.000    9.500    0.000    0.000 
#    0.000    0.000    0.000    0.000    0.000    0.000 
#
# Total GULP energy -134025.768139 kJ/mol
# GULP energy per Si atom -5584.407006 kJ/mol
# Density = 2.126000 g / cm^3
# Si number density = 21.308502 Si / 1000 Ang^3
#
#
#
# Elastic Constant Matrix: (Units=GPa)
#
#
# Indices 1 2 3 4 5 6 
#
# 1 113.6682 97.7685 -2.0844 0.0000 15.1754 0.0000
# 2 97.7685 194.4326 16.6589 0.0000 18.4105 0.0000
# 3 -2.0844 16.6589 35.3421 0.0000 1.7800 0.0000
# 4 0.0000 0.0000 0.0000 27.3544 0.0000 15.9365
# 5 15.1754 18.4105 1.7800 0.0000 33.1935 0.0000
# 6 0.0000 0.0000 0.0000 15.9365 0.0000 53.6092
#
#
#
# Elastic Compliance Matrix: (Units=1/GPa)
#
#
# Indices 1 2 3 4 5 6 
#
# 1 0.016627 -0.008503 0.005148 0.000000 -0.003162 0.000000
# 2 -0.008503 0.009989 -0.005141 0.000000 -0.001378 0.000000
# 3 0.005148 -0.005141 0.031080 0.000000 -0.001169 0.000000
# 4 0.000000 0.000000 0.000000 0.044215 0.000000 -0.013144
# 5 -0.003162 -0.001378 -0.001169 0.000000 0.032399 0.000000
# 6 0.000000 0.000000 0.000000 -0.013144 0.000000 0.022561
#
#
# Mechanical properties :
#
#
# Convention : Reuss Voigt Hill
#
# Bulk Modulus (GPa) = 24.56640 63.12543 43.84591
# Shear Modulus (GPa) = 26.67648 38.23810 32.45729
#
# Velocity S-wave (km/s) = 3.54208 4.24075 3.90706
# Velocity P-wave (km/s) = 5.31812 7.32581 6.40117
#
# Compressibility (1/GPa) = 0.04070601
#
# Stress axis : x y z
#
# Youngs Moduli (GPa) = 60.14228 100.10530 32.17456
#
# Poissons Ratio (x) = 0.85115 -0.16562
# Poissons Ratio (y) = 0.51136 0.16540
# Poissons Ratio (z) = -0.30959 0.51461
#
# Static dielectric constant tensor:
#      x y z
#    x 1.707250 0.000000 -0.013310 
#    y 0.000000 1.841310 0.000000 
#    z -0.013310 0.000000 1.819310 
# 
# From -- ./inp_files/197199.got.cif
#   From: 2010.05.17/outbox.cif.g08.bks.cpg/sg12_99_cif.got.tgz:197199.got - 2010.06.03 13:09:07.
