data_PCOD9221059
_publ_section_title
;
Structure prediction by ZEFSAII (Michael W. Deem and Ramdas Pophale) SiO2 
 PCOD9221059
Probable space group: C 2/M
;
_chemical_formula_sum "Si O2"
_cell_formula_units_Z 34
_cell_length_a 7.798887
_cell_length_b 12.570747
_cell_length_c 14.449010
_cell_angle_alpha 90.000000
_cell_angle_beta 94.476191
_cell_angle_gamma 90.000000
_cell_volume 1412.228976
_symmetry_space_group_name_H-M "C 2/M"
_symmetry_group_IT_number 12
_symmetry_cell_setting 'monoclinic'
loop_
_space_group_symop_operation_xyz
x,y,z
-x,y,-z
-x,-y,-z
x,-y,z
1/2+x,1/2+y,z
1/2-x,1/2+y,-z
1/2-x,1/2-y,-z
1/2+x,1/2-y,z
loop_
_atom_site_type_symbol
_atom_site_label
_atom_site_fract_x
_atom_site_fract_y
_atom_site_fract_z
Si Si1 0.136528 0.188966 0.570957
Si Si2 0.000000 0.500000 0.000000
Si Si3 0.832470 0.655320 0.139502
Si Si4 0.964808 0.384765 0.670679
Si Si5 0.048469 0.884018 0.893527
O O1 0.250000 0.250000 0.500000
O O2 0.951910 0.282875 0.374635
O O3 0.261717 0.124693 0.643233
O O4 0.000000 0.128879 0.500000
O O5 0.887579 0.592684 0.050157
O O6 0.639447 0.624952 0.161969
O O7 0.971927 0.622541 0.221859
O O8 0.840512 0.781992 0.126306
O O9 0.022564 0.500000 0.635289
O O10 0.128753 0.000000 0.877731
O O11 0.000000 0.878701 0.000000
#
# Coordination Sequence:
#
# PCOD9221059 Si02
#       5
#     8   2   8   8   8
#     4   9  21  41  65  95 127 159 208 262 326 401
#     4  12  24  40  68  92 136 180 224 272 324 372
#     4  12  24  42  64  94 133 172 228 272 317 386
#     4  11  22  41  66  94 128 172 209 266 324 383
#     4  11  24  41  61  88 121 172 223 274 331 374
#
# _framework density 24.075416000000001
#
# number of rings (size 3 to 8) (size 9 to 14) (size 15 to 20)
#    0.000    1.176    3.529    2.118    0.000    4.706 
#    0.000    4.706    0.000    0.000    0.000    0.000 
#    0.000    0.000    0.000    0.000    0.000    0.000 
#
# Total GULP energy -94861.971605 kJ/mol
# GULP energy per Si atom -5580.115977 kJ/mol
# Density = 2.402062 g / cm^3
# Si number density = 24.075416 Si / 1000 Ang^3
#
#
#
# Elastic Constant Matrix: (Units=GPa)
#
#
# Indices 1 2 3 4 5 6 
#
# 1 44.0216 16.0754 23.5395 0.0000 13.4822 0.0000
# 2 16.0754 194.3436 25.5572 0.0000 2.4311 0.0000
# 3 23.5395 25.5572 72.3346 0.0000 42.5624 0.0000
# 4 0.0000 0.0000 0.0000 -20.8368 0.0000 17.8317
# 5 13.4822 2.4311 42.5624 0.0000 38.4745 0.0000
# 6 0.0000 0.0000 0.0000 17.8317 0.0000 20.6042
#
#
#
# Elastic Compliance Matrix: (Units=1/GPa)
#
#
# Indices 1 2 3 4 5 6 
#
# 1 0.027751 -0.001186 -0.008405 0.000000 -0.000351 0.000000
# 2 -0.001186 0.005815 -0.004861 0.000000 0.005426 0.000000
# 3 -0.008405 -0.004861 0.046878 0.000000 -0.048606 0.000000
# 4 0.000000 0.000000 0.000000 -0.027572 0.000000 0.023862
# 5 -0.000351 0.005426 -0.048606 0.000000 0.079542 0.000000
# 6 0.000000 0.000000 0.000000 0.023862 0.000000 0.027883
#
#
# Mechanical properties :
#
#
# Convention : Reuss Voigt Hill
#
# Bulk Modulus (GPa) = 19.40261 49.00487 34.20374
# Shear Modulus (GPa) = 24.22680 24.01689 24.12185
#
# Velocity S-wave (km/s) = 3.17565 3.16186 3.16876
# Velocity P-wave (km/s) = 4.63928 5.80764 5.25603
#
# Compressibility (1/GPa) = 0.05153946
#
# Stress axis : x y z
#
# Youngs Moduli (GPa) = 36.03439 171.96809 21.33190
#
# Poissons Ratio (x) = 0.20391 0.17930
# Poissons Ratio (y) = 0.04273 0.10370
# Poissons Ratio (z) = 0.30288 0.83601
#
# Static dielectric constant tensor:
#      x y z
#    x 1.949290 0.000000 0.085910 
#    y 0.000000 1.937160 0.000000 
#    z 0.085910 0.000000 1.986930 
# 
# From -- ./inp_files/203149.got.cif
#   From: 2010.05.17/outbox.cif.g08.bks.cpg/sg12_102_cif.got.tgz:203149.got - 2010.06.03 13:09:07.
