data_PCOD9221930
_publ_section_title
;
Structure prediction by ZEFSAII (Michael W. Deem and Ramdas Pophale) SiO2 
 PCOD9221930
Probable space group: C 2/M
;
_chemical_formula_sum "Si O2"
_cell_formula_units_Z 48
_cell_length_a 17.864125
_cell_length_b 9.120832
_cell_length_c 27.468544
_cell_angle_alpha 90.000000
_cell_angle_beta 35.886352
_cell_angle_gamma 90.000000
_cell_volume 2623.507964
_symmetry_space_group_name_H-M "C 2/M"
_symmetry_group_IT_number 12
_symmetry_cell_setting 'monoclinic'
loop_
_space_group_symop_operation_xyz
x,y,z
-x,y,-z
-x,-y,-z
x,-y,z
1/2+x,1/2+y,z
1/2-x,1/2+y,-z
1/2-x,1/2-y,-z
1/2+x,1/2-y,z
loop_
_atom_site_type_symbol
_atom_site_label
_atom_site_fract_x
_atom_site_fract_y
_atom_site_fract_z
Si Si1 0.172489 0.325039 0.232376
Si Si2 0.443941 0.828984 0.417055
Si Si3 0.056025 0.671304 0.916169
Si Si4 0.888226 0.175144 0.923647
Si Si5 0.491491 0.825057 0.233227
Si Si6 0.238872 0.671014 0.582158
O O1 0.198455 0.500000 0.223870
O O2 0.300851 0.233358 0.161158
O O3 0.089450 0.308218 0.226821
O O4 0.081404 0.277005 0.325273
O O5 0.369896 0.750004 0.499483
O O6 0.352293 0.817328 0.417643
O O7 0.455260 0.000000 0.422651
O O8 0.052346 0.500000 0.903469
O O9 0.970130 0.768449 0.925947
O O10 0.000000 0.681844 0.000000
O O11 0.958321 0.233621 0.838401
O O12 0.876430 0.000000 0.929456
O O13 0.750000 0.250000 0.000000
O O14 0.351535 0.777076 0.326224
O O15 0.486811 0.000000 0.224605
O O16 0.264270 0.500000 0.576423
#
# Coordination Sequence:
#
# PCOD9221930 Si02
#       6
#     8   8   8   8   8   8
#     4   9  18  33  54  80 110 145 180 217 266 315
#     4   8  14  25  43  71 106 140 176 216 256 304
#     4  11  24  40  58  81 107 136 175 220 265 317
#     4  12  25  40  59  81 107 139 175 216 265 318
#     4   9  18  34  55  80 112 145 179 220 264 313
#     4   8  14  25  44  72 105 141 177 214 258 304
#
# _framework density 18.296113999999999
#
# number of rings (size 3 to 8) (size 9 to 14) (size 15 to 20)
#    0.000    2.500    0.000    5.000    0.000    6.000 
#    0.000    3.333    0.000    1.000    0.000    7.000 
#    0.000    0.000    0.000    0.000    0.000    0.000 
#
# Total GULP energy -133850.128437 kJ/mol
# GULP energy per Si atom -5577.088685 kJ/mol
# Density = 1.825447 g / cm^3
# Si number density = 18.296114 Si / 1000 Ang^3
#
#
#
# Elastic Constant Matrix: (Units=GPa)
#
#
# Indices 1 2 3 4 5 6 
#
# 1 34.9402 37.0726 41.6892 0.0000 1.4510 0.0000
# 2 37.0726 101.5828 89.5498 0.0000 4.0884 0.0000
# 3 41.6892 89.5498 185.8920 0.0000 0.1119 0.0000
# 4 0.0000 0.0000 0.0000 28.7978 0.0000 -2.2149
# 5 1.4510 4.0884 0.1119 0.0000 22.7582 0.0000
# 6 0.0000 0.0000 0.0000 -2.2149 0.0000 21.6838
#
#
#
# Elastic Compliance Matrix: (Units=1/GPa)
#
#
# Indices 1 2 3 4 5 6 
#
# 1 0.048429 -0.014041 -0.004097 0.000000 -0.000545 0.000000
# 2 -0.014041 0.021393 -0.007155 0.000000 -0.002913 0.000000
# 3 -0.004097 -0.007155 0.009744 0.000000 0.001499 0.000000
# 4 0.000000 0.000000 0.000000 0.035000 0.000000 0.003575
# 5 -0.000545 -0.002913 0.001499 0.000000 0.044491 0.000000
# 6 0.000000 0.000000 0.000000 0.003575 0.000000 0.046483
#
#
# Mechanical properties :
#
#
# Convention : Reuss Voigt Hill
#
# Bulk Modulus (GPa) = 34.50552 73.22647 53.86599
# Shear Modulus (GPa) = 18.81226 24.92153 21.86690
#
# Velocity S-wave (km/s) = 3.21005 3.69470 3.46087
# Velocity P-wave (km/s) = 5.71311 7.63616 6.74354
#
# Compressibility (1/GPa) = 0.02898087
#
# Stress axis : x y z
#
# Youngs Moduli (GPa) = 20.64900 46.74411 102.62547
#
# Poissons Ratio (x) = 0.65631 0.42044
# Poissons Ratio (y) = 0.28992 0.73430
# Poissons Ratio (z) = 0.08459 0.33446
#
# Static dielectric constant tensor:
#      x y z
#    x 1.624140 0.000000 0.001570 
#    y 0.000000 1.609660 0.000000 
#    z 0.001570 0.000000 1.647730 
# 
# From -- ./inp_files/380144.got.cif
#   From: 2010.05.17/outbox.cif.g08.bks.cpg/sg12_191_cif.got.tgz:380144.got - 2010.06.03 13:09:07.
