data_PCOD9221665
_publ_section_title
;
Structure prediction by ZEFSAII (Michael W. Deem and Ramdas Pophale) SiO2 
 PCOD9221665
Probable space group: C 2/M
;
_chemical_formula_sum "Si O2"
_cell_formula_units_Z 42
_cell_length_a 15.294995
_cell_length_b 9.243351
_cell_length_c 15.870772
_cell_angle_alpha 90.000000
_cell_angle_beta 118.235833
_cell_angle_gamma 90.000000
_cell_volume 1976.771919
_symmetry_space_group_name_H-M "C 2/M"
_symmetry_group_IT_number 12
_symmetry_cell_setting 'monoclinic'
loop_
_space_group_symop_operation_xyz
x,y,z
-x,y,-z
-x,-y,-z
x,-y,z
1/2+x,1/2+y,z
1/2-x,1/2+y,-z
1/2-x,1/2-y,-z
1/2+x,1/2-y,z
loop_
_atom_site_type_symbol
_atom_site_label
_atom_site_fract_x
_atom_site_fract_y
_atom_site_fract_z
Si Si1 0.461409 0.331022 0.886993
Si Si2 0.000000 0.000000 0.500000
Si Si3 0.918900 0.667996 0.201080
Si Si4 0.919176 0.239946 0.593121
Si Si5 0.749025 0.828188 0.221463
Si Si6 0.771923 0.655122 0.390184
O O1 0.450209 0.500000 0.857546
O O2 0.536448 0.249909 0.858980
O O3 0.357722 0.246661 0.834235
O O4 0.500000 0.325885 0.000000
O O5 0.973060 0.124625 0.558812
O O6 0.898052 0.500000 0.174087
O O7 0.823187 0.753409 0.190204
O O8 0.001757 0.679806 0.312447
O O9 0.853230 0.336621 0.500363
O O10 0.835991 0.169691 0.616470
O O11 0.786117 0.786514 0.332289
O O12 0.744824 0.000000 0.209437
O O13 0.780159 0.500000 0.348990
#
# Coordination Sequence:
#
# PCOD9221665 Si02
#       6
#     8   2   8   8   8   8
#     4  11  26  50  78 107 142 181 231 295 363 430
#     4  12  24  40  58 104 130 194 228 296 342 408
#     4  12  26  46  73 106 144 189 241 295 353 421
#     4  11  25  38  67  96 144 184 239 285 345 411
#     4  12  27  44  72 106 142 187 237 291 355 426
#     4  11  23  42  65  96 139 188 236 289 343 409
#
# _framework density 21.246760999999999
#
# number of rings (size 3 to 8) (size 9 to 14) (size 15 to 20)
#    0.000    0.571    2.857    4.571    6.667    3.048 
#    0.000    2.857    0.000    0.000    0.000    0.000 
#    0.000    0.000    0.000    0.000    0.000    0.000 
#
# Total GULP energy -117308.301896 kJ/mol
# GULP energy per Si atom -5586.109614 kJ/mol
# Density = 2.119840 g / cm^3
# Si number density = 21.246761 Si / 1000 Ang^3
#
#
#
# Elastic Constant Matrix: (Units=GPa)
#
#
# Indices 1 2 3 4 5 6 
#
# 1 154.1223 80.5805 23.0292 0.0000 -35.8049 0.0000
# 2 80.5805 214.9803 33.9606 0.0000 -20.8470 0.0000
# 3 23.0292 33.9606 52.1811 0.0000 -23.3161 0.0000
# 4 0.0000 0.0000 0.0000 10.8799 0.0000 -6.1701
# 5 -35.8049 -20.8470 -23.3161 0.0000 19.2690 0.0000
# 6 0.0000 0.0000 0.0000 -6.1701 0.0000 28.8601
#
#
#
# Elastic Compliance Matrix: (Units=1/GPa)
#
#
# Indices 1 2 3 4 5 6 
#
# 1 0.017363 -0.004518 0.016350 0.000000 0.047159 0.000000
# 2 -0.004518 0.006460 -0.006180 0.000000 -0.008884 0.000000
# 3 0.016350 -0.006180 0.057819 0.000000 0.093657 0.000000
# 4 0.000000 0.000000 0.000000 0.104594 0.000000 0.022362
# 5 0.047159 -0.008884 0.093657 0.000000 0.243242 0.000000
# 6 0.000000 0.000000 0.000000 0.022362 0.000000 0.039431
#
#
# Mechanical properties :
#
#
# Convention : Reuss Voigt Hill
#
# Bulk Modulus (GPa) = 10.75898 77.38047 44.06973
# Shear Modulus (GPa) = 10.23358 30.71604 20.47481
#
# Velocity S-wave (km/s) = 2.19704 3.80634 3.10767
# Velocity P-wave (km/s) = 3.39276 7.47105 5.80204
#
# Compressibility (1/GPa) = 0.09294560
#
# Stress axis : x y z
#
# Youngs Moduli (GPa) = 57.59268 154.80445 17.29533
#
# Poissons Ratio (x) = 0.69939 -0.28277
# Poissons Ratio (y) = 0.26020 0.10688
# Poissons Ratio (z) = -0.94161 0.95668
#
# Static dielectric constant tensor:
#      x y z
#    x 1.755000 0.000000 0.021010 
#    y 0.000000 1.739890 0.000000 
#    z 0.021010 0.000000 1.778990 
# 
# From -- ./inp_files/267771.got.cif
#   From: 2010.05.17/outbox.cif.g08.bks.cpg/sg12_134_cif.got.tgz:267771.got - 2010.06.03 13:09:07.
