data_PCOD9221952
_publ_section_title
;
Structure prediction by ZEFSAII (Michael W. Deem and Ramdas Pophale) SiO2 
 PCOD9221952
Probable space group: C 2/M
;
_chemical_formula_sum "Si O2"
_cell_formula_units_Z 56
_cell_length_a 11.781190
_cell_length_b 27.460065
_cell_length_c 11.999538
_cell_angle_alpha 90.000000
_cell_angle_beta 47.498982
_cell_angle_gamma 90.000000
_cell_volume 2862.062147
_symmetry_space_group_name_H-M "C 2/M"
_symmetry_group_IT_number 12
_symmetry_cell_setting 'monoclinic'
loop_
_space_group_symop_operation_xyz
x,y,z
-x,y,-z
-x,-y,-z
x,-y,z
1/2+x,1/2+y,z
1/2-x,1/2+y,-z
1/2-x,1/2-y,-z
1/2+x,1/2-y,z
loop_
_atom_site_type_symbol
_atom_site_label
_atom_site_fract_x
_atom_site_fract_y
_atom_site_fract_z
Si Si1 0.306587 0.806751 0.879327
Si Si2 0.627722 0.651952 0.823393
Si Si3 0.532848 0.944457 0.669816
Si Si4 0.752229 0.945608 0.309088
Si Si5 0.377909 0.847636 0.269995
Si Si6 0.794849 0.802026 0.819632
Si Si7 0.645813 0.298006 0.579037
O O1 0.285224 0.840566 0.787223
O O2 0.484363 0.809472 0.795925
O O3 0.247618 0.753852 0.878118
O O4 0.215346 0.824484 0.049470
O O5 0.623409 0.596597 0.786402
O O6 0.633905 0.687288 0.715420
O O7 0.500000 0.663280 0.000000
O O8 0.656421 0.938116 0.487021
O O9 0.370179 0.943144 0.711746
O O10 0.557733 0.901585 0.743979
O O11 0.550998 0.000000 0.701810
O O12 0.817498 0.000000 0.267593
O O13 0.310943 0.832563 0.193855
O O14 0.238931 0.837802 0.447364
O O15 0.968174 0.796346 0.659149
O O16 0.750000 0.250000 0.500000
#
# Coordination Sequence:
#
# PCOD9221952 Si02
#       7
#     8   8   8   8   8   8   8
#     4  11  24  40  62  88 123 166 208 249 308 372
#     4  12  23  38  63  87 127 162 200 256 318 371
#     4   9  18  35  62  93 119 154 207 265 316 363
#     4   9  18  35  60  91 123 153 201 262 317 370
#     4  12  22  39  66  90 122 166 207 261 306 368
#     4  11  25  42  59  87 127 166 209 248 308 377
#     4  12  24  41  60  92 123 163 207 257 304 367
#
# _framework density 19.566312
#
# number of rings (size 3 to 8) (size 9 to 14) (size 15 to 20)
#    0.000    1.143    5.714    2.571    0.000    0.857 
#    0.000    0.000    0.000    5.143    0.000    0.000 
#    0.000    0.000    0.000    0.000    0.000    0.000 
#
# Total GULP energy -156144.792694 kJ/mol
# GULP energy per Si atom -5576.599739 kJ/mol
# Density = 1.952178 g / cm^3
# Si number density = 19.566312 Si / 1000 Ang^3
#
#
#
# Elastic Constant Matrix: (Units=GPa)
#
#
# Indices 1 2 3 4 5 6 
#
# 1 88.0314 38.0882 20.8647 0.0000 16.2597 0.0000
# 2 38.0882 125.7188 22.8745 0.0000 20.7997 0.0000
# 3 20.8647 22.8745 80.9567 0.0000 7.5555 0.0000
# 4 0.0000 0.0000 0.0000 22.2678 0.0000 3.2029
# 5 16.2597 20.7997 7.5555 0.0000 30.4883 0.0000
# 6 0.0000 0.0000 0.0000 3.2029 0.0000 27.9053
#
#
#
# Elastic Compliance Matrix: (Units=1/GPa)
#
#
# Indices 1 2 3 4 5 6 
#
# 1 0.014132 -0.003051 -0.002325 0.000000 -0.004879 0.000000
# 2 -0.003051 0.009956 -0.001581 0.000000 -0.004773 0.000000
# 3 -0.002325 -0.001581 0.013494 0.000000 -0.001025 0.000000
# 4 0.000000 0.000000 0.000000 0.045662 0.000000 -0.005241
# 5 -0.004879 -0.004773 -0.001025 0.000000 0.038912 0.000000
# 6 0.000000 0.000000 0.000000 -0.005241 0.000000 0.036437
#
#
# Mechanical properties :
#
#
# Convention : Reuss Voigt Hill
#
# Bulk Modulus (GPa) = 42.25207 50.92907 46.59057
# Shear Modulus (GPa) = 27.71679 30.32425 29.02052
#
# Velocity S-wave (km/s) = 3.76780 3.94105 3.85540
# Velocity P-wave (km/s) = 6.36943 6.84066 6.60924
#
# Compressibility (1/GPa) = 0.02366748
#
# Stress axis : x y z
#
# Youngs Moduli (GPa) = 70.76180 100.44103 74.10754
#
# Poissons Ratio (x) = 0.30647 0.17228
# Poissons Ratio (y) = 0.21591 0.11718
# Poissons Ratio (z) = 0.16450 0.15882
#
# Static dielectric constant tensor:
#      x y z
#    x 1.761370 0.000000 -0.027720 
#    y 0.000000 1.738790 0.000000 
#    z -0.027720 0.000000 1.708170 
# 
# From -- ./inp_files/136918.got.cif
#   From: 2010.05.17/outbox.cif.g08.bks.cpg/sg12_69_cif.got.tgz:136918.got - 2010.06.03 13:09:07.
