data_PCOD9221571
_publ_section_title
;
Structure prediction by ZEFSAII (Michael W. Deem and Ramdas Pophale) SiO2 
 PCOD9221571
Probable space group: C 2/M
;
_chemical_formula_sum "Si O2"
_cell_formula_units_Z 36
_cell_length_a 14.025543
_cell_length_b 10.761321
_cell_length_c 24.686118
_cell_angle_alpha 90.000000
_cell_angle_beta 151.736685
_cell_angle_gamma 90.000000
_cell_volume 1764.332366
_symmetry_space_group_name_H-M "C 2/M"
_symmetry_group_IT_number 12
_symmetry_cell_setting 'monoclinic'
loop_
_space_group_symop_operation_xyz
x,y,z
-x,y,-z
-x,-y,-z
x,-y,z
1/2+x,1/2+y,z
1/2-x,1/2+y,-z
1/2-x,1/2-y,-z
1/2+x,1/2-y,z
loop_
_atom_site_type_symbol
_atom_site_label
_atom_site_fract_x
_atom_site_fract_y
_atom_site_fract_z
Si Si1 0.259136 0.500000 0.885043
Si Si2 0.059773 0.000000 0.466546
Si Si3 0.485786 0.000000 0.347431
Si Si4 0.153740 0.238591 0.692810
Si Si5 0.216198 0.358822 0.128560
Si Si6 0.393562 0.761896 0.123823
O O1 0.173332 0.500000 0.781439
O O2 0.175830 0.381932 0.876664
O O3 0.500000 0.500000 0.000000
O O4 0.296723 0.000000 0.572261
O O5 0.000000 0.000000 0.500000
O O6 0.969560 0.875305 0.394328
O O7 0.449766 0.873489 0.363216
O O8 0.188681 0.213328 0.774068
O O9 0.376005 0.234581 0.778400
O O10 0.182675 0.500000 0.130174
O O11 0.355920 0.350829 0.146137
O O12 0.000000 0.309197 0.000000
O O13 0.250000 0.750000 0.000000
#
# Coordination Sequence:
#
# PCOD9221571 Si02
#       6
#     4   4   4   8   8   8
#     4  12  24  42  69 102 142 183 229 285 351 418
#     4  12  28  52  73  98 130 191 248 293 349 428
#     4  12  26  48  70 100 140 176 236 301 353 417
#     4  12  25  46  73 102 139 187 232 291 359 418
#     4  11  23  41  65 101 146 186 226 278 347 426
#     4  12  24  38  65 104 144 181 223 281 347 424
#
# _framework density 20.404318
#
# number of rings (size 3 to 8) (size 9 to 14) (size 15 to 20)
#    0.000    0.222    5.556    4.667    3.111    0.000 
#    0.000    0.556    0.000    0.000    0.000    0.000 
#    0.000    0.000    0.000    0.000    0.000    0.000 
#
# Total GULP energy -100678.519131 kJ/mol
# GULP energy per Si atom -5593.251063 kJ/mol
# Density = 2.035788 g / cm^3
# Si number density = 20.404318 Si / 1000 Ang^3
#
#
#
# Elastic Constant Matrix: (Units=GPa)
#
#
# Indices 1 2 3 4 5 6 
#
# 1 107.3841 37.1987 43.4292 0.0000 13.0979 0.0000
# 2 37.1987 159.8181 42.5852 0.0001 -0.8768 0.0000
# 3 43.4292 42.5852 118.1916 0.0004 24.6191 0.0001
# 4 0.0000 0.0001 0.0004 9.2851 0.0000 9.3164
# 5 13.0979 -0.8768 24.6191 0.0000 47.3904 0.0000
# 6 0.0000 0.0000 0.0001 9.3164 0.0000 35.3143
#
#
#
# Elastic Compliance Matrix: (Units=1/GPa)
#
#
# Indices 1 2 3 4 5 6 
#
# 1 0.011431 -0.001807 -0.003234 0.000000 -0.001513 0.000000
# 2 -0.001807 0.007317 -0.002360 0.000000 0.001861 0.000000
# 3 -0.003234 -0.002360 0.011575 -0.000001 -0.005163 0.000000
# 4 0.000000 0.000000 -0.000001 0.146469 0.000000 -0.038641
# 5 -0.001513 0.001861 -0.005163 0.000000 0.024236 0.000000
# 6 0.000000 0.000000 0.000000 -0.038641 0.000000 0.038511
#
#
# Mechanical properties :
#
#
# Convention : Reuss Voigt Hill
#
# Bulk Modulus (GPa) = 64.43121 70.20222 67.31672
# Shear Modulus (GPa) = 19.26676 35.87668 27.57172
#
# Velocity S-wave (km/s) = 3.07620 4.19774 3.67995
# Velocity P-wave (km/s) = 6.65305 7.61413 7.14976
#
# Compressibility (1/GPa) = 0.01552043
#
# Stress axis : x y z
#
# Youngs Moduli (GPa) = 87.48286 136.67263 86.39420
#
# Poissons Ratio (x) = 0.24699 0.27940
# Poissons Ratio (y) = 0.15810 0.20388
# Poissons Ratio (z) = 0.28292 0.32252
#
# Static dielectric constant tensor:
#      x y z
#    x 1.694530 0.000000 0.012900 
#    y 0.000000 1.799540 0.000000 
#    z 0.012900 0.000000 1.703540 
# 
# From -- ./inp_files/175478.got.cif
#   From: 2010.05.17/outbox.cif.g08.bks.cpg/sg12_88_cif.got.tgz:175478.got - 2010.06.03 13:09:07.
