data_PCOD9221602
_publ_section_title
;
Structure prediction by ZEFSAII (Michael W. Deem and Ramdas Pophale) SiO2 
 PCOD9221602
Probable space group: C 2/M
;
_chemical_formula_sum "Si O2"
_cell_formula_units_Z 40
_cell_length_a 12.975236
_cell_length_b 13.529730
_cell_length_c 11.820576
_cell_angle_alpha 90.000000
_cell_angle_beta 75.326520
_cell_angle_gamma 90.000000
_cell_volume 2007.439341
_symmetry_space_group_name_H-M "C 2/M"
_symmetry_group_IT_number 12
_symmetry_cell_setting 'monoclinic'
loop_
_space_group_symop_operation_xyz
x,y,z
-x,y,-z
-x,-y,-z
x,-y,z
1/2+x,1/2+y,z
1/2-x,1/2+y,-z
1/2-x,1/2-y,-z
1/2+x,1/2-y,z
loop_
_atom_site_type_symbol
_atom_site_label
_atom_site_fract_x
_atom_site_fract_y
_atom_site_fract_z
Si Si1 0.746795 0.500000 0.296488
Si Si2 0.499773 0.000000 0.185998
Si Si3 0.768250 0.199670 0.816271
Si Si4 0.105277 0.000000 0.548282
Si Si5 0.913837 0.302367 0.948050
Si Si6 0.725711 0.326543 0.609605
Si Si7 0.393229 0.000000 0.601972
O O1 0.874858 0.500000 0.251506
O O2 0.702929 0.596921 0.248845
O O3 0.705623 0.500000 0.434685
O O4 0.530335 0.097474 0.108438
O O5 0.570996 0.000000 0.278202
O O6 0.867820 0.249764 0.850361
O O7 0.719329 0.266678 0.729296
O O8 0.683858 0.179093 0.939546
O O9 0.124536 0.898366 0.612476
O O10 0.000000 0.000000 0.500000
O O11 0.000000 0.244456 0.000000
O O12 0.750000 0.250000 0.500000
O O13 0.823744 0.402777 0.596050
O O14 0.500000 0.000000 0.500000
#
# Coordination Sequence:
#
# PCOD9221602 Si02
#       7
#     4   4   8   4   8   8   4
#     4  12  23  44  68  98 134 173 227 277 328 407
#     4  12  21  43  70 101 132 168 232 287 329 387
#     4  11  24  41  66  99 135 170 227 274 335 395
#     4  11  26  44  63  97 138 182 217 262 346 409
#     4  11  23  41  67 100 130 177 221 279 334 392
#     4  11  23  45  66  94 134 174 217 276 329 398
#     4  11  25  40  67 105 128 167 228 280 332 386
#
# _framework density 19.925882000000001
#
# number of rings (size 3 to 8) (size 9 to 14) (size 15 to 20)
#    0.000    0.800    6.000    2.100    0.000    2.400 
#    0.000    0.500    0.000    0.000    0.000    0.000 
#    0.000    0.000    0.000    0.000    0.000    0.000 
#
# Total GULP energy -111731.361218 kJ/mol
# GULP energy per Si atom -5586.568061 kJ/mol
# Density = 1.988053 g / cm^3
# Si number density = 19.925882 Si / 1000 Ang^3
#
#
#
# Elastic Constant Matrix: (Units=GPa)
#
#
# Indices 1 2 3 4 5 6 
#
# 1 104.8286 39.4192 33.1421 0.0000 30.8361 0.0000
# 2 39.4192 117.6954 43.5153 0.0000 23.0941 0.0000
# 3 33.1421 43.5153 103.5702 0.0000 27.5250 0.0000
# 4 0.0000 0.0000 0.0000 11.0523 0.0000 -0.4841
# 5 30.8361 23.0941 27.5250 0.0000 49.2381 0.0000
# 6 0.0000 0.0000 0.0000 -0.4841 0.0000 -3.8342
#
#
#
# Elastic Compliance Matrix: (Units=1/GPa)
#
#
# Indices 1 2 3 4 5 6 
#
# 1 0.012703 -0.002565 -0.001401 0.000000 -0.005969 0.000000
# 2 -0.002565 0.010909 -0.003323 0.000000 -0.001652 0.000000
# 3 -0.001401 -0.003323 0.012746 0.000000 -0.004689 0.000000
# 4 0.000000 0.000000 0.000000 0.089981 0.000000 -0.011362
# 5 -0.005969 -0.001652 -0.004689 0.000000 0.027444 0.000000
# 6 0.000000 0.000000 0.000000 -0.011362 0.000000 -0.259375
#
#
# Mechanical properties :
#
#
# Convention : Reuss Voigt Hill
#
# Bulk Modulus (GPa) = 45.91639 62.02748 53.97194
# Shear Modulus (GPa) = -59.69818 25.29242 -17.20288
#
# Velocity S-wave (km/s) = -5.47952 3.56662 -2.94146
# Velocity P-wave (km/s) = 4.11581 6.93958 3.95081
#
# Compressibility (1/GPa) = 0.02177872
#
# Stress axis : x y z
#
# Youngs Moduli (GPa) = 78.72338 91.67072 78.45579
#
# Poissons Ratio (x) = 0.23517 0.10989
# Poissons Ratio (y) = 0.20195 0.26073
# Poissons Ratio (z) = 0.11026 0.30465
#
# Static dielectric constant tensor:
#      x y z
#    x 1.735720 0.000000 0.039270 
#    y 0.000000 1.709660 0.000000 
#    z 0.039270 0.000000 1.753020 
# 
# From -- ./inp_files/140883.got.cif
#   From: 2010.05.17/outbox.cif.g08.bks.cpg/sg12_71_cif.got.tgz:140883.got - 2010.06.03 13:09:07.
