data_PCOD9221647
_publ_section_title
;
Structure prediction by ZEFSAII (Michael W. Deem and Ramdas Pophale) SiO2 
 PCOD9221647
Probable space group: C 2/M
;
_chemical_formula_sum "Si O2"
_cell_formula_units_Z 42
_cell_length_a 14.488909
_cell_length_b 7.605536
_cell_length_c 15.738321
_cell_angle_alpha 90.000000
_cell_angle_beta 92.657450
_cell_angle_gamma 90.000000
_cell_volume 1732.433651
_symmetry_space_group_name_H-M "C 2/M"
_symmetry_group_IT_number 12
_symmetry_cell_setting 'monoclinic'
loop_
_space_group_symop_operation_xyz
x,y,z
-x,y,-z
-x,-y,-z
x,-y,z
1/2+x,1/2+y,z
1/2-x,1/2+y,-z
1/2-x,1/2-y,-z
1/2+x,1/2-y,z
loop_
_atom_site_type_symbol
_atom_site_label
_atom_site_fract_x
_atom_site_fract_y
_atom_site_fract_z
Si Si1 0.106798 0.714469 0.515169
Si Si2 0.231517 0.293409 0.097114
Si Si3 0.236835 0.204302 0.361681
Si Si4 0.500000 0.500000 0.000000
Si Si5 0.427385 0.805260 0.124542
Si Si6 0.904379 0.199684 0.778123
O O1 0.109766 0.500000 0.513513
O O2 0.168112 0.782814 0.439559
O O3 0.164169 0.773086 0.601472
O O4 0.000000 0.767521 0.500000
O O5 0.217541 0.500000 0.105635
O O6 0.322953 0.228967 0.148956
O O7 0.142876 0.197197 0.130856
O O8 0.250000 0.250000 0.000000
O O9 0.174073 0.283856 0.284348
O O10 0.251556 0.000000 0.339154
O O11 0.453306 0.653615 0.059594
O O12 0.499332 0.794809 0.205086
O O13 0.432203 0.000000 0.086239
O O14 0.922453 0.000000 0.751168
#
# Coordination Sequence:
#
# PCOD9221647 Si02
#       6
#     8   8   8   2   8   8
#     4   9  18  35  60  91 125 165 211 253 306 380
#     4  12  25  43  63  93 125 163 217 271 326 390
#     4   9  20  37  59  88 127 167 204 260 318 373
#     4  12  22  44  64  90 124 158 210 272 322 390
#     4  12  25  43  66  92 124 167 214 267 332 389
#     4  11  23  42  62  91 132 171 218 274 328 387
#
# _framework density 24.243352999999999
#
# number of rings (size 3 to 8) (size 9 to 14) (size 15 to 20)
#    0.000    1.333    1.905    3.714    0.000    3.429 
#    0.000    1.905    0.000    0.000    0.000    0.000 
#    0.000    0.000    0.000    0.000    0.000    0.000 
#
# Total GULP energy -117177.964297 kJ/mol
# GULP energy per Si atom -5579.903062 kJ/mol
# Density = 2.418817 g / cm^3
# Si number density = 24.243353 Si / 1000 Ang^3
#
#
#
# Elastic Constant Matrix: (Units=GPa)
#
#
# Indices 1 2 3 4 5 6 
#
# 1 129.2479 -1.3475 23.4418 0.0000 52.9557 0.0000
# 2 -1.3475 150.0750 -10.1942 0.0000 4.6200 0.0000
# 3 23.4418 -10.1942 78.0000 0.0000 36.2013 0.0000
# 4 0.0000 0.0000 0.0000 13.6407 0.0000 -3.3068
# 5 52.9557 4.6200 36.2013 0.0000 43.5461 0.0000
# 6 0.0000 0.0000 0.0000 -3.3068 0.0000 13.8749
#
#
#
# Elastic Compliance Matrix: (Units=1/GPa)
#
#
# Indices 1 2 3 4 5 6 
#
# 1 0.018233 0.001629 0.008311 0.000000 -0.029255 0.000000
# 2 0.001629 0.007020 0.002756 0.000000 -0.005017 0.000000
# 3 0.008311 0.002756 0.025253 0.000000 -0.031393 0.000000
# 4 0.000000 0.000000 0.000000 0.077805 0.000000 0.018543
# 5 -0.029255 -0.005017 -0.031393 0.000000 0.085171 0.000000
# 6 0.000000 0.000000 0.000000 0.018543 0.000000 0.076492
#
#
# Mechanical properties :
#
#
# Convention : Reuss Voigt Hill
#
# Bulk Modulus (GPa) = 13.17545 42.34700 27.76122
# Shear Modulus (GPa) = 17.24845 37.24053 27.24449
#
# Velocity S-wave (km/s) = 2.67024 3.92358 3.35594
# Velocity P-wave (km/s) = 3.86695 6.16696 5.14707
#
# Compressibility (1/GPa) = 0.07589874
#
# Stress axis : x y z
#
# Youngs Moduli (GPa) = 54.84525 142.45724 39.59887
#
# Poissons Ratio (x) = -0.23204 -0.32911
# Poissons Ratio (y) = -0.08934 -0.10915
# Poissons Ratio (z) = -0.45582 -0.39267
#
# Static dielectric constant tensor:
#      x y z
#    x 1.903210 0.000000 0.081910 
#    y 0.000000 1.871860 0.000000 
#    z 0.081910 0.000000 2.055010 
# 
# From -- ./inp_files/267310.got.cif
#   From: 2010.05.17/outbox.cif.g08.bks.cpg/sg12_134_cif.got.tgz:267310.got - 2010.06.03 13:09:07.
