data_PCOD9221512
_publ_section_title
;
Structure prediction by ZEFSAII (Michael W. Deem and Ramdas Pophale) SiO2 
 PCOD9221512
Probable space group: C 2/M
;
_chemical_formula_sum "Si O2"
_cell_formula_units_Z 40
_cell_length_a 19.158192
_cell_length_b 8.887498
_cell_length_c 11.878763
_cell_angle_alpha 90.000000
_cell_angle_beta 105.214188
_cell_angle_gamma 90.000000
_cell_volume 1951.689647
_symmetry_space_group_name_H-M "C 2/M"
_symmetry_group_IT_number 12
_symmetry_cell_setting 'monoclinic'
loop_
_space_group_symop_operation_xyz
x,y,z
-x,y,-z
-x,-y,-z
x,-y,z
1/2+x,1/2+y,z
1/2-x,1/2+y,-z
1/2-x,1/2-y,-z
1/2+x,1/2-y,z
loop_
_atom_site_type_symbol
_atom_site_label
_atom_site_fract_x
_atom_site_fract_y
_atom_site_fract_z
Si Si1 0.086075 0.326675 0.028637
Si Si2 0.791318 0.178303 0.351614
Si Si3 0.572723 0.180391 0.462214
Si Si4 0.636285 0.679205 0.279349
Si Si5 0.683927 0.677170 0.903830
O O1 0.110767 0.500000 0.048558
O O2 0.119388 0.234175 0.146174
O O3 0.113407 0.257597 0.923509
O O4 0.000000 0.322176 0.000000
O O5 0.857894 0.254436 0.443367
O O6 0.714743 0.255102 0.345939
O O7 0.804782 0.197367 0.223782
O O8 0.788042 0.000000 0.375665
O O9 0.500000 0.219113 0.500000
O O10 0.577672 0.251950 0.340338
O O11 0.577221 0.000000 0.455658
O O12 0.636767 0.500000 0.285999
O O13 0.680697 0.500000 0.926106
O O14 0.750000 0.750000 0.000000
#
# Coordination Sequence:
#
# PCOD9221512 Si02
#       5
#     8   8   8   8   8
#     4  11  25  43  65  95 134 174 214 264 321 383
#     4  11  24  43  68  97 131 170 216 266 318 381
#     4  11  26  46  68  95 129 169 214 266 325 384
#     4  12  25  43  69  96 129 170 216 267 320 383
#     4  11  23  40  66  98 132 170 214 264 316 379
#
# _framework density 20.495062000000001
#
# number of rings (size 3 to 8) (size 9 to 14) (size 15 to 20)
#    0.000    0.800    2.000    4.800    2.800    5.600 
#    0.000    0.000    0.000    0.000    0.000    0.000 
#    0.000    0.000    0.000    0.000    0.000    0.000 
#
# Total GULP energy -111987.012183 kJ/mol
# GULP energy per Si atom -5599.350609 kJ/mol
# Density = 2.044841 g / cm^3
# Si number density = 20.495062 Si / 1000 Ang^3
#
#
#
# Elastic Constant Matrix: (Units=GPa)
#
#
# Indices 1 2 3 4 5 6 
#
# 1 108.1260 59.3494 21.5697 0.0000 -25.8343 0.0000
# 2 59.3494 133.9164 40.9323 0.0000 -25.0045 0.0000
# 3 21.5697 40.9323 52.6153 0.0000 -11.0992 0.0000
# 4 0.0000 0.0000 0.0000 31.9844 0.0000 -6.7975
# 5 -25.8343 -25.0045 -11.0992 0.0000 38.3020 0.0000
# 6 0.0000 0.0000 0.0000 -6.7975 0.0000 30.1881
#
#
#
# Elastic Compliance Matrix: (Units=1/GPa)
#
#
# Indices 1 2 3 4 5 6 
#
# 1 0.013287 -0.004617 -0.000640 0.000000 0.005763 0.000000
# 2 -0.004617 0.012173 -0.006985 0.000000 0.002808 0.000000
# 3 -0.000640 -0.006985 0.025189 0.000000 0.002308 0.000000
# 4 0.000000 0.000000 0.000000 0.032837 0.000000 0.007394
# 5 0.005763 0.002808 0.002308 0.000000 0.032497 0.000000
# 6 0.000000 0.000000 0.000000 0.007394 0.000000 0.034791
#
#
# Mechanical properties :
#
#
# Convention : Reuss Voigt Hill
#
# Bulk Modulus (GPa) = 38.21755 59.81783 49.01769
# Shear Modulus (GPa) = 27.17713 31.61534 29.39623
#
# Velocity S-wave (km/s) = 3.64542 3.93183 3.79133
# Velocity P-wave (km/s) = 6.03378 7.06132 6.56768
#
# Compressibility (1/GPa) = 0.02616599
#
# Stress axis : x y z
#
# Youngs Moduli (GPa) = 75.26023 82.14954 39.70029
#
# Poissons Ratio (x) = 0.37930 0.02539
# Poissons Ratio (y) = 0.34749 0.27729
# Poissons Ratio (z) = 0.04813 0.57379
#
# Static dielectric constant tensor:
#      x y z
#    x 1.738810 0.000000 -0.025780 
#    y 0.000000 1.686400 0.000000 
#    z -0.025780 0.000000 1.732990 
# 
# From -- ./inp_files/151942.got.cif
#   From: 2010.05.17/outbox.cif.g08.bks.cpg/sg12_76_cif.got.tgz:151942.got - 2010.06.03 13:09:07.
