data_PCOD9221787
_publ_section_title
;
Structure prediction by ZEFSAII (Michael W. Deem and Ramdas Pophale) SiO2 
 PCOD9221787
Probable space group: C 2/M
;
_chemical_formula_sum "Si O2"
_cell_formula_units_Z 64
_cell_length_a 14.299987
_cell_length_b 26.360379
_cell_length_c 10.833994
_cell_angle_alpha 90.000000
_cell_angle_beta 135.369078
_cell_angle_gamma 90.000000
_cell_volume 2869.096952
_symmetry_space_group_name_H-M "C 2/M"
_symmetry_group_IT_number 12
_symmetry_cell_setting 'monoclinic'
loop_
_space_group_symop_operation_xyz
x,y,z
-x,y,-z
-x,-y,-z
x,-y,z
1/2+x,1/2+y,z
1/2-x,1/2+y,-z
1/2-x,1/2-y,-z
1/2+x,1/2-y,z
loop_
_atom_site_type_symbol
_atom_site_label
_atom_site_fract_x
_atom_site_fract_y
_atom_site_fract_z
Si Si1 0.608838 0.884696 0.214176
Si Si2 0.097696 0.770832 0.853067
Si Si3 0.129652 0.297715 0.676565
Si Si4 0.668629 0.765491 0.299545
Si Si5 0.088359 0.441147 0.458129
Si Si6 0.696690 0.389701 0.183993
Si Si7 0.492513 0.620897 0.187150
Si Si8 0.375388 0.557940 0.474894
O O1 0.656151 0.826318 0.275324
O O2 0.567567 0.907036 0.313288
O O3 0.739599 0.916867 0.299669
O O4 0.500000 0.887428 0.000000
O O5 0.050955 0.741182 0.688944
O O6 0.082191 0.830688 0.827083
O O7 0.985695 0.752789 0.844064
O O8 0.250000 0.750000 0.000000
O O9 0.239832 0.262199 0.715560
O O10 0.212742 0.346887 0.794330
O O11 0.000000 0.324571 0.500000
O O12 0.750000 0.750000 0.500000
O O13 0.079275 0.500000 0.411238
O O14 0.228477 0.427153 0.654101
O O15 0.000000 0.435729 0.500000
O O16 0.599914 0.360268 0.187750
O O17 0.609479 0.412051 0.991201
O O18 0.571234 0.590270 0.361436
O O19 0.500000 0.558314 0.500000
O O20 0.346932 0.500000 0.482809
#
# Coordination Sequence:
#
# PCOD9221787 Si02
#       8
#     8   8   8   8   8   8   8   8
#     4  12  29  48  77 111 151 198 253 318 383 459
#     4  12  26  41  67 102 148 196 235 296 368 442
#     4  12  25  40  68 101 143 197 239 293 368 440
#     4  12  26  46  66 103 146 193 251 301 360 455
#     4  11  26  48  75 106 143 190 251 317 386 457
#     4  11  23  43  71 105 144 186 241 308 363 445
#     4  11  24  43  72 105 143 188 246 304 367 449
#     4  11  27  50  75 103 142 191 246 312 386 453
#
# _framework density 22.30667
#
# number of rings (size 3 to 8) (size 9 to 14) (size 15 to 20)
#    0.000    0.500    5.000    2.250    5.250    2.500 
#    0.000    3.750    0.000    0.000    0.000    0.000 
#    0.000    0.000    0.000    0.000    0.000    0.000 
#
# Total GULP energy -178263.589797 kJ/mol
# GULP energy per Si atom -5570.737181 kJ/mol
# Density = 2.225590 g / cm^3
# Si number density = 22.306670 Si / 1000 Ang^3
#
#
#
# Elastic Constant Matrix: (Units=GPa)
#
#
# Indices 1 2 3 4 5 6 
#
# 1 93.5855 12.6698 22.6539 0.0000 22.3423 0.0000
# 2 12.6698 123.3258 53.0312 0.0000 13.8912 0.0000
# 3 22.6539 53.0312 149.0404 0.0000 14.1222 0.0000
# 4 0.0000 0.0000 0.0000 6.9999 0.0000 10.9332
# 5 22.3423 13.8912 14.1222 0.0000 36.2506 0.0000
# 6 0.0000 0.0000 0.0000 10.9332 0.0000 2.1824
#
#
#
# Elastic Compliance Matrix: (Units=1/GPa)
#
#
# Indices 1 2 3 4 5 6 
#
# 1 0.012746 0.000065 -0.001260 0.000000 -0.007390 0.000000
# 2 0.000065 0.009785 -0.003252 0.000000 -0.002522 0.000000
# 3 -0.001260 -0.003252 0.008168 0.000000 -0.001159 0.000000
# 4 0.000000 0.000000 0.000000 -0.020933 0.000000 0.104866
# 5 -0.007390 -0.002522 -0.001159 0.000000 0.033558 0.000000
# 6 0.000000 0.000000 0.000000 0.104866 0.000000 -0.067140
#
#
# Mechanical properties :
#
#
# Convention : Reuss Voigt Hill
#
# Bulk Modulus (GPa) = 45.86501 60.29571 53.08036
# Shear Modulus (GPa) = -653.39472 27.59304 -312.90084
#
# Velocity S-wave (km/s) = -17.13331 3.52090 -11.85651
# Velocity P-wave (km/s) = 19.25603 6.60439 12.79017
#
# Compressibility (1/GPa) = 0.02180311
#
# Stress axis : x y z
#
# Youngs Moduli (GPa) = 78.45686 102.20130 122.42556
#
# Poissons Ratio (x) = -0.00662 0.15428
# Poissons Ratio (y) = -0.00509 0.39818
# Poissons Ratio (z) = 0.09887 0.33240
#
# Static dielectric constant tensor:
#      x y z
#    x 2.025840 0.000000 -0.084150 
#    y 0.000000 1.804580 0.000000 
#    z -0.084150 0.000000 2.023350 
# 
# From -- ./inp_files/149791.got.cif
#   From: 2010.05.17/outbox.cif.g08.bks.cpg/sg12_75_cif.got.tgz:149791.got - 2010.06.03 13:09:07.
