data_PCOD9221277
_publ_section_title
;
Structure prediction by ZEFSAII (Michael W. Deem and Ramdas Pophale) SiO2 
 PCOD9221277
Probable space group: C 2/M
;
_chemical_formula_sum "Si O2"
_cell_formula_units_Z 32
_cell_length_a 29.087143
_cell_length_b 7.673284
_cell_length_c 19.300784
_cell_angle_alpha 90.000000
_cell_angle_beta 161.099500
_cell_angle_gamma 90.000000
_cell_volume 1395.412665
_symmetry_space_group_name_H-M "C 2/M"
_symmetry_group_IT_number 12
_symmetry_cell_setting 'monoclinic'
loop_
_space_group_symop_operation_xyz
x,y,z
-x,y,-z
-x,-y,-z
x,-y,z
1/2+x,1/2+y,z
1/2-x,1/2+y,-z
1/2-x,1/2-y,-z
1/2+x,1/2-y,z
loop_
_atom_site_type_symbol
_atom_site_label
_atom_site_fract_x
_atom_site_fract_y
_atom_site_fract_z
Si Si1 0.853148 0.714456 0.003663
Si Si2 0.192498 0.792189 0.636842
Si Si3 0.827468 0.705796 0.539493
Si Si4 0.583810 0.296749 0.693703
O O1 0.852100 0.500000 0.004162
O O2 0.012896 0.779901 0.236592
O O3 0.790616 0.768307 0.839660
O O4 0.739814 0.776087 0.899932
O O5 0.248048 0.758717 0.639388
O O6 0.032160 0.718320 0.419368
O O7 0.180789 0.000000 0.628835
O O8 0.841019 0.500000 0.557212
O O9 0.750000 0.750000 0.500000
O O10 0.500000 0.291842 0.500000
O O11 0.604144 0.500000 0.740264
#
# Coordination Sequence:
#
# PCOD9221277 Si02
#       4
#     8   8   8   8
#     4   8  16  32  54  77 102 134 166 198 244 304
#     4   9  17  33  57  80 101 128 164 205 249 298
#     4  11  23  37  51  71 101 135 174 213 248 291
#     4   7  11  24  50  80 102 123 158 199 240 297
#
# _framework density 22.932285
#
# number of rings (size 3 to 8) (size 9 to 14) (size 15 to 20)
#    0.000    3.250    0.000    3.750    0.000    2.000 
#    0.000    7.500    0.000    8.250    0.000    0.000 
#    0.000    0.000    0.000    0.000    0.000    0.000 
#
# Total GULP energy -89268.322531 kJ/mol
# GULP energy per Si atom -5579.270158 kJ/mol
# Density = 2.288009 g / cm^3
# Si number density = 22.932285 Si / 1000 Ang^3
#
#
#
# Elastic Constant Matrix: (Units=GPa)
#
#
# Indices 1 2 3 4 5 6 
#
# 1 121.7091 -4.2042 19.7554 0.0000 -26.6687 0.0000
# 2 -4.2042 43.8414 2.8670 0.0000 0.8967 0.0000
# 3 19.7554 2.8670 52.5742 0.0000 -1.5408 0.0000
# 4 0.0000 0.0000 0.0000 9.3887 0.0000 -2.6926
# 5 -26.6687 0.8967 -1.5408 0.0000 24.3058 0.0000
# 6 0.0000 0.0000 0.0000 -2.6926 0.0000 16.0085
#
#
#
# Elastic Compliance Matrix: (Units=1/GPa)
#
#
# Indices 1 2 3 4 5 6 
#
# 1 0.011652 0.001128 -0.004074 0.000000 0.012485 0.000000
# 2 0.001128 0.023021 -0.001671 0.000000 0.000283 0.000000
# 3 -0.004074 -0.001671 0.020552 0.000000 -0.003106 0.000000
# 4 0.000000 0.000000 0.000000 0.111909 0.000000 0.018823
# 5 0.012485 0.000283 -0.003106 0.000000 0.054634 0.000000
# 6 0.000000 0.000000 0.000000 0.018823 0.000000 0.065633
#
#
# Mechanical properties :
#
#
# Convention : Reuss Voigt Hill
#
# Bulk Modulus (GPa) = 21.74309 28.32902 25.03606
# Shear Modulus (GPa) = 16.02742 23.25437 19.64090
#
# Velocity S-wave (km/s) = 2.64654 3.18786 2.92973
# Velocity P-wave (km/s) = 4.34062 5.09216 4.73133
#
# Compressibility (1/GPa) = 0.04599162
#
# Stress axis : x y z
#
# Youngs Moduli (GPa) = 85.81971 43.43824 48.65769
#
# Poissons Ratio (x) = -0.04902 0.19824
# Poissons Ratio (y) = -0.09685 0.08132
# Poissons Ratio (z) = 0.34964 0.07259
#
# Static dielectric constant tensor:
#      x y z
#    x 1.553030 0.000000 0.076560 
#    y 0.000000 1.877240 0.000000 
#    z 0.076560 0.000000 1.888850 
# 
# From -- ./inp_files/179486.got.cif
#   From: 2010.05.17/outbox.cif.g08.bks.cpg/sg12_90_cif.got.tgz:179486.got - 2010.06.03 13:09:07.
