data_PCOD9221194
_publ_section_title
;
Structure prediction by ZEFSAII (Michael W. Deem and Ramdas Pophale) SiO2 
 PCOD9221194
Probable space group: C 2/M
;
_chemical_formula_sum "Si O2"
_cell_formula_units_Z 48
_cell_length_a 8.694105
_cell_length_b 23.344621
_cell_length_c 11.207577
_cell_angle_alpha 90.000000
_cell_angle_beta 87.065750
_cell_angle_gamma 90.000000
_cell_volume 2271.714124
_symmetry_space_group_name_H-M "C 2/M"
_symmetry_group_IT_number 12
_symmetry_cell_setting 'monoclinic'
loop_
_space_group_symop_operation_xyz
x,y,z
-x,y,-z
-x,-y,-z
x,-y,z
1/2+x,1/2+y,z
1/2-x,1/2+y,-z
1/2-x,1/2-y,-z
1/2+x,1/2-y,z
loop_
_atom_site_type_symbol
_atom_site_label
_atom_site_fract_x
_atom_site_fract_y
_atom_site_fract_z
Si Si1 0.784710 0.630314 0.734681
Si Si2 0.489766 0.217387 0.859828
Si Si3 0.489593 0.432296 0.856697
Si Si4 0.173156 0.177262 0.234006
Si Si5 0.069119 0.437934 0.629662
Si Si6 0.665555 0.639754 0.477805
O O1 0.648246 0.592149 0.793945
O O2 0.732169 0.652586 0.605498
O O3 0.845865 0.681359 0.813920
O O4 0.935753 0.591304 0.710333
O O5 0.651867 0.196191 0.799006
O O6 0.447906 0.282483 0.830045
O O7 0.500000 0.209739 0.000000
O O8 0.467075 0.500000 0.827348
O O9 0.363441 0.387119 0.811712
O O10 0.500000 0.428362 0.000000
O O11 0.139235 0.187213 0.376971
O O12 0.110076 0.500000 0.676502
O O13 0.214945 0.399408 0.597268
O O14 0.000000 0.443942 0.500000
O O15 0.500000 0.610448 0.500000
#
# Coordination Sequence:
#
# PCOD9221194 Si02
#       6
#     8   8   8   8   8   8
#     4  11  22  44  67 101 138 177 226 278 346 405
#     4  12  26  46  74  98 134 183 228 283 335 406
#     4  11  24  44  70 100 139 183 230 284 335 399
#     4  12  25  46  67 103 135 178 231 279 342 410
#     4   9  19  37  63  95 134 178 224 272 331 404
#     4  11  23  42  64  97 139 177 222 278 348 402
#
# _framework density 21.129418999999999
#
# number of rings (size 3 to 8) (size 9 to 14) (size 15 to 20)
#    0.000    1.000    3.333    3.500    0.000    2.333 
#    0.000    0.000    0.000    3.500    0.000    0.000 
#    0.000    0.000    0.000    0.000    0.000    0.000 
#
# Total GULP energy -133988.965037 kJ/mol
# GULP energy per Si atom -5582.873543 kJ/mol
# Density = 2.108133 g / cm^3
# Si number density = 21.129419 Si / 1000 Ang^3
#
#
#
# Elastic Constant Matrix: (Units=GPa)
#
#
# Indices 1 2 3 4 5 6 
#
# 1 115.2198 34.3989 32.5316 0.0000 4.1400 0.0000
# 2 34.3989 102.7098 37.5969 0.0000 16.9257 0.0000
# 3 32.5316 37.5969 128.2309 0.0000 23.8455 0.0000
# 4 0.0000 0.0000 0.0000 31.2463 0.0000 -3.4089
# 5 4.1400 16.9257 23.8455 0.0000 45.9533 0.0000
# 6 0.0000 0.0000 0.0000 -3.4089 0.0000 16.9771
#
#
#
# Elastic Compliance Matrix: (Units=1/GPa)
#
#
# Indices 1 2 3 4 5 6 
#
# 1 0.010030 -0.002843 -0.001923 0.000000 0.001142 0.000000
# 2 -0.002843 0.012003 -0.002240 0.000000 -0.003003 0.000000
# 3 -0.001923 -0.002240 0.009693 0.000000 -0.004031 0.000000
# 4 0.000000 0.000000 0.000000 0.032721 0.000000 0.006570
# 5 0.001142 -0.003003 -0.004031 0.000000 0.024856 0.000000
# 6 0.000000 0.000000 0.000000 0.006570 0.000000 0.060222
#
#
# Mechanical properties :
#
#
# Convention : Reuss Voigt Hill
#
# Bulk Modulus (GPa) = 56.45399 61.69060 59.07230
# Shear Modulus (GPa) = 29.50880 34.94421 32.22651
#
# Velocity S-wave (km/s) = 3.74113 4.07113 3.90961
# Velocity P-wave (km/s) = 6.74074 7.16650 6.95688
#
# Compressibility (1/GPa) = 0.01771354
#
# Stress axis : x y z
#
# Youngs Moduli (GPa) = 99.70180 83.31226 103.17105
#
# Poissons Ratio (x) = 0.23688 0.19842
# Poissons Ratio (y) = 0.28348 0.23106
# Poissons Ratio (z) = 0.19175 0.18658
#
# Static dielectric constant tensor:
#      x y z
#    x 1.834920 0.000000 0.070000 
#    y 0.000000 1.842390 0.000000 
#    z 0.070000 0.000000 1.815600 
# 
# From -- ./inp_files/122426.got.cif
#   From: 2010.05.17/outbox.cif.g08.bks.cpg/sg12_62_cif.got.tgz:122426.got - 2010.06.03 13:09:07.
