data_PCOD9221179
_publ_section_title
;
Structure prediction by ZEFSAII (Michael W. Deem and Ramdas Pophale) SiO2 
 PCOD9221179
Probable space group: C 2/M
;
_chemical_formula_sum "Si O2"
_cell_formula_units_Z 40
_cell_length_a 18.495819
_cell_length_b 18.254227
_cell_length_c 8.790575
_cell_angle_alpha 90.000000
_cell_angle_beta 43.921437
_cell_angle_gamma 90.000000
_cell_volume 2058.771124
_symmetry_space_group_name_H-M "C 2/M"
_symmetry_group_IT_number 12
_symmetry_cell_setting 'monoclinic'
loop_
_space_group_symop_operation_xyz
x,y,z
-x,y,-z
-x,-y,-z
x,-y,z
1/2+x,1/2+y,z
1/2-x,1/2+y,-z
1/2-x,1/2-y,-z
1/2+x,1/2-y,z
loop_
_atom_site_type_symbol
_atom_site_label
_atom_site_fract_x
_atom_site_fract_y
_atom_site_fract_z
Si Si1 0.531732 0.159353 0.676148
Si Si2 0.429551 0.000000 0.257527
Si Si3 0.678444 0.184837 0.174928
Si Si4 0.994353 0.000000 0.328713
Si Si5 0.190769 0.000000 0.604066
Si Si6 0.500000 0.257825 0.000000
Si Si7 0.134156 0.115865 0.945671
O O1 0.605333 0.194894 0.435110
O O2 0.409710 0.164476 0.814589
O O3 0.551776 0.204827 0.798177
O O4 0.554069 0.073734 0.669577
O O5 0.310804 0.000000 0.384749
O O6 0.500000 0.000000 0.000000
O O7 0.764100 0.127171 0.104813
O O8 0.750000 0.250000 0.000000
O O9 0.000000 0.000000 0.500000
O O10 0.878211 0.000000 0.440983
O O11 0.051636 0.929918 0.168888
O O12 0.162539 0.931068 0.753765
O O13 0.581446 0.309698 0.965692
#
# Coordination Sequence:
#
# PCOD9221179 Si02
#       7
#     8   4   8   4   4   4   8
#     4  11  26  43  69 100 138 183 230 286 340 407
#     4  12  25  45  68  99 135 177 241 272 333 418
#     4  11  24  44  67 101 136 178 226 281 347 405
#     4  11  25  42  67 107 130 169 229 279 339 400
#     4  11  22  46  71  98 131 184 220 278 338 404
#     4  12  22  44  70 100 136 176 232 286 338 408
#     4  11  22  43  71  95 135 180 220 277 348 407
#
# _framework density 19.429065999999999
#
# number of rings (size 3 to 8) (size 9 to 14) (size 15 to 20)
#    0.000    0.800    7.000    0.600    0.000    7.200 
#    3.600    0.000    0.000    0.000    0.000    0.000 
#    0.000    0.000    0.000    0.000    0.000    0.000 
#
# Total GULP energy -111639.923161 kJ/mol
# GULP energy per Si atom -5581.996158 kJ/mol
# Density = 1.938484 g / cm^3
# Si number density = 19.429066 Si / 1000 Ang^3
#
#
#
# Elastic Constant Matrix: (Units=GPa)
#
#
# Indices 1 2 3 4 5 6 
#
# 1 143.8556 48.6873 63.0337 0.0000 -18.9004 0.0000
# 2 48.6873 111.9057 47.8490 0.0000 2.2824 0.0000
# 3 63.0337 47.8490 117.7263 0.0000 -4.1488 0.0000
# 4 0.0000 0.0000 0.0000 -1.7354 0.0000 -21.1588
# 5 -18.9004 2.2824 -4.1488 0.0000 44.7860 0.0000
# 6 0.0000 0.0000 0.0000 -21.1588 0.0000 14.7753
#
#
#
# Elastic Compliance Matrix: (Units=1/GPa)
#
#
# Indices 1 2 3 4 5 6 
#
# 1 0.010274 -0.002739 -0.004244 0.000000 0.004082 0.000000
# 2 -0.002739 0.011587 -0.003316 0.000000 -0.002053 0.000000
# 3 -0.004244 -0.003316 0.012097 0.000000 -0.000502 0.000000
# 4 0.000000 0.000000 0.000000 -0.031215 0.000000 -0.044701
# 5 0.004082 -0.002053 -0.000502 0.000000 0.024109 0.000000
# 6 0.000000 0.000000 0.000000 -0.044701 0.000000 0.003666
#
#
# Mechanical properties :
#
#
# Convention : Reuss Voigt Hill
#
# Bulk Modulus (GPa) = 74.84241 76.95861 75.90051
# Shear Modulus (GPa) = 89.97763 25.82634 57.90199
#
# Velocity S-wave (km/s) = 6.81259 3.64986 5.46502
# Velocity P-wave (km/s) = 10.02429 7.58011 8.88663
#
# Compressibility (1/GPa) = 0.01336141
#
# Stress axis : x y z
#
# Youngs Moduli (GPa) = 97.32990 86.30244 82.66762
#
# Poissons Ratio (x) = 0.23635 0.35086
# Poissons Ratio (y) = 0.26655 0.27409
# Poissons Ratio (z) = 0.41309 0.28614
#
# Static dielectric constant tensor:
#      x y z
#    x 1.676630 0.000000 -0.012200 
#    y 0.000000 1.686990 0.000000 
#    z -0.012200 0.000000 1.673220 
# 
# From -- ./inp_files/48866.got.cif
#   From: 2010.05.17/outbox.cif.g08.bks.cpg/sg12_25_cif.got.tgz:48866.got - 2010.06.03 13:09:07.
