data_PCOD9221079
_publ_section_title
;
Structure prediction by ZEFSAII (Michael W. Deem and Ramdas Pophale) SiO2 
 PCOD9221079
Probable space group: C 2/M
;
_chemical_formula_sum "Si O2"
_cell_formula_units_Z 40
_cell_length_a 11.678716
_cell_length_b 28.417646
_cell_length_c 5.410631
_cell_angle_alpha 90.000000
_cell_angle_beta 72.990010
_cell_angle_gamma 90.000000
_cell_volume 1717.134332
_symmetry_space_group_name_H-M "C 2/M"
_symmetry_group_IT_number 12
_symmetry_cell_setting 'monoclinic'
loop_
_space_group_symop_operation_xyz
x,y,z
-x,y,-z
-x,-y,-z
x,-y,z
1/2+x,1/2+y,z
1/2-x,1/2+y,-z
1/2-x,1/2-y,-z
1/2+x,1/2-y,z
loop_
_atom_site_type_symbol
_atom_site_label
_atom_site_fract_x
_atom_site_fract_y
_atom_site_fract_z
Si Si1 0.000000 0.420472 0.000000
Si Si2 0.736017 0.174592 0.448212
Si Si3 0.935304 0.895999 0.290585
Si Si4 0.146039 0.000000 0.656950
Si Si5 0.857163 0.740583 0.124168
Si Si6 0.500000 0.860885 0.500000
Si Si7 0.697889 0.000000 0.940968
O O1 0.021623 0.391794 0.732206
O O2 0.113370 0.454257 0.979756
O O3 0.803238 0.125561 0.385272
O O4 0.830479 0.215410 0.325356
O O5 0.681230 0.190427 0.741486
O O6 0.615208 0.171061 0.365200
O O7 0.000000 0.880146 0.500000
O O8 0.929586 0.952267 0.289981
O O9 0.000000 0.879458 0.000000
O O10 0.219195 0.000000 0.354200
O O11 0.229366 0.000000 0.848532
O O12 0.750000 0.750000 0.000000
O O13 0.000000 0.740992 0.000000
#
# Coordination Sequence:
#
# PCOD9221079 Si02
#       7
#     4   8   8   4   8   4   4
#     4  11  24  40  68 102 152 186 264 296 384 447
#     4  11  27  44  73 108 147 192 254 310 385 461
#     4  12  27  46  74 108 148 202 252 313 377 452
#     4  12  24  46  70 103 152 194 257 309 378 447
#     4  11  26  48  77 108 152 198 256 320 389 467
#     4  12  26  45  70 110 142 198 236 321 374 460
#     4  11  22  41  68 103 140 205 240 321 366 443
#
# _framework density 23.294623999999999
#
# number of rings (size 3 to 8) (size 9 to 14) (size 15 to 20)
#    0.000    0.600    0.000    7.200    9.800    3.200 
#    0.000    0.000    0.000    0.000    0.000    0.000 
#    0.000    0.000    0.000    0.000    0.000    0.000 
#
# Total GULP energy -111801.112591 kJ/mol
# GULP energy per Si atom -5590.055630 kJ/mol
# Density = 2.324160 g / cm^3
# Si number density = 23.294624 Si / 1000 Ang^3
#
#
#
# Elastic Constant Matrix: (Units=GPa)
#
#
# Indices 1 2 3 4 5 6 
#
# 1 151.8657 17.3062 73.2511 0.0000 -11.4658 0.0000
# 2 17.3062 72.2072 34.7883 0.0000 -13.7293 0.0000
# 3 73.2511 34.7883 158.0225 0.0000 -3.4340 0.0000
# 4 0.0000 0.0000 0.0000 153.3086 0.0000 -13.5190
# 5 -11.4658 -13.7293 -3.4340 0.0000 51.8495 0.0000
# 6 0.0000 0.0000 0.0000 -13.5190 0.0000 11.8522
#
#
#
# Elastic Compliance Matrix: (Units=1/GPa)
#
#
# Indices 1 2 3 4 5 6 
#
# 1 0.008621 0.000182 -0.003999 0.000000 0.001690 0.000000
# 2 0.000182 0.016318 -0.003587 0.000000 0.004123 0.000000
# 3 -0.003999 -0.003587 0.008945 0.000000 -0.001242 0.000000
# 4 0.000000 0.000000 0.000000 0.007252 0.000000 0.008272
# 5 0.001690 0.004123 -0.001242 0.000000 0.020670 0.000000
# 6 0.000000 0.000000 0.000000 0.008272 0.000000 0.093808
#
#
# Mechanical properties :
#
#
# Convention : Reuss Voigt Hill
#
# Bulk Modulus (GPa) = 52.42703 70.30963 61.36833
# Shear Modulus (GPa) = 28.28362 60.51869 44.40116
#
# Velocity S-wave (km/s) = 3.48827 5.10256 4.37059
# Velocity P-wave (km/s) = 6.22728 8.05997 7.20215
#
# Compressibility (1/GPa) = 0.01907413
#
# Stress axis : x y z
#
# Youngs Moduli (GPa) = 115.99980 61.28348 111.79616
#
# Poissons Ratio (x) = -0.01115 0.44712
# Poissons Ratio (y) = -0.02111 0.40102
# Poissons Ratio (z) = 0.46394 0.21983
#
# Static dielectric constant tensor:
#      x y z
#    x 1.610490 0.000000 -0.117940 
#    y 0.000000 1.905300 0.000000 
#    z -0.117940 0.000000 1.878490 
# 
# From -- ./inp_files/8389.got.cif
#   From: 2010.05.17/outbox.cif.g08.bks.cpg/sg12_5_cif.got.tgz:8389.got - 2010.06.03 13:09:07.
