data_PCOD9221466
_publ_section_title
;
Structure prediction by ZEFSAII (Michael W. Deem and Ramdas Pophale) SiO2 
 PCOD9221466
Probable space group: C 2/M
;
_chemical_formula_sum "Si O2"
_cell_formula_units_Z 32
_cell_length_a 4.960487
_cell_length_b 23.495249
_cell_length_c 11.062443
_cell_angle_alpha 90.000000
_cell_angle_beta 96.775385
_cell_angle_gamma 90.000000
_cell_volume 1280.300114
_symmetry_space_group_name_H-M "C 2/M"
_symmetry_group_IT_number 12
_symmetry_cell_setting 'monoclinic'
loop_
_space_group_symop_operation_xyz
x,y,z
-x,y,-z
-x,-y,-z
x,-y,z
1/2+x,1/2+y,z
1/2-x,1/2+y,-z
1/2-x,1/2-y,-z
1/2+x,1/2-y,z
loop_
_atom_site_type_symbol
_atom_site_label
_atom_site_fract_x
_atom_site_fract_y
_atom_site_fract_z
Si Si1 0.209803 0.215280 0.651576
Si Si2 0.284259 0.329031 0.080561
Si Si3 0.109770 0.409263 0.379146
Si Si4 0.440962 0.436022 0.779603
O O1 0.399498 0.266992 0.621070
O O2 0.252281 0.205114 0.797318
O O3 0.301481 0.156157 0.599428
O O4 0.418351 0.389104 0.128801
O O5 0.500000 0.301495 0.000000
O O6 0.000000 0.338071 0.000000
O O7 0.858249 0.415068 0.273398
O O8 0.000000 0.432267 0.500000
O O9 0.371405 0.436861 0.330857
O O10 0.427522 0.500000 0.828480
#
# Coordination Sequence:
#
# PCOD9221466 Si02
#       4
#     8   8   8   8
#     4  11  23  40  62  90 123 160 204 251 301 360
#     4  11  23  40  62  90 125 162 204 251 301 360
#     4  11  24  42  64  92 125 160 203 253 303 362
#     4  11  24  42  64  92 125 160 203 253 303 362
#
# _framework density 24.994140000000002
#
# number of rings (size 3 to 8) (size 9 to 14) (size 15 to 20)
#    0.000    1.000    0.000    9.000    0.000    8.000 
#    0.000    0.000    0.000    0.000    0.000    0.000 
#    0.000    0.000    0.000    0.000    0.000    0.000 
#
# Total GULP energy -89759.393934 kJ/mol
# GULP energy per Si atom -5609.962121 kJ/mol
# Density = 2.493725 g / cm^3
# Si number density = 24.994140 Si / 1000 Ang^3
#
#
#
# Elastic Constant Matrix: (Units=GPa)
#
#
# Indices 1 2 3 4 5 6 
#
# 1 151.7365 35.6951 15.8211 0.0000 16.6086 0.0000
# 2 35.6951 134.2468 10.0467 0.0000 8.8066 0.0000
# 3 15.8211 10.0467 89.5666 0.0000 -10.0158 0.0000
# 4 0.0000 0.0000 0.0000 2.4892 0.0000 -2.2548
# 5 16.6086 8.8066 -10.0158 0.0000 58.0866 0.0000
# 6 0.0000 0.0000 0.0000 -2.2548 0.0000 76.1781
#
#
#
# Elastic Compliance Matrix: (Units=1/GPa)
#
#
# Indices 1 2 3 4 5 6 
#
# 1 0.007362 -0.001721 -0.001339 0.000000 -0.002075 0.000000
# 2 -0.001721 0.008013 -0.000689 0.000000 -0.000842 0.000000
# 3 -0.001339 -0.000689 0.011760 0.000000 0.002515 0.000000
# 4 0.000000 0.000000 0.000000 0.412799 0.000000 0.012218
# 5 -0.002075 -0.000842 0.002515 0.000000 0.018370 0.000000
# 6 0.000000 0.000000 0.000000 0.012218 0.000000 0.013489
#
#
# Mechanical properties :
#
#
# Convention : Reuss Voigt Hill
#
# Bulk Modulus (GPa) = 50.92579 55.40841 53.16710
# Shear Modulus (GPa) = 10.29149 48.28324 29.28736
#
# Velocity S-wave (km/s) = 2.03138 4.39997 3.42683
# Velocity P-wave (km/s) = 5.09130 6.93035 6.08075
#
# Compressibility (1/GPa) = 0.01963642
#
# Stress axis : x y z
#
# Youngs Moduli (GPa) = 135.83183 124.79136 85.03386
#
# Poissons Ratio (x) = 0.21478 0.11390
# Poissons Ratio (y) = 0.23379 0.05858
# Poissons Ratio (z) = 0.18194 0.08597
#
# Static dielectric constant tensor:
#      x y z
#    x 1.874510 0.000000 -0.014730 
#    y 0.000000 1.983870 0.000000 
#    z -0.014730 0.000000 2.036920 
# 
# From -- ./inp_files/114511.got.cif
#   From: 2010.05.17/outbox.cif.g08.bks.cpg/sg12_58_cif.got.tgz:114511.got - 2010.06.03 13:09:07.
