data_PCOD9221501
_publ_section_title
;
Structure prediction by ZEFSAII (Michael W. Deem and Ramdas Pophale) SiO2 
 PCOD9221501
Probable space group: C 2/M
;
_chemical_formula_sum "Si O2"
_cell_formula_units_Z 58
_cell_length_a 21.042820
_cell_length_b 8.015304
_cell_length_c 16.076780
_cell_angle_alpha 90.000000
_cell_angle_beta 91.540472
_cell_angle_gamma 90.000000
_cell_volume 2710.603650
_symmetry_space_group_name_H-M "C 2/M"
_symmetry_group_IT_number 12
_symmetry_cell_setting 'monoclinic'
loop_
_space_group_symop_operation_xyz
x,y,z
-x,y,-z
-x,-y,-z
x,-y,z
1/2+x,1/2+y,z
1/2-x,1/2+y,-z
1/2-x,1/2-y,-z
1/2+x,1/2-y,z
loop_
_atom_site_type_symbol
_atom_site_label
_atom_site_fract_x
_atom_site_fract_y
_atom_site_fract_z
Si Si1 0.220818 0.805812 0.912405
Si Si2 0.500000 0.000000 0.000000
Si Si3 0.613728 0.308016 0.669800
Si Si4 0.574064 0.313294 0.948792
Si Si5 0.490615 0.186139 0.208891
Si Si6 0.613659 0.303373 0.309141
Si Si7 0.573669 0.800144 0.489686
Si Si8 0.751701 0.692160 0.262744
O O1 0.144954 0.787989 0.916519
O O2 0.247479 0.702065 0.836681
O O3 0.234937 0.000000 0.897182
O O4 0.250000 0.750000 0.000000
O O5 0.554451 0.152788 0.001668
O O6 0.593912 0.500000 0.678545
O O7 0.563547 0.201850 0.722215
O O8 0.609757 0.256761 0.573581
O O9 0.685145 0.284812 0.704544
O O10 0.571638 0.500000 0.986923
O O11 0.528650 0.306891 0.866130
O O12 0.557986 0.218174 0.253847
O O13 0.489249 0.000000 0.169721
O O14 0.612091 0.500000 0.289182
O O15 0.598669 0.277637 0.405564
O O16 0.684447 0.239839 0.292291
O O17 0.500000 0.752757 0.500000
O O18 0.577063 0.000000 0.482242
O O19 0.757507 0.500000 0.290702
#
# Coordination Sequence:
#
# PCOD9221501 Si02
#       8
#     8   2   8   8   8   8   8   8
#     4  11  25  44  72 100 134 179 228 283 342 414
#     4  12  26  44  72 102 136 182 218 294 350 402
#     4  12  24  40  69  99 131 179 228 279 338 408
#     4  11  25  46  70 104 140 179 233 285 343 419
#     4  12  23  41  69  99 134 182 229 278 342 410
#     4  11  25  43  66 100 139 178 223 287 345 401
#     4  11  23  40  65  99 133 177 228 279 337 409
#     4  11  25  45  69  98 136 176 225 279 339 410
#
# _framework density 21.397448000000001
#
# number of rings (size 3 to 8) (size 9 to 14) (size 15 to 20)
#    0.000    0.690    3.448    4.345    1.931    4.414 
#    0.000    1.379    0.000    0.000    0.000    0.000 
#    0.000    0.000    0.000    0.000    0.000    0.000 
#
# Total GULP energy -162027.992884 kJ/mol
# GULP energy per Si atom -5587.172168 kJ/mol
# Density = 2.134875 g / cm^3
# Si number density = 21.397448 Si / 1000 Ang^3
#
#
#
# Elastic Constant Matrix: (Units=GPa)
#
#
# Indices 1 2 3 4 5 6 
#
# 1 106.5923 16.5661 29.6713 0.0000 -12.0269 0.0000
# 2 16.5661 102.6532 -8.2574 0.0000 -7.7892 0.0000
# 3 29.6713 -8.2574 64.4544 0.0000 10.2273 0.0000
# 4 0.0000 0.0000 0.0000 28.2938 0.0000 -5.0369
# 5 -12.0269 -7.7892 10.2273 0.0000 36.4289 0.0000
# 6 0.0000 0.0000 0.0000 -5.0369 0.0000 27.6955
#
#
#
# Elastic Compliance Matrix: (Units=1/GPa)
#
#
# Indices 1 2 3 4 5 6 
#
# 1 0.012207 -0.002098 -0.006757 0.000000 0.005479 0.000000
# 2 -0.002098 0.010322 0.002143 0.000000 0.000913 0.000000
# 3 -0.006757 0.002143 0.020076 0.000000 -0.007409 0.000000
# 4 0.000000 0.000000 0.000000 0.036526 0.000000 0.006643
# 5 0.005479 0.000913 -0.007409 0.000000 0.031535 0.000000
# 6 0.000000 0.000000 0.000000 0.006643 0.000000 0.037315
#
#
# Mechanical properties :
#
#
# Convention : Reuss Voigt Hill
#
# Bulk Modulus (GPa) = 34.26965 38.85109 36.56037
# Shear Modulus (GPa) = 29.21748 34.19830 31.70789
#
# Velocity S-wave (km/s) = 3.69923 4.00214 3.85366
# Velocity P-wave (km/s) = 5.85630 6.28907 6.07654
#
# Compressibility (1/GPa) = 0.02918034
#
# Stress axis : x y z
#
# Youngs Moduli (GPa) = 81.92216 96.88302 49.81141
#
# Poissons Ratio (x) = 0.20324 0.33659
# Poissons Ratio (y) = 0.17185 -0.10676
# Poissons Ratio (z) = 0.55358 -0.20764
#
# Static dielectric constant tensor:
#      x y z
#    x 1.762820 0.000000 -0.022530 
#    y 0.000000 1.759870 0.000000 
#    z -0.022530 0.000000 1.901730 
# 
# From -- ./inp_files/275453.got.cif
#   From: 2010.05.17/outbox.cif.g08.bks.cpg/sg12_138_cif.got.tgz:275453.got - 2010.06.03 13:09:07.
