data_PCOD9221969
_publ_section_title
;
Structure prediction by ZEFSAII (Michael W. Deem and Ramdas Pophale) SiO2 
 PCOD9221969
Probable space group: C 2/M
;
_chemical_formula_sum "Si O2"
_cell_formula_units_Z 64
_cell_length_a 11.678442
_cell_length_b 26.680302
_cell_length_c 15.133297
_cell_angle_alpha 90.000000
_cell_angle_beta 40.352176
_cell_angle_gamma 90.000000
_cell_volume 3053.080573
_symmetry_space_group_name_H-M "C 2/M"
_symmetry_group_IT_number 12
_symmetry_cell_setting 'monoclinic'
loop_
_space_group_symop_operation_xyz
x,y,z
-x,y,-z
-x,-y,-z
x,-y,z
1/2+x,1/2+y,z
1/2-x,1/2+y,-z
1/2-x,1/2-y,-z
1/2+x,1/2-y,z
loop_
_atom_site_type_symbol
_atom_site_label
_atom_site_fract_x
_atom_site_fract_y
_atom_site_fract_z
Si Si1 0.736128 0.215030 0.122295
Si Si2 0.582266 0.059284 0.548666
Si Si3 0.337342 0.374998 0.663246
Si Si4 0.534607 0.884585 0.210545
Si Si5 0.529064 0.405945 0.721956
Si Si6 0.820549 0.244520 0.656594
Si Si7 0.114780 0.942743 0.015775
Si Si8 0.513661 0.296142 0.177254
O O1 0.597815 0.172747 0.173372
O O2 0.712599 0.219430 0.240624
O O3 0.683896 0.271136 0.122876
O O4 0.917453 0.202406 0.964369
O O5 0.500000 0.067266 0.500000
O O6 0.490117 0.093326 0.676597
O O7 0.786310 0.075650 0.425919
O O8 0.565327 0.000000 0.579789
O O9 0.500000 0.384994 0.500000
O O10 0.149014 0.391010 0.733543
O O11 0.386484 0.401413 0.726785
O O12 0.328539 0.314169 0.677020
O O13 0.703633 0.913867 0.074305
O O14 0.537878 0.349950 0.756554
O O15 0.487639 0.439579 0.831574
O O16 0.645870 0.258580 0.704925
O O17 0.000000 0.256482 0.500000
O O18 0.155776 0.000000 0.968329
O O19 0.000000 0.922189 0.000000
#
# Coordination Sequence:
#
# PCOD9221969 Si02
#       8
#     8   8   8   8   8   8   8   8
#     4  11  24  41  61  99 140 181 229 276 335 408
#     4  11  26  47  72 101 133 173 236 299 352 408
#     4  11  24  46  65 105 149 184 226 281 341 411
#     4  12  24  44  73 102 138 188 226 282 355 409
#     4  12  24  44  73 102 138 188 226 282 355 409
#     4  11  25  39  65  94 139 189 230 284 335 394
#     4  11  26  49  72 101 137 173 232 303 360 410
#     4  11  24  41  61  99 140 181 229 276 335 408
#
# _framework density 20.962433000000001
#
# number of rings (size 3 to 8) (size 9 to 14) (size 15 to 20)
#    0.000    0.750    5.000    1.875    5.250    3.000 
#    2.250    3.750    0.000    0.000    0.000    0.000 
#    0.000    0.000    0.000    0.000    0.000    0.000 
#
# Total GULP energy -178647.321319 kJ/mol
# GULP energy per Si atom -5582.728791 kJ/mol
# Density = 2.091472 g / cm^3
# Si number density = 20.962433 Si / 1000 Ang^3
#
#
#
# Elastic Constant Matrix: (Units=GPa)
#
#
# Indices 1 2 3 4 5 6 
#
# 1 79.5285 19.8167 12.2724 0.0000 -2.4414 0.0000
# 2 19.8167 66.9084 10.6843 0.0000 -5.8030 0.0000
# 3 12.2724 10.6843 86.9691 0.0000 0.9347 0.0000
# 4 0.0000 0.0000 0.0000 52.3295 0.0000 -17.3522
# 5 -2.4414 -5.8030 0.9347 0.0000 32.0819 0.0000
# 6 0.0000 0.0000 0.0000 -17.3522 0.0000 35.5389
#
#
#
# Elastic Compliance Matrix: (Units=1/GPa)
#
#
# Indices 1 2 3 4 5 6 
#
# 1 0.013763 -0.003805 -0.001479 0.000000 0.000402 0.000000
# 2 -0.003805 0.016555 -0.001526 0.000000 0.002749 0.000000
# 3 -0.001479 -0.001526 0.011902 0.000000 -0.000735 0.000000
# 4 0.000000 0.000000 0.000000 0.022801 0.000000 0.011133
# 5 0.000402 0.002749 -0.000735 0.000000 0.031720 0.000000
# 6 0.000000 0.000000 0.000000 0.011133 0.000000 0.033574
#
#
# Mechanical properties :
#
#
# Convention : Reuss Voigt Hill
#
# Bulk Modulus (GPa) = 34.96595 35.43918 35.20256
# Shear Modulus (GPa) = 32.57980 36.69890 34.63935
#
# Velocity S-wave (km/s) = 3.94661 4.18867 4.06944
# Velocity P-wave (km/s) = 6.12243 6.35107 6.23780
#
# Compressibility (1/GPa) = 0.02859925
#
# Stress axis : x y z
#
# Youngs Moduli (GPa) = 72.65942 60.40468 84.01626
#
# Poissons Ratio (x) = 0.22985 0.12426
# Poissons Ratio (y) = 0.27648 0.12824
# Poissons Ratio (z) = 0.10746 0.09220
#
# Static dielectric constant tensor:
#      x y z
#    x 1.872280 0.000000 0.011040 
#    y 0.000000 1.731090 0.000000 
#    z 0.011040 0.000000 1.745580 
# 
# From -- ./inp_files/209379.got.cif
#   From: 2010.05.17/outbox.cif.g08.bks.cpg/sg12_105_cif.got.tgz:209379.got - 2010.06.03 13:09:07.
