data_PCOD9221065
_publ_section_title
;
Structure prediction by ZEFSAII (Michael W. Deem and Ramdas Pophale) SiO2 
 PCOD9221065
Probable space group: C 2/M
;
_chemical_formula_sum "Si O2"
_cell_formula_units_Z 64
_cell_length_a 18.551691
_cell_length_b 28.775966
_cell_length_c 9.511900
_cell_angle_alpha 90.000000
_cell_angle_beta 140.667887
_cell_angle_gamma 90.000000
_cell_volume 3218.421015
_symmetry_space_group_name_H-M "C 2/M"
_symmetry_group_IT_number 12
_symmetry_cell_setting 'monoclinic'
loop_
_space_group_symop_operation_xyz
x,y,z
-x,y,-z
-x,-y,-z
x,-y,z
1/2+x,1/2+y,z
1/2-x,1/2+y,-z
1/2-x,1/2-y,-z
1/2+x,1/2-y,z
loop_
_atom_site_type_symbol
_atom_site_label
_atom_site_fract_x
_atom_site_fract_y
_atom_site_fract_z
Si Si1 0.750102 0.610804 0.959146
Si Si2 0.102665 0.383044 0.268080
Si Si3 0.839003 0.885829 0.486391
Si Si4 0.458384 0.447291 0.273907
Si Si5 0.658789 0.779433 0.454977
Si Si6 0.992406 0.802586 0.820572
Si Si7 0.741932 0.295308 0.086829
Si Si8 0.977516 0.445727 0.299657
O O1 0.691391 0.622554 0.722348
O O2 0.653692 0.584328 0.903681
O O3 0.793645 0.658538 0.093687
O O4 0.852818 0.575581 0.086828
O O5 0.222028 0.399779 0.383775
O O6 0.129878 0.330033 0.352065
O O7 0.063992 0.414418 0.340512
O O8 0.000000 0.384244 0.000000
O O9 0.896561 0.838956 0.629595
O O10 0.936075 0.924654 0.647219
O O11 0.500000 0.447893 0.500000
O O12 0.434325 0.500000 0.195427
O O13 0.750000 0.750000 0.500000
O O14 0.546153 0.748758 0.279189
O O15 0.703256 0.784030 0.680319
O O16 0.000000 0.805589 0.000000
O O17 0.111882 0.809973 0.924188
O O18 0.750000 0.250000 0.000000
O O19 0.983285 0.500000 0.267467
O O20 0.000000 0.442368 0.500000
#
# Coordination Sequence:
#
# PCOD9221065 Si02
#       8
#     8   8   8   8   8   8   8   8
#     4  11  22  42  67  99 135 174 223 277 338 401
#     4  12  25  44  69  98 133 179 227 282 334 410
#     4  11  22  41  67 100 132 172 221 283 338 394
#     4   9  19  36  63  94 125 163 209 267 331 391
#     4  12  25  42  66  95 132 179 224 267 337 402
#     4  12  24  43  67  93 136 179 221 270 335 407
#     4  12  27  41  66 102 133 176 225 284 333 403
#     4  11  26  47  71  99 138 183 227 283 347 409
#
# _framework density 19.885527
#
# number of rings (size 3 to 8) (size 9 to 14) (size 15 to 20)
#    0.000    0.750    5.000    2.250    1.750    2.750 
#    0.000    0.000    0.000    0.375    0.000    0.000 
#    0.000    0.000    0.000    0.000    0.000    0.000 
#
# Total GULP energy -178869.753974 kJ/mol
# GULP energy per Si atom -5589.679812 kJ/mol
# Density = 1.984027 g / cm^3
# Si number density = 19.885527 Si / 1000 Ang^3
#
#
#
# Elastic Constant Matrix: (Units=GPa)
#
#
# Indices 1 2 3 4 5 6 
#
# 1 115.2277 62.6085 35.9599 0.0000 16.3366 0.0000
# 2 62.6085 155.4184 35.3416 0.0000 -5.8367 0.0000
# 3 35.9599 35.3416 74.1269 0.0000 -8.2836 0.0000
# 4 0.0000 0.0000 0.0000 24.7694 0.0000 8.4026
# 5 16.3366 -5.8367 -8.2836 0.0000 32.2513 0.0000
# 6 0.0000 0.0000 0.0000 8.4026 0.0000 26.7395
#
#
#
# Elastic Compliance Matrix: (Units=1/GPa)
#
#
# Indices 1 2 3 4 5 6 
#
# 1 0.014532 -0.004901 -0.005802 0.000000 -0.009738 0.000000
# 2 -0.004901 0.008875 -0.001438 0.000000 0.003719 0.000000
# 3 -0.005802 -0.001438 0.017801 0.000000 0.007251 0.000000
# 4 0.000000 0.000000 0.000000 0.045190 0.000000 -0.014200
# 5 -0.009738 0.003719 0.007251 0.000000 0.038475 0.000000
# 6 0.000000 0.000000 0.000000 -0.014200 0.000000 0.041860
#
#
# Mechanical properties :
#
#
# Convention : Reuss Voigt Hill
#
# Bulk Modulus (GPa) = 59.07714 68.06591 63.57152
# Shear Modulus (GPa) = 25.42498 30.80956 28.11727
#
# Velocity S-wave (km/s) = 3.57959 3.94044 3.76434
# Velocity P-wave (km/s) = 6.84527 7.41660 7.13665
#
# Compressibility (1/GPa) = 0.01692702
#
# Stress axis : x y z
#
# Youngs Moduli (GPa) = 68.81149 112.67345 56.17695
#
# Poissons Ratio (x) = 0.55218 0.32592
# Poissons Ratio (y) = 0.33722 0.08081
# Poissons Ratio (z) = 0.39922 0.16208
#
# Static dielectric constant tensor:
#      x y z
#    x 1.636320 0.000000 0.036970 
#    y 0.000000 1.700390 0.000000 
#    z 0.036970 0.000000 1.681700 
# 
# From -- ./inp_files/80764.got.cif
#   From: 2010.05.17/outbox.cif.g08.bks.cpg/sg12_41_cif.got.tgz:80764.got - 2010.06.03 13:09:07.
