data_PCOD9221262
_publ_section_title
;
Structure prediction by ZEFSAII (Michael W. Deem and Ramdas Pophale) SiO2 
 PCOD9221262
Probable space group: C 2/M
;
_chemical_formula_sum "Si O2"
_cell_formula_units_Z 48
_cell_length_a 24.433034
_cell_length_b 7.421668
_cell_length_c 25.619499
_cell_angle_alpha 90.000000
_cell_angle_beta 22.660621
_cell_angle_gamma 90.000000
_cell_volume 1789.851031
_symmetry_space_group_name_H-M "C 2/M"
_symmetry_group_IT_number 12
_symmetry_cell_setting 'monoclinic'
loop_
_space_group_symop_operation_xyz
x,y,z
-x,y,-z
-x,-y,-z
x,-y,z
1/2+x,1/2+y,z
1/2-x,1/2+y,-z
1/2-x,1/2-y,-z
1/2+x,1/2-y,z
loop_
_atom_site_type_symbol
_atom_site_label
_atom_site_fract_x
_atom_site_fract_y
_atom_site_fract_z
Si Si1 0.561657 0.705689 0.610573
Si Si2 0.656995 0.780273 0.802473
Si Si3 0.167736 0.286239 0.907955
Si Si4 0.392959 0.720788 0.314887
Si Si5 0.664727 0.710890 0.022535
Si Si6 0.073392 0.779299 0.489507
O O1 0.511154 0.500000 0.657078
O O2 0.544180 0.781165 0.683885
O O3 0.733972 0.706515 0.451808
O O4 0.513195 0.786231 0.597822
O O5 0.494806 0.719174 0.942020
O O6 0.764041 0.720710 0.663502
O O7 0.657172 0.000000 0.800568
O O8 0.713871 0.723356 0.809994
O O9 0.161703 0.500000 0.907008
O O10 0.235571 0.259943 0.905088
O O11 0.383804 0.500000 0.323669
O O12 0.505727 0.785631 0.172642
O O13 0.647306 0.500000 0.035250
O O14 0.750000 0.750000 0.000000
O O15 0.000000 0.728003 0.500000
O O16 0.066358 0.000000 0.498202
#
# Coordination Sequence:
#
# PCOD9221262 Si02
#       6
#     8   8   8   8   8   8
#     4   9  17  31  53  77  98 125 163 203 243 290
#     4   8  15  28  48  73  97 125 162 202 244 288
#     4   9  17  32  53  73  95 126 166 208 246 288
#     4   9  19  34  51  73  99 127 161 204 250 291
#     4  11  23  36  50  72 103 136 169 206 251 299
#     4   9  16  25  42  71 101 125 153 192 237 287
#
# _framework density 26.817875000000001
#
# number of rings (size 3 to 8) (size 9 to 14) (size 15 to 20)
#    0.000    2.833    0.000    2.500    0.000    4.000 
#    0.000    6.667    0.000    1.500    0.000    0.000 
#    0.000    0.000    0.000    0.000    0.000    0.000 
#
# Total GULP energy -134115.453272 kJ/mol
# GULP energy per Si atom -5588.143886 kJ/mol
# Density = 2.675684 g / cm^3
# Si number density = 26.817875 Si / 1000 Ang^3
#
#
#
# Elastic Constant Matrix: (Units=GPa)
#
#
# Indices 1 2 3 4 5 6 
#
# 1 152.4569 -7.5528 17.2955 0.0031 36.1762 -0.0030
# 2 -7.5528 99.3252 0.7977 0.0088 3.1084 -0.0035
# 3 17.2955 0.7977 97.9545 0.0168 34.1625 -0.0091
# 4 0.0031 0.0088 0.0168 9.2983 -0.0076 1.4387
# 5 36.1762 3.1084 34.1625 -0.0076 61.5666 -0.0005
# 6 -0.0030 -0.0035 -0.0091 1.4387 -0.0005 7.8697
#
#
#
# Elastic Compliance Matrix: (Units=1/GPa)
#
#
# Indices 1 2 3 4 5 6 
#
# 1 0.007680 0.000729 0.000279 -0.000008 -0.004704 0.000005
# 2 0.000729 0.010154 0.000145 -0.000012 -0.001021 0.000007
# 3 0.000279 0.000145 0.012670 -0.000032 -0.007201 0.000020
# 4 -0.000008 -0.000012 -0.000032 0.110678 0.000037 -0.020234
# 5 -0.004704 -0.001021 -0.007201 0.000037 0.023054 -0.000016
# 6 0.000005 0.000007 0.000020 -0.020234 -0.000016 0.130769
#
#
# Mechanical properties :
#
#
# Convention : Reuss Voigt Hill
#
# Bulk Modulus (GPa) = 30.47943 41.20195 35.84069
# Shear Modulus (GPa) = 16.46704 38.36000 27.41352
#
# Velocity S-wave (km/s) = 2.48066 3.78615 3.20067
# Velocity P-wave (km/s) = 4.42661 5.87454 5.20121
#
# Compressibility (1/GPa) = 0.03280901
#
# Stress axis : x y z
#
# Youngs Moduli (GPa) = 130.20896 98.48166 78.92643
#
# Poissons Ratio (x) = -0.07179 -0.02199
# Poissons Ratio (y) = -0.09492 -0.01143
# Poissons Ratio (z) = -0.03628 -0.01426
#
# Static dielectric constant tensor:
#      x y z
#    x 2.150890 0.000010 -0.070830 
#    y 0.000010 2.020710 0.000020 
#    z -0.070830 0.000020 2.073560 
# 
# From -- ./inp_files/172281.got.cif
#   From: 2010.05.17/outbox.cif.g08.bks.cpg/sg12_87_cif.got.tgz:172281.got - 2010.06.03 13:09:07.
