data_PCOD9221433
_publ_section_title
;
Structure prediction by ZEFSAII (Michael W. Deem and Ramdas Pophale) SiO2 
 PCOD9221433
Probable space group: C 2/M
;
_chemical_formula_sum "Si O2"
_cell_formula_units_Z 48
_cell_length_a 17.685193
_cell_length_b 20.462715
_cell_length_c 8.557081
_cell_angle_alpha 90.000000
_cell_angle_beta 132.221422
_cell_angle_gamma 90.000000
_cell_volume 2293.269429
_symmetry_space_group_name_H-M "C 2/M"
_symmetry_group_IT_number 12
_symmetry_cell_setting 'monoclinic'
loop_
_space_group_symop_operation_xyz
x,y,z
-x,y,-z
-x,-y,-z
x,-y,z
1/2+x,1/2+y,z
1/2-x,1/2+y,-z
1/2-x,1/2-y,-z
1/2+x,1/2-y,z
loop_
_atom_site_type_symbol
_atom_site_label
_atom_site_fract_x
_atom_site_fract_y
_atom_site_fract_z
Si Si1 0.128114 0.218844 0.573929
Si Si2 0.418839 0.684771 0.141695
Si Si3 0.726245 0.575125 0.180977
Si Si4 0.400807 0.142059 0.576275
Si Si5 0.646008 0.192288 0.158203
Si Si6 0.111920 0.574488 0.879476
O O1 0.132692 0.195368 0.759459
O O2 0.102907 0.295911 0.543595
O O3 0.236458 0.209526 0.644961
O O4 0.038238 0.183518 0.352981
O O5 0.368254 0.621618 0.992736
O O6 0.396326 0.746632 0.999703
O O7 0.696780 0.500000 0.163826
O O8 0.794164 0.603849 0.415878
O O9 0.808934 0.577854 0.153864
O O10 0.409825 0.174704 0.759118
O O11 0.496422 0.095535 0.677016
O O12 0.644815 0.127425 0.051925
O O13 0.111427 0.500000 0.936938
#
# Coordination Sequence:
#
# PCOD9221433 Si02
#       6
#     8   8   8   8   8   8
#     4  11  23  39  65  97 124 165 216 269 311 373
#     4  11  23  41  67  93 125 167 221 268 310 377
#     4  11  24  44  66  91 128 175 218 263 317 379
#     4  12  24  37  64  99 131 165 210 261 328 386
#     4  12  23  41  63  97 134 168 207 263 325 380
#     4  11  24  42  65  94 131 171 213 261 320 386
#
# _framework density 20.930814999999999
#
# number of rings (size 3 to 8) (size 9 to 14) (size 15 to 20)
#    0.000    0.667    5.000    3.500    2.333    3.333 
#    0.000    2.500    0.000    1.000    0.000    0.000 
#    0.000    0.000    0.000    0.000    0.000    0.000 
#
# Total GULP energy -134287.062632 kJ/mol
# GULP energy per Si atom -5595.294276 kJ/mol
# Density = 2.088318 g / cm^3
# Si number density = 20.930815 Si / 1000 Ang^3
#
#
#
# Elastic Constant Matrix: (Units=GPa)
#
#
# Indices 1 2 3 4 5 6 
#
# 1 51.9519 16.6476 27.3785 0.0000 5.6210 0.0000
# 2 16.6476 169.0897 73.3027 0.0000 12.9653 0.0000
# 3 27.3785 73.3027 105.4061 0.0000 9.8353 0.0000
# 4 0.0000 0.0000 0.0000 27.1906 0.0000 16.5309
# 5 5.6210 12.9653 9.8353 0.0000 27.2683 0.0000
# 6 0.0000 0.0000 0.0000 16.5309 0.0000 15.7020
#
#
#
# Elastic Compliance Matrix: (Units=1/GPa)
#
#
# Indices 1 2 3 4 5 6 
#
# 1 0.022522 0.000599 -0.006009 0.000000 -0.002760 0.000000
# 2 0.000599 0.008586 -0.005934 0.000000 -0.002066 0.000000
# 3 -0.006009 -0.005934 0.015311 0.000000 -0.001462 0.000000
# 4 0.000000 0.000000 0.000000 0.102176 0.000000 -0.107569
# 5 -0.002760 -0.002066 -0.001462 0.000000 0.038751 0.000000
# 6 0.000000 0.000000 0.000000 -0.107569 0.000000 0.176933
#
#
# Mechanical properties :
#
#
# Convention : Reuss Voigt Hill
#
# Bulk Modulus (GPa) = 42.13809 62.34501 52.24155
# Shear Modulus (GPa) = 12.66219 27.97346 20.31782
#
# Velocity S-wave (km/s) = 2.46225 3.65975 3.11901
# Velocity P-wave (km/s) = 5.31595 6.90719 6.16314
#
# Compressibility (1/GPa) = 0.02373150
#
# Stress axis : x y z
#
# Youngs Moduli (GPa) = 44.40104 116.47204 65.31298
#
# Poissons Ratio (x) = -0.06980 0.39248
# Poissons Ratio (y) = -0.02661 0.38755
# Poissons Ratio (z) = 0.26681 0.69111
#
# Static dielectric constant tensor:
#      x y z
#    x 1.771030 0.000000 0.012230 
#    y 0.000000 1.704500 0.000000 
#    z 0.012230 0.000000 1.793660 
# 
# From -- ./inp_files/77698.got.cif
#   From: 2010.05.17/outbox.cif.g08.bks.cpg/sg12_39_cif.got.tgz:77698.got - 2010.06.03 13:09:07.
