data_PCOD9221101
_publ_section_title
;
Structure prediction by ZEFSAII (Michael W. Deem and Ramdas Pophale) SiO2 
 PCOD9221101
Probable space group: C 2/M
;
_chemical_formula_sum "Si O2"
_cell_formula_units_Z 34
_cell_length_a 17.131064
_cell_length_b 22.553057
_cell_length_c 9.326002
_cell_angle_alpha 90.000000
_cell_angle_beta 153.307826
_cell_angle_gamma 90.000000
_cell_volume 1618.534931
_symmetry_space_group_name_H-M "C 2/M"
_symmetry_group_IT_number 12
_symmetry_cell_setting 'monoclinic'
loop_
_space_group_symop_operation_xyz
x,y,z
-x,y,-z
-x,-y,-z
x,-y,z
1/2+x,1/2+y,z
1/2-x,1/2+y,-z
1/2-x,1/2-y,-z
1/2+x,1/2-y,z
loop_
_atom_site_type_symbol
_atom_site_label
_atom_site_fract_x
_atom_site_fract_y
_atom_site_fract_z
Si Si1 0.489550 0.407671 0.747885
Si Si2 0.994062 0.317904 0.159971
Si Si3 0.208471 0.567518 0.529604
Si Si4 0.607288 0.283949 0.535118
Si Si5 0.500000 0.500000 0.500000
O O1 0.321949 0.420654 0.572764
O O2 0.484224 0.338768 0.696040
O O3 0.487685 0.448344 0.605446
O O4 0.657222 0.422802 0.119414
O O5 0.057054 0.384549 0.289380
O O6 0.115542 0.272177 0.443863
O O7 0.000000 0.306570 0.000000
O O8 0.798733 0.305991 0.889601
O O9 0.145610 0.500000 0.426743
O O10 0.500000 0.268253 0.500000
#
# Coordination Sequence:
#
# PCOD9221101 Si02
#       5
#     8   8   8   8   2
#     4  11  22  41  73 103 139 183 230 283 348 419
#     4  12  26  45  71 104 137 185 241 292 340 416
#     4  11  23  44  68 104 140 182 236 287 338 409
#     4  12  26  46  70 102 142 184 230 295 358 410
#     4  12  20  42  72 108 142 182 226 272 368 418
#
# _framework density 21.006651999999999
#
# number of rings (size 3 to 8) (size 9 to 14) (size 15 to 20)
#    0.000    0.471    5.882    3.529    3.294    0.471 
#    2.118    0.000    0.000    3.529    0.000    0.000 
#    0.000    0.000    0.000    0.000    0.000    0.000 
#
# Total GULP energy -94938.773086 kJ/mol
# GULP energy per Si atom -5584.633711 kJ/mol
# Density = 2.095884 g / cm^3
# Si number density = 21.006652 Si / 1000 Ang^3
#
#
#
# Elastic Constant Matrix: (Units=GPa)
#
#
# Indices 1 2 3 4 5 6 
#
# 1 54.2630 29.0655 43.7580 0.0000 -7.9257 0.0000
# 2 29.0655 161.7956 46.5338 0.0000 -17.5238 0.0000
# 3 43.7580 46.5338 80.1072 0.0000 6.4459 0.0000
# 4 0.0000 0.0000 0.0000 38.0710 0.0000 0.3428
# 5 -7.9257 -17.5238 6.4459 0.0000 32.6201 0.0000
# 6 0.0000 0.0000 0.0000 0.3428 0.0000 25.1187
#
#
#
# Elastic Compliance Matrix: (Units=1/GPa)
#
#
# Indices 1 2 3 4 5 6 
#
# 1 0.038240 0.001248 -0.022777 0.000000 0.014462 0.000000
# 2 0.001248 0.008328 -0.005999 0.000000 0.005962 0.000000
# 3 -0.022777 -0.005999 0.029585 0.000000 -0.014603 0.000000
# 4 0.000000 0.000000 0.000000 0.026270 0.000000 -0.000358
# 5 0.014462 0.005962 -0.014603 0.000000 0.040258 0.000000
# 6 0.000000 0.000000 0.000000 -0.000358 0.000000 0.039816
#
#
# Mechanical properties :
#
#
# Convention : Reuss Voigt Hill
#
# Bulk Modulus (GPa) = 47.40125 59.43116 53.41621
# Shear Modulus (GPa) = 20.44276 30.94919 25.69597
#
# Velocity S-wave (km/s) = 3.12293 3.84253 3.50127
# Velocity P-wave (km/s) = 5.96804 6.93107 6.46750
#
# Compressibility (1/GPa) = 0.02109649
#
# Stress axis : x y z
#
# Youngs Moduli (GPa) = 26.15030 120.08359 33.80120
#
# Poissons Ratio (x) = -0.14982 0.76989
# Poissons Ratio (y) = -0.03263 0.20276
# Poissons Ratio (z) = 0.59563 0.72034
#
# Static dielectric constant tensor:
#      x y z
#    x 1.719720 0.000000 0.011280 
#    y 0.000000 1.744550 0.000000 
#    z 0.011280 0.000000 1.772180 
# 
# From -- ./inp_files/78164.got.cif
#   From: 2010.05.17/outbox.cif.g08.bks.cpg/sg12_40_cif.got.tgz:78164.got - 2010.06.03 13:09:07.
