data_PCOD9221816
_publ_section_title
;
Structure prediction by ZEFSAII (Michael W. Deem and Ramdas Pophale) SiO2 
 PCOD9221816
Probable space group: C 2/M
;
_chemical_formula_sum "Si O2"
_cell_formula_units_Z 42
_cell_length_a 14.063937
_cell_length_b 12.497289
_cell_length_c 10.948993
_cell_angle_alpha 90.000000
_cell_angle_beta 90.114532
_cell_angle_gamma 90.000000
_cell_volume 1924.403046
_symmetry_space_group_name_H-M "C 2/M"
_symmetry_group_IT_number 12
_symmetry_cell_setting 'monoclinic'
loop_
_space_group_symop_operation_xyz
x,y,z
-x,y,-z
-x,-y,-z
x,-y,z
1/2+x,1/2+y,z
1/2-x,1/2+y,-z
1/2-x,1/2-y,-z
1/2+x,1/2-y,z
loop_
_atom_site_type_symbol
_atom_site_label
_atom_site_fract_x
_atom_site_fract_y
_atom_site_fract_z
Si Si1 0.842652 0.125865 0.067054
Si Si2 0.899346 0.686079 0.440097
Si Si3 0.193386 0.878086 0.441225
Si Si4 0.000000 0.500000 0.000000
Si Si5 0.963385 0.310113 0.169431
Si Si6 0.822733 0.754091 0.814469
O O1 0.930021 0.197533 0.114288
O O2 0.755938 0.165920 0.152100
O O3 0.857793 0.000000 0.074508
O O4 0.821885 0.163946 0.928671
O O5 0.874805 0.809583 0.471230
O O6 0.803532 0.627796 0.485098
O O7 0.911345 0.669978 0.296466
O O8 0.000000 0.655631 0.500000
O O9 0.191831 0.817413 0.311094
O O10 0.163375 0.000000 0.429832
O O11 0.943999 0.405499 0.076346
O O12 0.075663 0.303667 0.192694
#
# Coordination Sequence:
#
# PCOD9221816 Si02
#       6
#     8   8   8   2   8   8
#     4  11  25  43  70 104 146 187 234 301 362 429
#     4  11  25  48  69 100 142 180 241 291 349 429
#     4  11  25  46  72 103 141 189 238 298 356 425
#     4  12  28  48  76 104 152 186 240 296 372 430
#     4  12  25  46  72 107 141 189 239 291 360 434
#     4  11  23  44  69 107 140 184 244 291 357 434
#
# _framework density 21.824947999999999
#
# number of rings (size 3 to 8) (size 9 to 14) (size 15 to 20)
#    0.000    0.762    5.714    0.571    2.667    3.810 
#    0.000    0.000    0.000    0.000    0.000    0.000 
#    0.000    0.000    0.000    0.000    0.000    0.000 
#
# Total GULP energy -117221.227243 kJ/mol
# GULP energy per Si atom -5581.963202 kJ/mol
# Density = 2.177527 g / cm^3
# Si number density = 21.824948 Si / 1000 Ang^3
#
#
#
# Elastic Constant Matrix: (Units=GPa)
#
#
# Indices 1 2 3 4 5 6 
#
# 1 68.8207 -36.2034 -13.3998 0.0000 -7.4740 0.0000
# 2 -36.2034 90.6349 11.9901 0.0000 -3.9166 0.0000
# 3 -13.3998 11.9901 88.9490 0.0000 -14.5122 0.0000
# 4 0.0000 0.0000 0.0000 10.5006 0.0000 -9.6820
# 5 -7.4740 -3.9166 -14.5122 0.0000 33.9707 0.0000
# 6 0.0000 0.0000 0.0000 -9.6820 0.0000 12.0662
#
#
#
# Elastic Compliance Matrix: (Units=1/GPa)
#
#
# Indices 1 2 3 4 5 6 
#
# 1 0.019971 0.007862 0.003024 0.000000 0.006592 0.000000
# 2 0.007862 0.014344 -0.000212 0.000000 0.003293 0.000000
# 3 0.003024 -0.000212 0.012718 0.000000 0.006074 0.000000
# 4 0.000000 0.000000 0.000000 0.366081 0.000000 0.293749
# 5 0.006592 0.003293 0.006074 0.000000 0.033862 0.000000
# 6 0.000000 0.000000 0.000000 0.293749 0.000000 0.318585
#
#
# Mechanical properties :
#
#
# Convention : Reuss Voigt Hill
#
# Bulk Modulus (GPa) = 14.62373 19.24205 16.93289
# Shear Modulus (GPa) = 6.51886 30.37534 18.44710
#
# Velocity S-wave (km/s) = 1.73014 3.73469 2.91044
# Velocity P-wave (km/s) = 3.27203 5.23764 4.36687
#
# Compressibility (1/GPa) = 0.06838201
#
# Stress axis : x y z
#
# Youngs Moduli (GPa) = 50.07209 69.71518 78.63161
#
# Poissons Ratio (x) = -0.54811 -0.23781
# Poissons Ratio (y) = -0.39367 0.01666
# Poissons Ratio (z) = -0.15144 0.01477
#
# Static dielectric constant tensor:
#      x y z
#    x 1.838420 0.000000 0.030190 
#    y 0.000000 1.751540 0.000000 
#    z 0.030190 0.000000 1.811840 
# 
# From -- ./inp_files/140972.got.cif
#   From: 2010.05.17/outbox.cif.g08.bks.cpg/sg12_71_cif.got.tgz:140972.got - 2010.06.03 13:09:07.
