data_PCOD9221907
_publ_section_title
;
Structure prediction by ZEFSAII (Michael W. Deem and Ramdas Pophale) SiO2 
 PCOD9221907
Probable space group: C 2/M
;
_chemical_formula_sum "Si O2"
_cell_formula_units_Z 48
_cell_length_a 24.825953
_cell_length_b 9.537889
_cell_length_c 23.523198
_cell_angle_alpha 90.000000
_cell_angle_beta 154.467603
_cell_angle_gamma 90.000000
_cell_volume 2400.785562
_symmetry_space_group_name_H-M "C 2/M"
_symmetry_group_IT_number 12
_symmetry_cell_setting 'monoclinic'
loop_
_space_group_symop_operation_xyz
x,y,z
-x,y,-z
-x,-y,-z
x,-y,z
1/2+x,1/2+y,z
1/2-x,1/2+y,-z
1/2-x,1/2-y,-z
1/2+x,1/2-y,z
loop_
_atom_site_type_symbol
_atom_site_label
_atom_site_fract_x
_atom_site_fract_y
_atom_site_fract_z
Si Si1 0.683317 0.663150 0.196963
Si Si2 0.514104 0.663513 0.140480
Si Si3 0.828362 0.163898 0.250007
Si Si4 0.211622 0.333963 0.019987
Si Si5 0.071992 0.663642 0.489669
Si Si6 0.740043 0.838626 0.546600
O O1 0.669922 0.500000 0.167609
O O2 0.568678 0.698767 0.129787
O O3 0.713401 0.760236 0.172321
O O4 0.809309 0.673804 0.355555
O O5 0.471730 0.500000 0.099100
O O6 0.634572 0.669860 0.296488
O O7 0.411570 0.764658 0.069635
O O8 0.812354 0.179458 0.166890
O O9 0.955115 0.238807 0.390311
O O10 0.828896 0.000000 0.264489
O O11 0.194891 0.500000 0.992287
O O12 0.250000 0.250000 0.000000
O O13 0.032224 0.500000 0.452579
O O14 0.126681 0.701614 0.479983
O O15 0.750000 0.750000 0.500000
O O16 0.721429 0.000000 0.513248
#
# Coordination Sequence:
#
# PCOD9221907 Si02
#       6
#     8   8   8   8   8   8
#     4   9  19  38  63  89 118 152 190 234 286 347
#     4   9  20  40  62  85 116 150 191 242 287 339
#     4  11  24  38  56  86 120 153 192 242 292 337
#     4  11  26  44  60  82 115 155 198 244 291 342
#     4   9  19  36  57  85 119 153 190 231 282 347
#     4   9  19  34  55  84 115 148 188 236 286 339
#
# _framework density 19.993455000000001
#
# number of rings (size 3 to 8) (size 9 to 14) (size 15 to 20)
#    0.000    2.333    0.000    3.500    2.333    8.000 
#    0.000    6.667    0.000    0.000    0.000    0.000 
#    0.000    0.000    0.000    0.000    0.000    0.000 
#
# Total GULP energy -134053.120298 kJ/mol
# GULP energy per Si atom -5585.546679 kJ/mol
# Density = 1.994795 g / cm^3
# Si number density = 19.993455 Si / 1000 Ang^3
#
#
#
# Elastic Constant Matrix: (Units=GPa)
#
#
# Indices 1 2 3 4 5 6 
#
# 1 149.7075 90.4456 38.8242 0.0000 1.2964 0.0000
# 2 90.4456 99.7097 47.4130 0.0000 13.3095 0.0000
# 3 38.8242 47.4130 58.1582 0.0000 18.2520 0.0000
# 4 0.0000 0.0000 0.0000 25.0817 0.0000 2.0710
# 5 1.2964 13.3095 18.2520 0.0000 30.6682 0.0000
# 6 0.0000 0.0000 0.0000 2.0710 0.0000 38.8118
#
#
#
# Elastic Compliance Matrix: (Units=1/GPa)
#
#
# Indices 1 2 3 4 5 6 
#
# 1 0.015713 -0.014978 -0.000135 0.000000 0.005916 0.000000
# 2 -0.014978 0.030683 -0.013569 0.000000 -0.004607 0.000000
# 3 -0.000135 -0.013569 0.032583 0.000000 -0.013497 0.000000
# 4 0.000000 0.000000 0.000000 0.040046 0.000000 -0.002137
# 5 0.005916 -0.004607 -0.013497 0.000000 0.042389 0.000000
# 6 0.000000 0.000000 0.000000 -0.002137 0.000000 0.025879
#
#
# Mechanical properties :
#
#
# Convention : Reuss Voigt Hill
#
# Bulk Modulus (GPa) = 46.26828 73.43790 59.85309
# Shear Modulus (GPa) = 19.85216 27.63854 23.74535
#
# Velocity S-wave (km/s) = 3.15450 3.72207 3.44998
# Velocity P-wave (km/s) = 6.03820 7.43522 6.77282
#
# Compressibility (1/GPa) = 0.02161308
#
# Stress axis : x y z
#
# Youngs Moduli (GPa) = 63.64352 32.59143 30.69122
#
# Poissons Ratio (x) = 0.48816 0.00414
# Poissons Ratio (y) = 0.95326 0.41646
# Poissons Ratio (z) = 0.00859 0.44224
#
# Static dielectric constant tensor:
#      x y z
#    x 1.486230 0.000000 0.014590 
#    y 0.000000 1.661240 0.000000 
#    z 0.014590 0.000000 1.731620 
# 
# From -- ./inp_files/348743.got.cif
#   From: 2010.05.17/outbox.cif.g08.bks.cpg/sg12_175_cif.got.tgz:348743.got - 2010.06.03 13:09:07.
