data_PCOD9221435
_publ_section_title
;
Structure prediction by ZEFSAII (Michael W. Deem and Ramdas Pophale) SiO2 
 PCOD9221435
Probable space group: C 2/M
;
_chemical_formula_sum "Si O2"
_cell_formula_units_Z 50
_cell_length_a 12.340330
_cell_length_b 14.665050
_cell_length_c 13.488807
_cell_angle_alpha 90.000000
_cell_angle_beta 122.184514
_cell_angle_gamma 90.000000
_cell_volume 2065.985519
_symmetry_space_group_name_H-M "C 2/M"
_symmetry_group_IT_number 12
_symmetry_cell_setting 'monoclinic'
loop_
_space_group_symop_operation_xyz
x,y,z
-x,y,-z
-x,-y,-z
x,-y,z
1/2+x,1/2+y,z
1/2-x,1/2+y,-z
1/2-x,1/2-y,-z
1/2+x,1/2-y,z
loop_
_atom_site_type_symbol
_atom_site_label
_atom_site_fract_x
_atom_site_fract_y
_atom_site_fract_z
Si Si1 0.729829 0.605211 0.612535
Si Si2 0.793944 0.104644 0.626402
Si Si3 0.216559 0.599986 0.069785
Si Si4 0.684060 0.248257 0.732597
Si Si5 0.987916 0.660405 0.183602
Si Si6 0.500000 0.500000 0.000000
Si Si7 0.494039 0.636725 0.145183
O O1 0.690929 0.500000 0.598894
O O2 0.733075 0.632794 0.498824
O O3 0.643361 0.671252 0.637281
O O4 0.876271 0.617426 0.723120
O O5 0.742725 0.174948 0.683950
O O6 0.946183 0.109657 0.720488
O O7 0.749511 0.000000 0.618087
O O8 0.210259 0.500000 0.117503
O O9 0.234443 0.689598 0.147704
O O10 0.899280 0.606103 0.064087
O O11 0.348854 0.602155 0.071888
O O12 0.585970 0.191560 0.752542
O O13 0.004148 0.757187 0.137023
O O14 0.432695 0.579312 0.900239
#
# Coordination Sequence:
#
# PCOD9221435 Si02
#       7
#     8   8   8   8   8   2   8
#     4  11  25  48  71 101 141 186 235 288 348 423
#     4  11  24  43  71 100 133 179 238 287 342 413
#     4  11  24  44  64 101 142 174 225 285 350 420
#     4  11  24  43  70  98 137 186 226 284 350 414
#     4  11  26  42  68 100 143 177 229 285 349 418
#     4  12  24  36  72  92 126 182 220 290 344 388
#     4  11  23  39  65  99 133 174 227 284 340 408
#
# _framework density 24.201526000000001
#
# number of rings (size 3 to 8) (size 9 to 14) (size 15 to 20)
#    0.000    0.960    3.200    3.360    4.480    2.560 
#    2.880    3.200    0.000    4.800    0.000    0.000 
#    0.000    0.000    0.000    0.000    0.000    0.000 
#
# Total GULP energy -139391.645717 kJ/mol
# GULP energy per Si atom -5575.665829 kJ/mol
# Density = 2.414644 g / cm^3
# Si number density = 24.201526 Si / 1000 Ang^3
#
#
#
# Elastic Constant Matrix: (Units=GPa)
#
#
# Indices 1 2 3 4 5 6 
#
# 1 62.4306 9.7880 23.7355 0.0000 -27.2073 0.0000
# 2 9.7880 129.4583 13.0627 0.0000 -26.5916 0.0000
# 3 23.7355 13.0627 101.0995 0.0000 -8.8478 0.0000
# 4 0.0000 0.0000 0.0000 32.5423 0.0000 3.9841
# 5 -27.2073 -26.5916 -8.8478 0.0000 40.9852 0.0000
# 6 0.0000 0.0000 0.0000 3.9841 0.0000 -1.3033
#
#
#
# Elastic Compliance Matrix: (Units=1/GPa)
#
#
# Indices 1 2 3 4 5 6 
#
# 1 0.024754 0.002036 -0.004608 0.000000 0.016758 0.000000
# 2 0.002036 0.009123 -0.001040 0.000000 0.007046 0.000000
# 3 -0.004608 -0.001040 0.010988 0.000000 -0.001362 0.000000
# 4 0.000000 0.000000 0.000000 0.022361 0.000000 0.068355
# 5 0.016758 0.007046 -0.001362 0.000000 0.039801 0.000000
# 6 0.000000 0.000000 0.000000 0.068355 0.000000 -0.558331
#
#
# Mechanical properties :
#
#
# Convention : Reuss Voigt Hill
#
# Bulk Modulus (GPa) = 26.56727 42.90676 34.73701
# Shear Modulus (GPa) = -11.58660 30.87165 9.64253
#
# Velocity S-wave (km/s) = -2.19042 3.57544 1.99823
# Velocity P-wave (km/s) = 2.14572 5.90021 4.43940
#
# Compressibility (1/GPa) = 0.03764030
#
# Stress axis : x y z
#
# Youngs Moduli (GPa) = 40.39777 109.61576 91.00594
#
# Poissons Ratio (x) = -0.22314 0.41935
# Poissons Ratio (y) = -0.08224 0.09465
# Poissons Ratio (z) = 0.18615 0.11400
#
# Static dielectric constant tensor:
#      x y z
#    x 2.105310 0.000000 -0.044780 
#    y 0.000000 1.907980 0.000000 
#    z -0.044780 0.000000 2.025670 
# 
# From -- ./inp_files/205088.got.cif
#   From: 2010.05.17/outbox.cif.g08.bks.cpg/sg12_103_cif.got.tgz:205088.got - 2010.06.03 13:09:07.
