data_PCOD9221161
_publ_section_title
;
Structure prediction by ZEFSAII (Michael W. Deem and Ramdas Pophale) SiO2 
 PCOD9221161
Probable space group: C 2/M
;
_chemical_formula_sum "Si O2"
_cell_formula_units_Z 58
_cell_length_a 19.878893
_cell_length_b 12.567892
_cell_length_c 18.310856
_cell_angle_alpha 90.000000
_cell_angle_beta 140.483229
_cell_angle_gamma 90.000000
_cell_volume 2910.904611
_symmetry_space_group_name_H-M "C 2/M"
_symmetry_group_IT_number 12
_symmetry_cell_setting 'monoclinic'
loop_
_space_group_symop_operation_xyz
x,y,z
-x,y,-z
-x,-y,-z
x,-y,z
1/2+x,1/2+y,z
1/2-x,1/2+y,-z
1/2-x,1/2-y,-z
1/2+x,1/2-y,z
loop_
_atom_site_type_symbol
_atom_site_label
_atom_site_fract_x
_atom_site_fract_y
_atom_site_fract_z
Si Si1 0.500000 0.000000 0.000000
Si Si2 0.433148 0.797959 0.855003
Si Si3 0.605135 0.278779 0.436915
Si Si4 0.675112 0.877863 0.375421
Si Si5 0.091249 0.121283 0.925404
Si Si6 0.878266 0.124381 0.221285
Si Si7 0.623572 0.117962 0.583610
Si Si8 0.771798 0.203340 0.834118
O O1 0.508924 0.095484 0.069541
O O2 0.347515 0.837978 0.724841
O O3 0.507328 0.710691 0.878826
O O4 0.371618 0.742059 0.870087
O O5 0.607313 0.195242 0.372541
O O6 0.701484 0.359347 0.503888
O O7 0.492608 0.335954 0.345351
O O8 0.633418 0.209833 0.531889
O O9 0.646545 0.000000 0.359673
O O10 0.123735 0.137751 0.868330
O O11 0.049335 0.000000 0.896102
O O12 0.186897 0.135413 0.062820
O O13 0.789319 0.194824 0.185100
O O14 0.863804 0.000000 0.225636
O O15 0.500000 0.116013 0.500000
O O16 0.693400 0.143077 0.713215
O O17 0.652990 0.000000 0.579811
#
# Coordination Sequence:
#
# PCOD9221161 Si02
#       8
#     2   8   8   8   8   8   8   8
#     4  12  24  44  66  96 138 176 222 276 338 380
#     4  12  24  41  68  96 133 175 223 276 329 393
#     4  11  22  43  63  95 130 172 218 273 324 395
#     4  11  23  39  65  95 129 172 224 271 325 391
#     4  11  25  47  69  97 131 177 229 277 326 394
#     4  11  25  43  69  98 136 174 217 272 331 398
#     4  11  23  40  63  91 126 167 212 266 324 386
#     4  12  24  43  66  99 131 171 213 274 335 397
#
# _framework density 19.925077999999999
#
# number of rings (size 3 to 8) (size 9 to 14) (size 15 to 20)
#    0.000    0.690    6.207    1.655    0.966    1.655 
#    0.000    0.690    1.517    0.000    0.000    0.000 
#    0.000    0.000    0.000    0.000    0.000    0.000 
#
# Total GULP energy -161792.894078 kJ/mol
# GULP energy per Si atom -5579.065313 kJ/mol
# Density = 1.987973 g / cm^3
# Si number density = 19.925078 Si / 1000 Ang^3
#
#
#
# Elastic Constant Matrix: (Units=GPa)
#
#
# Indices 1 2 3 4 5 6 
#
# 1 44.1664 16.4186 -6.9099 0.0000 -2.2757 0.0000
# 2 16.4186 91.9747 16.1047 0.0000 -10.7004 0.0000
# 3 -6.9099 16.1047 76.2354 0.0000 -17.6106 0.0000
# 4 0.0000 0.0000 0.0000 11.1296 0.0000 -22.4339
# 5 -2.2757 -10.7004 -17.6106 0.0000 24.6477 0.0000
# 6 0.0000 0.0000 0.0000 -22.4339 0.0000 12.2105
#
#
#
# Elastic Compliance Matrix: (Units=1/GPa)
#
#
# Indices 1 2 3 4 5 6 
#
# 1 0.025234 -0.004849 0.004028 0.000000 0.003103 0.000000
# 2 -0.004849 0.012532 -0.002316 0.000000 0.003338 0.000000
# 3 0.004028 -0.002316 0.016558 0.000000 0.011197 0.000000
# 4 0.000000 0.000000 0.000000 -0.033236 0.000000 -0.061064
# 5 0.003103 0.003338 0.011197 0.000000 0.050308 0.000000
# 6 0.000000 0.000000 0.000000 -0.061064 0.000000 -0.030294
#
#
# Mechanical properties :
#
#
# Convention : Reuss Voigt Hill
#
# Bulk Modulus (GPa) = 20.81089 29.28926 25.05008
# Shear Modulus (GPa) = 78.87446 22.04843 50.46144
#
# Velocity S-wave (km/s) = 6.29853 3.33012 5.03791
# Velocity P-wave (km/s) = 7.96006 5.43303 6.81470
#
# Compressibility (1/GPa) = 0.04805176
#
# Stress axis : x y z
#
# Youngs Moduli (GPa) = 39.62846 79.79550 60.39309
#
# Poissons Ratio (x) = 0.38693 -0.24328
# Poissons Ratio (y) = 0.19216 0.13986
# Poissons Ratio (z) = -0.15964 0.18479
#
# Static dielectric constant tensor:
#      x y z
#    x 1.681090 0.000000 -0.004100 
#    y 0.000000 1.671070 0.000000 
#    z -0.004100 0.000000 1.732050 
# 
# From -- ./inp_files/283540.got.cif
#   From: 2010.05.17/outbox.cif.g08.bks.cpg/sg12_142_cif.got.tgz:283540.got - 2010.06.03 13:09:07.
