data_PCOD9221675
_publ_section_title
;
Structure prediction by ZEFSAII (Michael W. Deem and Ramdas Pophale) SiO2 
 PCOD9221675
Probable space group: C 2/M
;
_chemical_formula_sum "Si O2"
_cell_formula_units_Z 40
_cell_length_a 20.249414
_cell_length_b 17.632704
_cell_length_c 12.407851
_cell_angle_alpha 90.000000
_cell_angle_beta 24.710719
_cell_angle_gamma 90.000000
_cell_volume 1852.007333
_symmetry_space_group_name_H-M "C 2/M"
_symmetry_group_IT_number 12
_symmetry_cell_setting 'monoclinic'
loop_
_space_group_symop_operation_xyz
x,y,z
-x,y,-z
-x,-y,-z
x,-y,z
1/2+x,1/2+y,z
1/2-x,1/2+y,-z
1/2-x,1/2-y,-z
1/2+x,1/2-y,z
loop_
_atom_site_type_symbol
_atom_site_label
_atom_site_fract_x
_atom_site_fract_y
_atom_site_fract_z
Si Si1 0.344937 0.412711 0.302359
Si Si2 0.826255 0.087885 0.732256
Si Si3 0.187015 0.331549 0.128804
Si Si4 0.809054 0.676741 0.269596
Si Si5 0.819968 0.664582 0.622794
O O1 0.365549 0.500000 0.306962
O O2 0.288646 0.360800 0.486094
O O3 0.207023 0.404221 0.418101
O O4 0.500000 0.390940 0.000000
O O5 0.739303 0.131311 0.765927
O O6 0.000000 0.120331 0.500000
O O7 0.840327 0.000000 0.682923
O O8 0.737751 0.101670 0.974721
O O9 0.252922 0.346494 0.150759
O O10 0.000635 0.324379 0.386167
O O11 0.250000 0.250000 0.000000
O O12 0.751012 0.762231 0.332488
O O13 0.000000 0.674204 0.000000
#
# Coordination Sequence:
#
# PCOD9221675 Si02
#       5
#     8   8   8   8   8
#     4  11  27  45  65  98 141 181 223 279 344 410
#     4  11  25  44  71 101 135 180 227 279 341 404
#     4  11  23  42  67 100 133 173 222 282 335 402
#     4  12  25  45  72 103 135 181 232 286 337 403
#     4  11  25  42  70  98 134 177 225 278 340 405
#
# _framework density 21.598186999999999
#
# number of rings (size 3 to 8) (size 9 to 14) (size 15 to 20)
#    0.000    0.800    2.000    4.200    5.600    4.800 
#    0.000    2.000    0.000    0.000    0.000    0.000 
#    0.000    0.000    0.000    0.000    0.000    0.000 
#
# Total GULP energy -111699.859092 kJ/mol
# GULP energy per Si atom -5584.992955 kJ/mol
# Density = 2.154903 g / cm^3
# Si number density = 21.598187 Si / 1000 Ang^3
#
#
#
# Elastic Constant Matrix: (Units=GPa)
#
#
# Indices 1 2 3 4 5 6 
#
# 1 136.5138 33.2360 45.8054 0.0003 12.0772 0.0000
# 2 33.2360 60.2838 26.7051 -0.0002 -0.5001 0.0006
# 3 45.8054 26.7051 100.8923 -0.0009 -2.7849 0.0013
# 4 0.0003 -0.0002 -0.0009 28.0130 0.0001 0.7926
# 5 12.0772 -0.5001 -2.7849 0.0001 46.3817 -0.0003
# 6 0.0000 0.0006 0.0013 0.7926 -0.0003 21.7993
#
#
#
# Elastic Compliance Matrix: (Units=1/GPa)
#
#
# Indices 1 2 3 4 5 6 
#
# 1 0.009657 -0.003819 -0.003450 0.000000 -0.002763 0.000000
# 2 -0.003819 0.020302 -0.003613 0.000000 0.000996 0.000000
# 3 -0.003450 -0.003613 0.012478 0.000000 0.001609 -0.000001
# 4 0.000000 0.000000 0.000000 0.035734 0.000000 -0.001299
# 5 -0.002763 0.000996 0.001609 0.000000 0.022387 0.000000
# 6 0.000000 0.000000 -0.000001 -0.001299 0.000000 0.045920
#
#
# Mechanical properties :
#
#
# Convention : Reuss Voigt Hill
#
# Bulk Modulus (GPa) = 48.36688 56.57589 52.47138
# Shear Modulus (GPa) = 28.54970 32.03502 30.29236
#
# Velocity S-wave (km/s) = 3.63968 3.85545 3.74912
# Velocity P-wave (km/s) = 6.33290 6.78755 6.56416
#
# Compressibility (1/GPa) = 0.02067531
#
# Stress axis : x y z
#
# Youngs Moduli (GPa) = 103.55230 49.25575 80.13890
#
# Poissons Ratio (x) = 0.18810 0.27646
# Poissons Ratio (y) = 0.39545 0.28950
# Poissons Ratio (z) = 0.35723 0.17794
#
# Static dielectric constant tensor:
#      x y z
#    x 1.776300 0.000000 0.047850 
#    y 0.000000 1.761040 0.000000 
#    z 0.047850 0.000000 1.931340 
# 
# From -- ./inp_files/158449.got.cif
#   From: 2010.05.17/outbox.cif.g08.bks.cpg/sg12_80_cif.got.tgz:158449.got - 2010.06.03 13:09:07.
