data_PCOD9221406
_publ_section_title
;
Structure prediction by ZEFSAII (Michael W. Deem and Ramdas Pophale) SiO2 
 PCOD9221406
Probable space group: C 2/M
;
_chemical_formula_sum "Si O2"
_cell_formula_units_Z 56
_cell_length_a 11.337148
_cell_length_b 28.612895
_cell_length_c 9.603433
_cell_angle_alpha 90.000000
_cell_angle_beta 69.877261
_cell_angle_gamma 90.000000
_cell_volume 2925.083024
_symmetry_space_group_name_H-M "C 2/M"
_symmetry_group_IT_number 12
_symmetry_cell_setting 'monoclinic'
loop_
_space_group_symop_operation_xyz
x,y,z
-x,y,-z
-x,-y,-z
x,-y,z
1/2+x,1/2+y,z
1/2-x,1/2+y,-z
1/2-x,1/2-y,-z
1/2+x,1/2-y,z
loop_
_atom_site_type_symbol
_atom_site_label
_atom_site_fract_x
_atom_site_fract_y
_atom_site_fract_z
Si Si1 0.995319 0.717588 0.839525
Si Si2 0.375859 0.052329 0.956273
Si Si3 0.681768 0.367721 0.686303
Si Si4 0.240523 0.649356 0.035201
Si Si5 0.737784 0.801022 0.572351
Si Si6 0.375364 0.053863 0.625285
Si Si7 0.931036 0.184838 0.730156
O O1 0.884022 0.679637 0.882359
O O2 0.977135 0.763283 0.751959
O O3 0.122754 0.695798 0.726776
O O4 0.000000 0.732252 0.000000
O O5 0.292334 0.098183 0.012429
O O6 0.402308 0.054818 0.779926
O O7 0.321932 0.000000 0.004520
O O8 0.500000 0.056263 0.000000
O O9 0.690653 0.355402 0.845245
O O10 0.770490 0.335552 0.554390
O O11 0.746874 0.418305 0.648100
O O12 0.541293 0.353642 0.697395
O O13 0.327506 0.674406 0.889296
O O14 0.750000 0.750000 0.500000
O O15 0.861346 0.812959 0.611349
O O16 0.500000 0.073378 0.500000
O O17 0.360954 0.000000 0.587499
#
# Coordination Sequence:
#
# PCOD9221406 Si02
#       7
#     8   8   8   8   8   8   8
#     4  12  24  40  63  88 119 163 211 257 302 361
#     4   9  19  36  60  91 121 149 197 259 307 355
#     4  11  24  39  62  90 125 163 198 255 309 368
#     4  11  23  39  63  88 122 164 205 249 310 375
#     4  12  26  42  61  88 122 164 208 259 307 365
#     4   9  20  39  63  92 123 161 207 255 308 368
#     4  12  25  42  60  86 127 163 205 251 309 378
#
# _framework density 19.144756000000001
#
# number of rings (size 3 to 8) (size 9 to 14) (size 15 to 20)
#    0.000    1.143    2.857    3.429    4.000    1.143 
#    0.000    0.714    0.000    5.143    0.000    0.000 
#    0.000    0.000    0.000    0.000    0.000    0.000 
#
# Total GULP energy -156261.855308 kJ/mol
# GULP energy per Si atom -5580.780547 kJ/mol
# Density = 1.910118 g / cm^3
# Si number density = 19.144756 Si / 1000 Ang^3
#
#
#
# Elastic Constant Matrix: (Units=GPa)
#
#
# Indices 1 2 3 4 5 6 
#
# 1 110.7535 50.8532 28.4935 0.0000 -7.0936 0.0000
# 2 50.8532 75.4153 13.4555 0.0000 7.5614 0.0000
# 3 28.4935 13.4555 57.9361 0.0000 -8.1977 0.0000
# 4 0.0000 0.0000 0.0000 23.5894 0.0000 3.4206
# 5 -7.0936 7.5614 -8.1977 0.0000 37.5636 0.0000
# 6 0.0000 0.0000 0.0000 3.4206 0.0000 8.7971
#
#
#
# Elastic Compliance Matrix: (Units=1/GPa)
#
#
# Indices 1 2 3 4 5 6 
#
# 1 0.014827 -0.009562 -0.004543 0.000000 0.003733 0.000000
# 2 -0.009562 0.020487 -0.000923 0.000000 -0.006131 0.000000
# 3 -0.004543 -0.000923 0.020239 0.000000 0.003745 0.000000
# 4 0.000000 0.000000 0.000000 0.044925 0.000000 -0.017468
# 5 0.003733 -0.006131 0.003745 0.000000 0.029378 0.000000
# 6 0.000000 0.000000 0.000000 -0.017468 0.000000 0.120466
#
#
# Mechanical properties :
#
#
# Convention : Reuss Voigt Hill
#
# Bulk Modulus (GPa) = 39.22005 47.74547 43.48276
# Shear Modulus (GPa) = 17.30838 24.07689 20.69264
#
# Velocity S-wave (km/s) = 3.01005 3.55015 3.29120
# Velocity P-wave (km/s) = 5.71061 6.46514 6.09955
#
# Compressibility (1/GPa) = 0.02549716
#
# Stress axis : x y z
#
# Youngs Moduli (GPa) = 67.44240 48.81143 49.40951
#
# Poissons Ratio (x) = 0.46673 0.22448
# Poissons Ratio (y) = 0.64488 0.04560
# Poissons Ratio (z) = 0.30641 0.04505
#
# Static dielectric constant tensor:
#      x y z
#    x 1.686270 0.000000 -0.004630 
#    y 0.000000 1.619430 0.000000 
#    z -0.004630 0.000000 1.651500 
# 
# From -- ./inp_files/54184.got.cif
#   From: 2010.05.17/outbox.cif.g08.bks.cpg/sg12_28_cif.got.tgz:54184.got - 2010.06.03 13:09:07.
