data_PCOD9221114
_publ_section_title
;
Structure prediction by ZEFSAII (Michael W. Deem and Ramdas Pophale) SiO2 
 PCOD9221114
Probable space group: C 2/M
;
_chemical_formula_sum "Si O2"
_cell_formula_units_Z 48
_cell_length_a 16.862137
_cell_length_b 19.637799
_cell_length_c 13.273731
_cell_angle_alpha 90.000000
_cell_angle_beta 147.023132
_cell_angle_gamma 90.000000
_cell_volume 2392.418132
_symmetry_space_group_name_H-M "C 2/M"
_symmetry_group_IT_number 12
_symmetry_cell_setting 'monoclinic'
loop_
_space_group_symop_operation_xyz
x,y,z
-x,y,-z
-x,-y,-z
x,-y,z
1/2+x,1/2+y,z
1/2-x,1/2+y,-z
1/2-x,1/2-y,-z
1/2+x,1/2-y,z
loop_
_atom_site_type_symbol
_atom_site_label
_atom_site_fract_x
_atom_site_fract_y
_atom_site_fract_z
Si Si1 0.165978 0.921475 0.554986
Si Si2 0.717351 0.675938 0.010874
Si Si3 0.673485 0.156498 0.446466
Si Si4 0.183442 0.078401 0.792524
Si Si5 0.439796 0.728647 0.821513
Si Si6 0.058748 0.576894 0.674785
O O1 0.219300 0.878754 0.518791
O O2 0.224302 0.895605 0.724964
O O3 0.991852 0.921097 0.381794
O O4 0.210985 0.000000 0.591340
O O5 0.827584 0.639523 0.204347
O O6 0.750000 0.750000 0.000000
O O7 0.735295 0.625570 0.935887
O O8 0.560802 0.680745 0.897473
O O9 0.578506 0.207556 0.275110
O O10 0.778133 0.194875 0.638998
O O11 0.570091 0.101745 0.388969
O O12 0.230728 0.000000 0.850171
O O13 0.500000 0.742100 0.000000
O O14 0.112726 0.500000 0.759767
O O15 0.000000 0.571878 0.500000
#
# Coordination Sequence:
#
# PCOD9221114 Si02
#       6
#     8   8   8   8   8   8
#     4   9  18  35  62  91 121 155 202 254 312 374
#     4  12  23  42  62  92 127 170 213 259 316 385
#     4  11  22  42  65  92 128 168 210 270 318 375
#     4   9  19  37  61  92 123 161 205 253 310 375
#     4  11  25  42  61  91 130 168 216 263 318 383
#     4  11  25  45  67  94 129 170 215 266 325 385
#
# _framework density 20.063383000000002
#
# number of rings (size 3 to 8) (size 9 to 14) (size 15 to 20)
#    0.000    1.500    3.333    3.000    2.333    0.000 
#    3.000    0.000    0.000    8.000    0.000    0.000 
#    0.000    0.000    0.000    0.000    0.000    0.000 
#
# Total GULP energy -133783.670397 kJ/mol
# GULP energy per Si atom -5574.319600 kJ/mol
# Density = 2.001772 g / cm^3
# Si number density = 20.063383 Si / 1000 Ang^3
#
#
#
# Elastic Constant Matrix: (Units=GPa)
#
#
# Indices 1 2 3 4 5 6 
#
# 1 69.5222 25.1201 28.1970 0.0000 -7.5665 0.0000
# 2 25.1201 80.9190 32.7549 0.0000 -5.4433 0.0000
# 3 28.1970 32.7549 97.9017 0.0000 -20.2174 0.0000
# 4 0.0000 0.0000 0.0000 35.4108 0.0000 0.5169
# 5 -7.5665 -5.4433 -20.2174 0.0000 33.1185 0.0000
# 6 0.0000 0.0000 0.0000 0.5169 0.0000 21.4904
#
#
#
# Elastic Compliance Matrix: (Units=1/GPa)
#
#
# Indices 1 2 3 4 5 6 
#
# 1 0.017319 -0.003906 -0.003429 0.000000 0.001222 0.000000
# 2 -0.003906 0.015187 -0.004148 0.000000 -0.000928 0.000000
# 3 -0.003429 -0.004148 0.014059 0.000000 0.007118 0.000000
# 4 0.000000 0.000000 0.000000 0.028250 0.000000 -0.000679
# 5 0.001222 -0.000928 0.007118 0.000000 0.034666 0.000000
# 6 0.000000 0.000000 0.000000 -0.000679 0.000000 0.046549
#
#
# Mechanical properties :
#
#
# Convention : Reuss Voigt Hill
#
# Bulk Modulus (GPa) = 42.37352 46.72076 44.54714
# Shear Modulus (GPa) = 26.75759 28.82202 27.78981
#
# Velocity S-wave (km/s) = 3.65588 3.79429 3.72573
# Velocity P-wave (km/s) = 6.24390 6.52171 6.38432
#
# Compressibility (1/GPa) = 0.02359964
#
# Stress axis : x y z
#
# Youngs Moduli (GPa) = 57.74007 65.84486 71.12641
#
# Poissons Ratio (x) = 0.25721 0.24389
# Poissons Ratio (y) = 0.22555 0.29502
# Poissons Ratio (z) = 0.19799 0.27311
#
# Static dielectric constant tensor:
#      x y z
#    x 1.692880 0.000000 -0.016740 
#    y 0.000000 1.597620 0.000000 
#    z -0.016740 0.000000 1.830110 
# 
# From -- ./inp_files/148029.got.cif
#   From: 2010.05.17/outbox.cif.g08.bks.cpg/sg12_75_cif.got.tgz:148029.got - 2010.06.03 13:09:07.
