data_PCOD9221022
_publ_section_title
;
Structure prediction by ZEFSAII (Michael W. Deem and Ramdas Pophale) SiO2 
 PCOD9221022
Probable space group: C 2/M
;
_chemical_formula_sum "Si O2"
_cell_formula_units_Z 48
_cell_length_a 11.780112
_cell_length_b 15.542587
_cell_length_c 13.855262
_cell_angle_alpha 90.000000
_cell_angle_beta 60.891337
_cell_angle_gamma 90.000000
_cell_volume 2216.405141
_symmetry_space_group_name_H-M "C 2/M"
_symmetry_group_IT_number 12
_symmetry_cell_setting 'monoclinic'
loop_
_space_group_symop_operation_xyz
x,y,z
-x,y,-z
-x,-y,-z
x,-y,z
1/2+x,1/2+y,z
1/2-x,1/2+y,-z
1/2-x,1/2-y,-z
1/2+x,1/2-y,z
loop_
_atom_site_type_symbol
_atom_site_label
_atom_site_fract_x
_atom_site_fract_y
_atom_site_fract_z
Si Si1 0.390142 0.904122 0.483673
Si Si2 0.893054 0.149047 0.344341
Si Si3 0.617762 0.400398 0.874686
Si Si4 0.325184 0.772943 0.873596
Si Si5 0.159798 0.099799 0.257665
Si Si6 0.589767 0.155834 0.725062
O O1 0.500000 0.855804 0.500000
O O2 0.245166 0.871114 0.552848
O O3 0.436960 0.904402 0.354695
O O4 0.378584 0.000000 0.529368
O O5 0.910286 0.110238 0.228163
O O6 0.889275 0.251202 0.332088
O O7 0.012714 0.112267 0.357580
O O8 0.652721 0.500000 0.877878
O O9 0.734710 0.335142 0.847621
O O10 0.500000 0.380876 0.000000
O O11 0.341686 0.680384 0.815850
O O12 0.459546 0.823499 0.839097
O O13 0.250000 0.750000 0.000000
O O14 0.284256 0.121107 0.272252
O O15 0.171914 0.000000 0.218936
#
# Coordination Sequence:
#
# PCOD9221022 Si02
#       6
#     8   8   8   8   8   8
#     4  11  24  41  66  98 133 176 227 282 338 406
#     4  11  23  43  65  96 137 179 226 281 339 407
#     4  11  22  40  69  99 129 175 231 280 339 412
#     4  11  25  43  68  96 138 176 223 285 349 408
#     4  11  24  43  68  99 136 179 227 280 342 409
#     4  11  24  43  65  95 134 176 225 280 342 411
#
# _framework density 21.656690000000001
#
# number of rings (size 3 to 8) (size 9 to 14) (size 15 to 20)
#    0.000    1.000    1.667    5.500    2.333    5.333 
#    0.000    2.500    0.000    0.000    0.000    0.000 
#    0.000    0.000    0.000    0.000    0.000    0.000 
#
# Total GULP energy -133848.410483 kJ/mol
# GULP energy per Si atom -5577.017103 kJ/mol
# Density = 2.160740 g / cm^3
# Si number density = 21.656690 Si / 1000 Ang^3
#
#
#
# Elastic Constant Matrix: (Units=GPa)
#
#
# Indices 1 2 3 4 5 6 
#
# 1 156.0411 36.9414 44.2311 0.0000 -24.1774 0.0000
# 2 36.9414 133.6230 1.9677 0.0000 -16.9541 0.0000
# 3 44.2311 1.9677 78.6498 0.0000 -18.1689 0.0000
# 4 0.0000 0.0000 0.0000 13.7669 0.0000 5.5841
# 5 -24.1774 -16.9541 -18.1689 0.0000 32.9731 0.0000
# 6 0.0000 0.0000 0.0000 5.5841 0.0000 21.3542
#
#
#
# Elastic Compliance Matrix: (Units=1/GPa)
#
#
# Indices 1 2 3 4 5 6 
#
# 1 0.008464 -0.001898 -0.004015 0.000000 0.003018 0.000000
# 2 -0.001898 0.008483 0.001766 0.000000 0.003943 0.000000
# 3 -0.004015 0.001766 0.016567 0.000000 0.007093 0.000000
# 4 0.000000 0.000000 0.000000 0.081257 0.000000 -0.021248
# 5 0.003018 0.003943 0.007093 0.000000 0.038476 0.000000
# 6 0.000000 0.000000 0.000000 -0.021248 0.000000 0.052386
#
#
# Mechanical properties :
#
#
# Convention : Reuss Voigt Hill
#
# Bulk Modulus (GPa) = 39.65233 59.39937 49.52585
# Shear Modulus (GPa) = 22.48886 32.63041 27.55964
#
# Velocity S-wave (km/s) = 3.22596 3.88585 3.57118
# Velocity P-wave (km/s) = 5.67671 6.90075 6.31844
#
# Compressibility (1/GPa) = 0.02521920
#
# Stress axis : x y z
#
# Youngs Moduli (GPa) = 118.15377 117.88676 60.36121
#
# Poissons Ratio (x) = 0.22373 0.24236
# Poissons Ratio (y) = 0.22424 -0.10660
# Poissons Ratio (z) = 0.47441 -0.20819
#
# Static dielectric constant tensor:
#      x y z
#    x 4.653680 0.000000 1.589760 
#    y 0.000000 1.855340 0.000000 
#    z 1.589760 0.000000 2.747620 
# 
# From -- ./inp_files/204862.got.cif
#   From: 2010.05.17/outbox.cif.g08.bks.cpg/sg12_103_cif.got.tgz:204862.got - 2010.06.03 13:09:07.
