data_PCOD9221919
_publ_section_title
;
Structure prediction by ZEFSAII (Michael W. Deem and Ramdas Pophale) SiO2 
 PCOD9221919
Probable space group: C 2/M
;
_chemical_formula_sum "Si O2"
_cell_formula_units_Z 42
_cell_length_a 22.289811
_cell_length_b 7.471070
_cell_length_c 22.371991
_cell_angle_alpha 90.000000
_cell_angle_beta 33.357206
_cell_angle_gamma 90.000000
_cell_volume 2048.536087
_symmetry_space_group_name_H-M "C 2/M"
_symmetry_group_IT_number 12
_symmetry_cell_setting 'monoclinic'
loop_
_space_group_symop_operation_xyz
x,y,z
-x,y,-z
-x,-y,-z
x,-y,z
1/2+x,1/2+y,z
1/2-x,1/2+y,-z
1/2-x,1/2-y,-z
1/2+x,1/2-y,z
loop_
_atom_site_type_symbol
_atom_site_label
_atom_site_fract_x
_atom_site_fract_y
_atom_site_fract_z
Si Si1 0.033313 0.281778 0.377892
Si Si2 0.894106 0.286754 0.935339
Si Si3 0.329228 0.783930 0.620023
Si Si4 0.000000 0.000000 0.000000
Si Si5 0.092571 0.293435 0.851278
Si Si6 0.352802 0.785266 0.836380
O O1 0.033379 0.500000 0.376814
O O2 0.114046 0.229600 0.364634
O O3 0.078126 0.218052 0.277169
O O4 0.911955 0.226226 0.498847
O O5 0.909471 0.500000 0.919179
O O6 0.889151 0.216572 0.871450
O O7 0.993884 0.219227 0.892021
O O8 0.775887 0.252563 0.062090
O O9 0.206426 0.716711 0.721705
O O10 0.325802 0.000000 0.621874
O O11 0.089940 0.158572 0.908707
O O12 0.073631 0.500000 0.883154
O O13 0.364345 0.000000 0.828199
#
# Coordination Sequence:
#
# PCOD9221919 Si02
#       6
#     8   8   8   2   8   8
#     4   8  16  30  56  81 107 146 193 234 278 336
#     4   9  20  35  50  78 115 145 182 241 284 329
#     4   9  17  34  54  82 114 147 186 235 283 330
#     4  12  26  40  60  84 112 160 186 222 288 350
#     4  11  24  39  57  85 118 147 188 234 284 338
#     4   9  17  32  56  79 106 149 194 229 279 336
#
# _framework density 20.502445999999999
#
# number of rings (size 3 to 8) (size 9 to 14) (size 15 to 20)
#    0.000    2.667    0.952    1.429    4.000    0.000 
#    0.000    3.810    0.000    0.000    0.000    0.000 
#    0.000    0.000    0.000    0.000    0.000    0.000 
#
# Total GULP energy -116960.377597 kJ/mol
# GULP energy per Si atom -5569.541790 kJ/mol
# Density = 2.045578 g / cm^3
# Si number density = 20.502446 Si / 1000 Ang^3
#
#
#
# Elastic Constant Matrix: (Units=GPa)
#
#
# Indices 1 2 3 4 5 6 
#
# 1 68.1907 8.5852 69.0578 -0.0002 -3.6899 0.0003
# 2 8.5852 88.2603 5.5656 -0.0008 -1.1194 0.0010
# 3 69.0578 5.5656 179.9054 -0.0020 8.4963 0.0018
# 4 -0.0002 -0.0008 -0.0020 -52.9167 -0.0010 81.4981
# 5 -3.6899 -1.1194 8.4963 -0.0010 29.2790 0.0013
# 6 0.0003 0.0010 0.0018 81.4981 0.0013 -106.5826
#
#
#
# Elastic Compliance Matrix: (Units=1/GPa)
#
#
# Indices 1 2 3 4 5 6 
#
# 1 0.025263 -0.001755 -0.009926 -0.000001 0.005997 0.000000
# 2 -0.001755 0.011483 0.000313 0.000000 0.000127 0.000000
# 3 -0.009926 0.000313 0.009548 0.000001 -0.004010 0.000001
# 4 -0.000001 0.000000 0.000001 0.106375 0.000000 0.081340
# 5 0.005997 0.000127 -0.004010 0.000000 0.036078 0.000000
# 6 0.000000 0.000000 0.000001 0.081340 0.000000 0.052814
#
#
# Mechanical properties :
#
#
# Convention : Reuss Voigt Hill
#
# Bulk Modulus (GPa) = 42.45212 55.86374 49.15793
# Shear Modulus (GPa) = 18.37215 -9.16755 4.60230
#
# Velocity S-wave (km/s) = 2.99673 -2.11687 1.49988
# Velocity P-wave (km/s) = 5.72055 4.61862 5.19886
#
# Compressibility (1/GPa) = 0.02355595
#
# Stress axis : x y z
#
# Youngs Moduli (GPa) = 39.58417 87.08698 104.72977
#
# Poissons Ratio (x) = 0.15287 1.03956
# Poissons Ratio (y) = 0.06948 -0.03274
# Poissons Ratio (z) = 0.39292 -0.02722
#
# Static dielectric constant tensor:
#      x y z
#    x 1.783970 0.000000 0.037490 
#    y 0.000000 1.767950 0.000000 
#    z 0.037490 0.000000 1.741520 
# 
# From -- ./inp_files/348416.got.cif
#   From: 2010.05.17/outbox.cif.g08.bks.cpg/sg12_175_cif.got.tgz:348416.got - 2010.06.03 13:09:07.
