data_PCOD9221434
_publ_section_title
;
Structure prediction by ZEFSAII (Michael W. Deem and Ramdas Pophale) SiO2 
 PCOD9221434
Probable space group: C 2/M
;
_chemical_formula_sum "Si O2"
_cell_formula_units_Z 56
_cell_length_a 19.223200
_cell_length_b 20.342100
_cell_length_c 16.686893
_cell_angle_alpha 90.000000
_cell_angle_beta 156.586209
_cell_angle_gamma 90.000000
_cell_volume 2592.929416
_symmetry_space_group_name_H-M "C 2/M"
_symmetry_group_IT_number 12
_symmetry_cell_setting 'monoclinic'
loop_
_space_group_symop_operation_xyz
x,y,z
-x,y,-z
-x,-y,-z
x,-y,z
1/2+x,1/2+y,z
1/2-x,1/2+y,-z
1/2-x,1/2-y,-z
1/2+x,1/2-y,z
loop_
_atom_site_type_symbol
_atom_site_label
_atom_site_fract_x
_atom_site_fract_y
_atom_site_fract_z
Si Si1 0.180424 0.927063 0.516279
Si Si2 0.803791 0.319732 0.321962
Si Si3 0.883084 0.202854 0.038613
Si Si4 0.695017 0.425506 0.793337
Si Si5 0.701882 0.826927 0.236854
Si Si6 0.743244 0.641114 0.426858
Si Si7 0.376360 0.157889 0.101921
O O1 0.287630 0.868333 0.670534
O O2 0.186416 0.916594 0.427234
O O3 0.986952 0.920374 0.350337
O O4 0.245377 0.000000 0.605384
O O5 0.672511 0.320589 0.108045
O O6 0.793703 0.243635 0.341294
O O7 0.756192 0.367253 0.344961
O O8 0.000000 0.332640 0.500000
O O9 0.767712 0.163510 0.980710
O O10 0.841397 0.279387 0.007932
O O11 0.086829 0.193162 0.271111
O O12 0.711833 0.500000 0.781050
O O13 0.710064 0.374005 0.736851
O O14 0.843869 0.406455 0.014794
O O15 0.500000 0.816289 0.000000
O O16 0.935030 0.662512 0.658283
#
# Coordination Sequence:
#
# PCOD9221434 Si02
#       7
#     8   8   8   8   8   8   8
#     4  11  26  44  65  94 131 176 229 275 327 391
#     4  12  25  42  65  99 135 172 218 274 334 400
#     4  11  23  42  61  96 135 166 215 273 331 387
#     4  11  23  44  67  94 134 180 220 269 326 397
#     4  12  25  40  63  98 137 178 218 267 332 402
#     4  12  25  41  69  93 131 174 221 269 333 385
#     4  11  23  39  65  97 129 174 214 271 324 389
#
# _framework density 21.597194999999999
#
# number of rings (size 3 to 8) (size 9 to 14) (size 15 to 20)
#    0.000    0.571    4.286    4.286    4.000    4.000 
#    0.000    0.000    0.000    3.000    0.000    0.000 
#    0.000    0.000    0.000    0.000    0.000    0.000 
#
# Total GULP energy -156642.708631 kJ/mol
# GULP energy per Si atom -5594.382451 kJ/mol
# Density = 2.154804 g / cm^3
# Si number density = 21.597195 Si / 1000 Ang^3
#
#
#
# Elastic Constant Matrix: (Units=GPa)
#
#
# Indices 1 2 3 4 5 6 
#
# 1 130.9956 20.2357 30.6589 0.0000 3.3854 0.0000
# 2 20.2357 31.0092 -7.1930 0.0000 -1.6627 0.0000
# 3 30.6589 -7.1930 91.0856 0.0000 -0.4035 0.0000
# 4 0.0000 0.0000 0.0000 16.5269 0.0000 0.4484
# 5 3.3854 -1.6627 -0.4035 0.0000 43.3177 0.0000
# 6 0.0000 0.0000 0.0000 0.4484 0.0000 26.7280
#
#
#
# Elastic Compliance Matrix: (Units=1/GPa)
#
#
# Indices 1 2 3 4 5 6 
#
# 1 0.009682 -0.007266 -0.003837 0.000000 -0.001071 0.000000
# 2 -0.007266 0.038375 0.005485 0.000000 0.002092 0.000000
# 3 -0.003837 0.005485 0.012706 0.000000 0.000629 0.000000
# 4 0.000000 0.000000 0.000000 0.060535 0.000000 -0.001016
# 5 -0.001071 0.002092 0.000629 0.000000 0.023255 0.000000
# 6 0.000000 0.000000 0.000000 -0.001016 0.000000 0.037431
#
#
# Mechanical properties :
#
#
# Convention : Reuss Voigt Hill
#
# Bulk Modulus (GPa) = 20.19099 37.83261 29.01180
# Shear Modulus (GPa) = 23.84031 31.27378 27.55705
#
# Velocity S-wave (km/s) = 3.32605 3.80945 3.57593
# Velocity P-wave (km/s) = 4.91114 6.07492 5.52376
#
# Compressibility (1/GPa) = 0.04952705
#
# Stress axis : x y z
#
# Youngs Moduli (GPa) = 103.28377 26.05893 78.70108
#
# Poissons Ratio (x) = 0.18934 0.30201
# Poissons Ratio (y) = 0.75044 -0.43170
# Poissons Ratio (z) = 0.39635 -0.14294
#
# Static dielectric constant tensor:
#      x y z
#    x 1.832900 0.000000 0.002320 
#    y 0.000000 1.732520 0.000000 
#    z 0.002320 0.000000 1.793770 
# 
# From -- ./inp_files/286090.got.cif
#   From: 2010.05.17/outbox.cif.g08.bks.cpg/sg12_144_cif.got.tgz:286090.got - 2010.06.03 13:09:07.
