data_PCOD9221456
_publ_section_title
;
Structure prediction by ZEFSAII (Michael W. Deem and Ramdas Pophale) SiO2 
 PCOD9221456
Probable space group: C 2/M
;
_chemical_formula_sum "Si O2"
_cell_formula_units_Z 56
_cell_length_a 8.669913
_cell_length_b 28.629938
_cell_length_c 20.234335
_cell_angle_alpha 90.000000
_cell_angle_beta 32.005247
_cell_angle_gamma 90.000000
_cell_volume 2661.934911
_symmetry_space_group_name_H-M "C 2/M"
_symmetry_group_IT_number 12
_symmetry_cell_setting 'monoclinic'
loop_
_space_group_symop_operation_xyz
x,y,z
-x,y,-z
-x,-y,-z
x,-y,z
1/2+x,1/2+y,z
1/2-x,1/2+y,-z
1/2-x,1/2-y,-z
1/2+x,1/2-y,z
loop_
_atom_site_type_symbol
_atom_site_label
_atom_site_fract_x
_atom_site_fract_y
_atom_site_fract_z
Si Si1 0.188103 0.231095 0.142799
Si Si2 0.320791 0.696587 0.496501
Si Si3 0.302666 0.447756 0.624752
Si Si4 0.663091 0.354535 0.251568
Si Si5 0.653913 0.552584 0.634413
Si Si6 0.792849 0.608669 0.865257
Si Si7 0.794217 0.691077 0.769836
O O1 0.205575 0.185295 0.181925
O O2 0.053763 0.272435 0.235525
O O3 0.972642 0.219492 0.162224
O O4 0.500000 0.244523 0.000000
O O5 0.500000 0.696004 0.500000
O O6 0.250000 0.750000 0.500000
O O7 0.478894 0.667736 0.380376
O O8 0.007443 0.676389 0.633223
O O9 0.500000 0.421248 0.500000
O O10 0.246503 0.500000 0.620545
O O11 0.493363 0.449328 0.621659
O O12 0.996520 0.425454 0.750316
O O13 0.494170 0.400124 0.283881
O O14 0.978660 0.370392 0.164500
O O15 0.608406 0.500000 0.680923
O O16 0.000000 0.558677 0.500000
O O17 0.695125 0.649004 0.851046
O O18 0.500000 0.586936 0.000000
#
# Coordination Sequence:
#
# PCOD9221456 Si02
#       7
#     8   8   8   8   8   8   8
#     4  12  25  42  60  85 122 166 207 247 301 367
#     4  12  24  40  60  90 124 156 203 258 315 359
#     4   9  20  38  62  92 123 155 200 256 309 362
#     4  11  24  39  62  91 124 157 203 261 305 365
#     4   9  20  37  60  88 121 156 194 243 309 369
#     4  11  23  40  61  87 122 166 207 248 305 369
#     4  12  24  39  62  84 122 162 204 252 302 361
#
# _framework density 21.037330000000001
#
# number of rings (size 3 to 8) (size 9 to 14) (size 15 to 20)
#    0.000    1.143    2.857    3.429    6.000    0.286 
#    0.000    0.000    0.000    0.429    0.000    0.000 
#    0.000    0.000    0.000    0.000    0.000    0.000 
#
# Total GULP energy -156399.751736 kJ/mol
# GULP energy per Si atom -5585.705419 kJ/mol
# Density = 2.098945 g / cm^3
# Si number density = 21.037330 Si / 1000 Ang^3
#
#
#
# Elastic Constant Matrix: (Units=GPa)
#
#
# Indices 1 2 3 4 5 6 
#
# 1 36.2759 9.1387 14.1487 0.0001 -7.9515 0.0002
# 2 9.1387 79.9725 33.9846 -0.0001 5.9829 -0.0004
# 3 14.1487 33.9846 131.7747 0.0009 -14.0756 0.0014
# 4 0.0001 -0.0001 0.0009 36.8768 -0.0003 -0.8060
# 5 -7.9515 5.9829 -14.0756 -0.0003 29.1619 -0.0001
# 6 0.0002 -0.0004 0.0014 -0.8060 -0.0001 15.5167
#
#
#
# Elastic Compliance Matrix: (Units=1/GPa)
#
#
# Indices 1 2 3 4 5 6 
#
# 1 0.030886 -0.003517 -0.001510 0.000000 0.008414 0.000000
# 2 -0.003517 0.015135 -0.004175 0.000000 -0.006079 0.000001
# 3 -0.001510 -0.004175 0.009358 0.000000 0.004961 -0.000001
# 4 0.000000 0.000000 0.000000 0.027148 0.000000 0.001410
# 5 0.008414 -0.006079 0.004961 0.000000 0.040227 0.000000
# 6 0.000000 0.000001 -0.000001 0.001410 0.000000 0.064520
#
#
# Mechanical properties :
#
#
# Convention : Reuss Voigt Hill
#
# Bulk Modulus (GPa) = 27.04632 40.28522 33.66577
# Shear Modulus (GPa) = 22.93535 29.02783 25.98159
#
# Velocity S-wave (km/s) = 3.30543 3.71863 3.51810
# Velocity P-wave (km/s) = 5.23948 6.13421 5.70441
#
# Compressibility (1/GPa) = 0.03697360
#
# Stress axis : x y z
#
# Youngs Moduli (GPa) = 32.37721 66.07094 106.86498
#
# Poissons Ratio (x) = 0.23237 0.16141
# Poissons Ratio (y) = 0.11387 0.44617
# Poissons Ratio (z) = 0.04890 0.27585
#
# Static dielectric constant tensor:
#      x y z
#    x 1.792830 0.000000 0.002600 
#    y 0.000000 1.815300 0.000000 
#    z 0.002600 0.000000 1.774670 
# 
# From -- ./inp_files/302980.got.cif
#   From: 2010.05.17/outbox.cif.g08.bks.cpg/sg12_152_cif.got.tgz:302980.got - 2010.06.03 13:09:07.
