data_PCOD9221658
_publ_section_title
;
Structure prediction by ZEFSAII (Michael W. Deem and Ramdas Pophale) SiO2 
 PCOD9221658
Probable space group: C 2/M
;
_chemical_formula_sum "Si O2"
_cell_formula_units_Z 50
_cell_length_a 14.686905
_cell_length_b 14.808190
_cell_length_c 12.977650
_cell_angle_alpha 90.000000
_cell_angle_beta 117.858335
_cell_angle_gamma 90.000000
_cell_volume 2495.355910
_symmetry_space_group_name_H-M "C 2/M"
_symmetry_group_IT_number 12
_symmetry_cell_setting 'monoclinic'
loop_
_space_group_symop_operation_xyz
x,y,z
-x,y,-z
-x,-y,-z
x,-y,z
1/2+x,1/2+y,z
1/2-x,1/2+y,-z
1/2-x,1/2-y,-z
1/2+x,1/2-y,z
loop_
_atom_site_type_symbol
_atom_site_label
_atom_site_fract_x
_atom_site_fract_y
_atom_site_fract_z
Si Si1 0.353393 0.602322 0.682795
Si Si2 0.676003 0.258680 0.862963
Si Si3 0.460193 0.749392 0.862274
Si Si4 0.389790 0.342480 0.474546
Si Si5 0.139208 0.649184 0.647636
Si Si6 0.719164 0.896229 0.232690
Si Si7 0.500000 0.000000 0.500000
O O1 0.391755 0.500000 0.697766
O O2 0.399142 0.658685 0.801331
O O3 0.380538 0.653898 0.592007
O O4 0.230720 0.602653 0.632305
O O5 0.559566 0.254377 0.841589
O O6 0.680955 0.179230 0.781040
O O7 0.712398 0.348274 0.820632
O O8 0.750000 0.250000 0.000000
O O9 0.381195 0.832926 0.805246
O O10 0.500000 0.751594 0.000000
O O11 0.500000 0.382473 0.500000
O O12 0.385862 0.242079 0.424948
O O13 0.292276 0.391646 0.371754
O O14 0.046027 0.579956 0.600248
O O15 0.693507 0.000000 0.195730
#
# Coordination Sequence:
#
# PCOD9221658 Si02
#       7
#     8   8   8   8   8   8   2
#     4  12  24  41  68  99 136 178 230 279 346 421
#     4  11  23  48  71  95 139 190 230 290 361 426
#     4  12  25  46  73 100 142 183 236 294 358 416
#     4  11  23  43  70  96 139 183 226 282 353 417
#     4  11  23  42  64  98 141 180 220 287 353 419
#     4  11  25  46  72 105 141 184 241 291 352 429
#     4  12  24  40  68 108 140 168 244 282 360 436
#
# _framework density 20.037223000000001
#
# number of rings (size 3 to 8) (size 9 to 14) (size 15 to 20)
#    0.000    0.640    6.400    2.880    0.000    3.840 
#    5.760    0.000    0.000    0.000    0.000    0.000 
#    0.000    0.000    0.000    0.000    0.000    0.000 
#
# Total GULP energy -139352.420315 kJ/mol
# GULP energy per Si atom -5574.096813 kJ/mol
# Density = 1.999162 g / cm^3
# Si number density = 20.037223 Si / 1000 Ang^3
#
#
#
# Elastic Constant Matrix: (Units=GPa)
#
#
# Indices 1 2 3 4 5 6 
#
# 1 96.1738 12.8519 17.2592 0.0000 1.3886 0.0000
# 2 12.8519 132.3055 50.0345 0.0000 7.6909 0.0000
# 3 17.2592 50.0345 107.4941 0.0000 22.2411 0.0000
# 4 0.0000 0.0000 0.0000 11.0858 0.0000 4.5624
# 5 1.3886 7.6909 22.2411 0.0000 26.1992 0.0000
# 6 0.0000 0.0000 0.0000 4.5624 0.0000 -15.2545
#
#
#
# Elastic Compliance Matrix: (Units=1/GPa)
#
#
# Indices 1 2 3 4 5 6 
#
# 1 0.010754 -0.000450 -0.001730 0.000000 0.001031 0.000000
# 2 -0.000450 0.009219 -0.004445 0.000000 0.001091 0.000000
# 3 -0.001730 -0.004445 0.013781 0.000000 -0.010303 0.000000
# 4 0.000000 0.000000 0.000000 0.080319 0.000000 0.024022
# 5 0.001031 0.001091 -0.010303 0.000000 0.046541 0.000000
# 6 0.000000 0.000000 0.000000 0.024022 0.000000 -0.058370
#
#
# Mechanical properties :
#
#
# Convention : Reuss Voigt Hill
#
# Bulk Modulus (GPa) = 48.77154 55.14053 51.95603
# Shear Modulus (GPa) = 40.87339 21.46129 31.16734
#
# Velocity S-wave (km/s) = 4.52140 3.27627 3.94823
# Velocity P-wave (km/s) = 7.18684 6.47231 6.83891
#
# Compressibility (1/GPa) = 0.02050376
#
# Stress axis : x y z
#
# Youngs Moduli (GPa) = 92.99164 108.46623 72.56258
#
# Poissons Ratio (x) = 0.04882 0.12557
# Poissons Ratio (y) = 0.04186 0.32252
# Poissons Ratio (z) = 0.16092 0.48210
#
# Static dielectric constant tensor:
#      x y z
#    x 1.833920 0.000000 0.031050 
#    y 0.000000 1.650040 0.000000 
#    z 0.031050 0.000000 1.702370 
# 
# From -- ./inp_files/143807.got.cif
#   From: 2010.05.17/outbox.cif.g08.bks.cpg/sg12_72_cif.got.tgz:143807.got - 2010.06.03 13:09:07.
