data_PCOD9221778
_publ_section_title
;
Structure prediction by ZEFSAII (Michael W. Deem and Ramdas Pophale) SiO2 
 PCOD9221778
Probable space group: C 2/M
;
_chemical_formula_sum "Si O2"
_cell_formula_units_Z 56
_cell_length_a 15.264112
_cell_length_b 17.776894
_cell_length_c 11.678992
_cell_angle_alpha 90.000000
_cell_angle_beta 124.203151
_cell_angle_gamma 90.000000
_cell_volume 2620.984036
_symmetry_space_group_name_H-M "C 2/M"
_symmetry_group_IT_number 12
_symmetry_cell_setting 'monoclinic'
loop_
_space_group_symop_operation_xyz
x,y,z
-x,y,-z
-x,-y,-z
x,-y,z
1/2+x,1/2+y,z
1/2-x,1/2+y,-z
1/2-x,1/2-y,-z
1/2+x,1/2-y,z
loop_
_atom_site_type_symbol
_atom_site_label
_atom_site_fract_x
_atom_site_fract_y
_atom_site_fract_z
Si Si1 0.375294 0.637977 0.399627
Si Si2 0.461567 0.297536 0.844730
Si Si3 0.392904 0.412465 0.164502
Si Si4 0.998666 0.376931 0.133557
Si Si5 0.803798 0.415208 0.146566
Si Si6 0.302553 0.084123 0.567360
Si Si7 0.791883 0.693702 0.348893
O O1 0.500000 0.623693 0.500000
O O2 0.343347 0.608779 0.250422
O O3 0.307263 0.597803 0.447218
O O4 0.349478 0.726385 0.390102
O O5 0.510571 0.356793 0.792416
O O6 0.504662 0.213687 0.855782
O O7 0.334955 0.294226 0.745806
O O8 0.500000 0.320322 0.000000
O O9 0.424493 0.500000 0.187791
O O10 0.304898 0.400975 0.001729
O O11 0.104479 0.405887 0.271971
O O12 0.898123 0.409863 0.124776
O O13 0.000000 0.394227 0.000000
O O14 0.799573 0.500000 0.191109
O O15 0.819910 0.355035 0.258053
O O16 0.317983 0.145986 0.480784
O O17 0.305634 0.000000 0.521193
#
# Coordination Sequence:
#
# PCOD9221778 Si02
#       7
#     8   8   8   8   8   8   8
#     4  12  27  45  70  99 135 180 228 281 337 400
#     4  11  23  43  70 102 134 178 224 278 340 402
#     4  11  25  43  69 103 136 175 226 284 341 398
#     4  11  25  45  71 102 137 180 230 279 336 402
#     4  11  25  43  68 102 140 177 223 284 341 396
#     4  12  27  46  71 101 137 182 226 278 341 404
#     4  12  26  45  69 101 139 180 227 277 336 410
#
# _framework density 21.366019999999999
#
# number of rings (size 3 to 8) (size 9 to 14) (size 15 to 20)
#    0.000    0.571    2.857    4.286    6.000    7.143 
#    0.000    1.429    0.000    0.000    0.000    0.000 
#    0.000    0.000    0.000    0.000    0.000    0.000 
#
# Total GULP energy -156861.111880 kJ/mol
# GULP energy per Si atom -5602.182567 kJ/mol
# Density = 2.131739 g / cm^3
# Si number density = 21.366020 Si / 1000 Ang^3
#
#
#
# Elastic Constant Matrix: (Units=GPa)
#
#
# Indices 1 2 3 4 5 6 
#
# 1 72.3201 2.9981 -4.4299 0.0000 5.3476 0.0000
# 2 2.9981 67.8695 9.5827 0.0000 -7.8168 0.0000
# 3 -4.4299 9.5827 58.5619 0.0000 -4.2610 0.0000
# 4 0.0000 0.0000 0.0000 12.7101 0.0000 -16.0854
# 5 5.3476 -7.8168 -4.2610 0.0000 35.7958 0.0000
# 6 0.0000 0.0000 0.0000 -16.0854 0.0000 101.1891
#
#
#
# Elastic Compliance Matrix: (Units=1/GPa)
#
#
# Indices 1 2 3 4 5 6 
#
# 1 0.014099 -0.001028 0.001074 0.000000 -0.002203 0.000000
# 2 -0.001028 0.015490 -0.002376 0.000000 0.003253 0.000000
# 3 0.001074 -0.002376 0.017649 0.000000 0.001422 0.000000
# 4 0.000000 0.000000 0.000000 0.098492 0.000000 0.015657
# 5 -0.002203 0.003253 0.001422 0.000000 0.029145 0.000000
# 6 0.000000 0.000000 0.000000 0.015657 0.000000 0.012371
#
#
# Mechanical properties :
#
#
# Convention : Reuss Voigt Hill
#
# Bulk Modulus (GPa) = 23.48579 23.89481 23.69030
# Shear Modulus (GPa) = 24.26034 42.64572 33.45303
#
# Velocity S-wave (km/s) = 3.37332 4.47246 3.96120
# Velocity P-wave (km/s) = 5.11746 6.15454 5.65980
#
# Compressibility (1/GPa) = 0.04257895
#
# Stress axis : x y z
#
# Youngs Moduli (GPa) = 70.92832 64.55902 56.65911
#
# Poissons Ratio (x) = 0.06638 -0.06088
# Poissons Ratio (y) = 0.07293 0.13460
# Poissons Ratio (z) = -0.07621 0.15337
#
# Static dielectric constant tensor:
#      x y z
#    x 1.734800 0.000000 0.000020 
#    y 0.000000 1.753750 0.000000 
#    z 0.000020 0.000000 1.762830 
# 
# From -- ./inp_files/146241.got.cif
#   From: 2010.05.17/outbox.cif.g08.bks.cpg/sg12_74_cif.got.tgz:146241.got - 2010.06.03 13:09:07.
