data_PCOD9221416
_publ_section_title
;
Structure prediction by ZEFSAII (Michael W. Deem and Ramdas Pophale) SiO2 
 PCOD9221416
Probable space group: C 2/M
;
_chemical_formula_sum "Si O2"
_cell_formula_units_Z 56
_cell_length_a 26.603613
_cell_length_b 8.653736
_cell_length_c 12.685987
_cell_angle_alpha 90.000000
_cell_angle_beta 68.516855
_cell_angle_gamma 90.000000
_cell_volume 2717.670070
_symmetry_space_group_name_H-M "C 2/M"
_symmetry_group_IT_number 12
_symmetry_cell_setting 'monoclinic'
loop_
_space_group_symop_operation_xyz
x,y,z
-x,y,-z
-x,-y,-z
x,-y,z
1/2+x,1/2+y,z
1/2-x,1/2+y,-z
1/2-x,1/2-y,-z
1/2+x,1/2-y,z
loop_
_atom_site_type_symbol
_atom_site_label
_atom_site_fract_x
_atom_site_fract_y
_atom_site_fract_z
Si Si1 0.881282 0.682926 0.706902
Si Si2 0.964609 0.681112 0.132628
Si Si3 0.614011 0.682420 0.519044
Si Si4 0.299095 0.182677 0.394565
Si Si5 0.189816 0.685750 0.034979
Si Si6 0.994892 0.817705 0.683130
Si Si7 0.651030 0.684160 0.842931
O O1 0.875096 0.500000 0.693821
O O2 0.866302 0.772286 0.611991
O O3 0.845152 0.727771 0.835125
O O4 0.943263 0.722754 0.685885
O O5 0.961666 0.500000 0.164528
O O6 0.905501 0.744885 0.152315
O O7 0.991343 0.775614 0.206941
O O8 0.000000 0.694189 0.000000
O O9 0.621347 0.500000 0.533540
O O10 0.647093 0.775722 0.580789
O O11 0.550132 0.716257 0.577642
O O12 0.250000 0.250000 0.500000
O O13 0.304671 0.260692 0.276051
O O14 0.293567 0.000000 0.386889
O O15 0.190497 0.500000 0.026944
O O16 0.250000 0.750000 0.000000
O O17 0.164086 0.754135 0.948847
O O18 0.983204 0.000000 0.680494
O O19 0.647923 0.500000 0.845414
#
# Coordination Sequence:
#
# PCOD9221416 Si02
#       7
#     8   8   8   8   8   8   8
#     4  11  25  43  66  96 133 175 223 274 330 395
#     4  11  23  39  63  95 132 174 220 271 328 391
#     4  11  24  43  67  99 136 174 220 271 327 393
#     4  12  26  45  71 100 134 175 221 273 332 393
#     4  11  26  47  69  96 130 173 224 276 332 395
#     4  11  23  40  64  96 133 172 219 270 326 394
#     4  12  25  44  69  99 134 172 220 273 331 394
#
# _framework density 20.605884
#
# number of rings (size 3 to 8) (size 9 to 14) (size 15 to 20)
#    0.000    0.714    1.429    6.000    2.000   10.286 
#    0.000    0.000    0.000    0.000    0.000    0.000 
#    0.000    0.000    0.000    0.000    0.000    0.000 
#
# Total GULP energy -156815.956525 kJ/mol
# GULP energy per Si atom -5600.569876 kJ/mol
# Density = 2.055898 g / cm^3
# Si number density = 20.605884 Si / 1000 Ang^3
#
#
#
# Elastic Constant Matrix: (Units=GPa)
#
#
# Indices 1 2 3 4 5 6 
#
# 1 33.5263 3.5116 4.1950 0.0000 -5.2306 0.0000
# 2 3.5116 45.3226 28.9864 0.0000 -25.3935 0.0000
# 3 4.1950 28.9864 123.3974 0.0000 -8.3796 0.0000
# 4 0.0000 0.0000 0.0000 30.8383 0.0000 2.1491
# 5 -5.2306 -25.3935 -8.3796 0.0000 34.1108 0.0000
# 6 0.0000 0.0000 0.0000 2.1491 0.0000 37.5965
#
#
#
# Elastic Compliance Matrix: (Units=1/GPa)
#
#
# Indices 1 2 3 4 5 6 
#
# 1 0.030660 0.001284 -0.000976 0.000000 0.005418 0.000000
# 2 0.001284 0.045193 -0.008503 0.000000 0.031751 0.000000
# 3 -0.000976 -0.008503 0.009859 0.000000 -0.004058 0.000000
# 4 0.000000 0.000000 0.000000 0.032557 0.000000 -0.001861
# 5 0.005418 0.031751 -0.004058 0.000000 0.052787 0.000000
# 6 0.000000 0.000000 0.000000 -0.001861 0.000000 0.026705
#
#
# Mechanical properties :
#
#
# Convention : Reuss Voigt Hill
#
# Bulk Modulus (GPa) = 14.42560 30.62581 22.52570
# Shear Modulus (GPa) = 21.07410 31.54600 26.31005
#
# Velocity S-wave (km/s) = 3.20147 3.91694 3.57714
# Velocity P-wave (km/s) = 4.54773 5.94571 5.29308
#
# Compressibility (1/GPa) = 0.06932121
#
# Stress axis : x y z
#
# Youngs Moduli (GPa) = 32.61555 22.12749 101.43031
#
# Poissons Ratio (x) = -0.02841 0.09900
# Poissons Ratio (y) = -0.04188 0.86250
# Poissons Ratio (z) = 0.03183 0.18816
#
# Static dielectric constant tensor:
#      x y z
#    x 1.709980 0.000000 -0.015550 
#    y 0.000000 1.682210 0.000000 
#    z -0.015550 0.000000 1.731280 
# 
# From -- ./inp_files/180776.got.cif
#   From: 2010.05.17/outbox.cif.g08.bks.cpg/sg12_91_cif.got.tgz:180776.got - 2010.06.03 13:09:07.
