data_PCOD9221779
_publ_section_title
;
Structure prediction by ZEFSAII (Michael W. Deem and Ramdas Pophale) SiO2 
 PCOD9221779
Probable space group: C 2/M
;
_chemical_formula_sum "Si O2"
_cell_formula_units_Z 38
_cell_length_a 14.639590
_cell_length_b 10.638650
_cell_length_c 14.857683
_cell_angle_alpha 90.000000
_cell_angle_beta 129.622196
_cell_angle_gamma 90.000000
_cell_volume 1782.409110
_symmetry_space_group_name_H-M "C 2/M"
_symmetry_group_IT_number 12
_symmetry_cell_setting 'monoclinic'
loop_
_space_group_symop_operation_xyz
x,y,z
-x,y,-z
-x,-y,-z
x,-y,z
1/2+x,1/2+y,z
1/2-x,1/2+y,-z
1/2-x,1/2-y,-z
1/2+x,1/2-y,z
loop_
_atom_site_type_symbol
_atom_site_label
_atom_site_fract_x
_atom_site_fract_y
_atom_site_fract_z
Si Si1 0.291551 0.142019 0.761308
Si Si2 0.662915 0.138970 0.418126
Si Si3 0.000000 0.000000 0.500000
Si Si4 0.147175 0.856102 0.927346
Si Si5 0.000000 0.241979 0.000000
Si Si6 0.447789 0.713820 0.328331
O O1 0.341565 0.145214 0.692871
O O2 0.394865 0.172678 0.894826
O O3 0.180873 0.233158 0.707345
O O4 0.241476 0.000000 0.742295
O O5 0.750000 0.250000 0.500000
O O6 0.533428 0.168019 0.375159
O O7 0.704658 0.000000 0.470242
O O8 0.988424 0.109838 0.570586
O O9 0.081276 0.833886 0.790852
O O10 0.056693 0.836216 0.953558
O O11 0.193460 0.000000 0.958253
O O12 0.250000 0.750000 0.000000
#
# Coordination Sequence:
#
# PCOD9221779 Si02
#       6
#     8   8   2   8   4   8
#     4  11  23  43  70 106 143 195 245 291 365 446
#     4  11  27  47  73 108 146 190 246 306 372 436
#     4  12  24  44  82  96 144 190 258 294 364 448
#     4  12  26  46  72 105 148 190 240 302 375 437
#     4  12  24  44  68 108 147 188 239 304 361 446
#     4  12  24  45  75 106 141 193 251 301 364 442
#
# _framework density 21.319459999999999
#
# number of rings (size 3 to 8) (size 9 to 14) (size 15 to 20)
#    0.000    0.421    6.316    1.895    4.421    1.684 
#    0.000    4.737    0.000    0.000    0.000    0.000 
#    0.000    0.000    0.000    0.000    0.000    0.000 
#
# Total GULP energy -105966.953888 kJ/mol
# GULP energy per Si atom -5577.208099 kJ/mol
# Density = 2.127094 g / cm^3
# Si number density = 21.319460 Si / 1000 Ang^3
#
#
#
# Elastic Constant Matrix: (Units=GPa)
#
#
# Indices 1 2 3 4 5 6 
#
# 1 102.5844 37.6789 15.1869 0.0000 4.7923 0.0000
# 2 37.6789 126.8884 36.7071 0.0000 1.1424 0.0000
# 3 15.1869 36.7071 57.6396 0.0000 -21.3473 0.0000
# 4 0.0000 0.0000 0.0000 28.0039 0.0000 3.0651
# 5 4.7923 1.1424 -21.3473 0.0000 44.6144 0.0000
# 6 0.0000 0.0000 0.0000 3.0651 0.0000 33.3023
#
#
#
# Elastic Compliance Matrix: (Units=1/GPa)
#
#
# Indices 1 2 3 4 5 6 
#
# 1 0.011135 -0.002718 -0.001969 0.000000 -0.002068 0.000000
# 2 -0.002718 0.010910 -0.007568 0.000000 -0.003609 0.000000
# 3 -0.001969 -0.007568 0.027756 0.000000 0.013686 0.000000
# 4 0.000000 0.000000 0.000000 0.036073 0.000000 -0.003320
# 5 -0.002068 -0.003609 0.013686 0.000000 0.029277 0.000000
# 6 0.000000 0.000000 0.000000 -0.003320 0.000000 0.030334
#
#
# Mechanical properties :
#
#
# Convention : Reuss Voigt Hill
#
# Bulk Modulus (GPa) = 39.54024 51.80648 45.67336
# Shear Modulus (GPa) = 28.02297 34.35343 31.18820
#
# Velocity S-wave (km/s) = 3.62944 4.01854 3.82893
# Velocity P-wave (km/s) = 6.01254 6.77380 6.40449
#
# Compressibility (1/GPa) = 0.02529069
#
# Stress axis : x y z
#
# Youngs Moduli (GPa) = 89.81061 91.65946 36.02770
#
# Poissons Ratio (x) = 0.24915 0.07093
# Poissons Ratio (y) = 0.24412 0.27266
# Poissons Ratio (z) = 0.17682 0.69369
#
# Static dielectric constant tensor:
#      x y z
#    x 1.808450 0.000000 0.033760 
#    y 0.000000 1.745860 0.000000 
#    z 0.033760 0.000000 1.807970 
# 
# From -- ./inp_files/213079.got.cif
#   From: 2010.05.17/outbox.cif.g08.bks.cpg/sg12_107_cif.got.tgz:213079.got - 2010.06.03 13:09:07.
