data_PCOD9221068
_publ_section_title
;
Structure prediction by ZEFSAII (Michael W. Deem and Ramdas Pophale) SiO2 
 PCOD9221068
Probable space group: C 2/M
;
_chemical_formula_sum "Si O2"
_cell_formula_units_Z 44
_cell_length_a 15.872038
_cell_length_b 25.197982
_cell_length_c 12.767972
_cell_angle_alpha 90.000000
_cell_angle_beta 154.188016
_cell_angle_gamma 90.000000
_cell_volume 2223.454022
_symmetry_space_group_name_H-M "C 2/M"
_symmetry_group_IT_number 12
_symmetry_cell_setting 'monoclinic'
loop_
_space_group_symop_operation_xyz
x,y,z
-x,y,-z
-x,-y,-z
x,-y,z
1/2+x,1/2+y,z
1/2-x,1/2+y,-z
1/2-x,1/2-y,-z
1/2+x,1/2-y,z
loop_
_atom_site_type_symbol
_atom_site_label
_atom_site_fract_x
_atom_site_fract_y
_atom_site_fract_z
Si Si1 0.390559 0.113562 0.275524
Si Si2 0.313600 0.500000 0.647224
Si Si3 0.174552 0.614905 0.408251
Si Si4 0.200315 0.776690 0.780970
Si Si5 0.944612 0.816679 0.156712
Si Si6 0.500000 0.851936 0.000000
Si Si7 0.760134 0.500000 0.184884
O O1 0.500000 0.134244 0.500000
O O2 0.509455 0.129354 0.306908
O O3 0.369461 0.051122 0.265257
O O4 0.176658 0.135272 0.027236
O O5 0.243546 0.555591 0.517750
O O6 0.262914 0.500000 0.714801
O O7 0.544682 0.500000 0.899313
O O8 0.337041 0.661357 0.598884
O O9 0.085243 0.615379 0.192638
O O10 0.123150 0.804256 0.800952
O O11 0.322584 0.816462 0.845293
O O12 0.000000 0.758318 0.500000
O O13 0.360376 0.732816 0.995358
#
# Coordination Sequence:
#
# PCOD9221068 Si02
#       7
#     8   4   8   8   8   4   4
#     4  12  23  40  67 101 134 176 221 282 344 410
#     4  11  23  43  70 100 141 182 230 281 341 420
#     4  12  25  44  71 101 136 182 230 279 344 405
#     4  11  24  46  68  98 139 182 226 283 339 405
#     4  11  25  42  69 100 135 179 228 277 344 412
#     4  12  26  45  72  96 138 183 234 284 334 406
#     4  11  22  41  67 101 141 180 218 286 356 401
#
# _framework density 19.789031000000001
#
# number of rings (size 3 to 8) (size 9 to 14) (size 15 to 20)
#    0.000    0.545    7.273    1.364    0.000    4.727 
#    0.000    0.000    0.000    2.182    0.000    0.000 
#    0.000    0.000    0.000    0.000    0.000    0.000 
#
# Total GULP energy -122817.273791 kJ/mol
# GULP energy per Si atom -5582.603354 kJ/mol
# Density = 1.974399 g / cm^3
# Si number density = 19.789031 Si / 1000 Ang^3
#
#
#
# Elastic Constant Matrix: (Units=GPa)
#
#
# Indices 1 2 3 4 5 6 
#
# 1 89.2985 14.5216 31.6500 0.0000 -12.9707 0.0000
# 2 14.5216 64.9504 11.4787 0.0000 -9.4303 0.0000
# 3 31.6500 11.4787 119.6206 0.0001 -13.6692 0.0000
# 4 0.0000 0.0000 0.0001 25.6330 0.0000 -6.0734
# 5 -12.9707 -9.4303 -13.6692 0.0000 40.8349 0.0000
# 6 0.0000 0.0000 0.0000 -6.0734 0.0000 23.2755
#
#
#
# Elastic Compliance Matrix: (Units=1/GPa)
#
#
# Indices 1 2 3 4 5 6 
#
# 1 0.012948 -0.001989 -0.002930 0.000000 0.002673 0.000000
# 2 -0.001989 0.016390 -0.000713 0.000000 0.002915 0.000000
# 3 -0.002930 -0.000713 0.009439 0.000000 0.002064 0.000000
# 4 0.000000 0.000000 0.000000 0.041583 0.000000 0.010850
# 5 0.002673 0.002915 0.002064 0.000000 0.026702 0.000000
# 6 0.000000 0.000000 0.000000 0.010850 0.000000 0.045795
#
#
# Mechanical properties :
#
#
# Convention : Reuss Voigt Hill
#
# Bulk Modulus (GPa) = 36.34581 43.24112 39.79347
# Shear Modulus (GPa) = 28.85274 32.36331 30.60803
#
# Velocity S-wave (km/s) = 3.82254 4.04842 3.93710
# Velocity P-wave (km/s) = 6.15540 6.61448 6.38907
#
# Compressibility (1/GPa) = 0.02751349
#
# Stress axis : x y z
#
# Youngs Moduli (GPa) = 77.22920 61.01147 105.94031
#
# Poissons Ratio (x) = 0.12136 0.31037
# Poissons Ratio (y) = 0.15362 0.07558
# Poissons Ratio (z) = 0.22626 0.04353
#
# Static dielectric constant tensor:
#      x y z
#    x 1.659140 0.000000 0.004390 
#    y 0.000000 1.709400 0.000000 
#    z 0.004390 0.000000 1.709330 
# 
# From -- ./inp_files/149569.got.cif
#   From: 2010.05.17/outbox.cif.g08.bks.cpg/sg12_75_cif.got.tgz:149569.got - 2010.06.03 13:09:07.
