data_PCOD9221087
_publ_section_title
;
Structure prediction by ZEFSAII (Michael W. Deem and Ramdas Pophale) SiO2 
 PCOD9221087
Probable space group: C 2/M
;
_chemical_formula_sum "Si O2"
_cell_formula_units_Z 36
_cell_length_a 19.639496
_cell_length_b 17.712191
_cell_length_c 5.119258
_cell_angle_alpha 90.000000
_cell_angle_beta 105.015423
_cell_angle_gamma 90.000000
_cell_volume 1719.974783
_symmetry_space_group_name_H-M "C 2/M"
_symmetry_group_IT_number 12
_symmetry_cell_setting 'monoclinic'
loop_
_space_group_symop_operation_xyz
x,y,z
-x,y,-z
-x,-y,-z
x,-y,z
1/2+x,1/2+y,z
1/2-x,1/2+y,-z
1/2-x,1/2-y,-z
1/2+x,1/2-y,z
loop_
_atom_site_type_symbol
_atom_site_label
_atom_site_fract_x
_atom_site_fract_y
_atom_site_fract_z
Si Si1 0.334513 0.124891 0.168565
Si Si2 0.549358 0.000000 0.800094
Si Si3 0.118987 0.000000 0.403006
Si Si4 0.784637 0.000000 0.002251
Si Si5 0.327535 0.777461 0.657072
Si Si6 0.452720 0.339941 0.694601
O O1 0.399725 0.072315 0.154999
O O2 0.264768 0.073060 0.084799
O O3 0.344627 0.155731 0.470062
O O4 0.328270 0.191951 0.952737
O O5 0.500000 0.000000 0.500000
O O6 0.500000 0.000000 0.000000
O O7 0.073600 0.924544 0.390204
O O8 0.154174 0.000000 0.152204
O O9 0.180909 0.000000 0.678687
O O10 0.250000 0.750000 0.500000
O O11 0.384759 0.712181 0.673219
O O12 0.500000 0.312131 0.500000
O O13 0.500000 0.340048 0.000000
#
# Coordination Sequence:
#
# PCOD9221087 Si02
#       6
#     8   4   4   4   8   8
#     4  11  24  41  64  95 128 162 214 265 314 379
#     4  11  24  41  64  91 126 171 212 256 318 381
#     4  12  24  44  68  92 128 168 212 262 316 383
#     4  11  22  41  68  97 124 167 212 264 318 370
#     4  12  25  43  67  96 130 170 214 264 319 379
#     4  12  26  44  66  96 130 170 214 264 322 380
#
# _framework density 20.930537000000001
#
# number of rings (size 3 to 8) (size 9 to 14) (size 15 to 20)
#    0.000    0.444    0.000    9.333    0.000    8.889 
#    0.000    0.000    0.000    0.000    0.000    0.000 
#    0.000    0.000    0.000    0.000    0.000    0.000 
#
# Total GULP energy -100874.958276 kJ/mol
# GULP energy per Si atom -5604.164349 kJ/mol
# Density = 2.088290 g / cm^3
# Si number density = 20.930537 Si / 1000 Ang^3
#
#
#
# Elastic Constant Matrix: (Units=GPa)
#
#
# Indices 1 2 3 4 5 6 
#
# 1 89.6212 22.0858 -12.2886 0.0000 10.8067 0.0000
# 2 22.0858 72.6575 -4.7806 0.0000 17.4528 0.0000
# 3 -12.2886 -4.7806 71.1480 0.0000 12.0590 0.0000
# 4 0.0000 0.0000 0.0000 7.5929 0.0000 -15.1873
# 5 10.8067 17.4528 12.0590 0.0000 46.9515 0.0000
# 6 0.0000 0.0000 0.0000 -15.1873 0.0000 36.7885
#
#
#
# Elastic Compliance Matrix: (Units=1/GPa)
#
#
# Indices 1 2 3 4 5 6 
#
# 1 0.012524 -0.003091 0.002352 0.000000 -0.002338 0.000000
# 2 -0.003091 0.016169 0.001517 0.000000 -0.005688 0.000000
# 3 0.002352 0.001517 0.015422 0.000000 -0.005066 0.000000
# 4 0.000000 0.000000 0.000000 0.755792 0.000000 0.312012
# 5 -0.002338 -0.005688 -0.005066 0.000000 0.025252 0.000000
# 6 0.000000 0.000000 0.000000 0.312012 0.000000 0.155990
#
#
# Mechanical properties :
#
#
# Convention : Reuss Voigt Hill
#
# Bulk Modulus (GPa) = 21.89597 27.05111 24.47354
# Shear Modulus (GPa) = 5.02605 33.49391 19.25998
#
# Velocity S-wave (km/s) = 1.55129 4.00464 3.03675
# Velocity P-wave (km/s) = 3.70036 5.85962 4.90040
#
# Compressibility (1/GPa) = 0.04567051
#
# Stress axis : x y z
#
# Youngs Moduli (GPa) = 79.84618 61.84714 64.84258
#
# Poissons Ratio (x) = 0.19115 -0.15249
# Poissons Ratio (y) = 0.24678 -0.09835
# Poissons Ratio (z) = -0.18778 -0.09381
#
# Static dielectric constant tensor:
#      x y z
#    x 1.740040 0.000000 -0.008280 
#    y 0.000000 1.736810 0.000000 
#    z -0.008280 0.000000 1.692790 
# 
# From -- ./inp_files/15377.got.cif
#   From: 2010.05.17/outbox.cif.g08.bks.cpg/sg12_8_cif.got.tgz:15377.got - 2010.06.03 13:09:07.
