data_PCOD9221932
_publ_section_title
;
Structure prediction by ZEFSAII (Michael W. Deem and Ramdas Pophale) SiO2 
 PCOD9221932
Probable space group: C 2/M
;
_chemical_formula_sum "Si O2"
_cell_formula_units_Z 48
_cell_length_a 10.511196
_cell_length_b 27.273171
_cell_length_c 7.868682
_cell_angle_alpha 90.000000
_cell_angle_beta 71.957043
_cell_angle_gamma 90.000000
_cell_volume 2144.816580
_symmetry_space_group_name_H-M "C 2/M"
_symmetry_group_IT_number 12
_symmetry_cell_setting 'monoclinic'
loop_
_space_group_symop_operation_xyz
x,y,z
-x,y,-z
-x,-y,-z
x,-y,z
1/2+x,1/2+y,z
1/2-x,1/2+y,-z
1/2-x,1/2-y,-z
1/2+x,1/2-y,z
loop_
_atom_site_type_symbol
_atom_site_label
_atom_site_fract_x
_atom_site_fract_y
_atom_site_fract_z
Si Si1 0.703715 0.884166 0.602148
Si Si2 0.161444 0.115482 0.087508
Si Si3 0.565480 0.121699 0.155735
Si Si4 0.139125 0.704960 0.400705
Si Si5 0.570830 0.555906 0.657531
Si Si6 0.647056 0.277749 0.925378
O O1 0.784656 0.876987 0.742703
O O2 0.556697 0.906208 0.701797
O O3 0.673783 0.831444 0.537643
O O4 0.793051 0.914725 0.434099
O O5 0.029154 0.083523 0.172789
O O6 0.293839 0.094489 0.938066
O O7 0.135109 0.167006 0.005239
O O8 0.602046 0.168569 0.257029
O O9 0.500000 0.135548 0.000000
O O10 0.280493 0.727351 0.286202
O O11 0.000000 0.732805 0.500000
O O12 0.500000 0.554721 0.500000
O O13 0.593183 0.500000 0.701232
O O14 0.500000 0.256148 0.000000
O O15 0.750000 0.250000 0.000000
#
# Coordination Sequence:
#
# PCOD9221932 Si02
#       6
#     8   8   8   8   8   8
#     4   9  16  30  54  80 105 141 183 224 275 329
#     4   9  18  34  55  77 108 146 182 226 280 336
#     4   8  15  28  50  76 102 139 180 219 269 326
#     4   9  18  34  57  81 108 143 184 230 278 337
#     4   9  17  30  51  80 110 141 181 227 275 331
#     4  11  24  40  58  83 115 151 191 239 293 349
#
# _framework density 22.379535000000001
#
# number of rings (size 3 to 8) (size 9 to 14) (size 15 to 20)
#    0.000    2.833    0.000    1.000    0.000    6.667 
#    0.000    6.667    0.000   22.000    0.000    0.000 
#    0.000    0.000    0.000    0.000    0.000    0.000 
#
# Total GULP energy -133818.325004 kJ/mol
# GULP energy per Si atom -5575.763542 kJ/mol
# Density = 2.232860 g / cm^3
# Si number density = 22.379535 Si / 1000 Ang^3
#
#
#
# Elastic Constant Matrix: (Units=GPa)
#
#
# Indices 1 2 3 4 5 6 
#
# 1 121.1823 34.1336 70.0318 0.0000 -53.9650 0.0000
# 2 34.1336 63.6292 24.6528 0.0000 -25.9394 0.0000
# 3 70.0318 24.6528 124.5828 0.0000 -46.7878 0.0000
# 4 0.0000 0.0000 0.0000 0.7010 0.0000 3.2711
# 5 -53.9650 -25.9394 -46.7878 0.0000 65.4874 0.0000
# 6 0.0000 0.0000 0.0000 3.2711 0.0000 10.1379
#
#
#
# Elastic Compliance Matrix: (Units=1/GPa)
#
#
# Indices 1 2 3 4 5 6 
#
# 1 0.015698 -0.003156 -0.005209 0.000000 0.007964 0.000000
# 2 -0.003156 0.019523 -0.000221 0.000000 0.004974 0.000000
# 3 -0.005209 -0.000221 0.012784 0.000000 0.004754 0.000000
# 4 0.000000 0.000000 0.000000 -2.821202 0.000000 0.910299
# 5 0.007964 0.004974 0.004754 0.000000 0.027200 0.000000
# 6 0.000000 0.000000 0.000000 0.910299 0.000000 -0.195080
#
#
# Mechanical properties :
#
#
# Convention : Reuss Voigt Hill
#
# Bulk Modulus (GPa) = 32.43319 63.00340 47.71830
# Shear Modulus (GPa) = -1.71607 27.30366 12.79380
#
# Velocity S-wave (km/s) = -0.87662 3.49668 2.39356
# Velocity P-wave (km/s) = 3.67412 6.67201 5.38586
#
# Compressibility (1/GPa) = 0.03083261
#
# Stress axis : x y z
#
# Youngs Moduli (GPa) = 63.70320 51.22285 78.22454
#
# Poissons Ratio (x) = 0.16167 0.40744
# Poissons Ratio (y) = 0.20106 0.01728
# Poissons Ratio (z) = 0.33181 0.01132
#
# Static dielectric constant tensor:
#      x y z
#    x 1.945890 0.000000 -0.102560 
#    y 0.000000 1.779590 0.000000 
#    z -0.102560 0.000000 1.957400 
# 
# From -- ./inp_files/52451.got.cif
#   From: 2010.05.17/outbox.cif.g08.bks.cpg/sg12_27_cif.got.tgz:52451.got - 2010.06.03 13:09:07.
