data_PCOD9221447
_publ_section_title
;
Structure prediction by ZEFSAII (Michael W. Deem and Ramdas Pophale) SiO2 
 PCOD9221447
Probable space group: C 2/M
;
_chemical_formula_sum "Si O2"
_cell_formula_units_Z 48
_cell_length_a 26.268488
_cell_length_b 20.656437
_cell_length_c 9.574644
_cell_angle_alpha 90.000000
_cell_angle_beta 26.863963
_cell_angle_gamma 90.000000
_cell_volume 2347.632967
_symmetry_space_group_name_H-M "C 2/M"
_symmetry_group_IT_number 12
_symmetry_cell_setting 'monoclinic'
loop_
_space_group_symop_operation_xyz
x,y,z
-x,y,-z
-x,-y,-z
x,-y,z
1/2+x,1/2+y,z
1/2-x,1/2+y,-z
1/2-x,1/2-y,-z
1/2+x,1/2-y,z
loop_
_atom_site_type_symbol
_atom_site_label
_atom_site_fract_x
_atom_site_fract_y
_atom_site_fract_z
Si Si1 0.565080 0.000000 0.068034
Si Si2 0.120088 0.380877 0.138091
Si Si3 0.833587 0.927030 0.772460
Si Si4 0.692086 0.368392 0.885003
Si Si5 0.221347 0.237841 0.233535
Si Si6 0.671496 0.000000 0.500508
Si Si7 0.980380 0.853700 0.211774
O O1 0.598588 0.935636 0.073377
O O2 0.432850 0.000000 0.352393
O O3 0.626514 0.000000 0.768799
O O4 0.000000 0.364718 0.500000
O O5 0.205029 0.412985 0.043021
O O6 0.187866 0.315360 0.932389
O O7 0.909101 0.912605 0.452882
O O8 0.848689 0.000000 0.781166
O O9 0.863468 0.880344 0.826845
O O10 0.770040 0.305945 0.710431
O O11 0.757623 0.434528 0.693470
O O12 0.598433 0.353448 0.000828
O O13 0.098875 0.206967 0.555237
O O14 0.250000 0.250000 0.000000
O O15 0.000000 0.858699 0.000000
#
# Coordination Sequence:
#
# PCOD9221447 Si02
#       7
#     4   8   8   8   8   4   8
#     4  11  25  46  69 108 150 181 244 295 363 416
#     4  11  23  39  76 101 137 183 237 296 350 418
#     4  11  23  41  68 107 136 180 238 282 354 422
#     4  12  25  46  76  96 147 182 239 289 357 424
#     4  11  26  46  71 108 139 184 242 290 355 436
#     4  11  28  46  69 107 144 196 231 301 360 423
#     4  11  28  46  68 105 139 187 232 289 360 417
#
# _framework density 20.446126
#
# number of rings (size 3 to 8) (size 9 to 14) (size 15 to 20)
#    0.000    0.833    5.000    1.750    8.167    1.667 
#    3.000    0.000    0.000    0.000    0.000    0.000 
#    0.000    0.000    0.000    0.000    0.000    0.000 
#
# Total GULP energy -134139.807803 kJ/mol
# GULP energy per Si atom -5589.158658 kJ/mol
# Density = 2.039959 g / cm^3
# Si number density = 20.446126 Si / 1000 Ang^3
#
#
#
# Elastic Constant Matrix: (Units=GPa)
#
#
# Indices 1 2 3 4 5 6 
#
# 1 151.6554 49.8205 53.2916 0.0000 -4.4309 0.0000
# 2 49.8205 167.4149 41.3814 0.0000 -12.0184 0.0000
# 3 53.2916 41.3814 83.7162 0.0000 1.0611 0.0000
# 4 0.0000 0.0000 0.0000 16.3305 0.0000 5.3762
# 5 -4.4309 -12.0184 1.0611 0.0000 33.1848 0.0000
# 6 0.0000 0.0000 0.0000 5.3762 0.0000 13.8383
#
#
#
# Elastic Compliance Matrix: (Units=1/GPa)
#
#
# Indices 1 2 3 4 5 6 
#
# 1 0.008797 -0.001333 -0.004952 0.000000 0.000850 0.000000
# 2 -0.001333 0.007233 -0.002759 0.000000 0.002530 0.000000
# 3 -0.004952 -0.002759 0.016489 0.000000 -0.002188 0.000000
# 4 0.000000 0.000000 0.000000 0.070215 0.000000 -0.027279
# 5 0.000850 0.002530 -0.002188 0.000000 0.031234 0.000000
# 6 0.000000 0.000000 0.000000 -0.027279 0.000000 0.082861
#
#
# Mechanical properties :
#
#
# Convention : Reuss Voigt Hill
#
# Bulk Modulus (GPa) = 69.29237 76.86375 73.07806
# Shear Modulus (GPa) = 20.85705 29.89026 25.37366
#
# Velocity S-wave (km/s) = 3.19736 3.82763 3.52661
# Velocity P-wave (km/s) = 6.89889 7.56368 7.23892
#
# Compressibility (1/GPa) = 0.01443160
#
# Stress axis : x y z
#
# Youngs Moduli (GPa) = 113.68067 138.24692 60.64714
#
# Poissons Ratio (x) = 0.18425 0.30030
# Poissons Ratio (y) = 0.15151 0.16734
# Poissons Ratio (z) = 0.56291 0.38145
#
# Static dielectric constant tensor:
#      x y z
#    x 1.719780 0.000000 -0.001980 
#    y 0.000000 1.722780 0.000000 
#    z -0.001980 0.000000 1.728570 
# 
# From -- ./inp_files/99773.got.cif
#   From: 2010.05.17/outbox.cif.g08.bks.cpg/sg12_50_cif.got.tgz:99773.got - 2010.06.03 13:09:07.
