data_PCOD9221162
_publ_section_title
;
Structure prediction by ZEFSAII (Michael W. Deem and Ramdas Pophale) SiO2 
 PCOD9221162
Probable space group: C 2/M
;
_chemical_formula_sum "Si O2"
_cell_formula_units_Z 32
_cell_length_a 19.020638
_cell_length_b 11.985237
_cell_length_c 19.827793
_cell_angle_alpha 90.000000
_cell_angle_beta 20.326955
_cell_angle_gamma 90.000000
_cell_volume 1570.170996
_symmetry_space_group_name_H-M "C 2/M"
_symmetry_group_IT_number 12
_symmetry_cell_setting 'monoclinic'
loop_
_space_group_symop_operation_xyz
x,y,z
-x,y,-z
-x,-y,-z
x,-y,z
1/2+x,1/2+y,z
1/2-x,1/2+y,-z
1/2-x,1/2-y,-z
1/2+x,1/2-y,z
loop_
_atom_site_type_symbol
_atom_site_label
_atom_site_fract_x
_atom_site_fract_y
_atom_site_fract_z
Si Si1 0.848126 0.877655 0.065902
Si Si2 0.184909 0.869199 0.469031
Si Si3 0.067653 0.705984 0.208582
Si Si4 0.721686 0.796351 0.312897
O O1 0.680959 0.872632 0.159315
O O2 0.794423 0.784202 0.169927
O O3 0.830647 0.000000 0.113490
O O4 0.081192 0.859378 0.833257
O O5 0.401610 0.851194 0.310580
O O6 0.186809 0.807279 0.394556
O O7 0.034819 0.803601 0.654636
O O8 0.139208 0.000000 0.504083
O O9 0.250000 0.750000 0.000000
O O10 0.500000 0.850511 0.500000
#
# Coordination Sequence:
#
# PCOD9221162 Si02
#       4
#     8   8   8   8
#     4  11  24  42  67  97 129 172 217 272 329 375
#     4  11  25  44  69  96 132 175 214 270 332 380
#     4  11  23  47  66  96 134 166 226 270 315 398
#     4  11  22  43  63  96 134 163 218 268 317 397
#
# _framework density 20.379947000000001
#
# number of rings (size 3 to 8) (size 9 to 14) (size 15 to 20)
#    0.000    1.000    5.000    2.250    0.000    4.500 
#    0.000    2.500    0.000    0.000    0.000    0.000 
#    0.000    0.000    0.000    0.000    0.000    0.000 
#
# Total GULP energy -89073.165899 kJ/mol
# GULP energy per Si atom -5567.072869 kJ/mol
# Density = 2.033356 g / cm^3
# Si number density = 20.379947 Si / 1000 Ang^3
#
#
#
# Elastic Constant Matrix: (Units=GPa)
#
#
# Indices 1 2 3 4 5 6 
#
# 1 121.2963 39.6738 33.7409 0.0030 -11.4320 -0.0031
# 2 39.6738 110.4574 37.4496 -0.0146 12.4965 0.0021
# 3 33.7409 37.4496 134.2784 -0.0029 -19.8468 0.0011
# 4 0.0030 -0.0146 -0.0029 6.4951 0.0000 6.3032
# 5 -11.4320 12.4965 -19.8468 0.0000 45.2639 0.0019
# 6 -0.0031 0.0021 0.0011 6.3032 0.0019 13.2897
#
#
#
# Elastic Compliance Matrix: (Units=1/GPa)
#
#
# Indices 1 2 3 4 5 6 
#
# 1 0.009996 -0.003574 -0.001065 -0.000029 0.003044 0.000016
# 2 -0.003574 0.012108 -0.003322 0.000054 -0.005702 -0.000027
# 3 -0.001065 -0.003322 0.009343 -0.000003 0.004744 0.000000
# 4 -0.000029 0.000054 -0.000003 0.285265 -0.000018 -0.135299
# 5 0.003044 -0.005702 0.004744 -0.000018 0.026516 0.000006
# 6 0.000016 -0.000027 0.000000 -0.135299 0.000006 0.139417
#
#
# Mechanical properties :
#
#
# Convention : Reuss Voigt Hill
#
# Bulk Modulus (GPa) = 64.40874 65.30674 64.85774
# Shear Modulus (GPa) = 9.92573 30.02092 19.97333
#
# Velocity S-wave (km/s) = 2.20928 3.84221 3.13397
# Velocity P-wave (km/s) = 6.17904 7.19706 6.70739
#
# Compressibility (1/GPa) = 0.01552584
#
# Stress axis : x y z
#
# Youngs Moduli (GPa) = 100.03582 82.58912 107.03767
#
# Poissons Ratio (x) = 0.29515 0.11402
# Poissons Ratio (y) = 0.35750 0.35554
# Poissons Ratio (z) = 0.10656 0.27433
#
# Static dielectric constant tensor:
#      x y z
#    x 1.836980 0.000000 -0.021970 
#    y 0.000000 1.695080 0.000000 
#    z -0.021970 0.000000 1.765610 
# 
# From -- ./inp_files/321120.got.cif
#   From: 2010.05.17/outbox.cif.g08.bks.cpg/sg12_161_cif.got.tgz:321120.got - 2010.06.03 13:09:07.
