data_PCOD9221856
_publ_section_title
;
Structure prediction by ZEFSAII (Michael W. Deem and Ramdas Pophale) SiO2 
 PCOD9221856
Probable space group: C 2/M
;
_chemical_formula_sum "Si O2"
_cell_formula_units_Z 28
_cell_length_a 8.603304
_cell_length_b 25.021656
_cell_length_c 8.323136
_cell_angle_alpha 90.000000
_cell_angle_beta 47.374496
_cell_angle_gamma 90.000000
_cell_volume 1318.334340
_symmetry_space_group_name_H-M "C 2/M"
_symmetry_group_IT_number 12
_symmetry_cell_setting 'monoclinic'
loop_
_space_group_symop_operation_xyz
x,y,z
-x,y,-z
-x,-y,-z
x,-y,z
1/2+x,1/2+y,z
1/2-x,1/2+y,-z
1/2-x,1/2-y,-z
1/2+x,1/2-y,z
loop_
_atom_site_type_symbol
_atom_site_label
_atom_site_fract_x
_atom_site_fract_y
_atom_site_fract_z
Si Si1 0.500000 0.618704 0.500000
Si Si2 0.164971 0.691068 0.589272
Si Si3 0.242181 0.846070 0.824848
Si Si4 0.281437 0.937153 0.051622
O O1 0.302582 0.658964 0.619384
O O2 0.419903 0.581536 0.701190
O O3 0.250000 0.750000 0.500000
O O4 0.204697 0.656449 0.400159
O O5 0.914352 0.691876 0.789988
O O6 0.273521 0.901856 0.895569
O O7 0.000000 0.828774 0.000000
O O8 0.270537 0.000000 0.025253
O O9 0.500000 0.928124 0.000000
#
# Coordination Sequence:
#
# PCOD9221856 Si02
#       4
#     4   8   8   8
#     4  12  21  44  66  96 138 170 223 280 320 396
#     4  11  25  44  65  98 134 172 221 276 331 391
#     4  11  23  45  67  98 134 170 222 275 326 396
#     4  11  24  44  68  97 134 178 221 272 336 391
#
# _framework density 21.238921000000001
#
# number of rings (size 3 to 8) (size 9 to 14) (size 15 to 20)
#    0.000    0.857    5.714    2.143    0.000    1.714 
#    5.143    2.857    0.000    0.000    0.000    0.000 
#    0.000    0.000    0.000    0.000    0.000    0.000 
#
# Total GULP energy -78098.824287 kJ/mol
# GULP energy per Si atom -5578.487449 kJ/mol
# Density = 2.119058 g / cm^3
# Si number density = 21.238921 Si / 1000 Ang^3
#
#
#
# Elastic Constant Matrix: (Units=GPa)
#
#
# Indices 1 2 3 4 5 6 
#
# 1 84.9017 47.4970 30.4482 0.0000 -37.9330 0.0000
# 2 47.4970 149.9416 51.5023 0.0000 -4.6802 0.0000
# 3 30.4482 51.5023 64.4372 0.0000 -19.8497 0.0000
# 4 0.0000 0.0000 0.0000 20.2222 0.0000 -15.0909
# 5 -37.9330 -4.6802 -19.8497 0.0000 60.1229 0.0000
# 6 0.0000 0.0000 0.0000 -15.0909 0.0000 -22.4887
#
#
#
# Elastic Compliance Matrix: (Units=1/GPa)
#
#
# Indices 1 2 3 4 5 6 
#
# 1 0.021062 -0.005752 -0.001558 0.000000 0.012327 0.000000
# 2 -0.005752 0.010964 -0.007681 0.000000 -0.005312 0.000000
# 3 -0.001558 -0.007681 0.024388 0.000000 0.006471 0.000000
# 4 0.000000 0.000000 0.000000 0.032950 0.000000 -0.022111
# 5 0.012327 -0.005312 0.006471 0.000000 0.026133 0.000000
# 6 0.000000 0.000000 0.000000 -0.022111 0.000000 -0.029629
#
#
# Mechanical properties :
#
#
# Convention : Reuss Voigt Hill
#
# Bulk Modulus (GPa) = 37.83345 62.01949 49.92647
# Shear Modulus (GPa) = 40.10883 22.89347 31.50115
#
# Velocity S-wave (km/s) = 4.35035 3.28670 3.85539
# Velocity P-wave (km/s) = 6.56400 6.60814 6.58610
#
# Compressibility (1/GPa) = 0.02643164
#
# Stress axis : x y z
#
# Youngs Moduli (GPa) = 47.47812 91.20789 41.00395
#
# Poissons Ratio (x) = 0.52463 0.06388
# Poissons Ratio (y) = 0.27310 0.31497
# Poissons Ratio (z) = 0.07396 0.70060
#
# Static dielectric constant tensor:
#      x y z
#    x 1.850620 0.000000 -0.045370 
#    y 0.000000 1.707960 0.000000 
#    z -0.045370 0.000000 1.793460 
# 
# From -- ./inp_files/40014.got.cif
#   From: 2010.05.17/outbox.cif.g08.bks.cpg/sg12_21_cif.got.tgz:40014.got - 2010.06.03 13:09:07.
