data_PCOD9221718
_publ_section_title
;
Structure prediction by ZEFSAII (Michael W. Deem and Ramdas Pophale) SiO2 
 PCOD9221718
Probable space group: C 2/M
;
_chemical_formula_sum "Si O2"
_cell_formula_units_Z 40
_cell_length_a 7.895795
_cell_length_b 19.754076
_cell_length_c 11.330800
_cell_angle_alpha 90.000000
_cell_angle_beta 73.356757
_cell_angle_gamma 90.000000
_cell_volume 1693.273173
_symmetry_space_group_name_H-M "C 2/M"
_symmetry_group_IT_number 12
_symmetry_cell_setting 'monoclinic'
loop_
_space_group_symop_operation_xyz
x,y,z
-x,y,-z
-x,-y,-z
x,-y,z
1/2+x,1/2+y,z
1/2-x,1/2+y,-z
1/2-x,1/2-y,-z
1/2+x,1/2-y,z
loop_
_atom_site_type_symbol
_atom_site_label
_atom_site_fract_x
_atom_site_fract_y
_atom_site_fract_z
Si Si1 0.837154 0.500000 0.182524
Si Si2 0.124796 0.361811 0.698499
Si Si3 0.257909 0.500000 0.053747
Si Si4 0.679784 0.421706 0.539129
Si Si5 0.851966 0.731145 0.098382
Si Si6 0.799806 0.127921 0.202862
O O1 0.812550 0.433634 0.263334
O O2 0.045456 0.500000 0.111351
O O3 0.717235 0.500000 0.090889
O O4 0.190171 0.368286 0.551515
O O5 0.207862 0.308546 0.773886
O O6 0.911984 0.354925 0.749247
O O7 0.322598 0.567294 0.105692
O O8 0.500000 0.421066 0.500000
O O9 0.747798 0.500000 0.529003
O O10 0.648515 0.398201 0.678720
O O11 0.900689 0.804671 0.142220
O O12 0.750000 0.750000 0.000000
O O13 0.000000 0.686491 0.000000
#
# Coordination Sequence:
#
# PCOD9221718 Si02
#       6
#     4   8   4   8   8   8
#     4   9  18  33  65  97 126 160 226 275 319 389
#     4  11  23  42  70  98 131 182 226 273 332 398
#     4   9  18  35  62  98 125 165 221 273 325 391
#     4  11  25  44  67 102 140 171 219 286 344 395
#     4  12  26  45  66 100 143 178 220 277 338 403
#     4  11  23  43  69  97 133 180 227 274 329 402
#
# _framework density 23.622886999999999
#
# number of rings (size 3 to 8) (size 9 to 14) (size 15 to 20)
#    0.000    1.200    4.000    1.800    5.600    1.600 
#    0.000    0.500    0.000    0.000    0.000    0.000 
#    0.000    0.000    0.000    0.000    0.000    0.000 
#
# Total GULP energy -111685.530784 kJ/mol
# GULP energy per Si atom -5584.276539 kJ/mol
# Density = 2.356912 g / cm^3
# Si number density = 23.622887 Si / 1000 Ang^3
#
#
#
# Elastic Constant Matrix: (Units=GPa)
#
#
# Indices 1 2 3 4 5 6 
#
# 1 67.9555 -3.6106 27.8046 0.0000 6.4477 0.0000
# 2 -3.6106 118.5582 34.6959 0.0000 14.1006 0.0000
# 3 27.8046 34.6959 132.3729 0.0000 27.0209 0.0000
# 4 0.0000 0.0000 0.0000 36.3013 0.0000 12.6200
# 5 6.4477 14.1006 27.0209 0.0000 49.2137 0.0000
# 6 0.0000 0.0000 0.0000 12.6200 0.0000 17.6066
#
#
#
# Elastic Compliance Matrix: (Units=1/GPa)
#
#
# Indices 1 2 3 4 5 6 
#
# 1 0.016399 0.001668 -0.003768 0.000000 -0.000558 0.000000
# 2 0.001668 0.009400 -0.002500 0.000000 -0.001539 0.000000
# 3 -0.003768 -0.002500 0.009859 0.000000 -0.004203 0.000000
# 4 0.000000 0.000000 0.000000 0.036690 0.000000 -0.026298
# 5 -0.000558 -0.001539 -0.004203 0.000000 0.023141 0.000000
# 6 0.000000 0.000000 0.000000 -0.026298 0.000000 0.075647
#
#
# Mechanical properties :
#
#
# Convention : Reuss Voigt Hill
#
# Bulk Modulus (GPa) = 37.79461 48.51848 43.15655
# Shear Modulus (GPa) = 26.43328 37.95742 32.19535
#
# Velocity S-wave (km/s) = 3.34873 4.01285 3.69574
# Velocity P-wave (km/s) = 5.56649 6.48490 6.04317
#
# Compressibility (1/GPa) = 0.02645880
#
# Stress axis : x y z
#
# Youngs Moduli (GPa) = 60.98013 106.38060 101.42850
#
# Poissons Ratio (x) = -0.17749 0.38218
# Poissons Ratio (y) = -0.10174 0.25358
# Poissons Ratio (z) = 0.22977 0.26596
#
# Static dielectric constant tensor:
#      x y z
#    x 1.896110 0.000000 -0.285750 
#    y 0.000000 1.855940 0.000000 
#    z -0.285750 0.000000 1.552950 
# 
# From -- ./inp_files/118991.got.cif
#   From: 2010.05.17/outbox.cif.g08.bks.cpg/sg12_60_cif.got.tgz:118991.got - 2010.06.03 13:09:07.
