data_PCOD9221265
_publ_section_title
;
Structure prediction by ZEFSAII (Michael W. Deem and Ramdas Pophale) SiO2 
 PCOD9221265
Probable space group: C 2/M
;
_chemical_formula_sum "Si O2"
_cell_formula_units_Z 56
_cell_length_a 16.280586
_cell_length_b 7.863504
_cell_length_c 28.385108
_cell_angle_alpha 90.000000
_cell_angle_beta 40.510716
_cell_angle_gamma 90.000000
_cell_volume 2360.566269
_symmetry_space_group_name_H-M "C 2/M"
_symmetry_group_IT_number 12
_symmetry_cell_setting 'monoclinic'
loop_
_space_group_symop_operation_xyz
x,y,z
-x,y,-z
-x,-y,-z
x,-y,z
1/2+x,1/2+y,z
1/2-x,1/2+y,-z
1/2-x,1/2-y,-z
1/2+x,1/2-y,z
loop_
_atom_site_type_symbol
_atom_site_label
_atom_site_fract_x
_atom_site_fract_y
_atom_site_fract_z
Si Si1 0.506211 0.804235 0.654513
Si Si2 0.602166 0.000000 0.027169
Si Si3 0.314428 0.000000 0.111832
Si Si4 0.756336 0.800673 0.202775
Si Si5 0.312455 0.706698 0.613946
Si Si6 0.459425 0.300315 0.880854
Si Si7 0.042037 0.803022 0.744790
Si Si8 0.909228 0.799721 0.475069
O O1 0.360775 0.743158 0.713568
O O2 0.529304 0.786625 0.700098
O O3 0.602560 0.722944 0.575574
O O4 0.512361 0.000000 0.639171
O O5 0.613173 0.167830 0.054392
O O6 0.459289 0.000000 0.067916
O O7 0.687251 0.000000 0.943585
O O8 0.256224 0.828823 0.159084
O O9 0.893553 0.790354 0.166534
O O10 0.735614 0.000000 0.199371
O O11 0.301104 0.500000 0.622232
O O12 0.190811 0.785665 0.691232
O O13 0.448040 0.760008 0.575305
O O14 0.318679 0.764377 0.556085
O O15 0.423444 0.500000 0.901303
O O16 0.463069 0.244759 0.824581
O O17 0.011199 0.000000 0.751158
O O18 0.909247 0.000000 0.483612
#
# Coordination Sequence:
#
# PCOD9221265 Si02
#       8
#     8   4   4   8   8   8   8   8
#     4  11  23  36  53  79 107 145 186 227 277 324
#     4   9  18  32  56  88 113 141 178 219 277 333
#     4   9  18  32  56  88 113 141 178 219 277 333
#     4   9  19  35  55  82 112 143 182 229 276 329
#     4   9  19  36  57  80 107 141 181 226 276 329
#     4   9  19  35  55  82 112 143 182 229 276 329
#     4  11  23  36  53  79 107 145 186 227 277 324
#     4   9  19  36  57  80 107 141 181 226 276 329
#
# _framework density 23.723120000000002
#
# number of rings (size 3 to 8) (size 9 to 14) (size 15 to 20)
#    0.000    2.429    0.000    2.571    4.000    3.429 
#    0.000    4.286    0.000    0.857    0.000    0.000 
#    0.000    0.000    0.000    0.000    0.000    0.000 
#
# Total GULP energy -156414.324672 kJ/mol
# GULP energy per Si atom -5586.225881 kJ/mol
# Density = 2.366912 g / cm^3
# Si number density = 23.723120 Si / 1000 Ang^3
#
#
#
# Elastic Constant Matrix: (Units=GPa)
#
#
# Indices 1 2 3 4 5 6 
#
# 1 73.9361 13.0147 25.0992 -0.0001 14.4278 0.0009
# 2 13.0147 64.6049 51.5325 -0.0023 16.5740 0.0016
# 3 25.0992 51.5325 134.4801 0.0001 42.7381 -0.0002
# 4 -0.0001 -0.0023 0.0001 24.8489 -0.0003 1.9204
# 5 14.4278 16.5740 42.7381 -0.0003 43.3206 0.0001
# 6 0.0009 0.0016 -0.0002 1.9204 0.0001 20.5333
#
#
#
# Elastic Compliance Matrix: (Units=1/GPa)
#
#
# Indices 1 2 3 4 5 6 
#
# 1 0.014793 -0.001106 -0.001320 0.000000 -0.003202 -0.000001
# 2 -0.001106 0.022376 -0.008397 0.000002 0.000092 -0.000002
# 3 -0.001320 -0.008397 0.014188 -0.000001 -0.010345 0.000001
# 4 0.000000 0.000002 -0.000001 0.040536 0.000000 -0.003791
# 5 -0.003202 0.000092 -0.010345 0.000000 0.034321 0.000000
# 6 -0.000001 -0.000002 0.000001 -0.003791 0.000000 0.049056
#
#
# Mechanical properties :
#
#
# Convention : Reuss Voigt Hill
#
# Bulk Modulus (GPa) = 33.65787 50.25710 41.95748
# Shear Modulus (GPa) = 24.17579 29.96554 27.07067
#
# Velocity S-wave (km/s) = 3.19577 3.55792 3.38170
# Velocity P-wave (km/s) = 5.27597 6.17327 5.74217
#
# Compressibility (1/GPa) = 0.02971073
#
# Stress axis : x y z
#
# Youngs Moduli (GPa) = 67.60139 44.69060 70.48337
#
# Poissons Ratio (x) = 0.04943 0.09301
# Poissons Ratio (y) = 0.07477 0.59187
# Poissons Ratio (z) = 0.08920 0.37528
#
# Static dielectric constant tensor:
#      x y z
#    x 2.006720 0.000000 0.000190 
#    y 0.000000 1.825640 0.000000 
#    z 0.000190 0.000000 1.872920 
# 
# From -- ./inp_files/363041.got.cif
#   From: 2010.05.17/outbox.cif.g08.bks.cpg/sg12_182_cif.got.tgz:363041.got - 2010.06.03 13:09:07.
