data_PCOD9221278
_publ_section_title
;
Structure prediction by ZEFSAII (Michael W. Deem and Ramdas Pophale) SiO2 
 PCOD9221278
Probable space group: C 2/M
;
_chemical_formula_sum "Si O2"
_cell_formula_units_Z 56
_cell_length_a 8.284182
_cell_length_b 19.113147
_cell_length_c 19.294282
_cell_angle_alpha 90.000000
_cell_angle_beta 77.603355
_cell_angle_gamma 90.000000
_cell_volume 2983.766989
_symmetry_space_group_name_H-M "C 2/M"
_symmetry_group_IT_number 12
_symmetry_cell_setting 'monoclinic'
loop_
_space_group_symop_operation_xyz
x,y,z
-x,y,-z
-x,-y,-z
x,-y,z
1/2+x,1/2+y,z
1/2-x,1/2+y,-z
1/2-x,1/2-y,-z
1/2+x,1/2-y,z
loop_
_atom_site_type_symbol
_atom_site_label
_atom_site_fract_x
_atom_site_fract_y
_atom_site_fract_z
Si Si1 0.772961 0.419219 0.345322
Si Si2 0.837273 0.829606 0.211902
Si Si3 0.049172 0.329607 0.788098
Si Si4 0.618280 0.580781 0.654679
Si Si5 0.516227 0.919453 0.077974
Si Si6 0.686671 0.414897 0.500000
Si Si7 0.405800 0.419453 0.077974
O O1 0.830227 0.500000 0.333322
O O2 0.859028 0.370370 0.281790
O O3 0.575746 0.419490 0.348510
O O4 0.795411 0.395328 0.423362
O O5 0.893953 0.750000 0.212096
O O6 0.644697 0.830880 0.210609
O O7 0.859186 0.870370 0.281790
O O8 0.932053 0.870698 0.141842
O O9 0.073894 0.370698 0.858158
O O10 0.663545 0.500000 0.666680
O O11 0.718771 0.604672 0.576639
O O12 0.710551 0.919725 0.078900
O O13 0.456178 0.000000 0.088197
O O14 0.500000 0.896233 0.000000
O O15 0.500000 0.391100 0.500000
O O16 0.684156 0.500000 0.500000
O O17 0.544375 0.500000 0.911803
O O18 0.500000 0.396234 0.000000
#
# Coordination Sequence:
#
# PCOD9221278 Si02
#       7
#     8   8   8   8   8   8   8
#     4   9  17  32  56  82 106 135 172 213 259 311
#     4  11  23  37  52  74 107 142 177 216 258 305
#     4  11  23  37  52  74 107 142 177 216 258 305
#     4   9  17  32  56  82 106 135 172 213 259 311
#     4   9  19  36  57  79 102 130 166 210 258 307
#     4   7  12  26  50  79 106 131 165 211 258 305
#     4   9  19  36  57  79 102 130 166 210 258 307
#
# _framework density 18.768222999999999
#
# number of rings (size 3 to 8) (size 9 to 14) (size 15 to 20)
#    0.000    2.714    0.000    3.429    0.000    4.571 
#    0.000    7.143    0.000    2.571    0.000    0.000 
#    0.000    0.000    0.000    0.000    0.000    0.000 
#
# Total GULP energy -156125.874027 kJ/mol
# GULP energy per Si atom -5575.924072 kJ/mol
# Density = 1.872551 g / cm^3
# Si number density = 18.768223 Si / 1000 Ang^3
#
#
#
# Elastic Constant Matrix: (Units=GPa)
#
#
# Indices 1 2 3 4 5 6 
#
# 1 15.6228 17.1219 23.2967 0.0000 1.8133 0.0000
# 2 17.1219 107.4052 118.4359 0.0000 4.4966 0.0000
# 3 23.2967 118.4359 234.0811 0.0000 7.8815 0.0000
# 4 0.0000 0.0000 0.0000 -7.7464 0.0000 -0.7414
# 5 1.8133 4.4966 7.8815 0.0000 16.8645 0.0000
# 6 0.0000 0.0000 0.0000 -0.7414 0.0000 8.9561
#
#
#
# Elastic Compliance Matrix: (Units=1/GPa)
#
#
# Indices 1 2 3 4 5 6 
#
# 1 0.079064 -0.008833 -0.003244 0.000000 -0.004630 0.000000
# 2 -0.008833 0.022055 -0.010275 0.000000 -0.000129 0.000000
# 3 -0.003244 -0.010275 0.009845 0.000000 -0.001512 0.000000
# 4 0.000000 0.000000 0.000000 -0.128077 0.000000 -0.010603
# 5 -0.004630 -0.000129 -0.001512 0.000000 0.060535 0.000000
# 6 0.000000 0.000000 0.000000 -0.010603 0.000000 0.110777
#
#
# Mechanical properties :
#
#
# Convention : Reuss Voigt Hill
#
# Bulk Modulus (GPa) = 15.09231 74.97980 45.03605
# Shear Modulus (GPa) = 22.62544 16.83181 19.72863
#
# Velocity S-wave (km/s) = 3.47582 2.99795 3.24570
# Velocity P-wave (km/s) = 4.91603 7.21254 6.17204
#
# Compressibility (1/GPa) = 0.06625891
#
# Stress axis : x y z
#
# Youngs Moduli (GPa) = 12.64797 45.34169 101.57750
#
# Poissons Ratio (x) = 0.40052 0.32947
# Poissons Ratio (y) = 0.11172 1.04375
# Poissons Ratio (z) = 0.04102 0.46590
#
# Static dielectric constant tensor:
#      x y z
#    x 1.652190 0.000000 0.000800 
#    y 0.000000 1.618540 0.000000 
#    z 0.000800 0.000000 1.670130 
# 
# From -- ./inp_files/257050.got.cif
#   From: 2010.05.17/outbox.cif.g08.bks.cpg/sg12_129_cif.got.tgz:257050.got - 2010.06.03 13:09:07.
