data_PCOD9221538
_publ_section_title
;
Structure prediction by ZEFSAII (Michael W. Deem and Ramdas Pophale) SiO2 
 PCOD9221538
Probable space group: C 2/M
;
_chemical_formula_sum "Si O2"
_cell_formula_units_Z 48
_cell_length_a 25.626008
_cell_length_b 17.037060
_cell_length_c 13.215961
_cell_angle_alpha 90.000000
_cell_angle_beta 21.814457
_cell_angle_gamma 90.000000
_cell_volume 2144.136944
_symmetry_space_group_name_H-M "C 2/M"
_symmetry_group_IT_number 12
_symmetry_cell_setting 'monoclinic'
loop_
_space_group_symop_operation_xyz
x,y,z
-x,y,-z
-x,-y,-z
x,-y,z
1/2+x,1/2+y,z
1/2-x,1/2+y,-z
1/2-x,1/2-y,-z
1/2+x,1/2-y,z
loop_
_atom_site_type_symbol
_atom_site_label
_atom_site_fract_x
_atom_site_fract_y
_atom_site_fract_z
Si Si1 0.948551 0.085854 0.270420
Si Si2 0.650107 0.092066 0.133921
Si Si3 0.918818 0.862926 0.547057
Si Si4 0.821596 0.809237 0.226871
Si Si5 0.364569 0.179426 0.636358
Si Si6 0.658709 0.863368 0.716612
O O1 0.973766 0.105247 0.342382
O O2 0.782735 0.089245 0.547568
O O3 0.004858 0.000000 0.144289
O O4 0.029181 0.149207 0.057980
O O5 0.496824 0.122662 0.378797
O O6 0.693429 0.145876 0.152798
O O7 0.648300 0.000000 0.163152
O O8 0.759742 0.108823 0.848600
O O9 0.919467 0.768444 0.546490
O O10 0.000000 0.892355 0.500000
O O11 0.744125 0.818232 0.259004
O O12 0.720494 0.847000 0.493419
O O13 0.845578 0.719792 0.216471
O O14 0.500000 0.895050 0.000000
#
# Coordination Sequence:
#
# PCOD9221538 Si02
#       6
#     8   8   8   8   8   8
#     4  12  28  47  70 106 147 185 230 292 357 418
#     4  11  25  44  65 103 148 180 230 293 344 407
#     4  12  25  42  70 103 140 185 235 280 339 419
#     4  11  24  44  74 105 138 181 239 290 349 419
#     4  11  23  40  73 100 133 186 237 280 344 416
#     4  11  25  46  74 105 137 181 237 298 351 413
#
# _framework density 22.38663
#
# number of rings (size 3 to 8) (size 9 to 14) (size 15 to 20)
#    0.000    0.667    3.333    5.500    4.667    5.667 
#    0.000    0.000    0.000    0.000    0.000    0.000 
#    0.000    0.000    0.000    0.000    0.000    0.000 
#
# Total GULP energy -134348.488425 kJ/mol
# GULP energy per Si atom -5597.853684 kJ/mol
# Density = 2.233568 g / cm^3
# Si number density = 22.386630 Si / 1000 Ang^3
#
#
#
# Elastic Constant Matrix: (Units=GPa)
#
#
# Indices 1 2 3 4 5 6 
#
# 1 113.9558 1.4414 20.2704 0.0000 -14.5271 -0.0001
# 2 1.4414 95.4967 1.0598 -0.0001 3.3021 -0.0002
# 3 20.2704 1.0598 101.5619 -0.0001 0.8376 -0.0002
# 4 0.0000 -0.0001 -0.0001 7.3814 0.0002 -27.2237
# 5 -14.5271 3.3021 0.8376 0.0002 28.0116 0.0002
# 6 -0.0001 -0.0002 -0.0002 -27.2237 0.0002 -14.9351
#
#
#
# Elastic Compliance Matrix: (Units=1/GPa)
#
#
# Indices 1 2 3 4 5 6 
#
# 1 0.009794 -0.000305 -0.001994 0.000000 0.005175 0.000000
# 2 -0.000305 0.010525 -0.000038 0.000000 -0.001398 0.000000
# 3 -0.001994 -0.000038 0.010256 0.000000 -0.001336 0.000000
# 4 0.000000 0.000000 0.000000 0.017542 0.000000 -0.031976
# 5 0.005175 -0.001398 -0.001336 0.000000 0.038588 0.000000
# 6 0.000000 0.000000 0.000000 -0.031976 0.000000 -0.008670
#
#
# Mechanical properties :
#
#
# Convention : Reuss Voigt Hill
#
# Bulk Modulus (GPa) = 38.60777 39.61752 39.11265
# Shear Modulus (GPa) = 54.74013 23.30776 39.02395
#
# Velocity S-wave (km/s) = 4.95028 3.23018 4.17967
# Velocity P-wave (km/s) = 7.06803 5.62561 6.38766
#
# Compressibility (1/GPa) = 0.02590152
#
# Stress axis : x y z
#
# Youngs Moduli (GPa) = 102.10790 95.01277 97.50741
#
# Poissons Ratio (x) = 0.02894 0.19445
# Poissons Ratio (y) = 0.03110 0.00366
# Poissons Ratio (z) = 0.20362 0.00356
#
# Static dielectric constant tensor:
#      x y z
#    x 1.826580 0.000000 -0.024120 
#    y 0.000000 1.779300 0.000000 
#    z -0.024120 0.000000 1.837200 
# 
# From -- ./inp_files/251425.got.cif
#   From: 2010.05.17/outbox.cif.g08.bks.cpg/sg12_126_cif.got.tgz:251425.got - 2010.06.03 13:09:07.
