data_PCOD9221937
_publ_section_title
;
Structure prediction by ZEFSAII (Michael W. Deem and Ramdas Pophale) SiO2 
 PCOD9221937
Probable space group: C 2/M
;
_chemical_formula_sum "Si O2"
_cell_formula_units_Z 44
_cell_length_a 11.140641
_cell_length_b 31.207908
_cell_length_c 7.877626
_cell_angle_alpha 90.000000
_cell_angle_beta 44.999991
_cell_angle_gamma 90.000000
_cell_volume 1936.667787
_symmetry_space_group_name_H-M "C 2/M"
_symmetry_group_IT_number 12
_symmetry_cell_setting 'monoclinic'
loop_
_space_group_symop_operation_xyz
x,y,z
-x,y,-z
-x,-y,-z
x,-y,z
1/2+x,1/2+y,z
1/2-x,1/2+y,-z
1/2-x,1/2-y,-z
1/2+x,1/2-y,z
loop_
_atom_site_type_symbol
_atom_site_label
_atom_site_fract_x
_atom_site_fract_y
_atom_site_fract_z
Si Si1 0.733739 0.819449 0.171020
Si Si2 0.266408 0.407412 0.625325
Si Si3 0.611382 0.000000 0.154684
Si Si4 0.608268 0.907412 0.158140
Si Si5 0.404759 0.319449 0.361501
Si Si6 0.266064 0.500000 0.622550
Si Si7 0.500000 0.250000 0.500000
O O1 0.657829 0.866349 0.215961
O O2 0.791174 0.815187 0.308339
O O3 0.599175 0.781915 0.275282
O O4 0.900486 0.815187 0.890687
O O5 0.373789 0.366349 0.468380
O O6 0.349611 0.453958 0.505076
O O7 0.088837 0.405536 0.699425
O O8 0.211739 0.405535 0.877099
O O9 0.645318 0.046042 0.204291
O O10 0.413175 0.000000 0.298554
O O11 0.711710 0.000000 0.875108
O O12 0.374457 0.281916 0.526368
#
# Coordination Sequence:
#
# PCOD9221937 Si02
#       7
#     8   8   4   8   8   4   4
#     4  11  24  40  59  85 114 143 182 235 287 334
#     4   9  17  33  59  88 118 153 190 226 269 326
#     4   7  12  26  52  85 116 149 190 226 258 315
#     4   9  17  33  59  88 118 153 190 226 269 326
#     4  11  24  40  59  85 114 143 182 235 287 334
#     4   7  12  26  52  85 116 149 190 226 258 315
#     4  12  24  44  64  78 104 148 192 228 280 350
#
# _framework density 22.719436999999999
#
# number of rings (size 3 to 8) (size 9 to 14) (size 15 to 20)
#    0.000    2.364    0.000    5.455    0.000    0.000 
#    0.000    5.455    0.000    9.818    0.000    0.000 
#    0.000    0.000    0.000    0.000    0.000    0.000 
#
# Total GULP energy -122995.774495 kJ/mol
# GULP energy per Si atom -5590.717023 kJ/mol
# Density = 2.266773 g / cm^3
# Si number density = 22.719437 Si / 1000 Ang^3
#
#
#
# Elastic Constant Matrix: (Units=GPa)
#
#
# Indices 1 2 3 4 5 6 
#
# 1 55.6646 37.3279 3.5007 0.0000 3.1584 0.0000
# 2 37.3279 237.5610 37.3292 0.0000 0.0008 0.0000
# 3 3.5007 37.3292 55.6661 0.0000 -3.1584 0.0000
# 4 0.0000 0.0000 0.0000 17.2354 0.0000 0.0025
# 5 3.1584 0.0008 -3.1584 0.0000 22.7249 0.0000
# 6 0.0000 0.0000 0.0000 0.0025 0.0000 17.2347
#
#
#
# Elastic Compliance Matrix: (Units=1/GPa)
#
#
# Indices 1 2 3 4 5 6 
#
# 1 0.020290 -0.003313 0.000792 0.000000 -0.002710 0.000000
# 2 -0.003313 0.005250 -0.003313 0.000000 0.000000 0.000000
# 3 0.000792 -0.003313 0.020290 0.000000 0.002710 0.000000
# 4 0.000000 0.000000 0.000000 0.058020 0.000000 -0.000008
# 5 -0.002710 0.000000 0.002710 0.000000 0.044758 0.000000
# 6 0.000000 0.000000 0.000000 -0.000008 0.000000 0.058023
#
#
# Mechanical properties :
#
#
# Convention : Reuss Voigt Hill
#
# Bulk Modulus (GPa) = 29.27136 56.13416 42.70276
# Shear Modulus (GPa) = 21.76888 29.48790 25.62839
#
# Velocity S-wave (km/s) = 3.09878 3.60657 3.36227
# Velocity P-wave (km/s) = 5.07100 6.48878 5.82320
#
# Compressibility (1/GPa) = 0.03416308
#
# Stress axis : x y z
#
# Youngs Moduli (GPa) = 49.28520 190.45895 49.28619
#
# Poissons Ratio (x) = 0.63091 -0.03902
# Poissons Ratio (y) = 0.16326 0.16327
# Poissons Ratio (z) = -0.03901 0.63092
#
# Static dielectric constant tensor:
#      x y z
#    x 1.865500 0.000000 0.000000 
#    y 0.000000 1.856430 0.000000 
#    z 0.000000 0.000000 1.865490 
# 
# From -- ./inp_files/53047.got.cif
#   From: 2010.05.17/outbox.cif.g08.bks.cpg/sg12_27_cif.got.tgz:53047.got - 2010.06.03 13:09:07.
