data_PCOD9221418
_publ_section_title
;
Structure prediction by ZEFSAII (Michael W. Deem and Ramdas Pophale) SiO2 
 PCOD9221418
Probable space group: C 2/M
;
_chemical_formula_sum "Si O2"
_cell_formula_units_Z 44
_cell_length_a 10.138104
_cell_length_b 14.944585
_cell_length_c 14.287622
_cell_angle_alpha 90.000000
_cell_angle_beta 79.795342
_cell_angle_gamma 90.000000
_cell_volume 2130.470975
_symmetry_space_group_name_H-M "C 2/M"
_symmetry_group_IT_number 12
_symmetry_cell_setting 'monoclinic'
loop_
_space_group_symop_operation_xyz
x,y,z
-x,y,-z
-x,-y,-z
x,-y,z
1/2+x,1/2+y,z
1/2-x,1/2+y,-z
1/2-x,1/2-y,-z
1/2+x,1/2-y,z
loop_
_atom_site_type_symbol
_atom_site_label
_atom_site_fract_x
_atom_site_fract_y
_atom_site_fract_z
Si Si1 0.827955 0.898206 0.292008
Si Si2 0.984210 0.392809 0.715881
Si Si3 0.872364 0.859440 0.082707
Si Si4 0.897194 0.346079 0.098414
Si Si5 0.259367 0.000000 0.027211
Si Si6 0.392861 0.250385 0.432388
O O1 0.672549 0.874924 0.287325
O O2 0.902377 0.891140 0.183361
O O3 0.889138 0.829154 0.356762
O O4 0.831355 0.000000 0.326106
O O5 0.002949 0.500000 0.712197
O O6 0.027489 0.356009 0.812255
O O7 0.070679 0.340628 0.627399
O O8 0.843441 0.754085 0.090954
O O9 0.000000 0.874013 0.000000
O O10 0.761187 0.922017 0.051275
O O11 0.785228 0.421100 0.101941
O O12 0.000000 0.366981 0.000000
O O13 0.500000 0.265224 0.500000
O O14 0.250000 0.250000 0.500000
#
# Coordination Sequence:
#
# PCOD9221418 Si02
#       6
#     8   8   8   8   4   8
#     4  11  24  45  75 101 139 187 235 289 354 429
#     4  11  24  45  73 104 137 184 237 287 356 427
#     4  11  24  42  61  97 146 191 227 278 351 413
#     4  11  23  39  63  99 137 179 233 281 334 414
#     4  12  22  38  62  96 136 180 231 277 332 404
#     4  12  26  50  76 105 139 177 235 308 366 422
#
# _framework density 20.652711
#
# number of rings (size 3 to 8) (size 9 to 14) (size 15 to 20)
#    0.000    0.727    5.455    2.182    2.545    2.909 
#    3.273    0.000    0.000    0.000    0.000    0.000 
#    0.000    0.000    0.000    0.000    0.000    0.000 
#
# Total GULP energy -122521.511966 kJ/mol
# GULP energy per Si atom -5569.159635 kJ/mol
# Density = 2.060570 g / cm^3
# Si number density = 20.652711 Si / 1000 Ang^3
#
#
#
# Elastic Constant Matrix: (Units=GPa)
#
#
# Indices 1 2 3 4 5 6 
#
# 1 78.4073 58.6233 57.0205 0.0000 16.4701 0.0000
# 2 58.6233 107.1662 57.8946 0.0000 5.6220 0.0000
# 3 57.0205 57.8946 126.7503 0.0000 19.9148 0.0000
# 4 0.0000 0.0000 0.0000 46.0605 0.0000 23.5570
# 5 16.4701 5.6220 19.9148 0.0000 43.6525 0.0000
# 6 0.0000 0.0000 0.0000 23.5570 0.0000 24.2640
#
#
#
# Elastic Compliance Matrix: (Units=1/GPa)
#
#
# Indices 1 2 3 4 5 6 
#
# 1 0.026568 -0.010975 -0.006017 0.000000 -0.005865 0.000000
# 2 -0.010975 0.016968 -0.003361 0.000000 0.003489 0.000000
# 3 -0.006017 -0.003361 0.012611 0.000000 -0.003050 0.000000
# 4 0.000000 0.000000 0.000000 0.043122 0.000000 -0.041866
# 5 -0.005865 0.003489 -0.003050 0.000000 0.026063 0.000000
# 6 0.000000 0.000000 0.000000 -0.041866 0.000000 0.081859
#
#
# Mechanical properties :
#
#
# Convention : Reuss Voigt Hill
#
# Bulk Modulus (GPa) = 64.76891 73.26671 69.01781
# Shear Modulus (GPa) = 19.75936 32.04776 25.90356
#
# Velocity S-wave (km/s) = 3.09648 3.94349 3.54537
# Velocity P-wave (km/s) = 6.64931 7.50250 7.08875
#
# Compressibility (1/GPa) = 0.01543951
#
# Stress axis : x y z
#
# Youngs Moduli (GPa) = 37.63966 58.93565 79.29579
#
# Poissons Ratio (x) = 0.64681 0.47716
# Poissons Ratio (y) = 0.41309 0.26652
# Poissons Ratio (z) = 0.22649 0.19809
#
# Static dielectric constant tensor:
#      x y z
#    x 1.789820 0.000000 -0.022790 
#    y 0.000000 1.743970 0.000000 
#    z -0.022790 0.000000 1.732820 
# 
# From -- ./inp_files/129714.got.cif
#   From: 2010.05.17/outbox.cif.g08.bks.cpg/sg12_65_cif.got.tgz:129714.got - 2010.06.03 13:09:07.
