data_PCOD9221734
_publ_section_title
;
Structure prediction by ZEFSAII (Michael W. Deem and Ramdas Pophale) SiO2 
 PCOD9221734
Probable space group: C 2/M
;
_chemical_formula_sum "Si O2"
_cell_formula_units_Z 32
_cell_length_a 5.146664
_cell_length_b 31.247238
_cell_length_c 8.859150
_cell_angle_alpha 90.000000
_cell_angle_beta 84.996531
_cell_angle_gamma 90.000000
_cell_volume 1419.290943
_symmetry_space_group_name_H-M "C 2/M"
_symmetry_group_IT_number 12
_symmetry_cell_setting 'monoclinic'
loop_
_space_group_symop_operation_xyz
x,y,z
-x,y,-z
-x,-y,-z
x,-y,z
1/2+x,1/2+y,z
1/2-x,1/2+y,-z
1/2-x,1/2-y,-z
1/2+x,1/2-y,z
loop_
_atom_site_type_symbol
_atom_site_label
_atom_site_fract_x
_atom_site_fract_y
_atom_site_fract_z
Si Si1 0.937455 0.273989 0.184484
Si Si2 0.948071 0.368561 0.179433
Si Si3 0.391934 0.453256 0.835263
Si Si4 0.230136 0.089885 0.602169
O O1 0.713224 0.240486 0.237124
O O2 0.844276 0.321877 0.228982
O O3 0.000000 0.272739 0.000000
O O4 0.783498 0.412376 0.196213
O O5 0.200641 0.376228 0.270406
O O6 0.000000 0.365198 0.000000
O O7 0.262217 0.500000 0.832804
O O8 0.623630 0.450362 0.701739
O O9 0.500000 0.448357 0.000000
O O10 0.500000 0.082691 0.500000
O O11 0.000000 0.103012 0.500000
#
# Coordination Sequence:
#
# PCOD9221734 Si02
#       4
#     8   8   8   8
#     4   9  20  35  62 101 133 166 221 287 339 395
#     4  11  23  42  73  99 140 183 231 280 348 404
#     4  11  25  44  71 105 139 180 235 284 338 408
#     4  12  26  45  67 101 139 186 230 281 339 405
#
# _framework density 22.546471
#
# number of rings (size 3 to 8) (size 9 to 14) (size 15 to 20)
#    0.000    1.250    5.000    0.000    3.500    3.500 
#    0.000    0.000    0.000    4.500    0.000    0.000 
#    0.000    0.000    0.000    0.000    0.000    0.000 
#
# Total GULP energy -89229.849745 kJ/mol
# GULP energy per Si atom -5576.865609 kJ/mol
# Density = 2.249515 g / cm^3
# Si number density = 22.546471 Si / 1000 Ang^3
#
#
#
# Elastic Constant Matrix: (Units=GPa)
#
#
# Indices 1 2 3 4 5 6 
#
# 1 133.9908 54.6896 48.7648 0.0000 5.8113 0.0000
# 2 54.6896 168.6529 17.5823 0.0000 -6.7841 0.0000
# 3 48.7648 17.5823 80.6758 0.0000 20.5797 0.0000
# 4 0.0000 0.0000 0.0000 -10.8860 0.0000 -24.0804
# 5 5.8113 -6.7841 20.5797 0.0000 35.0474 0.0000
# 6 0.0000 0.0000 0.0000 -24.0804 0.0000 18.7895
#
#
#
# Elastic Compliance Matrix: (Units=1/GPa)
#
#
# Indices 1 2 3 4 5 6 
#
# 1 0.010836 -0.002805 -0.006283 0.000000 0.001350 0.000000
# 2 -0.002805 0.006954 -0.000332 0.000000 0.002006 0.000000
# 3 -0.006283 -0.000332 0.018838 0.000000 -0.010084 0.000000
# 4 0.000000 0.000000 0.000000 -0.023954 0.000000 -0.030699
# 5 0.001350 0.002006 -0.010084 0.000000 0.034619 0.000000
# 6 0.000000 0.000000 0.000000 -0.030699 0.000000 0.013878
#
#
# Mechanical properties :
#
#
# Convention : Reuss Voigt Hill
#
# Bulk Modulus (GPa) = 56.21550 69.48812 62.85181
# Shear Modulus (GPa) = 58.18053 26.07569 42.12811
#
# Velocity S-wave (km/s) = 5.08535 3.40447 4.32731
# Velocity P-wave (km/s) = 7.71157 6.80740 7.27355
#
# Compressibility (1/GPa) = 0.01778869
#
# Stress axis : x y z
#
# Youngs Moduli (GPa) = 92.28518 143.80033 53.08487
#
# Poissons Ratio (x) = 0.40329 0.33353
# Poissons Ratio (y) = 0.25882 0.01763
# Poissons Ratio (z) = 0.57982 0.04776
#
# Static dielectric constant tensor:
#      x y z
#    x 1.948200 0.000000 -0.007190 
#    y 0.000000 1.846130 0.000000 
#    z -0.007190 0.000000 1.896010 
# 
# From -- ./inp_files/115686.got.cif
#   From: 2010.05.17/outbox.cif.g08.bks.cpg/sg12_58_cif.got.tgz:115686.got - 2010.06.03 13:09:07.
