data_PCOD9221887
_publ_section_title
;
Structure prediction by ZEFSAII (Michael W. Deem and Ramdas Pophale) SiO2 
 PCOD9221887
Probable space group: C 2/M
;
_chemical_formula_sum "Si O2"
_cell_formula_units_Z 34
_cell_length_a 19.170499
_cell_length_b 9.677130
_cell_length_c 9.306146
_cell_angle_alpha 90.000000
_cell_angle_beta 44.401916
_cell_angle_gamma 90.000000
_cell_volume 1207.963478
_symmetry_space_group_name_H-M "C 2/M"
_symmetry_group_IT_number 12
_symmetry_cell_setting 'monoclinic'
loop_
_space_group_symop_operation_xyz
x,y,z
-x,y,-z
-x,-y,-z
x,-y,z
1/2+x,1/2+y,z
1/2-x,1/2+y,-z
1/2-x,1/2-y,-z
1/2+x,1/2-y,z
loop_
_atom_site_type_symbol
_atom_site_label
_atom_site_fract_x
_atom_site_fract_y
_atom_site_fract_z
Si Si1 0.825590 0.681614 0.462153
Si Si2 0.239115 0.163444 0.163748
Si Si3 0.452950 0.500000 0.852824
Si Si4 0.546422 0.799564 0.179106
Si Si5 0.500000 0.000000 0.500000
Si Si6 0.329870 0.500000 0.315630
O O1 0.808787 0.500000 0.508771
O O2 0.819741 0.745755 0.632818
O O3 0.795412 0.841554 0.419361
O O4 0.942835 0.677585 0.248968
O O5 0.210535 0.000000 0.195219
O O6 0.250000 0.250000 0.000000
O O7 0.353912 0.162822 0.054011
O O8 0.446349 0.641720 0.782181
O O9 0.560082 0.500000 0.770871
O O10 0.363709 0.500000 0.099810
O O11 0.542577 0.885383 0.327267
#
# Coordination Sequence:
#
# PCOD9221887 Si02
#       6
#     8   8   4   8   2   4
#     4  12  27  47  79 114 156 202 258 324 391 469
#     4  12  30  53  75 112 154 207 263 325 393 467
#     4  11  24  45  77 111 149 202 253 320 384 453
#     4  12  26  50  75 111 153 203 259 321 386 470
#     4  12  26  50  74 106 152 214 260 306 396 458
#     4  11  23  46  74 109 155 199 253 308 394 466
#
# _framework density 28.146547000000002
#
# number of rings (size 3 to 8) (size 9 to 14) (size 15 to 20)
#    0.000    0.235    5.882    2.118    6.588    1.412 
#    0.000    1.176    0.000    0.000    0.000    0.000 
#    0.000    0.000    0.000    0.000    0.000    0.000 
#
# Total GULP energy -94901.756673 kJ/mol
# GULP energy per Si atom -5582.456275 kJ/mol
# Density = 2.808248 g / cm^3
# Si number density = 28.146547 Si / 1000 Ang^3
#
#
#
# Elastic Constant Matrix: (Units=GPa)
#
#
# Indices 1 2 3 4 5 6 
#
# 1 106.6519 48.3200 38.0944 0.0000 -23.0670 0.0000
# 2 48.3200 322.2192 61.4912 0.0000 13.0998 0.0000
# 3 38.0944 61.4912 99.1995 0.0000 -17.0888 0.0000
# 4 0.0000 0.0000 0.0000 62.7076 0.0000 12.7290
# 5 -23.0670 13.0998 -17.0888 0.0000 76.3223 0.0000
# 6 0.0000 0.0000 0.0000 12.7290 0.0000 8.4460
#
#
#
# Elastic Compliance Matrix: (Units=1/GPa)
#
#
# Indices 1 2 3 4 5 6 
#
# 1 0.011758 -0.001277 -0.003197 0.000000 0.003057 0.000000
# 2 -0.001277 0.003756 -0.002096 0.000000 -0.001500 0.000000
# 3 -0.003197 -0.002096 0.013005 0.000000 0.002305 0.000000
# 4 0.000000 0.000000 0.000000 0.022976 0.000000 -0.034627
# 5 0.003057 -0.001500 0.002305 0.000000 0.014800 0.000000
# 6 0.000000 0.000000 0.000000 -0.034627 0.000000 0.170586
#
#
# Mechanical properties :
#
#
# Convention : Reuss Voigt Hill
#
# Bulk Modulus (GPa) = 65.02722 91.54244 78.28483
# Shear Modulus (GPa) = 19.59644 54.83952 37.21798
#
# Velocity S-wave (km/s) = 2.64148 4.41881 3.64028
# Velocity P-wave (km/s) = 5.69706 7.65693 6.74852
#
# Compressibility (1/GPa) = 0.01537818
#
# Stress axis : x y z
#
# Youngs Moduli (GPa) = 85.04746 266.23706 76.89460
#
# Poissons Ratio (x) = 0.34011 0.24582
# Poissons Ratio (y) = 0.10865 0.16118
# Poissons Ratio (z) = 0.27188 0.55807
#
# Static dielectric constant tensor:
#      x y z
#    x 2.333010 0.000000 -0.118320 
#    y 0.000000 2.302420 0.000000 
#    z -0.118320 0.000000 2.089950 
# 
# From -- ./inp_files/179641.got.cif
#   From: 2010.05.17/outbox.cif.g08.bks.cpg/sg12_90_cif.got.tgz:179641.got - 2010.06.03 13:09:07.
