data_PCOD9221825
_publ_section_title
;
Structure prediction by ZEFSAII (Michael W. Deem and Ramdas Pophale) SiO2 
 PCOD9221825
Probable space group: C 2/M
;
_chemical_formula_sum "Si O2"
_cell_formula_units_Z 48
_cell_length_a 25.029710
_cell_length_b 14.698401
_cell_length_c 11.261859
_cell_angle_alpha 90.000000
_cell_angle_beta 148.770688
_cell_angle_gamma 90.000000
_cell_volume 2148.102754
_symmetry_space_group_name_H-M "C 2/M"
_symmetry_group_IT_number 12
_symmetry_cell_setting 'monoclinic'
loop_
_space_group_symop_operation_xyz
x,y,z
-x,y,-z
-x,-y,-z
x,-y,z
1/2+x,1/2+y,z
1/2-x,1/2+y,-z
1/2-x,1/2-y,-z
1/2+x,1/2-y,z
loop_
_atom_site_type_symbol
_atom_site_label
_atom_site_fract_x
_atom_site_fract_y
_atom_site_fract_z
Si Si1 0.517107 0.143129 0.666179
Si Si2 0.058876 0.833181 0.391932
Si Si3 0.544004 0.000000 0.270718
Si Si4 0.737174 0.213323 0.109237
Si Si5 0.171370 0.500000 0.276746
Si Si6 0.157445 0.102259 0.082006
Si Si7 0.682849 0.661131 0.397660
O O1 0.500000 0.111273 0.500000
O O2 0.479952 0.245121 0.612153
O O3 0.453339 0.085952 0.639101
O O4 0.637256 0.149323 0.924692
O O5 0.166358 0.846957 0.664347
O O6 0.092549 0.816688 0.318955
O O7 0.957862 0.895268 0.192835
O O8 0.628308 0.000000 0.329613
O O9 0.431034 0.000000 0.995851
O O10 0.750000 0.250000 0.000000
O O11 0.717441 0.307410 0.147132
O O12 0.242207 0.587902 0.398349
O O13 0.200731 0.000000 0.142404
O O14 0.148359 0.118930 0.206549
O O15 0.750000 0.750000 0.500000
#
# Coordination Sequence:
#
# PCOD9221825 Si02
#       7
#     8   8   4   8   4   8   8
#     4  11  23  44  70  97 133 177 233 283 339 415
#     4  11  24  42  69  96 138 180 225 283 348 404
#     4  11  25  42  62 104 137 176 222 289 347 404
#     4  11  23  46  70  98 138 183 235 284 345 422
#     4  11  26  42  67 100 149 170 230 286 345 431
#     4  11  26  45  70 105 140 182 236 291 353 418
#     4  12  23  43  70 102 136 183 227 282 353 423
#
# _framework density 22.345300000000002
#
# number of rings (size 3 to 8) (size 9 to 14) (size 15 to 20)
#    0.000    0.833    4.167    2.750    3.500    0.667 
#    3.000    0.833    0.000    0.000    0.000    0.000 
#    0.000    0.000    0.000    0.000    0.000    0.000 
#
# Total GULP energy -134085.840819 kJ/mol
# GULP energy per Si atom -5586.910034 kJ/mol
# Density = 2.229444 g / cm^3
# Si number density = 22.345300 Si / 1000 Ang^3
#
#
#
# Elastic Constant Matrix: (Units=GPa)
#
#
# Indices 1 2 3 4 5 6 
#
# 1 83.3758 -9.3723 -3.4653 0.0000 -22.2315 0.0000
# 2 -9.3723 75.4008 10.2319 0.0000 -3.1733 0.0000
# 3 -3.4653 10.2319 115.8826 0.0000 3.1061 0.0000
# 4 0.0000 0.0000 0.0000 16.9560 0.0000 -7.7816
# 5 -22.2315 -3.1733 3.1061 0.0000 39.3452 0.0000
# 6 0.0000 0.0000 0.0000 -7.7816 0.0000 26.2603
#
#
#
# Elastic Compliance Matrix: (Units=1/GPa)
#
#
# Indices 1 2 3 4 5 6 
#
# 1 0.014460 0.002146 0.000019 0.000000 0.008342 0.000000
# 2 0.002146 0.013796 -0.001219 0.000000 0.002421 0.000000
# 3 0.000019 -0.001219 0.008759 0.000000 -0.000779 0.000000
# 4 0.000000 0.000000 0.000000 0.068259 0.000000 0.020227
# 5 0.008342 0.002421 -0.000779 0.000000 0.030386 0.000000
# 6 0.000000 0.000000 0.000000 0.020227 0.000000 0.044074
#
#
# Mechanical properties :
#
#
# Convention : Reuss Voigt Hill
#
# Bulk Modulus (GPa) = 25.70174 29.93866 27.82020
# Shear Modulus (GPa) = 26.20393 34.99664 30.60029
#
# Velocity S-wave (km/s) = 3.42816 3.96179 3.70459
# Velocity P-wave (km/s) = 5.21505 5.86131 5.54760
#
# Compressibility (1/GPa) = 0.03890787
#
# Stress axis : x y z
#
# Youngs Moduli (GPa) = 69.15498 72.48216 114.17474
#
# Poissons Ratio (x) = -0.15554 -0.00221
# Poissons Ratio (y) = -0.14840 0.13917
# Poissons Ratio (z) = -0.00134 0.08835
#
# Static dielectric constant tensor:
#      x y z
#    x 1.804910 0.000000 0.017580 
#    y 0.000000 1.787750 0.000000 
#    z 0.017580 0.000000 1.918710 
# 
# From -- ./inp_files/183701.got.cif
#   From: 2010.05.17/outbox.cif.g08.bks.cpg/sg12_92_cif.got.tgz:183701.got - 2010.06.03 13:09:07.
