data_PCOD9221700
_publ_section_title
;
Structure prediction by ZEFSAII (Michael W. Deem and Ramdas Pophale) SiO2 
 PCOD9221700
Probable space group: C 2/M
;
_chemical_formula_sum "Si O2"
_cell_formula_units_Z 50
_cell_length_a 25.451166
_cell_length_b 17.745975
_cell_length_c 7.186499
_cell_angle_alpha 90.000000
_cell_angle_beta 136.664667
_cell_angle_gamma 90.000000
_cell_volume 2227.501725
_symmetry_space_group_name_H-M "C 2/M"
_symmetry_group_IT_number 12
_symmetry_cell_setting 'monoclinic'
loop_
_space_group_symop_operation_xyz
x,y,z
-x,y,-z
-x,-y,-z
x,-y,z
1/2+x,1/2+y,z
1/2-x,1/2+y,-z
1/2-x,1/2-y,-z
1/2+x,1/2-y,z
loop_
_atom_site_type_symbol
_atom_site_label
_atom_site_fract_x
_atom_site_fract_y
_atom_site_fract_z
Si Si1 0.214164 0.320501 0.625534
Si Si2 0.117224 0.791876 0.817556
Si Si3 0.223757 0.586149 0.280553
Si Si4 0.422268 0.285595 0.861194
Si Si5 0.500000 0.000000 0.500000
Si Si6 0.608687 0.870165 0.670508
Si Si7 0.384604 0.586431 0.495060
O O1 0.237254 0.365374 0.499385
O O2 0.152774 0.258586 0.401865
O O3 0.169913 0.372429 0.660511
O O4 0.290512 0.285800 0.913215
O O5 0.087581 0.717935 0.634402
O O6 0.103829 0.866329 0.662681
O O7 0.081395 0.795457 0.928473
O O8 0.211471 0.500000 0.306359
O O9 0.295269 0.587923 0.324658
O O10 0.150790 0.612342 0.975179
O O11 0.421899 0.365127 0.754842
O O12 0.500000 0.244167 0.000000
O O13 0.456434 0.067393 0.509450
O O14 0.409371 0.500000 0.546063
#
# Coordination Sequence:
#
# PCOD9221700 Si02
#       7
#     8   8   8   8   2   8   8
#     4  12  24  43  76 106 138 191 255 300 348 427
#     4  12  24  45  78 105 136 194 257 301 351 430
#     4  11  23  42  69 108 143 182 238 312 357 416
#     4  12  27  44  68 107 142 186 235 297 367 437
#     4  12  32  48  66 112 166 202 226 296 370 452
#     4  12  25  44  69 100 149 195 246 292 354 431
#     4  11  25  46  73 106 142 176 237 312 373 416
#
# _framework density 22.446672
#
# number of rings (size 3 to 8) (size 9 to 14) (size 15 to 20)
#    0.000    0.320    7.200    1.920    3.360    2.240 
#    0.000    1.600    0.000    0.000    0.000    0.000 
#    0.000    0.000    0.000    0.000    0.000    0.000 
#
# Total GULP energy -139689.595824 kJ/mol
# GULP energy per Si atom -5587.583833 kJ/mol
# Density = 2.239558 g / cm^3
# Si number density = 22.446672 Si / 1000 Ang^3
#
#
#
# Elastic Constant Matrix: (Units=GPa)
#
#
# Indices 1 2 3 4 5 6 
#
# 1 147.1736 38.3402 25.8418 0.0000 -15.4467 0.0000
# 2 38.3402 147.8653 33.9311 0.0000 -9.7789 0.0000
# 3 25.8418 33.9311 38.3481 0.0000 -2.9374 0.0000
# 4 0.0000 0.0000 0.0000 13.9823 0.0000 -5.9240
# 5 -15.4467 -9.7789 -2.9374 0.0000 35.8320 0.0000
# 6 0.0000 0.0000 0.0000 -5.9240 0.0000 36.0984
#
#
#
# Elastic Compliance Matrix: (Units=1/GPa)
#
#
# Indices 1 2 3 4 5 6 
#
# 1 0.008112 -0.000889 -0.004459 0.000000 0.002889 0.000000
# 2 -0.000889 0.008689 -0.006980 0.000000 0.001416 0.000000
# 3 -0.004459 -0.006980 0.035186 0.000000 -0.000943 0.000000
# 4 0.000000 0.000000 0.000000 0.076863 0.000000 0.012614
# 5 0.002889 0.001416 -0.000943 0.000000 0.029462 0.000000
# 6 0.000000 0.000000 0.000000 0.012614 0.000000 0.029772
#
#
# Mechanical properties :
#
#
# Convention : Reuss Voigt Hill
#
# Bulk Modulus (GPa) = 36.58929 58.84588 47.71759
# Shear Modulus (GPa) = 22.53758 32.86746 27.70252
#
# Velocity S-wave (km/s) = 3.17211 3.83070 3.51686
# Velocity P-wave (km/s) = 5.45457 6.77041 6.14779
#
# Compressibility (1/GPa) = 0.02733040
#
# Stress axis : x y z
#
# Youngs Moduli (GPa) = 123.26725 115.08883 28.42068
#
# Poissons Ratio (x) = 0.10235 0.12672
# Poissons Ratio (y) = 0.10962 0.19839
# Poissons Ratio (z) = 0.54960 0.80337
#
# Static dielectric constant tensor:
#      x y z
#    x 1.842300 0.000000 0.050990 
#    y 0.000000 1.841820 0.000000 
#    z 0.050990 0.000000 1.859210 
# 
# From -- ./inp_files/105847.got.cif
#   From: 2010.05.17/outbox.cif.g08.bks.cpg/sg12_53_cif.got.tgz:105847.got - 2010.06.03 13:09:07.
