data_PCOD9221130
_publ_section_title
;
Structure prediction by ZEFSAII (Michael W. Deem and Ramdas Pophale) SiO2 
 PCOD9221130
Probable space group: C 2/M
;
_chemical_formula_sum "Si O2"
_cell_formula_units_Z 56
_cell_length_a 15.761026
_cell_length_b 11.869844
_cell_length_c 30.492483
_cell_angle_alpha 90.000000
_cell_angle_beta 28.807627
_cell_angle_gamma 90.000000
_cell_volume 2748.859008
_symmetry_space_group_name_H-M "C 2/M"
_symmetry_group_IT_number 12
_symmetry_cell_setting 'monoclinic'
loop_
_space_group_symop_operation_xyz
x,y,z
-x,y,-z
-x,-y,-z
x,-y,z
1/2+x,1/2+y,z
1/2-x,1/2+y,-z
1/2-x,1/2-y,-z
1/2+x,1/2-y,z
loop_
_atom_site_type_symbol
_atom_site_label
_atom_site_fract_x
_atom_site_fract_y
_atom_site_fract_z
Si Si1 0.508733 0.723609 0.696337
Si Si2 0.869345 0.768236 0.173238
Si Si3 0.148226 0.125966 0.459807
Si Si4 0.454389 0.242778 0.818268
Si Si5 0.676736 0.622165 0.541076
Si Si6 0.900672 0.633421 0.998582
Si Si7 0.200850 0.500000 0.127284
Si Si8 0.028050 0.000000 0.914370
O O1 0.328148 0.765619 0.756210
O O2 0.662875 0.816684 0.625969
O O3 0.484312 0.694250 0.758395
O O4 0.577660 0.628793 0.631831
O O5 0.950585 0.888664 0.123832
O O6 0.893864 0.749210 0.213927
O O7 0.978645 0.675913 0.095958
O O8 0.071442 0.115734 0.543495
O O9 0.000000 0.190322 0.500000
O O10 0.173049 0.000000 0.430577
O O11 0.279723 0.297011 0.918713
O O12 0.411128 0.113716 0.825471
O O13 0.779304 0.500000 0.494145
O O14 0.750000 0.750000 0.500000
O O15 0.869120 0.500000 0.009948
O O16 0.000000 0.656931 0.000000
O O17 0.318184 0.500000 0.118308
O O18 0.343339 0.500000 0.023444
#
# Coordination Sequence:
#
# PCOD9221130 Si02
#       8
#     8   8   8   8   8   8   4   4
#     4  11  24  41  64  98 135 171 217 279 336 405
#     4  12  26  41  63  98 132 181 231 284 338 397
#     4   9  20  40  69 100 128 163 212 270 338 411
#     4  12  26  41  63  98 134 179 235 280 340 396
#     4   9  20  42  69  94 129 170 209 262 336 410
#     4  11  23  43  63  87 135 185 225 275 340 405
#     4  11  22  42  68  89 131 182 238 289 334 395
#     4  11  22  42  68  87 133 181 236 286 342 395
#
# _framework density 20.37209
#
# number of rings (size 3 to 8) (size 9 to 14) (size 15 to 20)
#    0.000    1.286    4.286    0.429    6.000    1.143 
#    0.000    0.000    0.000    6.857    0.000    0.000 
#    0.000    0.000    0.000    0.000    0.000    0.000 
#
# Total GULP energy -156022.158483 kJ/mol
# GULP energy per Si atom -5572.219946 kJ/mol
# Density = 2.032572 g / cm^3
# Si number density = 20.372090 Si / 1000 Ang^3
#
#
#
# Elastic Constant Matrix: (Units=GPa)
#
#
# Indices 1 2 3 4 5 6 
#
# 1 133.6605 13.4212 47.8567 0.0001 5.7176 -0.0001
# 2 13.4212 93.5719 14.8906 0.0001 2.5037 -0.0003
# 3 47.8567 14.8906 73.2542 0.0005 -0.2578 -0.0008
# 4 0.0001 0.0001 0.0005 17.6846 0.0000 -3.2628
# 5 5.7176 2.5037 -0.2578 0.0000 23.6314 0.0003
# 6 -0.0001 -0.0003 -0.0008 -3.2628 0.0003 9.6840
#
#
#
# Elastic Compliance Matrix: (Units=1/GPa)
#
#
# Indices 1 2 3 4 5 6 
#
# 1 0.009918 -0.000336 -0.006420 0.000000 -0.002434 0.000000
# 2 -0.000336 0.011089 -0.002039 0.000000 -0.001116 0.000000
# 3 -0.006420 -0.002039 0.018266 0.000000 0.001969 0.000001
# 4 0.000000 0.000000 0.000000 0.060294 0.000000 0.020315
# 5 -0.002434 -0.001116 0.001969 0.000000 0.043045 -0.000001
# 6 0.000000 0.000000 0.000001 0.020315 -0.000001 0.110107
#
#
# Mechanical properties :
#
#
# Convention : Reuss Voigt Hill
#
# Bulk Modulus (GPa) = 46.11408 50.31374 48.21391
# Shear Modulus (GPa) = 18.01555 25.15453 21.58504
#
# Velocity S-wave (km/s) = 2.97699 3.51772 3.25859
# Velocity P-wave (km/s) = 5.87381 6.42263 6.15434
#
# Compressibility (1/GPa) = 0.02168535
#
# Stress axis : x y z
#
# Youngs Moduli (GPa) = 100.82619 90.17598 54.74522
#
# Poissons Ratio (x) = 0.03028 0.35145
# Poissons Ratio (y) = 0.03386 0.11161
# Poissons Ratio (z) = 0.64728 0.18384
#
# Static dielectric constant tensor:
#      x y z
#    x 1.771990 0.000000 0.015110 
#    y 0.000000 1.472540 0.000000 
#    z 0.015110 0.000000 1.754450 
# 
# From -- ./inp_files/376258.got.cif
#   From: 2010.05.17/outbox.cif.g08.bks.cpg/sg12_189_cif.got.tgz:376258.got - 2010.06.03 13:09:07.
