data_PCOD9221780
_publ_section_title
;
Structure prediction by ZEFSAII (Michael W. Deem and Ramdas Pophale) SiO2 
 PCOD9221780
Probable space group: C 2/M
;
_chemical_formula_sum "Si O2"
_cell_formula_units_Z 56
_cell_length_a 15.302079
_cell_length_b 21.369820
_cell_length_c 8.112897
_cell_angle_alpha 90.000000
_cell_angle_beta 69.142792
_cell_angle_gamma 90.000000
_cell_volume 2479.093636
_symmetry_space_group_name_H-M "C 2/M"
_symmetry_group_IT_number 12
_symmetry_cell_setting 'monoclinic'
loop_
_space_group_symop_operation_xyz
x,y,z
-x,y,-z
-x,-y,-z
x,-y,z
1/2+x,1/2+y,z
1/2-x,1/2+y,-z
1/2-x,1/2-y,-z
1/2+x,1/2-y,z
loop_
_atom_site_type_symbol
_atom_site_label
_atom_site_fract_x
_atom_site_fract_y
_atom_site_fract_z
Si Si1 0.735998 0.071065 0.640887
Si Si2 0.750059 0.743715 0.799753
Si Si3 0.398061 0.652201 0.640390
Si Si4 0.776827 0.598014 0.730474
Si Si5 0.411727 0.167291 0.175037
Si Si6 0.975692 0.567996 0.705589
Si Si7 0.591544 0.569460 0.048636
O O1 0.838692 0.100804 0.580314
O O2 0.708154 0.075255 0.466954
O O3 0.668255 0.113767 0.800060
O O4 0.733996 0.000000 0.697252
O O5 0.836441 0.785450 0.680434
O O6 0.766197 0.672751 0.737850
O O7 0.654648 0.771773 0.783182
O O8 0.750000 0.750000 0.000000
O O9 0.500000 0.661952 0.500000
O O10 0.402958 0.623604 0.820104
O O11 0.864911 0.579207 0.783400
O O12 0.682295 0.572071 0.872372
O O13 0.468755 0.129743 0.276856
O O14 0.500000 0.180845 0.000000
O O15 0.999409 0.500000 0.771122
O O16 0.000000 0.561574 0.500000
O O17 0.586546 0.500000 0.130061
O O18 0.500000 0.577807 0.000000
#
# Coordination Sequence:
#
# PCOD9221780 Si02
#       7
#     8   8   8   8   8   8   8
#     4  11  24  44  70 104 143 179 232 297 359 428
#     4  11  25  50  71 100 144 183 246 292 347 422
#     4  11  25  46  70 102 134 186 231 293 357 416
#     4  12  24  45  71 101 142 191 232 292 356 427
#     4  11  25  44  69 103 141 192 239 291 359 423
#     4  11  23  43  70 106 147 184 232 294 363 431
#     4  11  24  43  71 104 135 179 234 288 357 423
#
# _framework density 22.588901
#
# number of rings (size 3 to 8) (size 9 to 14) (size 15 to 20)
#    0.000    0.857    2.857    3.857    2.000    6.857 
#   10.286    0.000    0.000    0.000    0.000    0.000 
#    0.000    0.000    0.000    0.000    0.000    0.000 
#
# Total GULP energy -156431.351166 kJ/mol
# GULP energy per Si atom -5586.833970 kJ/mol
# Density = 2.253749 g / cm^3
# Si number density = 22.588901 Si / 1000 Ang^3
#
#
#
# Elastic Constant Matrix: (Units=GPa)
#
#
# Indices 1 2 3 4 5 6 
#
# 1 125.6553 22.0845 39.9777 0.0000 -27.8265 0.0000
# 2 22.0845 131.0507 3.4045 0.0000 -6.3146 0.0000
# 3 39.9777 3.4045 36.8564 0.0000 -35.4551 0.0000
# 4 0.0000 0.0000 0.0000 1.3020 0.0000 6.5504
# 5 -27.8265 -6.3146 -35.4551 0.0000 46.8293 0.0000
# 6 0.0000 0.0000 0.0000 6.5504 0.0000 28.6197
#
#
#
# Elastic Compliance Matrix: (Units=1/GPa)
#
#
# Indices 1 2 3 4 5 6 
#
# 1 0.014278 -0.002299 -0.027281 0.000000 -0.012481 0.000000
# 2 -0.002299 0.008062 0.005450 0.000000 0.003847 0.000000
# 3 -0.027281 0.005450 0.152143 0.000000 0.099714 0.000000
# 4 0.000000 0.000000 0.000000 -5.070846 0.000000 1.160599
# 5 -0.012481 0.003847 0.099714 0.000000 0.089952 0.000000
# 6 0.000000 0.000000 0.000000 1.160599 0.000000 -0.230693
#
#
# Mechanical properties :
#
#
# Convention : Reuss Voigt Hill
#
# Bulk Modulus (GPa) = 7.92249 47.16619 27.54434
# Shear Modulus (GPa) = -1.01076 30.55659 14.77291
#
# Velocity S-wave (km/s) = -0.66965 3.68193 2.56010
# Velocity P-wave (km/s) = 1.70791 6.24508 4.57810
#
# Compressibility (1/GPa) = 0.12622289
#
# Stress axis : x y z
#
# Youngs Moduli (GPa) = 70.03782 124.04146 6.57275
#
# Poissons Ratio (x) = 0.28514 0.17931
# Poissons Ratio (y) = 0.16100 -0.03582
# Poissons Ratio (z) = 1.91070 -0.67598
#
# Static dielectric constant tensor:
#      x y z
#    x 1.869790 0.000000 0.026110 
#    y 0.000000 1.788250 0.000000 
#    z 0.026110 0.000000 1.833210 
# 
# From -- ./inp_files/65745.got.cif
#   From: 2010.05.17/outbox.cif.g08.bks.cpg/sg12_33_cif.got.tgz:65745.got - 2010.06.03 13:09:07.
