data_PCOD9221491
_publ_section_title
;
Structure prediction by ZEFSAII (Michael W. Deem and Ramdas Pophale) SiO2 
 PCOD9221491
Probable space group: C 2/M
;
_chemical_formula_sum "Si O2"
_cell_formula_units_Z 56
_cell_length_a 20.386172
_cell_length_b 8.589864
_cell_length_c 26.738436
_cell_angle_alpha 90.000000
_cell_angle_beta 141.551721
_cell_angle_gamma 90.000000
_cell_volume 2911.482761
_symmetry_space_group_name_H-M "C 2/M"
_symmetry_group_IT_number 12
_symmetry_cell_setting 'monoclinic'
loop_
_space_group_symop_operation_xyz
x,y,z
-x,y,-z
-x,-y,-z
x,-y,z
1/2+x,1/2+y,z
1/2-x,1/2+y,-z
1/2-x,1/2-y,-z
1/2+x,1/2-y,z
loop_
_atom_site_type_symbol
_atom_site_label
_atom_site_fract_x
_atom_site_fract_y
_atom_site_fract_z
Si Si1 0.367897 0.687061 0.066709
Si Si2 0.263515 0.313533 0.748900
Si Si3 0.065134 0.815347 0.690273
Si Si4 0.981044 0.189557 0.932185
Si Si5 0.731803 0.815007 0.360238
Si Si6 0.987313 0.685739 0.234661
Si Si7 0.842909 0.684597 0.520071
O O1 0.367246 0.500000 0.068080
O O2 0.426014 0.735899 0.050187
O O3 0.434817 0.751354 0.153021
O O4 0.250000 0.750000 0.000000
O O5 0.268234 0.500000 0.745899
O O6 0.161100 0.266345 0.719068
O O7 0.369324 0.262491 0.841543
O O8 0.259419 0.237575 0.691744
O O9 0.062390 0.765172 0.746527
O O10 0.953604 0.761112 0.600812
O O11 0.075608 0.000000 0.692055
O O12 0.979988 0.000000 0.932995
O O13 0.000000 0.244868 0.000000
O O14 0.612346 0.781628 0.307006
O O15 0.810528 0.726515 0.444227
O O16 0.749428 0.000000 0.374915
O O17 0.973229 0.500000 0.229577
O O18 0.850243 0.500000 0.531673
O O19 0.750000 0.750000 0.500000
#
# Coordination Sequence:
#
# PCOD9221491 Si02
#       7
#     8   8   8   8   8   8   8
#     4  11  23  40  64  96 131 168 215 267 323 382
#     4  11  23  42  67  94 130 172 218 264 321 388
#     4  12  26  43  65  96 133 169 215 268 323 384
#     4   9  20  39  63  91 125 168 211 257 314 379
#     4  11  23  41  67  95 129 170 215 266 323 381
#     4  11  23  41  66  93 128 172 218 266 321 381
#     4  12  24  41  66  97 130 167 215 266 324 384
#
# _framework density 19.234186000000001
#
# number of rings (size 3 to 8) (size 9 to 14) (size 15 to 20)
#    0.000    1.000    2.857    4.286    2.000    1.714 
#    0.000    2.857    0.000    3.429    0.000    0.000 
#    0.000    0.000    0.000    0.000    0.000    0.000 
#
# Total GULP energy -156647.369543 kJ/mol
# GULP energy per Si atom -5594.548912 kJ/mol
# Density = 1.919041 g / cm^3
# Si number density = 19.234186 Si / 1000 Ang^3
#
#
#
# Elastic Constant Matrix: (Units=GPa)
#
#
# Indices 1 2 3 4 5 6 
#
# 1 109.0378 -8.8849 39.2772 0.0000 -2.9890 0.0000
# 2 -8.8849 30.1564 -3.3906 0.0000 2.8774 0.0002
# 3 39.2772 -3.3906 96.9710 0.0000 -8.7953 0.0000
# 4 0.0000 0.0000 0.0000 31.4922 0.0000 -2.1376
# 5 -2.9890 2.8774 -8.7953 0.0000 41.3200 0.0000
# 6 0.0000 0.0002 0.0000 -2.1376 0.0000 32.9597
#
#
#
# Elastic Compliance Matrix: (Units=1/GPa)
#
#
# Indices 1 2 3 4 5 6 
#
# 1 0.010963 0.002770 -0.004374 0.000000 -0.000331 0.000000
# 2 0.002770 0.034173 -0.000127 0.000000 -0.002206 0.000000
# 3 -0.004374 -0.000127 0.012289 0.000000 0.002308 0.000000
# 4 0.000000 0.000000 0.000000 0.031894 0.000000 0.002068
# 5 -0.000331 -0.002206 0.002308 0.000000 0.024822 0.000000
# 6 0.000000 0.000000 0.000000 0.002068 0.000000 0.030474
#
#
# Mechanical properties :
#
#
# Convention : Reuss Voigt Hill
#
# Bulk Modulus (GPa) = 18.53126 32.24093 25.38609
# Shear Modulus (GPa) = 30.10861 35.09862 32.60361
#
# Velocity S-wave (km/s) = 3.96077 4.27641 4.12161
# Velocity P-wave (km/s) = 5.52923 6.41734 5.98977
#
# Compressibility (1/GPa) = 0.05396288
#
# Stress axis : x y z
#
# Youngs Moduli (GPa) = 91.21382 29.26301 81.37487
#
# Poissons Ratio (x) = -0.08106 0.35591
# Poissons Ratio (y) = -0.25265 0.01035
# Poissons Ratio (z) = 0.39894 0.00372
#
# Static dielectric constant tensor:
#      x y z
#    x 1.643900 0.000000 -0.004780 
#    y 0.000000 1.651480 0.000000 
#    z -0.004780 0.000000 1.644400 
# 
# From -- ./inp_files/363149.got.cif
#   From: 2010.05.17/outbox.cif.g08.bks.cpg/sg12_182_cif.got.tgz:363149.got - 2010.06.03 13:09:07.
