data_PCOD9221389
_publ_section_title
;
Structure prediction by ZEFSAII (Michael W. Deem and Ramdas Pophale) SiO2 
 PCOD9221389
Probable space group: C 2/M
;
_chemical_formula_sum "Si O2"
_cell_formula_units_Z 40
_cell_length_a 20.690292
_cell_length_b 7.914576
_cell_length_c 9.546606
_cell_angle_alpha 90.000000
_cell_angle_beta 80.648752
_cell_angle_gamma 90.000000
_cell_volume 1542.528312
_symmetry_space_group_name_H-M "C 2/M"
_symmetry_group_IT_number 12
_symmetry_cell_setting 'monoclinic'
loop_
_space_group_symop_operation_xyz
x,y,z
-x,y,-z
-x,-y,-z
x,-y,z
1/2+x,1/2+y,z
1/2-x,1/2+y,-z
1/2-x,1/2-y,-z
1/2+x,1/2-y,z
loop_
_atom_site_type_symbol
_atom_site_label
_atom_site_fract_x
_atom_site_fract_y
_atom_site_fract_z
Si Si1 0.098516 0.199809 0.244963
Si Si2 0.075869 0.310181 0.942302
Si Si3 0.316242 0.300298 0.398718
Si Si4 0.760236 0.201484 0.834925
Si Si5 0.046365 0.805159 0.650554
O O1 0.170768 0.270595 0.251512
O O2 0.028025 0.267542 0.328329
O O3 0.097630 0.000000 0.277415
O O4 0.099416 0.221377 0.075294
O O5 0.105176 0.500000 0.913384
O O6 0.068541 0.201487 0.804999
O O7 0.000000 0.338729 0.000000
O O8 0.322768 0.500000 0.411782
O O9 0.250000 0.250000 0.500000
O O10 0.298952 0.258426 0.243095
O O11 0.385710 0.227486 0.432849
O O12 0.764555 0.000000 0.825794
O O13 0.750000 0.250000 0.000000
O O14 0.041197 0.000000 0.609167
#
# Coordination Sequence:
#
# PCOD9221389 Si02
#       5
#     8   8   8   8   8
#     4   9  18  33  53  78 109 147 191 236 281 334
#     4   9  16  25  43  76 113 144 177 225 284 337
#     4  11  24  42  63  86 116 156 199 244 296 355
#     4  11  23  39  61  90 124 159 195 240 293 348
#     4   9  18  34  55  77 104 145 195 238 279 337
#
# _framework density 25.931453999999999
#
# number of rings (size 3 to 8) (size 9 to 14) (size 15 to 20)
#    0.000    2.200    0.000    3.000    0.000   10.400 
#    0.000    1.000    0.000    6.000    0.000    0.000 
#    0.000    0.000    0.000    0.000    0.000    0.000 
#
# Total GULP energy -111573.673049 kJ/mol
# GULP energy per Si atom -5578.683652 kJ/mol
# Density = 2.587243 g / cm^3
# Si number density = 25.931454 Si / 1000 Ang^3
#
#
#
# Elastic Constant Matrix: (Units=GPa)
#
#
# Indices 1 2 3 4 5 6 
#
# 1 284.8135 11.9391 50.9937 0.0000 -24.9363 0.0000
# 2 11.9391 55.8805 13.1001 0.0000 -4.8955 0.0000
# 3 50.9937 13.1001 103.5949 0.0000 -2.9196 0.0000
# 4 0.0000 0.0000 0.0000 12.6363 0.0000 -10.7154
# 5 -24.9363 -4.8955 -2.9196 0.0000 41.6124 0.0000
# 6 0.0000 0.0000 0.0000 -10.7154 0.0000 23.3398
#
#
#
# Elastic Compliance Matrix: (Units=1/GPa)
#
#
# Indices 1 2 3 4 5 6 
#
# 1 0.004061 -0.000221 -0.001907 0.000000 0.002274 0.000000
# 2 -0.000221 0.018623 -0.002192 0.000000 0.001904 0.000000
# 3 -0.001907 -0.002192 0.010851 0.000000 -0.000639 0.000000
# 4 0.000000 0.000000 0.000000 0.129588 0.000000 0.059494
# 5 0.002274 0.001904 -0.000639 0.000000 0.025573 0.000000
# 6 0.000000 0.000000 0.000000 0.059494 0.000000 0.070159
#
#
# Mechanical properties :
#
#
# Convention : Reuss Voigt Hill
#
# Bulk Modulus (GPa) = 40.17052 66.26162 53.21607
# Shear Modulus (GPa) = 18.12945 40.06810 29.09878
#
# Velocity S-wave (km/s) = 2.64697 3.93511 3.35347
# Velocity P-wave (km/s) = 4.98665 6.80109 5.96328
#
# Compressibility (1/GPa) = 0.02489388
#
# Stress axis : x y z
#
# Youngs Moduli (GPa) = 246.25584 53.69579 92.15892
#
# Poissons Ratio (x) = 0.01189 0.17573
# Poissons Ratio (y) = 0.05452 0.20205
# Poissons Ratio (z) = 0.46957 0.11772
#
# Static dielectric constant tensor:
#      x y z
#    x 2.069280 0.000000 -0.201590 
#    y 0.000000 2.822050 0.000000 
#    z -0.201590 0.000000 1.952920 
# 
# From -- ./inp_files/162512.got.cif
#   From: 2010.05.17/outbox.cif.g08.bks.cpg/sg12_82_cif.got.tgz:162512.got - 2010.06.03 13:09:07.
