data_PCOD9221430
_publ_section_title
;
Structure prediction by ZEFSAII (Michael W. Deem and Ramdas Pophale) SiO2 
 PCOD9221430
Probable space group: C 2/M
;
_chemical_formula_sum "Si O2"
_cell_formula_units_Z 48
_cell_length_a 23.462442
_cell_length_b 11.269421
_cell_length_c 9.685548
_cell_angle_alpha 90.000000
_cell_angle_beta 111.722363
_cell_angle_gamma 90.000000
_cell_volume 2379.080866
_symmetry_space_group_name_H-M "C 2/M"
_symmetry_group_IT_number 12
_symmetry_cell_setting 'monoclinic'
loop_
_space_group_symop_operation_xyz
x,y,z
-x,y,-z
-x,-y,-z
x,-y,z
1/2+x,1/2+y,z
1/2-x,1/2+y,-z
1/2-x,1/2-y,-z
1/2+x,1/2-y,z
loop_
_atom_site_type_symbol
_atom_site_label
_atom_site_fract_x
_atom_site_fract_y
_atom_site_fract_z
Si Si1 0.782469 0.135857 0.192724
Si Si2 0.345381 0.239836 0.996383
Si Si3 0.904391 0.500000 0.175710
Si Si4 0.133060 0.500000 0.538473
Si Si5 0.000000 0.285446 0.000000
Si Si6 0.587618 0.641855 0.199557
Si Si7 0.043627 0.500000 0.196100
Si Si8 0.317342 0.747092 0.495044
O O1 0.718400 0.206902 0.135919
O O2 0.815796 0.157135 0.366322
O O3 0.766733 0.000000 0.156120
O O4 0.824821 0.181763 0.107520
O O5 0.387981 0.311832 0.928487
O O6 0.374705 0.119197 0.084425
O O7 0.895625 0.500000 0.333798
O O8 0.975849 0.500000 0.201064
O O9 0.088353 0.500000 0.365502
O O10 0.170164 0.378269 0.553344
O O11 0.017651 0.191531 0.137716
O O12 0.048335 0.386061 0.101023
O O13 0.590670 0.500000 0.212630
O O14 0.631100 0.703877 0.351449
O O15 0.250000 0.750000 0.500000
#
# Coordination Sequence:
#
# PCOD9221430 Si02
#       8
#     8   8   4   4   4   8   4   8
#     4  11  23  40  60  90 133 172 215 263 322 390
#     4  11  23  39  65  94 123 173 219 265 320 386
#     4  12  22  43  70  95 127 174 222 277 328 384
#     4  12  26  45  66  95 139 167 220 278 326 395
#     4  11  23  42  68  96 121 169 218 274 332 389
#     4  12  25  43  65  93 132 171 216 267 329 397
#     4  11  23  42  72  94 127 167 223 280 332 382
#     4  12  26  40  64  95 131 175 211 262 335 392
#
# _framework density 20.175858999999999
#
# number of rings (size 3 to 8) (size 9 to 14) (size 15 to 20)
#    0.000    0.500    7.500    1.500    2.333    0.667 
#    0.000    0.000    0.000    0.000    0.000    7.000 
#    0.000    0.000    0.000    0.000    0.000    0.000 
#
# Total GULP energy -133795.977237 kJ/mol
# GULP energy per Si atom -5574.832385 kJ/mol
# Density = 2.012994 g / cm^3
# Si number density = 20.175859 Si / 1000 Ang^3
#
#
#
# Elastic Constant Matrix: (Units=GPa)
#
#
# Indices 1 2 3 4 5 6 
#
# 1 66.1430 11.7730 30.5665 0.0000 -8.8701 0.0000
# 2 11.7730 102.0752 13.8000 0.0000 -20.4781 0.0000
# 3 30.5665 13.8000 111.0950 0.0000 0.7787 0.0000
# 4 0.0000 0.0000 0.0000 37.9317 0.0000 1.5772
# 5 -8.8701 -20.4781 0.7787 0.0000 26.2636 0.0000
# 6 0.0000 0.0000 0.0000 1.5772 0.0000 22.5923
#
#
#
# Elastic Compliance Matrix: (Units=1/GPa)
#
#
# Indices 1 2 3 4 5 6 
#
# 1 0.018321 -0.000187 -0.005061 0.000000 0.006192 0.000000
# 2 -0.000187 0.011873 -0.001488 0.000000 0.009239 0.000000
# 3 -0.005061 -0.001488 0.010601 0.000000 -0.003184 0.000000
# 4 0.000000 0.000000 0.000000 0.026440 0.000000 -0.001846
# 5 0.006192 0.009239 -0.003184 0.000000 0.047465 0.000000
# 6 0.000000 0.000000 0.000000 -0.001846 0.000000 0.044392
#
#
# Mechanical properties :
#
#
# Convention : Reuss Voigt Hill
#
# Bulk Modulus (GPa) = 36.59893 43.51023 40.05458
# Shear Modulus (GPa) = 27.52229 32.23578 29.87904
#
# Velocity S-wave (km/s) = 3.69741 4.00151 3.85246
# Velocity P-wave (km/s) = 6.03383 6.55452 6.29956
#
# Compressibility (1/GPa) = 0.02732321
#
# Stress axis : x y z
#
# Youngs Moduli (GPa) = 54.58141 84.22591 94.33082
#
# Poissons Ratio (x) = 0.01572 0.47742
# Poissons Ratio (y) = 0.01019 0.14039
# Poissons Ratio (z) = 0.27624 0.12535
#
# Static dielectric constant tensor:
#      x y z
#    x 1.913850 0.000000 0.055940 
#    y 0.000000 1.728000 0.000000 
#    z 0.055940 0.000000 1.704000 
# 
# From -- ./inp_files/95048.got.cif
#   From: 2010.05.17/outbox.cif.g08.bks.cpg/sg12_48_cif.got.tgz:95048.got - 2010.06.03 13:09:07.
