data_PCOD9221793
_publ_section_title
;
Structure prediction by ZEFSAII (Michael W. Deem and Ramdas Pophale) SiO2 
 PCOD9221793
Probable space group: C 2/M
;
_chemical_formula_sum "Si O2"
_cell_formula_units_Z 46
_cell_length_a 26.604932
_cell_length_b 11.997959
_cell_length_c 20.091988
_cell_angle_alpha 90.000000
_cell_angle_beta 20.177518
_cell_angle_gamma 90.000000
_cell_volume 2212.194493
_symmetry_space_group_name_H-M "C 2/M"
_symmetry_group_IT_number 12
_symmetry_cell_setting 'monoclinic'
loop_
_space_group_symop_operation_xyz
x,y,z
-x,y,-z
-x,-y,-z
x,-y,z
1/2+x,1/2+y,z
1/2-x,1/2+y,-z
1/2-x,1/2-y,-z
1/2+x,1/2-y,z
loop_
_atom_site_type_symbol
_atom_site_label
_atom_site_fract_x
_atom_site_fract_y
_atom_site_fract_z
Si Si1 0.000000 0.269683 0.000000
Si Si2 0.015158 0.779904 0.386875
Si Si3 0.724333 0.618885 0.923248
Si Si4 0.256013 0.126067 0.732749
Si Si5 0.569984 0.692061 0.658155
Si Si6 0.596426 0.873106 0.740922
Si Si7 0.500000 0.500000 0.500000
O O1 0.857509 0.192533 0.171278
O O2 0.978795 0.338023 0.095229
O O3 0.173996 0.723697 0.187189
O O4 0.903573 0.694240 0.560256
O O5 0.950324 0.779072 0.393354
O O6 0.011200 0.899312 0.428298
O O7 0.801832 0.500000 0.839960
O O8 0.686817 0.621700 0.891951
O O9 0.572563 0.620904 0.149342
O O10 0.281364 0.000000 0.677528
O O11 0.560000 0.792723 0.724266
O O12 0.728357 0.636968 0.469179
O O13 0.554844 0.000000 0.778021
#
# Coordination Sequence:
#
# PCOD9221793 Si02
#       7
#     4   8   8   8   8   8   2
#     4  12  22  46  68 106 138 179 239 282 356 412
#     4  12  25  47  69 102 137 184 232 284 348 417
#     4  11  23  44  69  98 134 178 229 289 342 410
#     4  11  23  43  71  99 133 178 234 292 337 411
#     4  11  25  46  66 101 142 175 236 281 352 414
#     4  11  25  45  70 101 139 188 228 290 347 423
#     4  12  28  44  74 102 140 190 230 284 346 422
#
# _framework density 20.79383
#
# number of rings (size 3 to 8) (size 9 to 14) (size 15 to 20)
#    0.000    0.696    5.217    2.087    2.435    2.783 
#    6.261    0.000    0.000    0.000    0.000    0.000 
#    0.000    0.000    0.000    0.000    0.000    0.000 
#
# Total GULP energy -128118.838507 kJ/mol
# GULP energy per Si atom -5570.384283 kJ/mol
# Density = 2.074650 g / cm^3
# Si number density = 20.793830 Si / 1000 Ang^3
#
#
#
# Elastic Constant Matrix: (Units=GPa)
#
#
# Indices 1 2 3 4 5 6 
#
# 1 102.1707 35.6135 13.5070 0.0000 5.2666 0.0000
# 2 35.6135 167.9531 39.1649 0.0000 -3.9780 0.0000
# 3 13.5070 39.1649 76.0908 0.0000 6.3774 0.0000
# 4 0.0000 0.0000 0.0000 26.5362 0.0000 -3.7946
# 5 5.2666 -3.9780 6.3774 0.0000 37.6533 0.0000
# 6 0.0000 0.0000 0.0000 -3.7946 0.0000 7.5445
#
#
#
# Elastic Compliance Matrix: (Units=1/GPa)
#
#
# Indices 1 2 3 4 5 6 
#
# 1 0.010709 -0.002156 -0.000656 0.000000 -0.001615 0.000000
# 2 -0.002156 0.007266 -0.003496 0.000000 0.001661 0.000000
# 3 -0.000656 -0.003496 0.015299 0.000000 -0.002869 0.000000
# 4 0.000000 0.000000 0.000000 0.040605 0.000000 0.020423
# 5 -0.001615 0.001661 -0.002869 0.000000 0.027445 0.000000
# 6 0.000000 0.000000 0.000000 0.020423 0.000000 0.142819
#
#
# Mechanical properties :
#
#
# Convention : Reuss Voigt Hill
#
# Bulk Modulus (GPa) = 48.40988 58.08726 53.24857
# Shear Modulus (GPa) = 18.96488 31.54207 25.25347
#
# Velocity S-wave (km/s) = 3.02328 3.89896 3.48870
# Velocity P-wave (km/s) = 5.95973 6.94728 6.47237
#
# Compressibility (1/GPa) = 0.02065694
#
# Stress axis : x y z
#
# Youngs Moduli (GPa) = 93.37920 137.62933 65.36506
#
# Poissons Ratio (x) = 0.29674 0.04287
# Poissons Ratio (y) = 0.20133 0.22854
# Poissons Ratio (z) = 0.06125 0.48120
#
# Static dielectric constant tensor:
#      x y z
#    x 1.834690 0.000000 0.030470 
#    y 0.000000 1.758950 0.000000 
#    z 0.030470 0.000000 1.757810 
# 
# From -- ./inp_files/327984.got.cif
#   From: 2010.05.17/outbox.cif.g08.bks.cpg/sg12_164_cif.got.tgz:327984.got - 2010.06.03 13:09:07.
