data_PCOD9221242
_publ_section_title
;
Structure prediction by ZEFSAII (Michael W. Deem and Ramdas Pophale) SiO2 
 PCOD9221242
Probable space group: C 2/M
;
_chemical_formula_sum "Si O2"
_cell_formula_units_Z 40
_cell_length_a 21.263200
_cell_length_b 5.715711
_cell_length_c 16.408933
_cell_angle_alpha 90.000000
_cell_angle_beta 50.269087
_cell_angle_gamma 90.000000
_cell_volume 1533.686230
_symmetry_space_group_name_H-M "C 2/M"
_symmetry_group_IT_number 12
_symmetry_cell_setting 'monoclinic'
loop_
_space_group_symop_operation_xyz
x,y,z
-x,y,-z
-x,-y,-z
x,-y,z
1/2+x,1/2+y,z
1/2-x,1/2+y,-z
1/2-x,1/2-y,-z
1/2+x,1/2-y,z
loop_
_atom_site_type_symbol
_atom_site_label
_atom_site_fract_x
_atom_site_fract_y
_atom_site_fract_z
Si Si1 0.955209 0.000000 0.416364
Si Si2 0.704709 0.000000 0.046044
Si Si3 0.393542 0.250844 0.158025
Si Si4 0.529975 0.000000 0.645882
Si Si5 0.532876 0.000000 0.117091
Si Si6 0.874354 0.000000 0.657317
Si Si7 0.144179 0.500000 0.280665
Si Si8 0.247452 0.252769 0.404265
O O1 0.927939 0.247190 0.400658
O O2 0.927531 0.000000 0.532084
O O3 0.055092 0.000000 0.329558
O O4 0.628999 0.000000 0.046109
O O5 0.672192 0.000000 0.164986
O O6 0.750000 0.250000 0.000000
O O7 0.380474 0.500000 0.126929
O O8 0.335939 0.255252 0.286436
O O9 0.374390 0.000000 0.132641
O O10 0.487163 0.215768 0.110178
O O11 0.497755 0.000000 0.764289
O O12 0.455743 0.000000 0.640425
O O13 0.829258 0.249216 0.704537
O O14 0.208091 0.500000 0.413153
O O15 0.250000 0.250000 0.500000
O O16 0.213675 0.000000 0.408015
#
# Coordination Sequence:
#
# PCOD9221242 Si02
#       8
#     4   4   8   4   4   4   4   8
#     4   9  16  24  36  58  71  86 104 128 167 209
#     4  11  23  33  43  55  69  89 122 161 196 225
#     4   8  15  23  35  49  63  87 117 141 177 212
#     4   9  17  24  36  52  72  90 110 135 168 211
#     4   9  20  28  42  48  72  94 125 150 189 220
#     4   9  15  26  42  54  72  84 102 130 167 224
#     4   9  17  29  41  53  66  88 107 136 183 219
#     4   8  12  19  30  46  65  82 104 139 176 200
#
# _framework density 26.080953000000001
#
# number of rings (size 3 to 8) (size 9 to 14) (size 15 to 20)
#    0.600    2.600    0.000    1.200    2.800    4.000 
#    0.000    0.000    0.000    0.000    0.000    0.000 
#    0.000    0.000    0.000    0.000    0.000    0.000 
#
# Total GULP energy -111625.146984 kJ/mol
# GULP energy per Si atom -5581.257349 kJ/mol
# Density = 2.602159 g / cm^3
# Si number density = 26.080953 Si / 1000 Ang^3
#
#
#
# Elastic Constant Matrix: (Units=GPa)
#
#
# Indices 1 2 3 4 5 6 
#
# 1 67.9557 45.8092 38.1821 -0.0211 -9.5099 0.0032
# 2 45.8092 337.2428 58.2528 -0.0511 1.0612 0.0465
# 3 38.1821 58.2528 88.5179 -0.0349 7.0629 0.0168
# 4 -0.0211 -0.0511 -0.0349 22.3208 0.0189 -2.9599
# 5 -9.5099 1.0612 7.0629 0.0189 40.9397 -0.0027
# 6 0.0032 0.0465 0.0168 -2.9599 -0.0027 39.0071
#
#
#
# Elastic Compliance Matrix: (Units=1/GPa)
#
#
# Indices 1 2 3 4 5 6 
#
# 1 0.021599 -0.001415 -0.008911 -0.000002 0.006591 0.000004
# 2 -0.001415 0.003442 -0.001644 0.000004 -0.000134 -0.000003
# 3 -0.008911 -0.001644 0.016613 0.000017 -0.004893 -0.000003
# 4 -0.000002 0.000004 0.000017 0.045257 -0.000024 0.003434
# 5 0.006591 -0.000134 -0.004893 -0.000024 0.026805 0.000002
# 6 0.000004 -0.000003 -0.000003 0.003434 0.000002 0.025897
#
#
# Mechanical properties :
#
#
# Convention : Reuss Voigt Hill
#
# Bulk Modulus (GPa) = 56.45480 86.46719 71.46099
# Shear Modulus (GPa) = 29.50592 43.88499 36.69545
#
# Velocity S-wave (km/s) = 3.36716 4.10646 3.75505
# Velocity P-wave (km/s) = 6.06712 7.46387 6.80145
#
# Compressibility (1/GPa) = 0.01771329
#
# Stress axis : x y z
#
# Youngs Moduli (GPa) = 46.29877 290.54221 60.19315
#
# Poissons Ratio (x) = 0.41122 0.53639
# Poissons Ratio (y) = 0.06553 0.09895
# Poissons Ratio (z) = 0.41257 0.47759
#
# Static dielectric constant tensor:
#      x y z
#    x 2.065130 -0.000020 -0.054950 
#    y -0.000020 2.102620 0.000020 
#    z -0.054950 0.000020 2.055350 
# 
# From -- ./inp_files/286836.got.cif
#   From: 2010.05.17/outbox.cif.g08.bks.cpg/sg12_144_cif.got.tgz:286836.got - 2010.06.03 13:09:07.
