data_PCOD9221680
_publ_section_title
;
Structure prediction by ZEFSAII (Michael W. Deem and Ramdas Pophale) SiO2 
 PCOD9221680
Probable space group: C 2/M
;
_chemical_formula_sum "Si O2"
_cell_formula_units_Z 42
_cell_length_a 16.811118
_cell_length_b 14.869216
_cell_length_c 8.977942
_cell_angle_alpha 90.000000
_cell_angle_beta 103.308242
_cell_angle_gamma 90.000000
_cell_volume 2183.933256
_symmetry_space_group_name_H-M "C 2/M"
_symmetry_group_IT_number 12
_symmetry_cell_setting 'monoclinic'
loop_
_space_group_symop_operation_xyz
x,y,z
-x,y,-z
-x,-y,-z
x,-y,z
1/2+x,1/2+y,z
1/2-x,1/2+y,-z
1/2-x,1/2-y,-z
1/2+x,1/2-y,z
loop_
_atom_site_type_symbol
_atom_site_label
_atom_site_fract_x
_atom_site_fract_y
_atom_site_fract_z
Si Si1 0.276157 0.780279 0.349350
Si Si2 0.415253 0.149165 0.893514
Si Si3 0.500000 0.500000 0.000000
Si Si4 0.732584 0.400507 0.843457
Si Si5 0.086988 0.602723 0.457394
Si Si6 0.132600 0.852755 0.095414
O O1 0.250000 0.750000 0.500000
O O2 0.286758 0.688150 0.261506
O O3 0.355805 0.839112 0.410688
O O4 0.204131 0.839084 0.246488
O O5 0.330629 0.103699 0.910860
O O6 0.416956 0.140214 0.713867
O O7 0.404005 0.252798 0.936997
O O8 0.500000 0.114413 0.000000
O O9 0.560536 0.421609 0.095859
O O10 0.713812 0.500000 0.771520
O O11 0.679230 0.387716 0.968422
O O12 0.117476 0.500000 0.457774
O O13 0.000000 0.601672 0.500000
#
# Coordination Sequence:
#
# PCOD9221680 Si02
#       6
#     8   8   2   8   8   8
#     4  11  23  44  68  97 136 182 222 279 352 401
#     4  11  23  42  67  94 135 173 223 281 339 398
#     4  12  24  44  68 102 134 176 244 278 336 400
#     4  11  24  43  68 101 131 180 227 281 335 411
#     4  11  26  43  65  99 135 175 226 279 337 414
#     4  11  24  43  69  99 134 179 227 283 330 409
#
# _framework density 19.231356999999999
#
# number of rings (size 3 to 8) (size 9 to 14) (size 15 to 20)
#    0.000    0.952    5.714    2.857    6.667    1.524 
#    0.000    0.000    0.000    1.714    0.000    0.000 
#    0.000    0.000    0.000    0.000    0.000    0.000 
#
# Total GULP energy -116909.304948 kJ/mol
# GULP energy per Si atom -5567.109759 kJ/mol
# Density = 1.918759 g / cm^3
# Si number density = 19.231357 Si / 1000 Ang^3
#
#
#
# Elastic Constant Matrix: (Units=GPa)
#
#
# Indices 1 2 3 4 5 6 
#
# 1 55.3785 37.0442 21.2600 0.0000 21.0986 0.0000
# 2 37.0442 156.3178 35.7674 0.0000 20.6527 0.0000
# 3 21.2600 35.7674 72.1570 0.0000 28.6984 0.0000
# 4 0.0000 0.0000 0.0000 -100.5547 0.0000 56.2584
# 5 21.0986 20.6527 28.6984 0.0000 34.2473 0.0000
# 6 0.0000 0.0000 0.0000 56.2584 0.0000 -18.1714
#
#
#
# Elastic Compliance Matrix: (Units=1/GPa)
#
#
# Indices 1 2 3 4 5 6 
#
# 1 0.026134 -0.004384 -0.000262 0.000000 -0.013237 0.000000
# 2 -0.004384 0.008047 -0.002762 0.000000 0.000163 0.000000
# 3 -0.000262 -0.002762 0.021866 0.000000 -0.016496 0.000000
# 4 0.000000 0.000000 0.000000 0.013583 0.000000 0.042053
# 5 -0.013237 0.000163 -0.016496 0.000000 0.051079 0.000000
# 6 0.000000 0.000000 0.000000 0.042053 0.000000 0.075165
#
#
# Mechanical properties :
#
#
# Convention : Reuss Voigt Hill
#
# Bulk Modulus (GPa) = 24.25422 52.44405 38.34914
# Shear Modulus (GPa) = 22.27830 -4.24367 9.01732
#
# Velocity S-wave (km/s) = 3.40727 -1.48709 2.16773
# Velocity P-wave (km/s) = 5.30269 4.93768 5.12344
#
# Compressibility (1/GPa) = 0.04122993
#
# Stress axis : x y z
#
# Youngs Moduli (GPa) = 38.26424 124.27574 45.73388
#
# Poissons Ratio (x) = 0.54488 0.01199
# Poissons Ratio (y) = 0.16777 0.12629
# Poissons Ratio (z) = 0.01003 0.34319
#
# Static dielectric constant tensor:
#      x y z
#    x 1.690580 0.000000 0.009500 
#    y 0.000000 1.904470 0.000000 
#    z 0.009500 0.000000 1.649890 
# 
# From -- ./inp_files/73257.got.cif
#   From: 2010.05.17/outbox.cif.g08.bks.cpg/sg12_37_cif.got.tgz:73257.got - 2010.06.03 13:09:07.
