data_PCOD9221628
_publ_section_title
;
Structure prediction by ZEFSAII (Michael W. Deem and Ramdas Pophale) SiO2 
 PCOD9221628
Probable space group: C 2/M
;
_chemical_formula_sum "Si O2"
_cell_formula_units_Z 56
_cell_length_a 18.500026
_cell_length_b 18.920572
_cell_length_c 8.989877
_cell_angle_alpha 90.000000
_cell_angle_beta 67.965419
_cell_angle_gamma 90.000000
_cell_volume 2916.891101
_symmetry_space_group_name_H-M "C 2/M"
_symmetry_group_IT_number 12
_symmetry_cell_setting 'monoclinic'
loop_
_space_group_symop_operation_xyz
x,y,z
-x,y,-z
-x,-y,-z
x,-y,z
1/2+x,1/2+y,z
1/2-x,1/2+y,-z
1/2-x,1/2-y,-z
1/2+x,1/2-y,z
loop_
_atom_site_type_symbol
_atom_site_label
_atom_site_fract_x
_atom_site_fract_y
_atom_site_fract_z
Si Si1 0.544974 0.578500 0.120666
Si Si2 0.808625 0.834255 0.086107
Si Si3 0.009101 0.343738 0.670641
Si Si4 0.350598 0.825286 0.974898
Si Si5 0.449350 0.312420 0.391340
Si Si6 0.778023 0.169224 0.459439
Si Si7 0.854969 0.583192 0.271471
O O1 0.547978 0.500000 0.185929
O O2 0.495232 0.633905 0.252386
O O3 0.500000 0.573823 0.000000
O O4 0.630375 0.609153 0.023206
O O5 0.727964 0.838024 0.058477
O O6 0.793191 0.844091 0.273188
O O7 0.845605 0.756341 0.031911
O O8 0.050861 0.267903 0.667575
O O9 0.064167 0.401157 0.705016
O O10 0.000000 0.354274 0.500000
O O11 0.925157 0.338115 0.812970
O O12 0.355313 0.875431 0.114622
O O13 0.500000 0.308809 0.500000
O O14 0.360788 0.336917 0.479155
O O15 0.750000 0.250000 0.500000
O O16 0.714118 0.117240 0.576733
O O17 0.843879 0.500000 0.258914
#
# Coordination Sequence:
#
# PCOD9221628 Si02
#       7
#     8   8   8   8   8   8   8
#     4  11  24  42  63  95 131 169 213 267 332 389
#     4  11  23  41  69  99 130 173 223 272 328 391
#     4  11  23  43  72 102 129 173 228 275 328 401
#     4  11  24  40  70 101 130 171 225 273 328 399
#     4  11  24  39  69 100 130 171 225 270 325 392
#     4  12  23  42  69  97 132 176 220 270 327 399
#     4  12  28  45  66  99 138 176 219 280 339 391
#
# _framework density 19.198523000000002
#
# number of rings (size 3 to 8) (size 9 to 14) (size 15 to 20)
#    0.000    0.714    5.714    1.286    4.000    3.429 
#    0.000    1.429    0.000    0.000    0.000    0.000 
#    0.000    0.000    0.000    0.000    0.000    0.000 
#
# Total GULP energy -156571.026790 kJ/mol
# GULP energy per Si atom -5591.822385 kJ/mol
# Density = 1.915483 g / cm^3
# Si number density = 19.198523 Si / 1000 Ang^3
#
#
#
# Elastic Constant Matrix: (Units=GPa)
#
#
# Indices 1 2 3 4 5 6 
#
# 1 115.4749 23.3382 45.2731 0.0000 -12.4749 0.0000
# 2 23.3382 91.7924 29.7486 0.0000 3.6267 0.0000
# 3 45.2731 29.7486 94.6117 0.0000 -14.6990 0.0000
# 4 0.0000 0.0000 0.0000 8.8057 0.0000 -9.5918
# 5 -12.4749 3.6267 -14.6990 0.0000 33.5777 0.0000
# 6 0.0000 0.0000 0.0000 -9.5918 0.0000 25.2927
#
#
#
# Elastic Compliance Matrix: (Units=1/GPa)
#
#
# Indices 1 2 3 4 5 6 
#
# 1 0.010931 -0.001435 -0.004425 0.000000 0.002279 0.000000
# 2 -0.001435 0.012647 -0.003847 0.000000 -0.003583 0.000000
# 3 -0.004425 -0.003847 0.014706 0.000000 0.005209 0.000000
# 4 0.000000 0.000000 0.000000 0.193491 0.000000 0.073378
# 5 0.002279 -0.003583 0.005209 0.000000 0.033296 0.000000
# 6 0.000000 0.000000 0.000000 0.073378 0.000000 0.067364
#
#
# Mechanical properties :
#
#
# Convention : Reuss Voigt Hill
#
# Bulk Modulus (GPa) = 52.99403 55.39986 54.19694
# Shear Modulus (GPa) = 13.96104 27.10317 20.53210
#
# Velocity S-wave (km/s) = 2.69958 3.76138 3.27381
# Velocity P-wave (km/s) = 6.11392 6.91252 6.52545
#
# Compressibility (1/GPa) = 0.01887005
#
# Stress axis : x y z
#
# Youngs Moduli (GPa) = 91.48157 79.06881 67.99974
#
# Poissons Ratio (x) = 0.11347 0.30093
# Poissons Ratio (y) = 0.13128 0.26157
# Poissons Ratio (z) = 0.40485 0.30415
#
# Static dielectric constant tensor:
#      x y z
#    x 1.653390 0.000000 0.004130 
#    y 0.000000 1.671480 0.000000 
#    z 0.004130 0.000000 1.641170 
# 
# From -- ./inp_files/75873.got.cif
#   From: 2010.05.17/outbox.cif.g08.bks.cpg/sg12_38_cif.got.tgz:75873.got - 2010.06.03 13:09:07.
