data_PCOD9221420
_publ_section_title
;
Structure prediction by ZEFSAII (Michael W. Deem and Ramdas Pophale) SiO2 
 PCOD9221420
Probable space group: C 2/M
;
_chemical_formula_sum "Si O2"
_cell_formula_units_Z 56
_cell_length_a 9.368752
_cell_length_b 28.118434
_cell_length_c 12.209008
_cell_angle_alpha 90.000000
_cell_angle_beta 57.364067
_cell_angle_gamma 90.000000
_cell_volume 2708.471779
_symmetry_space_group_name_H-M "C 2/M"
_symmetry_group_IT_number 12
_symmetry_cell_setting 'monoclinic'
loop_
_space_group_symop_operation_xyz
x,y,z
-x,y,-z
-x,-y,-z
x,-y,z
1/2+x,1/2+y,z
1/2-x,1/2+y,-z
1/2-x,1/2-y,-z
1/2+x,1/2-y,z
loop_
_atom_site_type_symbol
_atom_site_label
_atom_site_fract_x
_atom_site_fract_y
_atom_site_fract_z
Si Si1 0.979212 0.055119 0.637482
Si Si2 0.176551 0.444674 0.365148
Si Si3 0.185993 0.303491 0.057194
Si Si4 0.177607 0.701235 0.443478
Si Si5 0.654740 0.645820 0.200353
Si Si6 0.695281 0.359365 0.787326
Si Si7 0.815862 0.295874 0.314992
O O1 0.851988 0.093461 0.743612
O O2 0.000000 0.064353 0.500000
O O3 0.164279 0.060557 0.617185
O O4 0.926429 0.000000 0.674312
O O5 0.162240 0.500000 0.340334
O O6 0.238411 0.413352 0.235209
O O7 0.000000 0.432541 0.500000
O O8 0.294557 0.327850 0.109121
O O9 0.996760 0.303477 0.183621
O O10 0.250000 0.250000 0.000000
O O11 0.204833 0.337184 0.944124
O O12 0.173845 0.660510 0.356489
O O13 0.204098 0.683062 0.554633
O O14 0.309468 0.740077 0.346912
O O15 0.000000 0.727848 0.500000
O O16 0.483653 0.646923 0.199027
O O17 0.675349 0.683247 0.291411
#
# Coordination Sequence:
#
# PCOD9221420 Si02
#       7
#     8   8   8   8   8   8   8
#     4   9  20  39  63  94 129 162 204 264 326 377
#     4   9  19  36  61  94 126 156 199 256 318 376
#     4  12  25  46  60  85 127 174 213 255 307 380
#     4  11  23  40  60  91 121 160 203 266 321 368
#     4  11  25  39  64  92 121 167 213 255 308 382
#     4  11  23  39  64  89 124 164 206 258 314 372
#     4  11  26  40  62  88 124 161 212 263 312 375
#
# _framework density 20.675865000000002
#
# number of rings (size 3 to 8) (size 9 to 14) (size 15 to 20)
#    0.000    1.429    1.429    3.000    8.000    1.143 
#    0.000    0.714    0.000    5.143    0.000    0.000 
#    0.000    0.000    0.000    0.000    0.000    0.000 
#
# Total GULP energy -156156.105647 kJ/mol
# GULP energy per Si atom -5577.003773 kJ/mol
# Density = 2.062881 g / cm^3
# Si number density = 20.675865 Si / 1000 Ang^3
#
#
#
# Elastic Constant Matrix: (Units=GPa)
#
#
# Indices 1 2 3 4 5 6 
#
# 1 72.6689 34.8401 40.5674 0.0000 10.0683 0.0000
# 2 34.8401 109.7707 78.1620 0.0000 3.5493 0.0000
# 3 40.5674 78.1620 128.9392 0.0000 17.4134 0.0000
# 4 0.0000 0.0000 0.0000 37.7869 0.0000 1.0668
# 5 10.0683 3.5493 17.4134 0.0000 36.3685 0.0000
# 6 0.0000 0.0000 0.0000 1.0668 0.0000 24.1846
#
#
#
# Elastic Compliance Matrix: (Units=1/GPa)
#
#
# Indices 1 2 3 4 5 6 
#
# 1 0.017473 -0.003209 -0.003144 0.000000 -0.003019 0.000000
# 2 -0.003209 0.016997 -0.009825 0.000000 0.003934 0.000000
# 3 -0.003144 -0.009825 0.015453 0.000000 -0.005570 0.000000
# 4 0.000000 0.000000 0.000000 0.026497 0.000000 -0.001169
# 5 -0.003019 0.003934 -0.005570 0.000000 0.030615 0.000000
# 6 0.000000 0.000000 0.000000 -0.001169 0.000000 0.041400
#
#
# Mechanical properties :
#
#
# Convention : Reuss Voigt Hill
#
# Bulk Modulus (GPa) = 56.92867 68.72420 62.82643
# Shear Modulus (GPa) = 26.78826 30.18863 28.48844
#
# Velocity S-wave (km/s) = 3.60339 3.82526 3.71598
# Velocity P-wave (km/s) = 6.70121 7.26782 6.99026
#
# Compressibility (1/GPa) = 0.01756584
#
# Stress axis : x y z
#
# Youngs Moduli (GPa) = 57.23019 58.83283 64.71207
#
# Poissons Ratio (x) = 0.18881 0.20348
# Poissons Ratio (y) = 0.18367 0.63581
# Poissons Ratio (z) = 0.17996 0.57805
#
# Static dielectric constant tensor:
#      x y z
#    x 1.845050 0.000000 -0.073200 
#    y 0.000000 1.838110 0.000000 
#    z -0.073200 0.000000 1.825940 
# 
# From -- ./inp_files/125622.got.cif
#   From: 2010.05.17/outbox.cif.g08.bks.cpg/sg12_63_cif.got.tgz:125622.got - 2010.06.03 13:09:07.
