data_PCOD9221371
_publ_section_title
;
Structure prediction by ZEFSAII (Michael W. Deem and Ramdas Pophale) SiO2 
 PCOD9221371
Probable space group: C 2/M
;
_chemical_formula_sum "Si O2"
_cell_formula_units_Z 64
_cell_length_a 14.537051
_cell_length_b 8.526538
_cell_length_c 33.300815
_cell_angle_alpha 90.000000
_cell_angle_beta 48.430728
_cell_angle_gamma 90.000000
_cell_volume 3088.125486
_symmetry_space_group_name_H-M "C 2/M"
_symmetry_group_IT_number 12
_symmetry_cell_setting 'monoclinic'
loop_
_space_group_symop_operation_xyz
x,y,z
-x,y,-z
-x,-y,-z
x,-y,z
1/2+x,1/2+y,z
1/2-x,1/2+y,-z
1/2-x,1/2-y,-z
1/2+x,1/2-y,z
loop_
_atom_site_type_symbol
_atom_site_label
_atom_site_fract_x
_atom_site_fract_y
_atom_site_fract_z
Si Si1 0.506761 0.679242 0.617532
Si Si2 0.385846 0.310695 0.006303
Si Si3 0.757179 0.180897 0.542506
Si Si4 0.883898 0.684833 0.294891
Si Si5 0.869231 0.816207 0.738259
Si Si6 0.145187 0.682632 0.407700
Si Si7 0.885668 0.187948 0.204563
Si Si8 0.621188 0.311028 0.084381
O O1 0.553352 0.500000 0.605371
O O2 0.616485 0.794627 0.597451
O O3 0.401312 0.693448 0.681422
O O4 0.452803 0.719458 0.589701
O O5 0.385654 0.500000 0.006878
O O6 0.398403 0.259460 0.956188
O O7 0.500000 0.255698 0.000000
O O8 0.253292 0.252819 0.059627
O O9 0.750000 0.250000 0.500000
O O10 0.842328 0.270404 0.549488
O O11 0.790905 0.000000 0.532021
O O12 0.860739 0.500000 0.307318
O O13 0.017303 0.733672 0.272714
O O14 0.777048 0.779459 0.349011
O O15 0.881874 0.728986 0.248710
O O16 0.738232 0.736615 0.782763
O O17 0.866350 0.000000 0.749934
O O18 0.116557 0.500000 0.411856
O O19 0.007230 0.236101 0.145051
O O20 0.887053 0.000000 0.209802
O O21 0.626155 0.500000 0.083076
#
# Coordination Sequence:
#
# PCOD9221371 Si02
#       8
#     8   8   8   8   8   8   8   8
#     4  11  23  41  66  94 124 160 204 252 302 365
#     4   9  18  35  60  86 116 156 203 249 301 360
#     4  12  26  45  68  95 127 162 204 255 310 366
#     4  12  24  39  61  89 120 160 207 252 305 364
#     4  11  23  39  62  90 122 160 205 250 302 365
#     4  12  24  41  66  94 124 160 203 250 305 366
#     4  11  23  39  59  87 127 165 205 255 305 362
#     4   9  20  37  56  85 121 157 198 249 304 358
#
# _framework density 20.724546
#
# number of rings (size 3 to 8) (size 9 to 14) (size 15 to 20)
#    0.000    1.125    2.500    4.500    0.000    3.750 
#    0.000    3.750    0.000    0.000    0.000    0.000 
#    0.000    0.000    0.000    0.000    0.000    0.000 
#
# Total GULP energy -179018.121784 kJ/mol
# GULP energy per Si atom -5594.316306 kJ/mol
# Density = 2.067738 g / cm^3
# Si number density = 20.724546 Si / 1000 Ang^3
#
#
#
# Elastic Constant Matrix: (Units=GPa)
#
#
# Indices 1 2 3 4 5 6 
#
# 1 93.2158 -8.3627 -1.4164 -0.0001 -3.1623 -0.0001
# 2 -8.3627 59.5498 1.0543 -0.0003 2.6048 -0.0003
# 3 -1.4164 1.0543 52.0869 -0.0001 -11.0560 -0.0001
# 4 -0.0001 -0.0003 -0.0001 26.2769 -0.0001 -2.1578
# 5 -3.1623 2.6048 -11.0560 -0.0001 22.6194 -0.0001
# 6 -0.0001 -0.0003 -0.0001 -2.1578 -0.0001 34.4951
#
#
#
# Elastic Compliance Matrix: (Units=1/GPa)
#
#
# Indices 1 2 3 4 5 6 
#
# 1 0.010924 0.001450 0.000621 0.000000 0.001664 0.000000
# 2 0.001450 0.017103 -0.000761 0.000000 -0.002139 0.000000
# 3 0.000621 -0.000761 0.021498 0.000000 0.010683 0.000000
# 4 0.000000 0.000000 0.000000 0.038253 0.000000 0.002393
# 5 0.001664 -0.002139 0.010683 0.000000 0.049910 0.000000
# 6 0.000000 0.000000 0.000000 0.002393 0.000000 0.029139
#
#
# Mechanical properties :
#
#
# Convention : Reuss Voigt Hill
#
# Bulk Modulus (GPa) = 19.17679 20.82255 19.99967
# Shear Modulus (GPa) = 27.53468 30.91675 29.22571
#
# Velocity S-wave (km/s) = 3.64895 3.86656 3.75933
# Velocity P-wave (km/s) = 5.19869 5.47749 5.33991
#
# Compressibility (1/GPa) = 0.05214638
#
# Stress axis : x y z
#
# Youngs Moduli (GPa) = 91.54343 58.46810 46.51498
#
# Poissons Ratio (x) = -0.08480 -0.02888
# Poissons Ratio (y) = -0.13276 0.03538
# Poissons Ratio (z) = -0.05683 0.04448
#
# Static dielectric constant tensor:
#      x y z
#    x 1.736840 0.000000 -0.002070 
#    y 0.000000 1.701640 0.000000 
#    z -0.002070 0.000000 1.758750 
# 
# From -- ./inp_files/375496.got.cif
#   From: 2010.05.17/outbox.cif.g08.bks.cpg/sg12_188_cif.got.tgz:375496.got - 2010.06.03 13:09:07.
