data_PCOD9221521
_publ_section_title
;
Structure prediction by ZEFSAII (Michael W. Deem and Ramdas Pophale) SiO2 
 PCOD9221521
Probable space group: C 2/M
;
_chemical_formula_sum "Si O2"
_cell_formula_units_Z 64
_cell_length_a 25.196464
_cell_length_b 8.444486
_cell_length_c 14.533113
_cell_angle_alpha 90.000000
_cell_angle_beta 90.332242
_cell_angle_gamma 90.000000
_cell_volume 3092.175723
_symmetry_space_group_name_H-M "C 2/M"
_symmetry_group_IT_number 12
_symmetry_cell_setting 'monoclinic'
loop_
_space_group_symop_operation_xyz
x,y,z
-x,y,-z
-x,-y,-z
x,-y,z
1/2+x,1/2+y,z
1/2-x,1/2+y,-z
1/2-x,1/2-y,-z
1/2+x,1/2-y,z
loop_
_atom_site_type_symbol
_atom_site_label
_atom_site_fract_x
_atom_site_fract_y
_atom_site_fract_z
Si Si1 0.165317 0.310758 0.261088
Si Si2 0.350746 0.685978 0.348286
Si Si3 0.774992 0.682218 0.205875
Si Si4 0.059086 0.311212 0.784038
Si Si5 0.808982 0.310682 0.526083
Si Si6 0.446792 0.687159 0.814350
Si Si7 0.582035 0.814276 0.994436
Si Si8 0.692814 0.317437 0.973633
O O1 0.170247 0.500000 0.248238
O O2 0.213324 0.225466 0.208124
O O3 0.175237 0.273629 0.368769
O O4 0.108172 0.253891 0.226464
O O5 0.339767 0.500000 0.340132
O O6 0.302117 0.784171 0.303385
O O7 0.402583 0.731075 0.290032
O O8 0.350276 0.734780 0.454683
O O9 0.782861 0.500000 0.178552
O O10 0.806185 0.795018 0.136239
O O11 0.068147 0.500000 0.780276
O O12 0.071365 0.259843 0.889818
O O13 0.997651 0.269514 0.769191
O O14 0.809361 0.500000 0.516624
O O15 0.750000 0.250000 0.500000
O O16 0.449319 0.500000 0.801136
O O17 0.447498 0.726375 0.923532
O O18 0.644516 0.784410 0.011435
O O19 0.569343 0.000000 0.000326
O O20 0.686646 0.500000 0.999631
O O21 0.750000 0.250000 0.000000
#
# Coordination Sequence:
#
# PCOD9221521 Si02
#       8
#     8   8   8   8   8   8   8   8
#     4  11  24  43  66  94 129 170 215 263 321 384
#     4  12  24  40  65  97 131 165 208 261 318 380
#     4  12  23  38  61  90 127 167 209 258 318 380
#     4  11  24  44  69  94 127 170 219 269 317 375
#     4  11  23  40  67  98 131 168 211 263 320 384
#     4  12  26  43  65  94 130 170 215 268 322 378
#     4  11  23  41  65  92 125 167 217 266 316 376
#     4  12  24  38  57  85 126 168 212 261 318 381
#
# _framework density 20.697400999999999
#
# number of rings (size 3 to 8) (size 9 to 14) (size 15 to 20)
#    0.000    0.500    2.500    7.125    0.000    4.500 
#    0.000    0.625    0.000    3.750    0.000    0.000 
#    0.000    0.000    0.000    0.000    0.000    0.000 
#
# Total GULP energy -179125.410549 kJ/mol
# GULP energy per Si atom -5597.669080 kJ/mol
# Density = 2.065029 g / cm^3
# Si number density = 20.697401 Si / 1000 Ang^3
#
#
#
# Elastic Constant Matrix: (Units=GPa)
#
#
# Indices 1 2 3 4 5 6 
#
# 1 120.3236 6.8492 22.7343 0.0000 -11.9250 0.0000
# 2 6.8492 65.1472 19.4652 0.0000 -0.2196 0.0000
# 3 22.7343 19.4652 79.7895 0.0000 -12.1478 0.0000
# 4 0.0000 0.0000 0.0000 29.9660 0.0000 -6.4949
# 5 -11.9250 -0.2196 -12.1478 0.0000 27.1149 0.0000
# 6 0.0000 0.0000 0.0000 -6.4949 0.0000 26.4661
#
#
#
# Elastic Compliance Matrix: (Units=1/GPa)
#
#
# Indices 1 2 3 4 5 6 
#
# 1 0.009015 -0.000333 -0.002022 0.000000 0.003056 0.000000
# 2 -0.000333 0.016651 -0.004260 0.000000 -0.001920 0.000000
# 3 -0.002022 -0.004260 0.015033 0.000000 0.005811 0.000000
# 4 0.000000 0.000000 0.000000 0.035246 0.000000 0.008650
# 5 0.003056 -0.001920 0.005811 0.000000 0.040812 0.000000
# 6 0.000000 0.000000 0.000000 0.008650 0.000000 0.039907
#
#
# Mechanical properties :
#
#
# Convention : Reuss Voigt Hill
#
# Bulk Modulus (GPa) = 36.40431 40.37310 38.38871
# Shear Modulus (GPa) = 27.92520 31.12350 29.52435
#
# Velocity S-wave (km/s) = 3.67715 3.88201 3.78097
# Velocity P-wave (km/s) = 5.97123 6.29620 6.13586
#
# Compressibility (1/GPa) = 0.02746927
#
# Stress axis : x y z
#
# Youngs Moduli (GPa) = 110.92851 60.05606 66.52040
#
# Poissons Ratio (x) = 0.02002 0.13450
# Poissons Ratio (y) = 0.03697 0.28334
# Poissons Ratio (z) = 0.22430 0.25581
#
# Static dielectric constant tensor:
#      x y z
#    x 1.735970 0.000000 0.019090 
#    y 0.000000 1.689990 0.000000 
#    z 0.019090 0.000000 1.794190 
# 
# From -- ./inp_files/238785.got.cif
#   From: 2010.05.17/outbox.cif.g08.bks.cpg/sg12_120_cif.got.tgz:238785.got - 2010.06.03 13:09:07.
