data_PCOD9221797
_publ_section_title
;
Structure prediction by ZEFSAII (Michael W. Deem and Ramdas Pophale) SiO2 
 PCOD9221797
Probable space group: C 2/M
;
_chemical_formula_sum "Si O2"
_cell_formula_units_Z 42
_cell_length_a 18.933016
_cell_length_b 9.465899
_cell_length_c 12.176401
_cell_angle_alpha 90.000000
_cell_angle_beta 116.641921
_cell_angle_gamma 90.000000
_cell_volume 1950.535161
_symmetry_space_group_name_H-M "C 2/M"
_symmetry_group_IT_number 12
_symmetry_cell_setting 'monoclinic'
loop_
_space_group_symop_operation_xyz
x,y,z
-x,y,-z
-x,-y,-z
x,-y,z
1/2+x,1/2+y,z
1/2-x,1/2+y,-z
1/2-x,1/2-y,-z
1/2+x,1/2-y,z
loop_
_atom_site_type_symbol
_atom_site_label
_atom_site_fract_x
_atom_site_fract_y
_atom_site_fract_z
Si Si1 0.093102 0.335023 0.035451
Si Si2 0.000000 0.500000 0.500000
Si Si3 0.894036 0.842264 0.171623
Si Si4 0.554598 0.732039 0.398051
Si Si5 0.318259 0.343299 0.347756
Si Si6 0.172568 0.830255 0.288663
O O1 0.115827 0.500000 0.058818
O O2 0.107735 0.273304 0.924534
O O3 0.139075 0.237242 0.153527
O O4 0.000000 0.324973 0.000000
O O5 0.975785 0.377691 0.573160
O O6 0.834225 0.816504 0.230476
O O7 0.980182 0.840023 0.287986
O O8 0.879640 0.000000 0.116458
O O9 0.598903 0.657836 0.530320
O O10 0.621170 0.736323 0.350392
O O11 0.282911 0.500000 0.336857
O O12 0.262493 0.222912 0.357344
O O13 0.166479 0.000000 0.287795
#
# Coordination Sequence:
#
# PCOD9221797 Si02
#       6
#     8   2   8   8   8   8
#     4  11  25  43  69 102 135 179 231 287 346 411
#     4  12  28  40  74 106 144 180 230 288 340 414
#     4  11  23  43  72  99 137 180 233 287 341 408
#     4  12  25  43  70 103 137 182 226 281 343 411
#     4  11  25  45  68 102 143 183 228 285 346 413
#     4  12  27  45  71 102 140 183 231 286 347 410
#
# _framework density 21.532554000000001
#
# number of rings (size 3 to 8) (size 9 to 14) (size 15 to 20)
#    0.000    0.571    3.810    3.429    5.333    3.810 
#    0.000    0.000    0.000    0.000    0.000    0.000 
#    0.000    0.000    0.000    0.000    0.000    0.000 
#
# Total GULP energy -117174.449022 kJ/mol
# GULP energy per Si atom -5579.735668 kJ/mol
# Density = 2.148354 g / cm^3
# Si number density = 21.532554 Si / 1000 Ang^3
#
#
#
# Elastic Constant Matrix: (Units=GPa)
#
#
# Indices 1 2 3 4 5 6 
#
# 1 56.8385 42.0667 12.0365 0.0000 -16.1227 0.0000
# 2 42.0667 142.3448 44.2013 0.0000 -20.2239 0.0000
# 3 12.0365 44.2013 99.9925 0.0000 -16.1107 0.0000
# 4 0.0000 0.0000 0.0000 0.4113 0.0000 -0.4622
# 5 -16.1227 -20.2239 -16.1107 0.0000 36.6774 0.0000
# 6 0.0000 0.0000 0.0000 -0.4622 0.0000 -59.4511
#
#
#
# Elastic Compliance Matrix: (Units=1/GPa)
#
#
# Indices 1 2 3 4 5 6 
#
# 1 0.024288 -0.006454 0.001158 0.000000 0.007627 0.000000
# 2 -0.006454 0.010206 -0.003535 0.000000 0.001238 0.000000
# 3 0.001158 -0.003535 0.012044 0.000000 0.003850 0.000000
# 4 0.000000 0.000000 0.000000 2.410289 0.000000 -0.018738
# 5 0.007627 0.001238 0.003850 0.000000 0.032991 0.000000
# 6 0.000000 0.000000 0.000000 -0.018738 0.000000 -0.016675
#
#
# Mechanical properties :
#
#
# Convention : Reuss Voigt Hill
#
# Bulk Modulus (GPa) = 34.62989 55.08721 44.85855
# Shear Modulus (GPa) = 1.99965 8.91894 5.45930
#
# Velocity S-wave (km/s) = 0.96472 2.03742 1.59401
# Velocity P-wave (km/s) = 4.16634 5.58332 4.92605
#
# Compressibility (1/GPa) = 0.02887679
#
# Stress axis : x y z
#
# Youngs Moduli (GPa) = 41.17181 97.98032 83.02570
#
# Poissons Ratio (x) = 0.63236 -0.09615
# Poissons Ratio (y) = 0.26572 0.29352
# Poissons Ratio (z) = -0.04768 0.34639
#
# Static dielectric constant tensor:
#      x y z
#    x 1.804870 0.000000 0.024670 
#    y 0.000000 1.749510 0.000000 
#    z 0.024670 0.000000 1.789610 
# 
# From -- ./inp_files/163291.got.cif
#   From: 2010.05.17/outbox.cif.g08.bks.cpg/sg12_82_cif.got.tgz:163291.got - 2010.06.03 13:09:07.
