data_PCOD9221884
_publ_section_title
;
Structure prediction by ZEFSAII (Michael W. Deem and Ramdas Pophale) SiO2 
 PCOD9221884
Probable space group: C 2/M
;
_chemical_formula_sum "Si O2"
_cell_formula_units_Z 56
_cell_length_a 16.938987
_cell_length_b 19.117862
_cell_length_c 8.743542
_cell_angle_alpha 90.000000
_cell_angle_beta 94.688202
_cell_angle_gamma 90.000000
_cell_volume 2822.010826
_symmetry_space_group_name_H-M "C 2/M"
_symmetry_group_IT_number 12
_symmetry_cell_setting 'monoclinic'
loop_
_space_group_symop_operation_xyz
x,y,z
-x,y,-z
-x,-y,-z
x,-y,z
1/2+x,1/2+y,z
1/2-x,1/2+y,-z
1/2-x,1/2-y,-z
1/2+x,1/2-y,z
loop_
_atom_site_type_symbol
_atom_site_label
_atom_site_fract_x
_atom_site_fract_y
_atom_site_fract_z
Si Si1 0.479760 0.764099 0.666413
Si Si2 0.687689 0.298880 0.399655
Si Si3 0.729168 0.323601 0.068834
Si Si4 0.635100 0.076671 0.019498
Si Si5 0.993850 0.420926 0.749936
Si Si6 0.436500 0.351478 0.113421
Si Si7 0.408241 0.419428 0.430632
O O1 0.500000 0.737385 0.500000
O O2 0.386720 0.748168 0.668925
O O3 0.500501 0.846241 0.669464
O O4 0.527660 0.719498 0.801367
O O5 0.750000 0.250000 0.500000
O O6 0.729649 0.325906 0.252524
O O7 0.648319 0.362713 0.491703
O O8 0.750000 0.250000 0.000000
O O9 0.795837 0.372209 0.009418
O O10 0.641991 0.339834 0.995587
O O11 0.587987 0.086486 0.169290
O O12 0.670682 0.000000 0.026457
O O13 0.566284 0.078996 0.881081
O O14 0.993886 0.500000 0.679720
O O15 0.414298 0.400344 0.252560
O O16 0.500000 0.378470 0.000000
O O17 0.500000 0.415653 0.500000
O O18 0.381471 0.500000 0.450162
#
# Coordination Sequence:
#
# PCOD9221884 Si02
#       7
#     8   8   8   8   8   8   8
#     4  12  23  41  67  91 128 174 221 272 330 404
#     4  12  25  44  64  99 138 176 219 277 342 403
#     4  12  24  37  66 100 129 169 225 280 325 390
#     4   9  20  39  61  91 130 164 204 263 331 387
#     4   9  20  39  64  93 127 169 212 262 329 400
#     4  12  23  42  66 100 132 168 232 283 338 394
#     4  11  23  46  71  94 133 182 227 274 342 414
#
# _framework density 19.844007000000001
#
# number of rings (size 3 to 8) (size 9 to 14) (size 15 to 20)
#    0.000    1.000    4.286    3.429    4.000    1.714 
#    0.000    2.143    0.000    0.000    0.000    0.000 
#    0.000    0.000    0.000    0.000    0.000    0.000 
#
# Total GULP energy -156211.789309 kJ/mol
# GULP energy per Si atom -5578.992475 kJ/mol
# Density = 1.979884 g / cm^3
# Si number density = 19.844007 Si / 1000 Ang^3
#
#
#
# Elastic Constant Matrix: (Units=GPa)
#
#
# Indices 1 2 3 4 5 6 
#
# 1 99.1660 33.0918 17.0508 0.0000 2.7622 0.0000
# 2 33.0918 123.8165 32.1302 0.0000 0.4539 0.0000
# 3 17.0508 32.1302 94.4527 0.0000 -1.9673 0.0000
# 4 0.0000 0.0000 0.0000 24.0040 0.0000 0.5682
# 5 2.7622 0.4539 -1.9673 0.0000 26.5797 0.0000
# 6 0.0000 0.0000 0.0000 0.5682 0.0000 34.9573
#
#
#
# Elastic Compliance Matrix: (Units=1/GPa)
#
#
# Indices 1 2 3 4 5 6 
#
# 1 0.011213 -0.002699 -0.001131 0.000000 -0.001203 0.000000
# 2 -0.002699 0.009512 -0.002750 0.000000 -0.000086 0.000000
# 3 -0.001131 -0.002750 0.011749 0.000000 0.001034 0.000000
# 4 0.000000 0.000000 0.000000 0.041676 0.000000 -0.000677
# 5 -0.001203 -0.000086 0.001034 0.000000 0.037826 0.000000
# 6 0.000000 0.000000 0.000000 -0.000677 0.000000 0.028617
#
#
# Mechanical properties :
#
#
# Convention : Reuss Voigt Hill
#
# Bulk Modulus (GPa) = 51.77943 53.55344 52.66643
# Shear Modulus (GPa) = 31.21296 32.78569 31.99933
#
# Velocity S-wave (km/s) = 3.97030 4.06910 4.02001
# Velocity P-wave (km/s) = 6.86787 7.00875 6.93867
#
# Compressibility (1/GPa) = 0.01931269
#
# Stress axis : x y z
#
# Youngs Moduli (GPa) = 89.18465 105.13302 85.11661
#
# Poissons Ratio (x) = 0.28374 0.09628
# Poissons Ratio (y) = 0.24069 0.23409
# Poissons Ratio (z) = 0.10088 0.28914
#
# Static dielectric constant tensor:
#      x y z
#    x 1.657230 0.000000 -0.007960 
#    y 0.000000 1.936790 0.000000 
#    z -0.007960 0.000000 1.718300 
# 
# From -- ./inp_files/64074.got.cif
#   From: 2010.05.17/outbox.cif.g08.bks.cpg/sg12_33_cif.got.tgz:64074.got - 2010.06.03 13:09:07.
