data_PCOD9221370
_publ_section_title
;
Structure prediction by ZEFSAII (Michael W. Deem and Ramdas Pophale) SiO2 
 PCOD9221370
Probable space group: C 2/M
;
_chemical_formula_sum "Si O2"
_cell_formula_units_Z 64
_cell_length_a 15.108575
_cell_length_b 8.651697
_cell_length_c 30.645142
_cell_angle_alpha 90.000000
_cell_angle_beta 60.149642
_cell_angle_gamma 90.000000
_cell_volume 3474.321245
_symmetry_space_group_name_H-M "C 2/M"
_symmetry_group_IT_number 12
_symmetry_cell_setting 'monoclinic'
loop_
_space_group_symop_operation_xyz
x,y,z
-x,y,-z
-x,-y,-z
x,-y,z
1/2+x,1/2+y,z
1/2-x,1/2+y,-z
1/2-x,1/2-y,-z
1/2+x,1/2-y,z
loop_
_atom_site_type_symbol
_atom_site_label
_atom_site_fract_x
_atom_site_fract_y
_atom_site_fract_z
Si Si1 0.169886 0.186365 0.576609
Si Si2 0.399489 0.813284 0.497686
Si Si3 0.469480 0.316852 0.872601
Si Si4 0.448221 0.816756 0.058721
Si Si5 0.666050 0.815448 0.238963
Si Si6 0.273627 0.816790 0.876342
Si Si7 0.637232 0.816121 0.764595
Si Si8 0.940958 0.814050 0.306652
O O1 0.289583 0.233472 0.545260
O O2 0.109782 0.253683 0.549683
O O3 0.117624 0.231232 0.634796
O O4 0.167426 0.000000 0.573883
O O5 0.500000 0.760974 0.500000
O O6 0.402673 0.000000 0.496131
O O7 0.459541 0.500000 0.869948
O O8 0.501597 0.273777 0.913531
O O9 0.364852 0.234486 0.885139
O O10 0.556832 0.256485 0.818366
O O11 0.329355 0.773387 0.087759
O O12 0.460336 0.000000 0.063263
O O13 0.500000 0.777466 0.000000
O O14 0.691009 0.783758 0.181980
O O15 0.751209 0.731491 0.246635
O O16 0.554383 0.754681 0.277701
O O17 0.672100 0.000000 0.243823
O O18 0.255033 0.000000 0.884203
O O19 0.615239 0.749235 0.722320
O O20 0.623994 0.000000 0.767757
O O21 0.945713 0.000000 0.303414
#
# Coordination Sequence:
#
# PCOD9221370 Si02
#       8
#     8   8   8   8   8   8   8   8
#     4   9  20  37  56  85 121 155 197 249 299 351
#     4   9  18  35  60  86 115 157 203 245 297 355
#     4  12  24  40  65  92 121 159 200 246 300 358
#     4  11  25  44  66  93 124 158 199 250 304 361
#     4  11  23  39  61  89 118 157 204 249 298 359
#     4  11  23  40  65  92 120 157 201 248 299 359
#     4  12  24  39  61  89 121 159 202 247 299 363
#     4  11  23  39  59  87 126 164 202 252 303 357
#
# _framework density 18.420863000000001
#
# number of rings (size 3 to 8) (size 9 to 14) (size 15 to 20)
#    0.000    1.250    2.500    3.750    0.000    4.750 
#    0.000    1.250    0.000    0.000    0.000    0.000 
#    0.000    0.000    0.000    0.000    0.000    0.000 
#
# Total GULP energy -178891.109688 kJ/mol
# GULP energy per Si atom -5590.347178 kJ/mol
# Density = 1.837894 g / cm^3
# Si number density = 18.420863 Si / 1000 Ang^3
#
#
#
# Elastic Constant Matrix: (Units=GPa)
#
#
# Indices 1 2 3 4 5 6 
#
# 1 98.8746 -6.8726 31.6610 0.0000 2.5424 0.0000
# 2 -6.8726 29.9182 24.9454 0.0000 4.8459 0.0000
# 3 31.6610 24.9454 112.2279 0.0000 8.5960 0.0000
# 4 0.0000 0.0000 0.0000 12.4362 0.0000 5.5923
# 5 2.5424 4.8459 8.5960 0.0000 21.2171 0.0000
# 6 0.0000 0.0000 0.0000 5.5923 0.0000 34.0497
#
#
#
# Elastic Compliance Matrix: (Units=1/GPa)
#
#
# Indices 1 2 3 4 5 6 
#
# 1 0.012218 0.007103 -0.004943 0.000000 -0.001084 0.000000
# 2 0.007103 0.045876 -0.011696 0.000000 -0.006590 0.000000
# 3 -0.004943 -0.011696 0.013060 0.000000 -0.002028 0.000000
# 4 0.000000 0.000000 0.000000 0.086823 0.000000 -0.014260
# 5 -0.001084 -0.006590 -0.002028 0.000000 0.049588 0.000000
# 6 0.000000 0.000000 0.000000 -0.014260 0.000000 0.031711
#
#
# Mechanical properties :
#
#
# Convention : Reuss Voigt Hill
#
# Bulk Modulus (GPa) = 19.20016 37.83206 28.51611
# Shear Modulus (GPa) = 18.13512 26.29305 22.21409
#
# Velocity S-wave (km/s) = 3.14106 3.78213 3.47640
# Velocity P-wave (km/s) = 4.85805 6.29721 5.62386
#
# Compressibility (1/GPa) = 0.05208290
#
# Stress axis : x y z
#
# Youngs Moduli (GPa) = 81.84511 21.79793 76.56994
#
# Poissons Ratio (x) = -0.15484 0.37847
# Poissons Ratio (y) = -0.58139 0.89558
# Poissons Ratio (z) = 0.40455 0.25495
#
# Static dielectric constant tensor:
#      x y z
#    x 1.603730 0.000000 -0.002840 
#    y 0.000000 1.617550 0.000000 
#    z -0.002840 0.000000 1.609510 
# 
# From -- ./inp_files/375093.got.cif
#   From: 2010.05.17/outbox.cif.g08.bks.cpg/sg12_188_cif.got.tgz:375093.got - 2010.06.03 13:09:07.
