data_PCOD9221773
_publ_section_title
;
Structure prediction by ZEFSAII (Michael W. Deem and Ramdas Pophale) SiO2 
 PCOD9221773
Probable space group: C 2/M
;
_chemical_formula_sum "Si O2"
_cell_formula_units_Z 56
_cell_length_a 9.354951
_cell_length_b 17.043184
_cell_length_c 19.404485
_cell_angle_alpha 90.000000
_cell_angle_beta 119.084154
_cell_angle_gamma 90.000000
_cell_volume 2703.705822
_symmetry_space_group_name_H-M "C 2/M"
_symmetry_group_IT_number 12
_symmetry_cell_setting 'monoclinic'
loop_
_space_group_symop_operation_xyz
x,y,z
-x,y,-z
-x,-y,-z
x,-y,z
1/2+x,1/2+y,z
1/2-x,1/2+y,-z
1/2-x,1/2-y,-z
1/2+x,1/2-y,z
loop_
_atom_site_type_symbol
_atom_site_label
_atom_site_fract_x
_atom_site_fract_y
_atom_site_fract_z
Si Si1 0.934884 0.909075 0.687015
Si Si2 0.896321 0.152982 0.406225
Si Si3 0.600171 0.166164 0.591745
Si Si4 0.668793 0.841206 0.848764
Si Si5 0.550151 0.088294 0.321061
Si Si6 0.327257 0.906317 0.996121
Si Si7 0.983358 0.173087 0.150152
O O1 0.742415 0.895588 0.636529
O O2 0.999785 0.858862 0.638206
O O3 0.988291 0.875693 0.773275
O O4 0.979915 0.000000 0.690951
O O5 0.842245 0.243890 0.398284
O O6 0.743160 0.097004 0.357691
O O7 0.000000 0.135370 0.500000
O O8 0.500000 0.149257 0.500000
O O9 0.488137 0.153794 0.631338
O O10 0.557509 0.891372 0.770603
O O11 0.574237 0.759735 0.841008
O O12 0.848418 0.827918 0.855738
O O13 0.677127 0.883871 0.924422
O O14 0.512465 0.000000 0.335011
O O15 0.170233 0.864617 0.925708
O O16 0.313270 0.000000 0.984546
O O17 0.500000 0.882099 0.000000
#
# Coordination Sequence:
#
# PCOD9221773 Si02
#       7
#     8   8   8   8   8   8   8
#     4  12  26  42  67 101 137 179 230 288 349 410
#     4  11  25  45  67  96 135 184 233 285 351 421
#     4  11  23  43  69  96 133 178 231 285 343 415
#     4  12  26  46  73 103 140 184 234 286 347 419
#     4  12  26  42  67 101 137 179 230 288 349 410
#     4  11  26  47  74 107 145 185 230 285 346 409
#     4  12  26  46  73 103 140 184 234 286 347 419
#
# _framework density 20.712313999999999
#
# number of rings (size 3 to 8) (size 9 to 14) (size 15 to 20)
#    0.000    0.429    1.429    6.857    4.000    8.000 
#    0.000    0.000    0.000    0.000    0.000    0.000 
#    0.000    0.000    0.000    0.000    0.000    0.000 
#
# Total GULP energy -156549.409911 kJ/mol
# GULP energy per Si atom -5591.050354 kJ/mol
# Density = 2.066517 g / cm^3
# Si number density = 20.712314 Si / 1000 Ang^3
#
#
#
# Elastic Constant Matrix: (Units=GPa)
#
#
# Indices 1 2 3 4 5 6 
#
# 1 131.7203 19.1664 45.0597 0.0000 -2.0216 0.0000
# 2 19.1664 71.5024 25.9045 0.0000 17.2296 0.0000
# 3 45.0597 25.9045 142.0124 0.0000 -4.5874 0.0000
# 4 0.0000 0.0000 0.0000 169.8878 0.0000 54.2470
# 5 -2.0216 17.2296 -4.5874 0.0000 32.7856 0.0000
# 6 0.0000 0.0000 0.0000 54.2470 0.0000 54.6325
#
#
#
# Elastic Compliance Matrix: (Units=1/GPa)
#
#
# Indices 1 2 3 4 5 6 
#
# 1 0.008682 -0.001722 -0.002405 0.000000 0.001104 0.000000
# 2 -0.001722 0.017954 -0.003051 0.000000 -0.009969 0.000000
# 3 -0.002405 -0.003051 0.008446 0.000000 0.002637 0.000000
# 4 0.000000 0.000000 0.000000 0.008619 0.000000 -0.008558
# 5 0.001104 -0.009969 0.002637 0.000000 0.036177 0.000000
# 6 0.000000 0.000000 0.000000 -0.008558 0.000000 0.026802
#
#
# Mechanical properties :
#
#
# Convention : Reuss Voigt Hill
#
# Bulk Modulus (GPa) = 48.24491 58.38850 53.31670
# Shear Modulus (GPa) = 39.07927 68.46815 53.77371
#
# Velocity S-wave (km/s) = 4.34840 5.75574 5.10084
# Velocity P-wave (km/s) = 6.96814 8.51016 7.77746
#
# Compressibility (1/GPa) = 0.02072758
#
# Stress axis : x y z
#
# Youngs Moduli (GPa) = 115.18006 55.69658 118.39372
#
# Poissons Ratio (x) = 0.09590 0.28474
# Poissons Ratio (y) = 0.19833 0.36119
# Poissons Ratio (z) = 0.27701 0.16991
#
# Static dielectric constant tensor:
#      x y z
#    x 1.694730 0.000000 -0.019170 
#    y 0.000000 1.687590 0.000000 
#    z -0.019170 0.000000 1.736340 
# 
# From -- ./inp_files/257184.got.cif
#   From: 2010.05.17/outbox.cif.g08.bks.cpg/sg12_129_cif.got.tgz:257184.got - 2010.06.03 13:09:07.
