data_PCOD9221534
_publ_section_title
;
Structure prediction by ZEFSAII (Michael W. Deem and Ramdas Pophale) SiO2 
 PCOD9221534
Probable space group: C 2/M
;
_chemical_formula_sum "Si O2"
_cell_formula_units_Z 48
_cell_length_a 17.169353
_cell_length_b 15.677569
_cell_length_c 9.397436
_cell_angle_alpha 90.000000
_cell_angle_beta 95.830138
_cell_angle_gamma 90.000000
_cell_volume 2516.458497
_symmetry_space_group_name_H-M "C 2/M"
_symmetry_group_IT_number 12
_symmetry_cell_setting 'monoclinic'
loop_
_space_group_symop_operation_xyz
x,y,z
-x,y,-z
-x,-y,-z
x,-y,z
1/2+x,1/2+y,z
1/2-x,1/2+y,-z
1/2-x,1/2-y,-z
1/2+x,1/2-y,z
loop_
_atom_site_type_symbol
_atom_site_label
_atom_site_fract_x
_atom_site_fract_y
_atom_site_fract_z
Si Si1 0.918925 0.903527 0.572479
Si Si2 0.700973 0.812419 0.095313
Si Si3 0.866587 0.500000 0.953544
Si Si4 0.045468 0.793021 0.146426
Si Si5 0.491794 0.000000 0.232885
Si Si6 0.305186 0.280351 0.384967
Si Si7 0.953693 0.319698 0.348465
O O1 0.928340 0.860256 0.728827
O O2 0.859937 0.852100 0.462541
O O3 0.000000 0.904003 0.500000
O O4 0.892293 0.000000 0.587035
O O5 0.618981 0.764388 0.111780
O O6 0.752965 0.814200 0.247154
O O7 0.681613 0.910594 0.047966
O O8 0.750000 0.750000 0.000000
O O9 0.921445 0.500000 0.821299
O O10 0.928861 0.500000 0.093424
O O11 0.985688 0.732387 0.220088
O O12 0.000000 0.828345 0.000000
O O13 0.475026 0.916657 0.321774
O O14 0.250000 0.250000 0.500000
O O15 0.363062 0.203804 0.349086
O O16 0.000000 0.292747 0.500000
#
# Coordination Sequence:
#
# PCOD9221534 Si02
#       7
#     8   8   4   8   4   8   8
#     4  11  24  45  70  94 127 175 227 273 322 393
#     4  12  26  43  66  99 136 179 215 272 341 395
#     4  11  24  44  66 100 134 173 220 271 341 396
#     4  12  22  43  70  94 131 177 225 271 324 397
#     4  11  23  40  70 100 128 167 225 283 318 396
#     4  12  23  44  66  95 135 174 215 271 337 393
#     4  12  22  43  68  99 131 174 225 268 328 398
#
# _framework density 19.074425999999999
#
# number of rings (size 3 to 8) (size 9 to 14) (size 15 to 20)
#    0.000    0.333    6.667    3.250    1.167    0.333 
#    3.000    0.000    0.000    0.000    0.000    0.000 
#    0.000    0.000    0.000    0.000    0.000    0.000 
#
# Total GULP energy -134111.094766 kJ/mol
# GULP energy per Si atom -5587.962282 kJ/mol
# Density = 1.903101 g / cm^3
# Si number density = 19.074426 Si / 1000 Ang^3
#
#
#
# Elastic Constant Matrix: (Units=GPa)
#
#
# Indices 1 2 3 4 5 6 
#
# 1 102.5424 25.9631 36.3709 0.0000 -11.8850 0.0000
# 2 25.9631 123.3853 34.8124 0.0000 -9.5070 0.0000
# 3 36.3709 34.8124 115.2583 0.0000 13.7963 0.0000
# 4 0.0000 0.0000 0.0000 -154.2078 0.0000 15.1566
# 5 -11.8850 -9.5070 13.7963 0.0000 50.3812 0.0000
# 6 0.0000 0.0000 0.0000 15.1566 0.0000 10.5714
#
#
#
# Elastic Compliance Matrix: (Units=1/GPa)
#
#
# Indices 1 2 3 4 5 6 
#
# 1 0.011812 -0.001129 -0.003820 0.000000 0.003619 0.000000
# 2 -0.001129 0.009279 -0.002713 0.000000 0.002228 0.000000
# 3 -0.003820 -0.002713 0.011239 0.000000 -0.004491 0.000000
# 4 0.000000 0.000000 0.000000 -0.005684 0.000000 0.008149
# 5 0.003619 0.002228 -0.004491 0.000000 0.022353 0.000000
# 6 0.000000 0.000000 0.000000 0.008149 0.000000 0.082911
#
#
# Mechanical properties :
#
#
# Convention : Reuss Voigt Hill
#
# Bulk Modulus (GPa) = 58.80106 59.49767 59.14937
# Shear Modulus (GPa) = 32.70058 -2.38174 15.15942
#
# Velocity S-wave (km/s) = 4.14498 -1.11864 2.82219
# Velocity P-wave (km/s) = 7.33498 5.43982 6.45730
#
# Compressibility (1/GPa) = 0.01700650
#
# Stress axis : x y z
#
# Youngs Moduli (GPa) = 84.65788 107.76569 88.97979
#
# Poissons Ratio (x) = 0.12166 0.33988
# Poissons Ratio (y) = 0.09558 0.24141
# Poissons Ratio (z) = 0.32337 0.29238
#
# Static dielectric constant tensor:
#      x y z
#    x 1.606760 0.000000 0.037820 
#    y 0.000000 1.641180 0.000000 
#    z 0.037820 0.000000 1.578600 
# 
# From -- ./inp_files/73682.got.cif
#   From: 2010.05.17/outbox.cif.g08.bks.cpg/sg12_37_cif.got.tgz:73682.got - 2010.06.03 13:09:07.
