data_PCOD9221840
_publ_section_title
;
Structure prediction by ZEFSAII (Michael W. Deem and Ramdas Pophale) SiO2 
 PCOD9221840
Probable space group: C 2/M
;
_chemical_formula_sum "Si O2"
_cell_formula_units_Z 48
_cell_length_a 9.510758
_cell_length_b 15.308065
_cell_length_c 17.174231
_cell_angle_alpha 90.000000
_cell_angle_beta 84.886111
_cell_angle_gamma 90.000000
_cell_volume 2490.465698
_symmetry_space_group_name_H-M "C 2/M"
_symmetry_group_IT_number 12
_symmetry_cell_setting 'monoclinic'
loop_
_space_group_symop_operation_xyz
x,y,z
-x,y,-z
-x,-y,-z
x,-y,z
1/2+x,1/2+y,z
1/2-x,1/2+y,-z
1/2-x,1/2-y,-z
1/2+x,1/2-y,z
loop_
_atom_site_type_symbol
_atom_site_label
_atom_site_fract_x
_atom_site_fract_y
_atom_site_fract_z
Si Si1 0.650269 0.309926 0.450035
Si Si2 0.426223 0.597294 0.923577
Si Si3 0.892306 0.500000 0.621307
Si Si4 0.829072 0.686022 0.699428
Si Si5 0.288626 0.000000 0.448547
Si Si6 0.153704 0.681220 0.955636
Si Si7 0.448359 0.264017 0.197223
O O1 0.500000 0.315553 0.500000
O O2 0.750000 0.250000 0.500000
O O3 0.640811 0.256822 0.369846
O O4 0.709327 0.408388 0.435658
O O5 0.478017 0.500000 0.906413
O O6 0.259230 0.600097 0.945638
O O7 0.467953 0.658807 0.850471
O O8 0.500000 0.628495 0.000000
O O9 0.846905 0.588698 0.665916
O O10 0.824681 0.500000 0.538651
O O11 0.061574 0.500000 0.602844
O O12 0.672027 0.700949 0.739497
O O13 0.941617 0.704320 0.761989
O O14 0.127459 0.714548 0.869867
O O15 0.250000 0.750000 0.000000
O O16 0.000000 0.666543 0.000000
#
# Coordination Sequence:
#
# PCOD9221840 Si02
#       7
#     8   8   4   8   4   8   8
#     4  12  24  45  70  97 131 176 227 272 326 395
#     4  11  24  43  68  95 130 171 222 272 320 388
#     4  11  24  44  68  98 130 173 220 271 335 394
#     4  12  26  42  66  98 134 174 216 272 339 390
#     4  11  23  44  72  96 128 169 229 279 316 396
#     4  12  20  41  70  94 126 175 222 261 317 391
#     4  12  23  43  64  94 133 176 210 267 336 390
#
# _framework density 19.273505
#
# number of rings (size 3 to 8) (size 9 to 14) (size 15 to 20)
#    0.000    0.333    6.667    3.250    1.167    0.333 
#    3.000    0.000    0.000    0.000    0.000    0.000 
#    0.000    0.000    0.000    0.000    0.000    0.000 
#
# Total GULP energy -134118.801551 kJ/mol
# GULP energy per Si atom -5588.283398 kJ/mol
# Density = 1.922964 g / cm^3
# Si number density = 19.273505 Si / 1000 Ang^3
#
#
#
# Elastic Constant Matrix: (Units=GPa)
#
#
# Indices 1 2 3 4 5 6 
#
# 1 120.9137 35.1052 23.9507 0.0000 -21.4089 0.0000
# 2 35.1052 128.6437 33.3455 0.0000 -9.1432 0.0000
# 3 23.9507 33.3455 77.3405 0.0000 -8.4872 0.0000
# 4 0.0000 0.0000 0.0000 14.0035 0.0000 2.9801
# 5 -21.4089 -9.1432 -8.4872 0.0000 45.4967 0.0000
# 6 0.0000 0.0000 0.0000 2.9801 0.0000 13.6438
#
#
#
# Elastic Compliance Matrix: (Units=1/GPa)
#
#
# Indices 1 2 3 4 5 6 
#
# 1 0.009887 -0.001956 -0.001788 0.000000 0.003926 0.000000
# 2 -0.001956 0.009190 -0.003323 0.000000 0.000307 0.000000
# 3 -0.001788 -0.003323 0.015059 0.000000 0.001300 0.000000
# 4 0.000000 0.000000 0.000000 0.074892 0.000000 -0.016358
# 5 0.003926 0.000307 0.001300 0.000000 0.024131 0.000000
# 6 0.000000 0.000000 0.000000 -0.016358 0.000000 0.076866
#
#
# Mechanical properties :
#
#
# Convention : Reuss Voigt Hill
#
# Bulk Modulus (GPa) = 49.99176 56.85564 53.42370
# Shear Modulus (GPa) = 21.66123 30.26190 25.96157
#
# Velocity S-wave (km/s) = 3.35608 3.96678 3.67414
# Velocity P-wave (km/s) = 6.40407 7.10943 6.76594
#
# Compressibility (1/GPa) = 0.02000330
#
# Stress axis : x y z
#
# Youngs Moduli (GPa) = 101.13821 108.81076 66.40570
#
# Poissons Ratio (x) = 0.21280 0.11873
# Poissons Ratio (y) = 0.19779 0.22067
# Poissons Ratio (z) = 0.18083 0.36159
#
# Static dielectric constant tensor:
#      x y z
#    x 1.684080 0.000000 0.005060 
#    y 0.000000 1.665500 0.000000 
#    z 0.005060 0.000000 1.667390 
# 
# From -- ./inp_files/255829.got.cif
#   From: 2010.05.17/outbox.cif.g08.bks.cpg/sg12_128_cif.got.tgz:255829.got - 2010.06.03 13:09:07.
