data_PCOD9221238
_publ_section_title
;
Structure prediction by ZEFSAII (Michael W. Deem and Ramdas Pophale) SiO2 
 PCOD9221238
Probable space group: C 2/M
;
_chemical_formula_sum "Si O2"
_cell_formula_units_Z 50
_cell_length_a 8.289421
_cell_length_b 26.501854
_cell_length_c 11.815809
_cell_angle_alpha 90.000000
_cell_angle_beta 68.924968
_cell_angle_gamma 90.000000
_cell_volume 2422.126997
_symmetry_space_group_name_H-M "C 2/M"
_symmetry_group_IT_number 12
_symmetry_cell_setting 'monoclinic'
loop_
_space_group_symop_operation_xyz
x,y,z
-x,y,-z
-x,-y,-z
x,-y,z
1/2+x,1/2+y,z
1/2-x,1/2+y,-z
1/2-x,1/2-y,-z
1/2+x,1/2-y,z
loop_
_atom_site_type_symbol
_atom_site_label
_atom_site_fract_x
_atom_site_fract_y
_atom_site_fract_z
Si Si1 0.726800 0.809261 0.036425
Si Si2 0.000000 0.500000 0.500000
Si Si3 0.300191 0.441054 0.669114
Si Si4 0.417322 0.725348 0.642524
Si Si5 0.801401 0.181079 0.266500
Si Si6 0.302443 0.579216 0.406264
Si Si7 0.161222 0.652698 0.817561
O O1 0.830053 0.821541 0.124724
O O2 0.529984 0.825422 0.117161
O O3 0.750000 0.750000 0.000000
O O4 0.758574 0.839647 0.913021
O O5 0.141475 0.543102 0.423555
O O6 0.246063 0.500000 0.671345
O O7 0.499092 0.439725 0.662238
O O8 0.297306 0.416873 0.544485
O O9 0.180180 0.405231 0.775172
O O10 0.500000 0.717024 0.500000
O O11 0.361820 0.782768 0.672013
O O12 0.548074 0.710564 0.707687
O O13 0.257873 0.687662 0.702355
O O14 0.782386 0.128832 0.336453
#
# Coordination Sequence:
#
# PCOD9221238 Si02
#       7
#     8   2   8   8   8   8   8
#     4  11  26  47  70  98 141 195 253 291 347 431
#     4  12  24  42  72 108 144 192 234 304 360 442
#     4  11  22  48  74 102 144 190 240 303 367 439
#     4  12  25  43  63 104 146 182 229 292 375 441
#     4  12  26  42  69 102 146 189 240 299 354 440
#     4  11  24  43  71 107 145 187 237 293 373 435
#     4  11  25  45  73 100 139 196 249 292 364 432
#
# _framework density 20.643011999999999
#
# number of rings (size 3 to 8) (size 9 to 14) (size 15 to 20)
#    0.000    0.640    4.800    2.880    5.600    0.640 
#    0.000    1.600    1.760    0.960    0.000    0.000 
#    0.000    0.000    0.000    0.000    0.000    0.000 
#
# Total GULP energy -139441.056370 kJ/mol
# GULP energy per Si atom -5577.642255 kJ/mol
# Density = 2.059603 g / cm^3
# Si number density = 20.643012 Si / 1000 Ang^3
#
#
#
# Elastic Constant Matrix: (Units=GPa)
#
#
# Indices 1 2 3 4 5 6 
#
# 1 77.8491 38.0038 28.2267 0.0000 2.8526 0.0000
# 2 38.0038 163.6890 63.9432 0.0000 9.1770 0.0000
# 3 28.2267 63.9432 127.4377 0.0000 4.3580 0.0000
# 4 0.0000 0.0000 0.0000 -13.7734 0.0000 5.6462
# 5 2.8526 9.1770 4.3580 0.0000 32.8041 0.0000
# 6 0.0000 0.0000 0.0000 5.6462 0.0000 134.7091
#
#
#
# Elastic Compliance Matrix: (Units=1/GPa)
#
#
# Indices 1 2 3 4 5 6 
#
# 1 0.014866 -0.002678 -0.001939 0.000000 -0.000286 0.000000
# 2 -0.002678 0.008168 -0.003451 0.000000 -0.001594 0.000000
# 3 -0.001939 -0.003451 0.010015 0.000000 -0.000196 0.000000
# 4 0.000000 0.000000 0.000000 -0.071377 0.000000 0.002992
# 5 -0.000286 -0.001594 -0.000196 0.000000 0.030981 0.000000
# 6 0.000000 0.000000 0.000000 0.002992 0.000000 0.007298
#
#
# Mechanical properties :
#
#
# Convention : Reuss Voigt Hill
#
# Bulk Modulus (GPa) = 59.12590 69.92481 64.52535
# Shear Modulus (GPa) = 230.15225 46.66810 138.41018
#
# Velocity S-wave (km/s) = 10.57041 4.75986 8.19725
# Velocity P-wave (km/s) = 13.32976 8.00970 10.99631
#
# Compressibility (1/GPa) = 0.01691306
#
# Stress axis : x y z
#
# Youngs Moduli (GPa) = 67.26625 122.42490 99.85266
#
# Poissons Ratio (x) = 0.32784 0.19365
# Poissons Ratio (y) = 0.18013 0.34458
# Poissons Ratio (z) = 0.13045 0.42247
#
# Static dielectric constant tensor:
#      x y z
#    x 1.824860 0.000000 -0.019530 
#    y 0.000000 1.710730 0.000000 
#    z -0.019530 0.000000 1.765360 
# 
# From -- ./inp_files/124175.got.cif
#   From: 2010.05.17/outbox.cif.g08.bks.cpg/sg12_63_cif.got.tgz:124175.got - 2010.06.03 13:09:07.
