data_PCOD9221875
_publ_section_title
;
Structure prediction by ZEFSAII (Michael W. Deem and Ramdas Pophale) SiO2 
 PCOD9221875
Probable space group: C 2/M
;
_chemical_formula_sum "Si O2"
_cell_formula_units_Z 56
_cell_length_a 8.897082
_cell_length_b 27.698945
_cell_length_c 21.049880
_cell_angle_alpha 90.000000
_cell_angle_beta 149.621237
_cell_angle_gamma 90.000000
_cell_volume 2623.405661
_symmetry_space_group_name_H-M "C 2/M"
_symmetry_group_IT_number 12
_symmetry_cell_setting 'monoclinic'
loop_
_space_group_symop_operation_xyz
x,y,z
-x,y,-z
-x,-y,-z
x,-y,z
1/2+x,1/2+y,z
1/2-x,1/2+y,-z
1/2-x,1/2-y,-z
1/2+x,1/2-y,z
loop_
_atom_site_type_symbol
_atom_site_label
_atom_site_fract_x
_atom_site_fract_y
_atom_site_fract_z
Si Si1 0.349950 0.500000 0.107610
Si Si2 0.350234 0.667932 0.642947
Si Si3 0.231157 0.910115 0.733180
Si Si4 0.351441 0.944043 0.639237
Si Si5 0.851106 0.000000 0.645521
Si Si6 0.243607 0.861229 0.255779
Si Si7 0.184156 0.727531 0.407212
Si Si8 0.142114 0.090621 0.981904
O O1 0.548388 0.500000 0.243887
O O2 0.406554 0.545479 0.082666
O O3 0.000000 0.500000 0.000000
O O4 0.545957 0.639394 0.663141
O O5 0.412061 0.643100 0.732950
O O6 0.405663 0.725130 0.665675
O O7 0.000000 0.662032 0.500000
O O8 0.381085 0.925784 0.722007
O O9 0.505670 0.903926 0.881063
O O10 0.008068 0.952854 0.672263
O O11 0.536405 0.907379 0.663813
O O12 0.000000 0.940975 0.500000
O O13 0.437001 0.000000 0.663649
O O14 0.500000 0.000000 0.500000
O O15 0.442155 0.813657 0.320609
O O16 0.019726 0.866883 0.115539
O O17 0.500000 0.707289 0.500000
O O18 0.250000 0.750000 0.500000
O O19 0.000000 0.084314 0.000000
#
# Coordination Sequence:
#
# PCOD9221875 Si02
#       8
#     4   8   8   8   4   8   8   8
#     4  12  25  46  77 101 145 209 249 300 365 441
#     4  11  24  43  72 108 141 180 238 302 380 442
#     4  12  24  47  67  99 154 195 244 312 356 435
#     4  11  25  42  65 104 148 190 240 302 379 424
#     4  12  26  46  71 111 150 192 259 315 376 430
#     4  12  25  43  73 105 141 190 245 300 363 447
#     4  11  23  45  74 109 144 180 239 310 383 449
#     4  12  27  46  70 102 145 202 262 291 359 447
#
# _framework density 21.346298999999998
#
# number of rings (size 3 to 8) (size 9 to 14) (size 15 to 20)
#    0.000    0.429    6.429    2.786    3.000    1.143 
#    1.286    0.714    0.000    0.000    0.000    0.000 
#    0.000    0.000    0.000    0.000    0.000    0.000 
#
# Total GULP energy -156725.693352 kJ/mol
# GULP energy per Si atom -5597.346191 kJ/mol
# Density = 2.129771 g / cm^3
# Si number density = 21.346299 Si / 1000 Ang^3
#
#
#
# Elastic Constant Matrix: (Units=GPa)
#
#
# Indices 1 2 3 4 5 6 
#
# 1 94.1233 27.9657 22.8841 -0.0002 -10.4757 0.0001
# 2 27.9657 119.3171 41.0431 -0.0008 8.4425 0.0002
# 3 22.8841 41.0431 129.3794 0.0060 4.9356 0.0004
# 4 -0.0002 -0.0008 0.0060 23.8754 -0.0009 -4.7824
# 5 -10.4757 8.4425 4.9356 -0.0009 39.3830 0.0001
# 6 0.0001 0.0002 0.0004 -4.7824 0.0001 31.5490
#
#
#
# Elastic Compliance Matrix: (Units=1/GPa)
#
#
# Indices 1 2 3 4 5 6 
#
# 1 0.012212 -0.002638 -0.001476 0.000001 0.003999 0.000000
# 2 -0.002638 0.010085 -0.002636 0.000001 -0.002533 0.000000
# 3 -0.001476 -0.002636 0.008862 -0.000002 -0.000938 0.000000
# 4 0.000001 0.000001 -0.000002 0.043196 0.000001 0.006548
# 5 0.003999 -0.002533 -0.000938 0.000001 0.027116 0.000000
# 6 0.000000 0.000000 0.000000 0.006548 0.000000 0.032689
#
#
# Mechanical properties :
#
#
# Convention : Reuss Voigt Hill
#
# Bulk Modulus (GPa) = 56.62398 58.51174 57.56786
# Shear Modulus (GPa) = 32.56349 35.68992 34.12670
#
# Velocity S-wave (km/s) = 3.90998 4.09338 4.00273
# Velocity P-wave (km/s) = 6.85332 7.05771 6.95626
#
# Compressibility (1/GPa) = 0.01766036
#
# Stress axis : x y z
#
# Youngs Moduli (GPa) = 81.88755 99.15455 112.83726
#
# Poissons Ratio (x) = 0.26152 0.16653
# Poissons Ratio (y) = 0.21598 0.29746
# Poissons Ratio (z) = 0.12085 0.26139
#
# Static dielectric constant tensor:
#      x y z
#    x 1.819890 0.000000 -0.018900 
#    y 0.000000 1.777940 0.000000 
#    z -0.018900 0.000000 1.801930 
# 
# From -- ./inp_files/303098.got.cif
#   From: 2010.05.17/outbox.cif.g08.bks.cpg/sg12_152_cif.got.tgz:303098.got - 2010.06.03 13:09:07.
