data_PCOD9221286
_publ_section_title
;
Structure prediction by ZEFSAII (Michael W. Deem and Ramdas Pophale) SiO2 
 PCOD9221286
Probable space group: C 2/M
;
_chemical_formula_sum "Si O2"
_cell_formula_units_Z 44
_cell_length_a 22.534275
_cell_length_b 14.514590
_cell_length_c 7.365463
_cell_angle_alpha 90.000000
_cell_angle_beta 109.971736
_cell_angle_gamma 90.000000
_cell_volume 2264.186244
_symmetry_space_group_name_H-M "C 2/M"
_symmetry_group_IT_number 12
_symmetry_cell_setting 'monoclinic'
loop_
_space_group_symop_operation_xyz
x,y,z
-x,y,-z
-x,-y,-z
x,-y,z
1/2+x,1/2+y,z
1/2-x,1/2+y,-z
1/2-x,1/2-y,-z
1/2+x,1/2-y,z
loop_
_atom_site_type_symbol
_atom_site_label
_atom_site_fract_x
_atom_site_fract_y
_atom_site_fract_z
Si Si1 0.331138 0.724393 0.801941
Si Si2 0.284476 0.896255 0.235348
Si Si3 0.000000 0.157159 0.500000
Si Si4 0.441937 0.398359 0.802620
Si Si5 0.249023 0.105413 0.766757
Si Si6 0.133645 0.770587 0.734346
O O1 0.274946 0.650213 0.728319
O O2 0.391162 0.683482 0.761479
O O3 0.299426 0.823817 0.730274
O O4 0.351104 0.726111 0.035077
O O5 0.342549 0.826994 0.315093
O O6 0.296290 0.000000 0.305137
O O7 0.267134 0.896571 0.001170
O O8 0.027178 0.100228 0.361872
O O9 0.060236 0.214173 0.630068
O O10 0.414178 0.500000 0.817621
O O11 0.500000 0.381977 0.000000
O O12 0.179679 0.152388 0.692025
O O13 0.249301 0.000000 0.701810
#
# Coordination Sequence:
#
# PCOD9221286 Si02
#       6
#     8   8   4   8   8   8
#     4   9  16  33  55  80 107 141 181 226 270 317
#     4   8  14  28  53  81 107 141 182 226 271 316
#     4  12  23  38  53  78 116 150 175 220 271 322
#     4  11  23  37  55  80 111 147 181 218 266 326
#     4   8  15  28  53  82 108 139 181 226 271 318
#     4   9  18  31  52  80 112 144 179 220 270 320
#
# _framework density 19.433029999999999
#
# number of rings (size 3 to 8) (size 9 to 14) (size 15 to 20)
#    0.000    2.727    1.818    3.000    0.000    2.182 
#    0.000    4.091    0.000    4.909    0.000    0.000 
#    0.000    0.000    0.000    0.000    0.000    0.000 
#
# Total GULP energy -122780.427892 kJ/mol
# GULP energy per Si atom -5580.928541 kJ/mol
# Density = 1.938880 g / cm^3
# Si number density = 19.433030 Si / 1000 Ang^3
#
#
#
# Elastic Constant Matrix: (Units=GPa)
#
#
# Indices 1 2 3 4 5 6 
#
# 1 122.0322 81.5819 27.3916 0.0000 12.5056 0.0000
# 2 81.5819 185.1350 22.7020 0.0000 18.1552 0.0000
# 3 27.3916 22.7020 61.6218 0.0000 5.7578 0.0000
# 4 0.0000 0.0000 0.0000 38.5842 0.0000 11.2407
# 5 12.5056 18.1552 5.7578 0.0000 39.9197 0.0000
# 6 0.0000 0.0000 0.0000 11.2407 0.0000 22.6203
#
#
#
# Elastic Compliance Matrix: (Units=1/GPa)
#
#
# Indices 1 2 3 4 5 6 
#
# 1 0.012403 -0.004913 -0.003597 0.000000 -0.001132 0.000000
# 2 -0.004913 0.007820 -0.000516 0.000000 -0.001943 0.000000
# 3 -0.003597 -0.000516 0.018134 0.000000 -0.001254 0.000000
# 4 0.000000 0.000000 0.000000 0.030305 0.000000 -0.015059
# 5 -0.001132 -0.001943 -0.001254 0.000000 0.026470 0.000000
# 6 0.000000 0.000000 0.000000 -0.015059 0.000000 0.051692
#
#
# Mechanical properties :
#
#
# Convention : Reuss Voigt Hill
#
# Bulk Modulus (GPa) = 49.24881 70.23778 59.74329
# Shear Modulus (GPa) = 29.13020 36.03239 32.58130
#
# Velocity S-wave (km/s) = 3.87590 4.31069 4.09907
# Velocity P-wave (km/s) = 6.74003 7.81013 7.29473
#
# Compressibility (1/GPa) = 0.02030506
#
# Stress axis : x y z
#
# Youngs Moduli (GPa) = 80.62787 127.87222 55.14454
#
# Poissons Ratio (x) = 0.62827 0.19837
# Poissons Ratio (y) = 0.39615 0.02843
# Poissons Ratio (z) = 0.29004 0.06592
#
# Static dielectric constant tensor:
#      x y z
#    x 1.653660 0.000000 -0.034290 
#    y 0.000000 1.674980 0.000000 
#    z -0.034290 0.000000 1.738550 
# 
# From -- ./inp_files/85277.got.cif
#   From: 2010.05.17/outbox.cif.g08.bks.cpg/sg12_43_cif.got.tgz:85277.got - 2010.06.03 13:09:07.
