data_PCOD9221714
_publ_section_title
;
Structure prediction by ZEFSAII (Michael W. Deem and Ramdas Pophale) SiO2 
 PCOD9221714
Probable space group: C 2/M
;
_chemical_formula_sum "Si O2"
_cell_formula_units_Z 48
_cell_length_a 8.658885
_cell_length_b 29.084808
_cell_length_c 16.413064
_cell_angle_alpha 90.000000
_cell_angle_beta 30.637160
_cell_angle_gamma 90.000000
_cell_volume 2106.429247
_symmetry_space_group_name_H-M "C 2/M"
_symmetry_group_IT_number 12
_symmetry_cell_setting 'monoclinic'
loop_
_space_group_symop_operation_xyz
x,y,z
-x,y,-z
-x,-y,-z
x,-y,z
1/2+x,1/2+y,z
1/2-x,1/2+y,-z
1/2-x,1/2-y,-z
1/2+x,1/2-y,z
loop_
_atom_site_type_symbol
_atom_site_label
_atom_site_fract_x
_atom_site_fract_y
_atom_site_fract_z
Si Si1 0.361758 0.052452 0.849260
Si Si2 0.635551 0.552650 0.656873
Si Si3 0.248047 0.614305 0.952531
Si Si4 0.312415 0.242365 0.376082
Si Si5 0.247162 0.608964 0.548983
Si Si6 0.254542 0.814923 0.739924
O O1 0.521777 0.074488 0.698654
O O2 0.463743 0.000000 0.816245
O O3 0.405598 0.085774 0.905917
O O4 0.000000 0.051618 0.000000
O O5 0.531650 0.500000 0.700774
O O6 0.471071 0.579323 0.803962
O O7 0.587640 0.581023 0.596675
O O8 0.000000 0.552457 0.500000
O O9 0.455384 0.655530 0.891042
O O10 0.000000 0.630762 0.000000
O O11 0.250000 0.250000 0.500000
O O12 0.632884 0.216680 0.235724
O O13 0.304983 0.284683 0.315339
O O14 0.000000 0.215809 0.500000
O O15 0.500000 0.622234 0.500000
O O16 0.039218 0.649432 0.604907
#
# Coordination Sequence:
#
# PCOD9221714 Si02
#       6
#     8   8   8   8   8   8
#     4  11  23  46  70  99 148 200 236 275 339 418
#     4  11  23  42  70 107 145 189 241 299 346 393
#     4  12  26  44  71 102 146 194 234 283 344 425
#     4   9  21  40  72 100 133 174 218 285 366 429
#     4  12  25  41  73 108 143 183 236 300 343 406
#     4  11  23  46  67 104 135 175 230 291 348 426
#
# _framework density 22.787378
#
# number of rings (size 3 to 8) (size 9 to 14) (size 15 to 20)
#    0.000    1.000    3.333    2.500    7.000    6.667 
#    6.000    0.833    0.000    0.000    0.000    0.000 
#    0.000    0.000    0.000    0.000    0.000    0.000 
#
# Total GULP energy -134054.931839 kJ/mol
# GULP energy per Si atom -5585.622160 kJ/mol
# Density = 2.273551 g / cm^3
# Si number density = 22.787378 Si / 1000 Ang^3
#
#
#
# Elastic Constant Matrix: (Units=GPa)
#
#
# Indices 1 2 3 4 5 6 
#
# 1 150.2245 71.2327 32.2548 0.0000 -19.8453 0.0000
# 2 71.2327 138.9841 42.4278 0.0000 -9.9735 0.0000
# 3 32.2548 42.4278 86.7941 0.0000 -3.5882 0.0000
# 4 0.0000 0.0000 0.0000 24.9923 0.0000 -13.2341
# 5 -19.8453 -9.9735 -3.5882 0.0000 46.6542 0.0000
# 6 0.0000 0.0000 0.0000 -13.2341 0.0000 46.1937
#
#
#
# Elastic Compliance Matrix: (Units=1/GPa)
#
#
# Indices 1 2 3 4 5 6 
#
# 1 0.009299 -0.004155 -0.001302 0.000000 0.002967 0.000000
# 2 -0.004155 0.010419 -0.003541 0.000000 0.000187 0.000000
# 3 -0.001302 -0.003541 0.013726 0.000000 -0.000255 0.000000
# 4 0.000000 0.000000 0.000000 0.047168 0.000000 0.013513
# 5 0.002967 0.000187 -0.000255 0.000000 0.022717 0.000000
# 6 0.000000 0.000000 0.000000 0.013513 0.000000 0.025519
#
#
# Mechanical properties :
#
#
# Convention : Reuss Voigt Hill
#
# Bulk Modulus (GPa) = 64.73765 74.20369 69.47067
# Shear Modulus (GPa) = 32.89618 38.90720 35.90169
#
# Velocity S-wave (km/s) = 3.80361 4.13655 3.97357
# Velocity P-wave (km/s) = 6.91094 7.44641 7.18366
#
# Compressibility (1/GPa) = 0.01544696
#
# Stress axis : x y z
#
# Youngs Moduli (GPa) = 107.54391 95.97523 72.85564
#
# Poissons Ratio (x) = 0.39882 0.09483
# Poissons Ratio (y) = 0.44690 0.25800
# Poissons Ratio (z) = 0.13998 0.33988
#
# Static dielectric constant tensor:
#      x y z
#    x 2.000740 0.000000 -0.078910 
#    y 0.000000 1.901130 0.000000 
#    z -0.078910 0.000000 1.844190 
# 
# From -- ./inp_files/260233.got.cif
#   From: 2010.05.17/outbox.cif.g08.bks.cpg/sg12_131_cif.got.tgz:260233.got - 2010.06.03 13:09:07.
