data_PCOD9221838
_publ_section_title
;
Structure prediction by ZEFSAII (Michael W. Deem and Ramdas Pophale) SiO2 
 PCOD9221838
Probable space group: C 2/M
;
_chemical_formula_sum "Si O2"
_cell_formula_units_Z 34
_cell_length_a 9.800393
_cell_length_b 21.705559
_cell_length_c 7.170927
_cell_angle_alpha 90.000000
_cell_angle_beta 91.428496
_cell_angle_gamma 90.000000
_cell_volume 1524.947087
_symmetry_space_group_name_H-M "C 2/M"
_symmetry_group_IT_number 12
_symmetry_cell_setting 'monoclinic'
loop_
_space_group_symop_operation_xyz
x,y,z
-x,y,-z
-x,-y,-z
x,-y,z
1/2+x,1/2+y,z
1/2-x,1/2+y,-z
1/2-x,1/2-y,-z
1/2+x,1/2-y,z
loop_
_atom_site_type_symbol
_atom_site_label
_atom_site_fract_x
_atom_site_fract_y
_atom_site_fract_z
Si Si1 0.000000 0.500000 0.500000
Si Si2 0.384579 0.757951 0.130760
Si Si3 0.843115 0.929989 0.058051
Si Si4 0.644911 0.887611 0.723788
Si Si5 0.648482 0.346057 0.587627
O O1 0.057514 0.444404 0.643095
O O2 0.425595 0.827659 0.186770
O O3 0.363845 0.721298 0.322133
O O4 0.500000 0.730078 0.000000
O O5 0.250000 0.750000 0.000000
O O6 0.817929 0.887986 0.234202
O O7 0.817156 0.000000 0.114465
O O8 0.747312 0.912581 0.884266
O O9 0.000000 0.924395 0.000000
O O10 0.738171 0.858958 0.562364
O O11 0.500000 0.362626 0.500000
#
# Coordination Sequence:
#
# PCOD9221838 Si02
#       5
#     2   8   8   8   8
#     4  12  32  48  70 108 164 210 254 282 388 482
#     4  12  27  49  79 111 149 200 254 322 391 443
#     4  11  23  44  72 107 149 192 250 321 375 439
#     4  12  27  49  73 111 157 203 250 306 380 470
#     4  12  25  45  79 113 145 191 257 323 384 444
#
# _framework density 22.295856000000001
#
# number of rings (size 3 to 8) (size 9 to 14) (size 15 to 20)
#    0.000    0.235    5.882    2.824    6.588    0.471 
#    0.000    1.765    0.000    0.000    0.000    0.000 
#    0.000    0.000    0.000    0.000    0.000    0.000 
#
# Total GULP energy -94897.469588 kJ/mol
# GULP energy per Si atom -5582.204093 kJ/mol
# Density = 2.224511 g / cm^3
# Si number density = 22.295856 Si / 1000 Ang^3
#
#
#
# Elastic Constant Matrix: (Units=GPa)
#
#
# Indices 1 2 3 4 5 6 
#
# 1 31.4203 7.2566 39.7643 0.0000 5.4816 0.0000
# 2 7.2566 171.6694 48.2934 0.0000 8.6484 0.0000
# 3 39.7643 48.2934 132.0023 0.0000 31.1762 0.0000
# 4 0.0000 0.0000 0.0000 43.3372 0.0000 5.4618
# 5 5.4816 8.6484 31.1762 0.0000 45.3790 0.0000
# 6 0.0000 0.0000 0.0000 5.4618 0.0000 25.7281
#
#
#
# Elastic Compliance Matrix: (Units=1/GPa)
#
#
# Indices 1 2 3 4 5 6 
#
# 1 0.053572 0.002638 -0.018450 0.000000 0.005701 0.000000
# 2 0.002638 0.006632 -0.003399 0.000000 0.000752 0.000000
# 3 -0.018450 -0.003399 0.016351 0.000000 -0.008357 0.000000
# 4 0.000000 0.000000 0.000000 0.023709 0.000000 -0.005033
# 5 0.005701 0.000752 -0.008357 0.000000 0.026946 0.000000
# 6 0.000000 0.000000 0.000000 -0.005033 0.000000 0.039937
#
#
# Mechanical properties :
#
#
# Convention : Reuss Voigt Hill
#
# Bulk Modulus (GPa) = 26.22324 58.41340 42.31832
# Shear Modulus (GPa) = 22.90665 38.87403 30.89034
#
# Velocity S-wave (km/s) = 3.20878 4.18012 3.72623
# Velocity P-wave (km/s) = 5.05127 7.03946 6.12655
#
# Compressibility (1/GPa) = 0.03813411
#
# Stress axis : x y z
#
# Youngs Moduli (GPa) = 18.66652 150.78736 61.15994
#
# Poissons Ratio (x) = -0.39785 1.12839
# Poissons Ratio (y) = -0.04925 0.20787
# Poissons Ratio (z) = 0.34439 0.51250
#
# Static dielectric constant tensor:
#      x y z
#    x 1.725450 0.000000 -0.114710 
#    y 0.000000 1.841750 0.000000 
#    z -0.114710 0.000000 1.603400 
# 
# From -- ./inp_files/6909.got.cif
#   From: 2010.05.17/outbox.cif.g08.bks.cpg/sg12_4_cif.got.tgz:6909.got - 2010.06.03 13:09:07.
