data_PCOD9221918
_publ_section_title
;
Structure prediction by ZEFSAII (Michael W. Deem and Ramdas Pophale) SiO2 
 PCOD9221918
Probable space group: C 2/M
;
_chemical_formula_sum "Si O2"
_cell_formula_units_Z 48
_cell_length_a 24.033850
_cell_length_b 12.831220
_cell_length_c 14.371682
_cell_angle_alpha 90.000000
_cell_angle_beta 30.917620
_cell_angle_gamma 90.000000
_cell_volume 2277.179746
_symmetry_space_group_name_H-M "C 2/M"
_symmetry_group_IT_number 12
_symmetry_cell_setting 'monoclinic'
loop_
_space_group_symop_operation_xyz
x,y,z
-x,y,-z
-x,-y,-z
x,-y,z
1/2+x,1/2+y,z
1/2-x,1/2+y,-z
1/2-x,1/2-y,-z
1/2+x,1/2-y,z
loop_
_atom_site_type_symbol
_atom_site_label
_atom_site_fract_x
_atom_site_fract_y
_atom_site_fract_z
Si Si1 0.584512 0.000000 0.223076
Si Si2 0.679295 0.770215 0.360005
Si Si3 0.127703 0.500000 0.382050
Si Si4 0.177989 0.126902 0.718708
Si Si5 0.251209 0.665062 0.917332
Si Si6 0.017380 0.124489 0.120194
Si Si7 0.978869 0.119811 0.672822
O O1 0.598347 0.000000 0.315005
O O2 0.455696 0.000000 0.410325
O O3 0.647474 0.095436 0.088111
O O4 0.722445 0.796727 0.401234
O O5 0.749855 0.702969 0.186941
O O6 0.564434 0.709761 0.522900
O O7 0.679924 0.886799 0.316486
O O8 0.103556 0.155581 0.737636
O O9 0.200806 0.000000 0.684772
O O10 0.101022 0.150739 0.918686
O O11 0.370803 0.616960 0.765579
O O12 0.250000 0.750000 0.000000
O O13 0.049630 0.148336 0.179159
O O14 0.014705 0.000000 0.120097
O O15 0.023892 0.000000 0.607421
#
# Coordination Sequence:
#
# PCOD9221918 Si02
#       7
#     4   8   4   8   8   8   8
#     4  11  24  40  57  79 119 163 201 247 290 361
#     4  12  24  36  61  89 123 162 198 252 307 355
#     4  11  24  42  58  88 122 152 206 262 301 348
#     4   9  17  35  60  89 114 148 197 250 308 356
#     4  12  23  38  60  85 116 163 199 239 306 367
#     4   8  17  34  61  86 114 150 197 250 302 359
#     4  11  24  39  56  87 124 160 201 248 293 360
#
# _framework density 21.078703999999998
#
# number of rings (size 3 to 8) (size 9 to 14) (size 15 to 20)
#    0.000    1.500    3.333    3.500    3.500    1.333 
#    0.000    0.000    0.000    0.000    0.000    1.167 
#    0.000    0.000    0.000    0.000    0.000    0.000 
#
# Total GULP energy -133622.112359 kJ/mol
# GULP energy per Si atom -5567.588015 kJ/mol
# Density = 2.103073 g / cm^3
# Si number density = 21.078704 Si / 1000 Ang^3
#
#
#
# Elastic Constant Matrix: (Units=GPa)
#
#
# Indices 1 2 3 4 5 6 
#
# 1 83.9776 15.2014 8.8233 0.0000 -5.8027 0.0000
# 2 15.2014 71.0454 24.3241 0.0000 -4.3187 0.0000
# 3 8.8233 24.3241 70.9460 0.0000 0.3345 0.0000
# 4 0.0000 0.0000 0.0000 14.2357 0.0000 -18.3448
# 5 -5.8027 -4.3187 0.3345 0.0000 23.0626 0.0000
# 6 0.0000 0.0000 0.0000 -18.3448 0.0000 8.7432
#
#
#
# Elastic Compliance Matrix: (Units=1/GPa)
#
#
# Indices 1 2 3 4 5 6 
#
# 1 0.012591 -0.002250 -0.000807 0.000000 0.002758 0.000000
# 2 -0.002250 0.016569 -0.005413 0.000000 0.002615 0.000000
# 3 -0.000807 -0.005413 0.016058 0.000000 -0.001450 0.000000
# 4 0.000000 0.000000 0.000000 -0.041229 0.000000 -0.086506
# 5 0.002758 0.002615 -0.001450 0.000000 0.044565 0.000000
# 6 0.000000 0.000000 0.000000 -0.086506 0.000000 -0.067129
#
#
# Mechanical properties :
#
#
# Convention : Reuss Voigt Hill
#
# Bulk Modulus (GPa) = 35.36445 35.85183 35.60814
# Shear Modulus (GPa) = 641.68095 21.04964 331.36530
#
# Velocity S-wave (km/s) = 17.46661 3.16353 12.55170
# Velocity P-wave (km/s) = 20.58131 5.51265 15.06618
#
# Compressibility (1/GPa) = 0.02827698
#
# Stress axis : x y z
#
# Youngs Moduli (GPa) = 79.42410 60.35273 62.27240
#
# Poissons Ratio (x) = 0.13578 0.05028
# Poissons Ratio (y) = 0.17869 0.33710
# Poissons Ratio (z) = 0.06413 0.32671
#
# Static dielectric constant tensor:
#      x y z
#    x 1.905600 0.000000 -0.116400 
#    y 0.000000 1.761980 0.000000 
#    z -0.116400 0.000000 1.865260 
# 
# From -- ./inp_files/245872.got.cif
#   From: 2010.05.17/outbox.cif.g08.bks.cpg/sg12_123_cif.got.tgz:245872.got - 2010.06.03 13:09:07.
