data_PCOD9221376
_publ_section_title
;
Structure prediction by ZEFSAII (Michael W. Deem and Ramdas Pophale) SiO2 
 PCOD9221376
Probable space group: C 2/M
;
_chemical_formula_sum "Si O2"
_cell_formula_units_Z 64
_cell_length_a 24.717589
_cell_length_b 19.407280
_cell_length_c 10.018500
_cell_angle_alpha 90.000000
_cell_angle_beta 51.490105
_cell_angle_gamma 90.000000
_cell_volume 3760.608994
_symmetry_space_group_name_H-M "C 2/M"
_symmetry_group_IT_number 12
_symmetry_cell_setting 'monoclinic'
loop_
_space_group_symop_operation_xyz
x,y,z
-x,y,-z
-x,-y,-z
x,-y,z
1/2+x,1/2+y,z
1/2-x,1/2+y,-z
1/2-x,1/2-y,-z
1/2+x,1/2-y,z
loop_
_atom_site_type_symbol
_atom_site_label
_atom_site_fract_x
_atom_site_fract_y
_atom_site_fract_z
Si Si1 0.269491 0.920540 0.830130
Si Si2 0.816907 0.298607 0.566895
Si Si3 0.948842 0.214617 0.955600
Si Si4 0.601830 0.421504 0.407314
Si Si5 0.543383 0.722488 0.567536
Si Si6 0.231889 0.580335 0.858941
Si Si7 0.816322 0.300004 0.250263
Si Si8 0.102944 0.923602 0.089694
O O1 0.299356 0.866841 0.678427
O O2 0.292081 0.000000 0.774165
O O3 0.284344 0.900888 0.961836
O O4 0.186074 0.920472 0.949430
O O5 0.885209 0.263727 0.524278
O O6 0.825323 0.311456 0.395176
O O7 0.752037 0.246035 0.672824
O O8 0.927283 0.137506 0.949543
O O9 0.992110 0.242320 0.764643
O O10 0.881577 0.258480 0.093955
O O11 0.000000 0.213872 0.000000
O O12 0.583255 0.500000 0.476574
O O13 0.564973 0.358686 0.538215
O O14 0.685011 0.413991 0.290213
O O15 0.586578 0.414831 0.272320
O O16 0.500000 0.734285 0.500000
O O17 0.214468 0.500000 0.868497
O O18 0.194170 0.629485 0.813557
O O19 0.080006 0.000000 0.084512
#
# Coordination Sequence:
#
# PCOD9221376 Si02
#       8
#     8   8   8   8   8   8   8   8
#     4   9  19  36  62  91 115 143 195 251 288 334
#     4  11  23  39  60  87 116 154 203 242 284 341
#     4  12  24  39  54  82 125 156 191 241 294 344
#     4   9  18  35  57  85 118 154 197 236 277 343
#     4  12  24  37  57  89 118 154 200 240 289 342
#     4   9  19  36  62  91 116 146 194 246 290 339
#     4  11  23  39  61  83 118 161 196 238 288 349
#     4   9  18  35  57  83 117 159 194 229 287 347
#
# _framework density 17.018521
#
# number of rings (size 3 to 8) (size 9 to 14) (size 15 to 20)
#    0.000    1.750    5.000    1.500    1.750    2.000 
#    0.000    0.000    0.000    1.500    0.000    0.000 
#    0.000    0.000    0.000    0.000    0.000    0.000 
#
# Total GULP energy -178584.277162 kJ/mol
# GULP energy per Si atom -5580.758661 kJ/mol
# Density = 1.697979 g / cm^3
# Si number density = 17.018521 Si / 1000 Ang^3
#
#
#
# Elastic Constant Matrix: (Units=GPa)
#
#
# Indices 1 2 3 4 5 6 
#
# 1 94.1213 42.3754 17.4253 0.0000 1.5359 0.0000
# 2 42.3754 80.3985 39.2919 0.0000 2.4847 0.0000
# 3 17.4253 39.2919 66.8121 0.0000 -4.0751 0.0000
# 4 0.0000 0.0000 0.0000 29.5482 0.0000 -0.3570
# 5 1.5359 2.4847 -4.0751 0.0000 22.1423 0.0000
# 6 0.0000 0.0000 0.0000 -0.3570 0.0000 32.8398
#
#
#
# Elastic Compliance Matrix: (Units=1/GPa)
#
#
# Indices 1 2 3 4 5 6 
#
# 1 0.013974 -0.007844 0.000974 0.000000 0.000090 0.000000
# 2 -0.007844 0.022196 -0.011253 0.000000 -0.004018 0.000000
# 3 0.000974 -0.011253 0.021647 0.000000 0.005179 0.000000
# 4 0.000000 0.000000 0.000000 0.033847 0.000000 0.000368
# 5 0.000090 -0.004018 0.005179 0.000000 0.046560 0.000000
# 6 0.000000 0.000000 0.000000 0.000368 0.000000 0.030455
#
#
# Mechanical properties :
#
#
# Convention : Reuss Voigt Hill
#
# Bulk Modulus (GPa) = 46.35730 48.83525 47.59628
# Shear Modulus (GPa) = 23.57204 26.38867 24.98035
#
# Velocity S-wave (km/s) = 3.72571 3.94202 3.83539
# Velocity P-wave (km/s) = 6.76804 7.03399 6.90229
#
# Compressibility (1/GPa) = 0.02157157
#
# Stress axis : x y z
#
# Youngs Moduli (GPa) = 71.55908 45.05325 46.19629
#
# Poissons Ratio (x) = 0.35341 -0.04500
# Poissons Ratio (y) = 0.56133 0.51982
# Poissons Ratio (z) = -0.06970 0.50696
#
# Static dielectric constant tensor:
#      x y z
#    x 1.535460 0.000000 -0.016770 
#    y 0.000000 1.562360 0.000000 
#    z -0.016770 0.000000 1.575350 
# 
# From -- ./inp_files/99093.got.cif
#   From: 2010.05.17/outbox.cif.g08.bks.cpg/sg12_50_cif.got.tgz:99093.got - 2010.06.03 13:09:07.
