data_PCOD9221417
_publ_section_title
;
Structure prediction by ZEFSAII (Michael W. Deem and Ramdas Pophale) SiO2 
 PCOD9221417
Probable space group: C 2/M
;
_chemical_formula_sum "Si O2"
_cell_formula_units_Z 40
_cell_length_a 8.645071
_cell_length_b 21.094223
_cell_length_c 9.752832
_cell_angle_alpha 90.000000
_cell_angle_beta 79.291807
_cell_angle_gamma 90.000000
_cell_volume 1747.565721
_symmetry_space_group_name_H-M "C 2/M"
_symmetry_group_IT_number 12
_symmetry_cell_setting 'monoclinic'
loop_
_space_group_symop_operation_xyz
x,y,z
-x,y,-z
-x,-y,-z
x,-y,z
1/2+x,1/2+y,z
1/2-x,1/2+y,-z
1/2-x,1/2-y,-z
1/2+x,1/2-y,z
loop_
_atom_site_type_symbol
_atom_site_label
_atom_site_fract_x
_atom_site_fract_y
_atom_site_fract_z
Si Si1 0.592879 0.169883 0.109797
Si Si2 0.835752 0.833351 0.586057
Si Si3 0.853818 0.609789 0.605822
Si Si4 0.008158 0.070255 0.727168
Si Si5 0.118770 0.191370 0.128468
O O1 0.593800 0.134650 0.253972
O O2 0.531863 0.241913 0.135869
O O3 0.500000 0.136957 0.000000
O O4 0.765290 0.180475 0.016380
O O5 0.792686 0.664712 0.510900
O O6 0.791425 0.803940 0.738808
O O7 0.000000 0.806311 0.500000
O O8 0.889205 0.904713 0.627623
O O9 0.691232 0.571932 0.654732
O O10 0.000000 0.579591 0.500000
O O11 0.985086 0.128505 0.835484
O O12 0.965799 0.000000 0.780457
#
# Coordination Sequence:
#
# PCOD9221417 Si02
#       5
#     8   8   8   8   8
#     4  11  24  39  64  90 141 173 206 267 326 390
#     4   8  18  37  63  95 126 160 212 265 317 377
#     4  11  23  39  63  99 132 167 216 265 328 380
#     4   9  21  44  71  95 125 168 222 269 317 381
#     4   9  22  39  65  95 123 175 216 256 329 383
#
# _framework density 22.888978999999999
#
# number of rings (size 3 to 8) (size 9 to 14) (size 15 to 20)
#    1.200    1.200    0.000    1.200    5.600    5.600 
#    0.000    2.000    0.000    1.200    0.000    0.000 
#    0.000    0.000    0.000    0.000    0.000    0.000 
#
# Total GULP energy -111368.131598 kJ/mol
# GULP energy per Si atom -5568.406580 kJ/mol
# Density = 2.283688 g / cm^3
# Si number density = 22.888979 Si / 1000 Ang^3
#
#
#
# Elastic Constant Matrix: (Units=GPa)
#
#
# Indices 1 2 3 4 5 6 
#
# 1 91.5400 26.1891 47.1717 0.0000 4.4459 0.0000
# 2 26.1891 78.3536 44.3269 0.0000 -9.3531 0.0000
# 3 47.1717 44.3269 154.1419 0.0000 20.3135 0.0000
# 4 0.0000 0.0000 0.0000 6.7701 0.0000 -2.2948
# 5 4.4459 -9.3531 20.3135 0.0000 69.2557 0.0000
# 6 0.0000 0.0000 0.0000 -2.2948 0.0000 2.3966
#
#
#
# Elastic Compliance Matrix: (Units=1/GPa)
#
#
# Indices 1 2 3 4 5 6 
#
# 1 0.013395 -0.002634 -0.003309 0.000000 -0.000245 0.000000
# 2 -0.002634 0.016611 -0.004461 0.000000 0.003721 0.000000
# 3 -0.003309 -0.004461 0.009190 0.000000 -0.003086 0.000000
# 4 0.000000 0.000000 0.000000 0.218683 0.000000 0.209390
# 5 -0.000245 0.003721 -0.003086 0.000000 0.015863 0.000000
# 6 0.000000 0.000000 0.000000 0.209390 0.000000 0.617742
#
#
# Mechanical properties :
#
#
# Convention : Reuss Voigt Hill
#
# Bulk Modulus (GPa) = 54.38780 62.15677 58.27229
# Shear Modulus (GPa) = 5.44413 29.44100 17.44256
#
# Velocity S-wave (km/s) = 1.54391 3.59033 2.76352
# Velocity P-wave (km/s) = 5.19532 6.66348 5.97467
#
# Compressibility (1/GPa) = 0.01838647
#
# Stress axis : x y z
#
# Youngs Moduli (GPa) = 74.65404 60.20080 108.81573
#
# Poissons Ratio (x) = 0.15858 0.36012
# Poissons Ratio (y) = 0.19665 0.48544
# Poissons Ratio (z) = 0.24707 0.26856
#
# Static dielectric constant tensor:
#      x y z
#    x 1.945920 0.000000 0.030300 
#    y 0.000000 1.840420 0.000000 
#    z 0.030300 0.000000 1.903120 
# 
# From -- ./inp_files/120128.got.cif
#   From: 2010.05.17/outbox.cif.g08.bks.cpg/sg12_61_cif.got.tgz:120128.got - 2010.06.03 13:09:07.
