data_PCOD9221423
_publ_section_title
;
Structure prediction by ZEFSAII (Michael W. Deem and Ramdas Pophale) SiO2 
 PCOD9221423
Probable space group: C 2/M
;
_chemical_formula_sum "Si O2"
_cell_formula_units_Z 56
_cell_length_a 22.919651
_cell_length_b 14.393798
_cell_length_c 18.807098
_cell_angle_alpha 90.000000
_cell_angle_beta 24.434686
_cell_angle_gamma 90.000000
_cell_volume 2566.517153
_symmetry_space_group_name_H-M "C 2/M"
_symmetry_group_IT_number 12
_symmetry_cell_setting 'monoclinic'
loop_
_space_group_symop_operation_xyz
x,y,z
-x,y,-z
-x,-y,-z
x,-y,z
1/2+x,1/2+y,z
1/2-x,1/2+y,-z
1/2-x,1/2-y,-z
1/2+x,1/2-y,z
loop_
_atom_site_type_symbol
_atom_site_label
_atom_site_fract_x
_atom_site_fract_y
_atom_site_fract_z
Si Si1 0.527816 0.799359 0.277739
Si Si2 0.825398 0.397770 0.262008
Si Si3 0.778919 0.703491 0.667638
Si Si4 0.399670 0.107030 0.949343
Si Si5 0.752009 0.712869 0.850768
Si Si6 0.461304 0.393453 0.147612
Si Si7 0.924849 0.102739 0.347042
O O1 0.395996 0.812301 0.477366
O O2 0.532252 0.858212 0.200680
O O3 0.665047 0.821181 0.172421
O O4 0.518557 0.690508 0.265693
O O5 0.816914 0.500000 0.236773
O O6 0.778040 0.309487 0.270034
O O7 0.714474 0.397014 0.450327
O O8 0.979760 0.385450 0.123959
O O9 0.830682 0.689116 0.690212
O O10 0.643989 0.642453 0.795466
O O11 0.356979 0.000000 0.991123
O O12 0.275384 0.177997 0.106070
O O13 0.599451 0.667507 0.007719
O O14 0.500388 0.500000 0.091773
O O15 0.383655 0.386896 0.310316
O O16 0.992484 0.000000 0.279754
#
# Coordination Sequence:
#
# PCOD9221423 Si02
#       7
#     8   8   8   8   8   8   8
#     4  11  23  42  63  91 124 167 207 250 303 367
#     4   9  18  35  61  94 123 156 201 252 307 362
#     4  11  23  41  65  88 126 165 207 251 302 369
#     4  11  23  39  64  94 126 161 206 259 311 363
#     4  12  25  41  59  94 128 165 203 250 311 369
#     4  11  23  40  65  92 120 157 205 258 309 360
#     4   9  18  35  63  93 122 156 203 256 304 358
#
# _framework density 21.819452999999999
#
# number of rings (size 3 to 8) (size 9 to 14) (size 15 to 20)
#    0.000    1.429    2.857    2.143    0.000    6.857 
#    0.000    1.429    0.000    6.857    0.000    0.000 
#    0.000    0.000    0.000    0.000    0.000    0.000 
#
# Total GULP energy -156499.631340 kJ/mol
# GULP energy per Si atom -5589.272548 kJ/mol
# Density = 2.176979 g / cm^3
# Si number density = 21.819453 Si / 1000 Ang^3
#
#
#
# Elastic Constant Matrix: (Units=GPa)
#
#
# Indices 1 2 3 4 5 6 
#
# 1 38.8892 -11.0207 11.7161 0.0002 2.9830 -0.0001
# 2 -11.0207 71.6627 11.3969 0.0003 -6.2893 -0.0002
# 3 11.7161 11.3969 58.2357 0.0002 5.5691 -0.0002
# 4 0.0002 0.0003 0.0002 13.4746 -0.0001 -2.1781
# 5 2.9830 -6.2893 5.5691 -0.0001 33.1845 0.0001
# 6 -0.0001 -0.0002 -0.0002 -2.1781 0.0001 2.1251
#
#
#
# Elastic Compliance Matrix: (Units=1/GPa)
#
#
# Indices 1 2 3 4 5 6 
#
# 1 0.029435 0.005600 -0.006978 0.000000 -0.000413 0.000002
# 2 0.005600 0.015822 -0.004535 0.000000 0.003256 0.000001
# 3 -0.006978 -0.004535 0.019803 0.000000 -0.003556 0.000001
# 4 0.000000 0.000000 0.000000 0.088950 0.000000 0.091166
# 5 -0.000413 0.003256 -0.003556 0.000000 0.031386 -0.000001
# 6 0.000002 0.000001 0.000001 0.091166 -0.000001 0.563996
#
#
# Mechanical properties :
#
#
# Convention : Reuss Voigt Hill
#
# Bulk Modulus (GPa) = 18.78455 21.44134 20.11294
# Shear Modulus (GPa) = 6.41880 20.20320 13.31100
#
# Velocity S-wave (km/s) = 1.71702 3.04620 2.47260
# Velocity P-wave (km/s) = 3.54382 4.71386 4.17008
#
# Compressibility (1/GPa) = 0.05323525
#
# Stress axis : x y z
#
# Youngs Moduli (GPa) = 33.97299 63.20136 50.49749
#
# Poissons Ratio (x) = -0.35394 0.35239
# Poissons Ratio (y) = -0.19026 0.22898
# Poissons Ratio (z) = 0.23707 0.28659
#
# Static dielectric constant tensor:
#      x y z
#    x 1.780490 0.000000 0.039610 
#    y 0.000000 1.790000 0.000000 
#    z 0.039610 0.000000 1.823230 
# 
# From -- ./inp_files/284476.got.cif
#   From: 2010.05.17/outbox.cif.g08.bks.cpg/sg12_143_cif.got.tgz:284476.got - 2010.06.03 13:09:07.
