data_PCOD9221106
_publ_section_title
;
Structure prediction by ZEFSAII (Michael W. Deem and Ramdas Pophale) SiO2 
 PCOD9221106
Probable space group: C 2/M
;
_chemical_formula_sum "Si O2"
_cell_formula_units_Z 32
_cell_length_a 9.749675
_cell_length_b 14.521406
_cell_length_c 11.502719
_cell_angle_alpha 90.000000
_cell_angle_beta 54.597848
_cell_angle_gamma 90.000000
_cell_volume 1327.435499
_symmetry_space_group_name_H-M "C 2/M"
_symmetry_group_IT_number 12
_symmetry_cell_setting 'monoclinic'
loop_
_space_group_symop_operation_xyz
x,y,z
-x,y,-z
-x,-y,-z
x,-y,z
1/2+x,1/2+y,z
1/2-x,1/2+y,-z
1/2-x,1/2-y,-z
1/2+x,1/2-y,z
loop_
_atom_site_type_symbol
_atom_site_label
_atom_site_fract_x
_atom_site_fract_y
_atom_site_fract_z
Si Si1 0.217014 0.761872 0.330617
Si Si2 0.529286 0.500000 0.793476
Si Si3 0.595397 0.794445 0.147024
Si Si4 0.214663 0.500000 0.117279
Si Si5 0.284517 0.603087 0.466915
O O1 0.411333 0.767561 0.192163
O O2 0.108889 0.741464 0.271812
O O3 0.192222 0.678327 0.433746
O O4 0.188960 0.853289 0.420592
O O5 0.687494 0.500000 0.806013
O O6 0.551011 0.583342 0.693134
O O7 0.363924 0.500000 0.949110
O O8 0.615880 0.905111 0.146291
O O9 0.750000 0.750000 0.000000
O O10 0.207149 0.500000 0.513003
#
# Coordination Sequence:
#
# PCOD9221106 Si02
#       5
#     8   4   8   4   8
#     4  11  24  44  68 106 136 182 228 288 344 409
#     4   9  18  39  70  99 128 188 230 268 337 425
#     4  12  26  45  71 103 140 180 235 286 340 412
#     4  11  22  41  75  95 142 185 240 264 347 427
#     4   9  20  41  70  96 141 179 229 280 349 413
#
# _framework density 24.106634
#
# number of rings (size 3 to 8) (size 9 to 14) (size 15 to 20)
#    0.750    0.750    2.500    2.250    5.250    4.000 
#    2.250    5.000    0.000    0.000    0.000    0.000 
#    0.000    0.000    0.000    0.000    0.000    0.000 
#
# Total GULP energy -89460.793258 kJ/mol
# GULP energy per Si atom -5591.299579 kJ/mol
# Density = 2.405177 g / cm^3
# Si number density = 24.106634 Si / 1000 Ang^3
#
#
#
# Elastic Constant Matrix: (Units=GPa)
#
#
# Indices 1 2 3 4 5 6 
#
# 1 48.6978 15.8210 4.0432 0.0000 -17.4003 0.0000
# 2 15.8210 184.6937 28.9134 0.0000 -0.0298 0.0000
# 3 4.0432 28.9134 129.1909 0.0000 -0.5030 0.0000
# 4 0.0000 0.0000 0.0000 52.1928 0.0000 -8.2276
# 5 -17.4003 -0.0298 -0.5030 0.0000 39.0851 0.0000
# 6 0.0000 0.0000 0.0000 -8.2276 0.0000 10.4856
#
#
#
# Elastic Compliance Matrix: (Units=1/GPa)
#
#
# Indices 1 2 3 4 5 6 
#
# 1 0.025263 -0.002120 -0.000272 0.000000 0.011242 0.000000
# 2 -0.002120 0.005789 -0.001233 0.000000 -0.000955 0.000000
# 3 -0.000272 -0.001233 0.008025 0.000000 -0.000019 0.000000
# 4 0.000000 0.000000 0.000000 0.021864 0.000000 0.017156
# 5 0.011242 -0.000955 -0.000019 0.000000 0.030589 0.000000
# 6 0.000000 0.000000 0.000000 0.017156 0.000000 0.108831
#
#
# Mechanical properties :
#
#
# Convention : Reuss Voigt Hill
#
# Bulk Modulus (GPa) = 31.42037 51.12639 41.27338
# Shear Modulus (GPa) = 22.91273 41.27300 32.09287
#
# Velocity S-wave (km/s) = 3.08632 4.14224 3.65264
# Velocity P-wave (km/s) = 5.07570 6.64320 5.91163
#
# Compressibility (1/GPa) = 0.03182648
#
# Stress axis : x y z
#
# Youngs Moduli (GPa) = 39.58393 172.74762 124.61254
#
# Poissons Ratio (x) = 0.36615 0.03396
# Poissons Ratio (y) = 0.08390 0.15364
# Poissons Ratio (z) = 0.01079 0.21299
#
# Static dielectric constant tensor:
#      x y z
#    x 1.907350 0.000000 -0.062650 
#    y 0.000000 1.971820 0.000000 
#    z -0.062650 0.000000 1.913720 
# 
# From -- ./inp_files/128494.got.cif
#   From: 2010.05.17/outbox.cif.g08.bks.cpg/sg12_65_cif.got.tgz:128494.got - 2010.06.03 13:09:07.
