data_PCOD9221012
_publ_section_title
;
Structure prediction by ZEFSAII (Michael W. Deem and Ramdas Pophale) SiO2 
 PCOD9221012
Probable space group: C 2/M
;
_chemical_formula_sum "Si O2"
_cell_formula_units_Z 32
_cell_length_a 16.678891
_cell_length_b 15.926901
_cell_length_c 10.560598
_cell_angle_alpha 90.000000
_cell_angle_beta 145.571681
_cell_angle_gamma 90.000000
_cell_volume 1586.073739
_symmetry_space_group_name_H-M "C 2/M"
_symmetry_group_IT_number 12
_symmetry_cell_setting 'monoclinic'
loop_
_space_group_symop_operation_xyz
x,y,z
-x,y,-z
-x,-y,-z
x,-y,z
1/2+x,1/2+y,z
1/2-x,1/2+y,-z
1/2-x,1/2-y,-z
1/2+x,1/2-y,z
loop_
_atom_site_type_symbol
_atom_site_label
_atom_site_fract_x
_atom_site_fract_y
_atom_site_fract_z
Si Si1 0.382098 0.096317 0.243076
Si Si2 0.518931 0.852966 0.163960
Si Si3 0.891818 0.166756 0.013483
Si Si4 0.182854 0.901119 0.363028
O O1 0.500000 0.123666 0.500000
O O2 0.450442 0.099937 0.193654
O O3 0.241669 0.152221 0.070387
O O4 0.343739 0.000000 0.224699
O O5 0.686688 0.850853 0.408244
O O6 0.500000 0.890872 0.000000
O O7 0.444186 0.761907 0.066924
O O8 0.841291 0.130701 0.811806
O O9 0.032969 0.115868 0.235696
O O10 0.215639 0.000000 0.405544
#
# Coordination Sequence:
#
# PCOD9221012 Si02
#       4
#     8   8   8   8
#     4  11  23  42  67  95 130 173 223 266 316 388
#     4  12  25  41  66 100 136 171 209 273 336 385
#     4  11  22  41  68  96 129 171 224 268 316 383
#     4  11  22  40  68  96 130 172 220 265 319 390
#
# _framework density 20.175606999999999
#
# number of rings (size 3 to 8) (size 9 to 14) (size 15 to 20)
#    0.000    0.750    5.000    5.250    0.000    2.000 
#    0.000    1.250    0.000    3.000    0.000    0.000 
#    0.000    0.000    0.000    0.000    0.000    0.000 
#
# Total GULP energy -89413.940827 kJ/mol
# GULP energy per Si atom -5588.371302 kJ/mol
# Density = 2.012969 g / cm^3
# Si number density = 20.175607 Si / 1000 Ang^3
#
#
#
# Elastic Constant Matrix: (Units=GPa)
#
#
# Indices 1 2 3 4 5 6 
#
# 1 118.0370 12.4353 71.4426 0.0000 7.1703 0.0000
# 2 12.4353 83.5436 26.2921 0.0000 4.5398 0.0000
# 3 71.4426 26.2921 141.3907 0.0000 22.9536 0.0000
# 4 0.0000 0.0000 0.0000 25.7653 0.0000 9.6845
# 5 7.1703 4.5398 22.9536 0.0000 31.2991 0.0000
# 6 0.0000 0.0000 0.0000 9.6845 0.0000 29.8911
#
#
#
# Elastic Compliance Matrix: (Units=1/GPa)
#
#
# Indices 1 2 3 4 5 6 
#
# 1 0.012312 0.000126 -0.006566 0.000000 0.001976 0.000000
# 2 0.000126 0.012716 -0.002411 0.000000 -0.000105 0.000000
# 3 -0.006566 -0.002411 0.011962 0.000000 -0.006918 0.000000
# 4 0.000000 0.000000 0.000000 0.044194 0.000000 -0.014319
# 5 0.001976 -0.000105 -0.006918 0.000000 0.036586 0.000000
# 6 0.000000 0.000000 0.000000 -0.014319 0.000000 0.038094
#
#
# Mechanical properties :
#
#
# Convention : Reuss Voigt Hill
#
# Bulk Modulus (GPa) = 51.84458 62.59014 57.21736
# Shear Modulus (GPa) = 27.77871 32.91118 30.34495
#
# Velocity S-wave (km/s) = 3.71461 4.04324 3.88240
# Velocity P-wave (km/s) = 6.64457 7.27235 6.96553
#
# Compressibility (1/GPa) = 0.01928842
#
# Stress axis : x y z
#
# Youngs Moduli (GPa) = 81.21886 78.64382 83.60101
#
# Poissons Ratio (x) = -0.00992 0.54888
# Poissons Ratio (y) = -0.01025 0.20158
# Poissons Ratio (z) = 0.53324 0.18963
#
# Static dielectric constant tensor:
#      x y z
#    x 1.752370 0.000000 0.016330 
#    y 0.000000 1.717070 0.000000 
#    z 0.016330 0.000000 1.690990 
# 
# From -- ./inp_files/46417.got.cif
#   From: 2010.05.17/outbox.cif.g08.bks.cpg/sg12_24_cif.got.tgz:46417.got - 2010.06.03 13:09:07.
