data_PCOD9221025
_publ_section_title
;
Structure prediction by ZEFSAII (Michael W. Deem and Ramdas Pophale) SiO2 
 PCOD9221025
Probable space group: C 2/M
;
_chemical_formula_sum "Si O2"
_cell_formula_units_Z 48
_cell_length_a 16.438816
_cell_length_b 14.924909
_cell_length_c 12.085578
_cell_angle_alpha 90.000000
_cell_angle_beta 133.065798
_cell_angle_gamma 90.000000
_cell_volume 2166.264572
_symmetry_space_group_name_H-M "C 2/M"
_symmetry_group_IT_number 12
_symmetry_cell_setting 'monoclinic'
loop_
_space_group_symop_operation_xyz
x,y,z
-x,y,-z
-x,-y,-z
x,-y,z
1/2+x,1/2+y,z
1/2-x,1/2+y,-z
1/2-x,1/2-y,-z
1/2+x,1/2-y,z
loop_
_atom_site_type_symbol
_atom_site_label
_atom_site_fract_x
_atom_site_fract_y
_atom_site_fract_z
Si Si1 0.896994 0.595144 0.230536
Si Si2 0.739469 0.336856 0.910831
Si Si3 0.880751 0.272955 0.841615
Si Si4 0.236326 0.102641 0.292736
Si Si5 0.508068 0.397096 0.374298
Si Si6 0.394979 0.214861 0.599883
O O1 0.958739 0.500000 0.296607
O O2 0.811275 0.600597 0.251732
O O3 0.984433 0.674557 0.317877
O O4 0.826723 0.598730 0.052743
O O5 0.784852 0.311193 0.832014
O O6 0.614750 0.374289 0.788340
O O7 0.750000 0.250000 0.000000
O O8 0.869141 0.164885 0.830816
O O9 0.873510 0.302863 0.708546
O O10 0.000000 0.299477 0.000000
O O11 0.306725 0.160844 0.445621
O O12 0.214447 0.000000 0.304911
O O13 0.500000 0.389953 0.500000
O O14 0.537726 0.500000 0.374415
O O15 0.593151 0.320849 0.411912
#
# Coordination Sequence:
#
# PCOD9221025 Si02
#       6
#     8   8   8   8   8   8
#     4  11  22  40  70  98 127 171 220 270 321 386
#     4  12  21  44  67  93 132 172 219 265 322 387
#     4  12  24  42  66  95 130 182 215 264 334 386
#     4  11  25  43  68  99 130 174 222 269 324 387
#     4  11  24  42  69 100 131 174 223 268 322 389
#     4  12  23  43  67  98 138 167 214 271 333 391
#
# _framework density 22.157959000000002
#
# number of rings (size 3 to 8) (size 9 to 14) (size 15 to 20)
#    0.000    0.500    5.000    4.000    0.000    2.333 
#    0.000    5.833    0.000    0.000    0.000    0.000 
#    0.000    0.000    0.000    0.000    0.000    0.000 
#
# Total GULP energy -134283.514720 kJ/mol
# GULP energy per Si atom -5595.146447 kJ/mol
# Density = 2.210753 g / cm^3
# Si number density = 22.157959 Si / 1000 Ang^3
#
#
#
# Elastic Constant Matrix: (Units=GPa)
#
#
# Indices 1 2 3 4 5 6 
#
# 1 43.1996 3.3208 10.5927 0.0000 -18.8633 0.0000
# 2 3.3208 109.6871 17.6178 0.0000 -9.4217 0.0000
# 3 10.5927 17.6178 86.3512 0.0000 -12.1005 0.0000
# 4 0.0000 0.0000 0.0000 39.7011 0.0000 9.5426
# 5 -18.8633 -9.4217 -12.1005 0.0000 42.6391 0.0000
# 6 0.0000 0.0000 0.0000 9.5426 0.0000 19.8758
#
#
#
# Elastic Compliance Matrix: (Units=1/GPa)
#
#
# Indices 1 2 3 4 5 6 
#
# 1 0.028991 0.000495 -0.001921 0.000000 0.012390 0.000000
# 2 0.000495 0.009540 -0.001751 0.000000 0.001830 0.000000
# 3 -0.001921 -0.001751 0.012497 0.000000 0.002310 0.000000
# 4 0.000000 0.000000 0.000000 0.028474 0.000000 -0.013671
# 5 0.012390 0.001830 0.002310 0.000000 0.029994 0.000000
# 6 0.000000 0.000000 0.000000 -0.013671 0.000000 0.056876
#
#
# Mechanical properties :
#
#
# Convention : Reuss Voigt Hill
#
# Bulk Modulus (GPa) = 22.38376 33.58895 27.98635
# Shear Modulus (GPa) = 26.64989 34.29030 30.47009
#
# Velocity S-wave (km/s) = 3.47179 3.93814 3.71230
# Velocity P-wave (km/s) = 5.11810 5.98919 5.57070
#
# Compressibility (1/GPa) = 0.04467524
#
# Stress axis : x y z
#
# Youngs Moduli (GPa) = 34.49295 104.81889 80.01826
#
# Poissons Ratio (x) = -0.05190 0.15373
# Poissons Ratio (y) = -0.01708 0.14009
# Poissons Ratio (z) = 0.06627 0.18351
#
# Static dielectric constant tensor:
#      x y z
#    x 1.783360 0.000000 0.007570 
#    y 0.000000 1.867530 0.000000 
#    z 0.007570 0.000000 1.812150 
# 
# From -- ./inp_files/143854.got.cif
#   From: 2010.05.17/outbox.cif.g08.bks.cpg/sg12_72_cif.got.tgz:143854.got - 2010.06.03 13:09:07.
