data_PCOD9221167
_publ_section_title
;
Structure prediction by ZEFSAII (Michael W. Deem and Ramdas Pophale) SiO2 
 PCOD9221167
Probable space group: C 2/M
;
_chemical_formula_sum "Si O2"
_cell_formula_units_Z 64
_cell_length_a 18.892034
_cell_length_b 28.608570
_cell_length_c 8.888697
_cell_angle_alpha 90.000000
_cell_angle_beta 138.665382
_cell_angle_gamma 90.000000
_cell_volume 3172.900882
_symmetry_space_group_name_H-M "C 2/M"
_symmetry_group_IT_number 12
_symmetry_cell_setting 'monoclinic'
loop_
_space_group_symop_operation_xyz
x,y,z
-x,y,-z
-x,-y,-z
x,-y,z
1/2+x,1/2+y,z
1/2-x,1/2+y,-z
1/2-x,1/2-y,-z
1/2+x,1/2-y,z
loop_
_atom_site_type_symbol
_atom_site_label
_atom_site_fract_x
_atom_site_fract_y
_atom_site_fract_z
Si Si1 0.975703 0.448590 0.281293
Si Si2 0.105152 0.882048 0.269269
Si Si3 0.396772 0.553185 0.441126
Si Si4 0.271158 0.204764 0.931695
Si Si5 0.170753 0.395131 0.537686
Si Si6 0.154999 0.222967 0.434542
Si Si7 0.275882 0.896480 0.028695
Si Si8 0.511423 0.188481 0.195700
O O1 0.935763 0.500000 0.175881
O O2 0.888738 0.407862 0.126771
O O3 0.000000 0.449568 0.500000
O O4 0.083638 0.435351 0.366624
O O5 0.094872 0.909978 0.409463
O O6 0.221136 0.895636 0.385187
O O7 0.116227 0.826077 0.305628
O O8 0.000000 0.892235 0.000000
O O9 0.500000 0.554727 0.500000
O O10 0.382747 0.500000 0.475432
O O11 0.302645 0.568207 0.178602
O O12 0.203881 0.212032 0.674297
O O13 0.250000 0.250000 0.000000
O O14 0.234880 0.156172 0.946855
O O15 0.395415 0.194356 0.088164
O O16 0.206293 0.402888 0.766363
O O17 0.099313 0.347568 0.405844
O O18 0.250000 0.250000 0.500000
O O19 0.060244 0.259916 0.286416
O O20 0.500000 0.176217 0.000000
#
# Coordination Sequence:
#
# PCOD9221167 Si02
#       8
#     8   8   8   8   8   8   8   8
#     4   9  19  36  63  96 129 169 215 270 336 404
#     4  12  26  45  71 103 136 181 237 290 345 426
#     4  11  26  49  73  98 138 185 231 295 365 421
#     4  12  26  41  66 103 139 181 234 290 342 412
#     4  11  23  40  70  98 141 177 226 287 349 414
#     4  12  24  43  65  97 138 186 232 274 348 419
#     4  11  22  43  67 101 138 177 231 286 348 418
#     4  12  24  42  68  93 140 191 226 274 349 415
#
# _framework density 20.170815999999999
#
# number of rings (size 3 to 8) (size 9 to 14) (size 15 to 20)
#    0.000    0.750    5.000    2.250    0.000    3.750 
#    0.000    0.000    0.000    1.875    0.000    0.000 
#    0.000    0.000    0.000    0.000    0.000    0.000 
#
# Total GULP energy -178634.623380 kJ/mol
# GULP energy per Si atom -5582.331981 kJ/mol
# Density = 2.012491 g / cm^3
# Si number density = 20.170816 Si / 1000 Ang^3
#
#
#
# Elastic Constant Matrix: (Units=GPa)
#
#
# Indices 1 2 3 4 5 6 
#
# 1 77.1182 27.5142 31.0213 0.0000 15.4614 0.0000
# 2 27.5142 118.8172 21.5493 0.0000 1.0790 0.0000
# 3 31.0213 21.5493 101.7116 0.0000 1.8525 0.0000
# 4 0.0000 0.0000 0.0000 30.6141 0.0000 4.4380
# 5 15.4614 1.0790 1.8525 0.0000 23.4767 0.0000
# 6 0.0000 0.0000 0.0000 4.4380 0.0000 28.0393
#
#
#
# Elastic Compliance Matrix: (Units=1/GPa)
#
#
# Indices 1 2 3 4 5 6 
#
# 1 0.018345 -0.003293 -0.004687 0.000000 -0.011561 0.000000
# 2 -0.003293 0.009345 -0.001009 0.000000 0.001819 0.000000
# 3 -0.004687 -0.001009 0.011434 0.000000 0.002231 0.000000
# 4 0.000000 0.000000 0.000000 0.033432 0.000000 -0.005292
# 5 -0.011561 0.001819 0.002231 0.000000 0.049949 0.000000
# 6 0.000000 0.000000 0.000000 -0.005292 0.000000 0.036502
#
#
# Mechanical properties :
#
#
# Convention : Reuss Voigt Hill
#
# Bulk Modulus (GPa) = 47.28736 50.86851 49.07793
# Shear Modulus (GPa) = 27.16885 30.93016 29.04951
#
# Velocity S-wave (km/s) = 3.67405 3.92013 3.79908
# Velocity P-wave (km/s) = 6.44147 6.76487 6.60515
#
# Compressibility (1/GPa) = 0.02114730
#
# Stress axis : x y z
#
# Youngs Moduli (GPa) = 54.51034 107.00569 87.45646
#
# Poissons Ratio (x) = 0.35238 0.40990
# Poissons Ratio (y) = 0.17951 0.08822
# Poissons Ratio (z) = 0.25548 0.10794
#
# Static dielectric constant tensor:
#      x y z
#    x 1.781020 0.000000 0.037850 
#    y 0.000000 1.200710 0.000000 
#    z 0.037850 0.000000 1.712170 
# 
# From -- ./inp_files/80793.got.cif
#   From: 2010.05.17/outbox.cif.g08.bks.cpg/sg12_41_cif.got.tgz:80793.got - 2010.06.03 13:09:07.
