data_PCOD9221839
_publ_section_title
;
Structure prediction by ZEFSAII (Michael W. Deem and Ramdas Pophale) SiO2 
 PCOD9221839
Probable space group: C 2/M
;
_chemical_formula_sum "Si O2"
_cell_formula_units_Z 32
_cell_length_a 14.257367
_cell_length_b 9.474043
_cell_length_c 9.435964
_cell_angle_alpha 90.000000
_cell_angle_beta 104.100791
_cell_angle_gamma 90.000000
_cell_volume 1236.157699
_symmetry_space_group_name_H-M "C 2/M"
_symmetry_group_IT_number 12
_symmetry_cell_setting 'monoclinic'
loop_
_space_group_symop_operation_xyz
x,y,z
-x,y,-z
-x,-y,-z
x,-y,z
1/2+x,1/2+y,z
1/2-x,1/2+y,-z
1/2-x,1/2-y,-z
1/2+x,1/2-y,z
loop_
_atom_site_type_symbol
_atom_site_label
_atom_site_fract_x
_atom_site_fract_y
_atom_site_fract_z
Si Si1 0.530050 0.000000 0.748876
Si Si2 0.486985 0.304490 0.160127
Si Si3 0.728161 0.342062 0.856008
Si Si4 0.810303 0.819603 0.615725
Si Si5 0.157892 0.500000 0.519966
O O1 0.527887 0.862818 0.842691
O O2 0.617954 0.000000 0.667706
O O3 0.434125 0.000000 0.618225
O O4 0.387187 0.356159 0.191713
O O5 0.576239 0.338424 0.296055
O O6 0.500000 0.348373 0.000000
O O7 0.769858 0.500000 0.874326
O O8 0.771752 0.254301 0.744829
O O9 0.750000 0.250000 0.000000
O O10 0.813038 0.677413 0.505265
O O11 0.784909 0.000000 0.586707
#
# Coordination Sequence:
#
# PCOD9221839 Si02
#       5
#     4   8   8   8   4
#     4  11  23  44  72 109 145 199 251 305 368 441
#     4  12  26  45  74 108 147 194 254 303 378 442
#     4  12  30  51  74 112 154 196 252 315 378 447
#     4  12  27  47  75 110 153 200 249 308 373 448
#     4  11  24  44  73 102 153 199 249 306 376 435
#
# _framework density 25.886662999999999
#
# number of rings (size 3 to 8) (size 9 to 14) (size 15 to 20)
#    0.000    0.250    7.500    0.375    8.750    1.500 
#    0.000    1.250    0.000    0.000    0.000    0.000 
#    0.000    0.000    0.000    0.000    0.000    0.000 
#
# Total GULP energy -89444.212618 kJ/mol
# GULP energy per Si atom -5590.263289 kJ/mol
# Density = 2.582774 g / cm^3
# Si number density = 25.886663 Si / 1000 Ang^3
#
#
#
# Elastic Constant Matrix: (Units=GPa)
#
#
# Indices 1 2 3 4 5 6 
#
# 1 158.2185 40.1002 18.4037 0.0000 33.1175 0.0000
# 2 40.1002 223.3867 47.0759 0.0000 19.4696 0.0000
# 3 18.4037 47.0759 128.3265 0.0000 3.9367 0.0000
# 4 0.0000 0.0000 0.0000 -7.6320 0.0000 3.0930
# 5 33.1175 19.4696 3.9367 0.0000 50.2760 0.0000
# 6 0.0000 0.0000 0.0000 3.0930 0.0000 98.2369
#
#
#
# Elastic Compliance Matrix: (Units=1/GPa)
#
#
# Indices 1 2 3 4 5 6 
#
# 1 0.007570 -0.000821 -0.000643 0.000000 -0.004618 0.000000
# 2 -0.000821 0.005098 -0.001713 0.000000 -0.001299 0.000000
# 3 -0.000643 -0.001713 0.008500 0.000000 0.000421 0.000000
# 4 0.000000 0.000000 0.000000 -0.129376 0.000000 0.004073
# 5 -0.004618 -0.001299 0.000421 0.000000 0.023402 0.000000
# 6 0.000000 0.000000 0.000000 0.004073 0.000000 0.010051
#
#
# Mechanical properties :
#
#
# Convention : Reuss Voigt Hill
#
# Bulk Modulus (GPa) = 67.49717 80.12125 73.80921
# Shear Modulus (GPa) = -78.78600 55.13297 -11.82652
#
# Velocity S-wave (km/s) = -5.52278 4.61996 -2.13974
# Velocity P-wave (km/s) = 3.81279 7.71212 4.74022
#
# Compressibility (1/GPa) = 0.01481544
#
# Stress axis : x y z
#
# Youngs Moduli (GPa) = 132.10320 196.15290 117.64497
#
# Poissons Ratio (x) = 0.16102 0.07562
# Poissons Ratio (y) = 0.10844 0.20148
# Poissons Ratio (z) = 0.08492 0.33593
#
# Static dielectric constant tensor:
#      x y z
#    x 2.063020 0.000000 0.018310 
#    y 0.000000 2.064830 0.000000 
#    z 0.018310 0.000000 1.747570 
# 
# From -- ./inp_files/138738.got.cif
#   From: 2010.05.17/outbox.cif.g08.bks.cpg/sg12_70_cif.got.tgz:138738.got - 2010.06.03 13:09:07.
