data_PCOD9221347
_publ_section_title
;
Structure prediction by ZEFSAII (Michael W. Deem and Ramdas Pophale) SiO2 
 PCOD9221347
Probable space group: C 2/M
;
_chemical_formula_sum "Si O2"
_cell_formula_units_Z 56
_cell_length_a 14.137401
_cell_length_b 24.069885
_cell_length_c 9.237470
_cell_angle_alpha 90.000000
_cell_angle_beta 122.075994
_cell_angle_gamma 90.000000
_cell_volume 2663.524188
_symmetry_space_group_name_H-M "C 2/M"
_symmetry_group_IT_number 12
_symmetry_cell_setting 'monoclinic'
loop_
_space_group_symop_operation_xyz
x,y,z
-x,y,-z
-x,-y,-z
x,-y,z
1/2+x,1/2+y,z
1/2-x,1/2+y,-z
1/2-x,1/2-y,-z
1/2+x,1/2-y,z
loop_
_atom_site_type_symbol
_atom_site_label
_atom_site_fract_x
_atom_site_fract_y
_atom_site_fract_z
Si Si1 0.110547 0.110834 0.991653
Si Si2 0.818319 0.285598 0.813448
Si Si3 0.670847 0.500000 0.540684
Si Si4 0.259406 0.624167 0.457093
Si Si5 0.189582 0.332198 0.685475
Si Si6 0.495377 0.668946 0.656404
Si Si7 0.576954 0.500000 0.789599
Si Si8 0.536943 0.212302 0.787403
O O1 0.110225 0.052106 0.913096
O O2 0.091864 0.152379 0.843682
O O3 0.219158 0.127601 0.166887
O O4 0.000000 0.115129 0.000000
O O5 0.755944 0.340715 0.703711
O O6 0.744726 0.230246 0.723542
O O7 0.930055 0.289347 0.806157
O O8 0.860870 0.283400 0.013125
O O9 0.734079 0.558057 0.559744
O O10 0.635722 0.500000 0.680919
O O11 0.555859 0.500000 0.353708
O O12 0.173344 0.644816 0.509977
O O13 0.377895 0.645783 0.616001
O O14 0.084224 0.330155 0.706925
O O15 0.500000 0.644316 0.500000
O O16 0.504669 0.734427 0.665292
#
# Coordination Sequence:
#
# PCOD9221347 Si02
#       8
#     8   8   4   8   8   8   4   8
#     4  12  22  40  61  94 139 176 215 271 327 399
#     4  11  24  44  64  97 135 177 217 277 332 399
#     4  11  24  44  64  99 131 176 223 282 325 398
#     4  12  25  42  69  93 137 172 225 271 336 391
#     4  12  24  40  65 100 135 178 217 271 336 395
#     4  12  23  37  62  94 133 176 210 263 326 404
#     4  11  23  38  66  95 130 175 227 265 341 398
#     4  11  25  41  64  94 138 173 223 267 334 398
#
# _framework density 21.024774000000001
#
# number of rings (size 3 to 8) (size 9 to 14) (size 15 to 20)
#    0.000    0.429    5.714    2.786    6.000    0.571 
#    0.000    0.000    0.000    4.286    0.000    0.000 
#    0.000    0.000    0.000    0.000    0.000    0.000 
#
# Total GULP energy -156373.047559 kJ/mol
# GULP energy per Si atom -5584.751699 kJ/mol
# Density = 2.097692 g / cm^3
# Si number density = 21.024774 Si / 1000 Ang^3
#
#
#
# Elastic Constant Matrix: (Units=GPa)
#
#
# Indices 1 2 3 4 5 6 
#
# 1 108.6660 22.7263 20.7620 0.0000 -18.5281 0.0000
# 2 22.7263 107.0999 33.1114 0.0000 -4.7561 0.0000
# 3 20.7620 33.1114 103.5726 0.0000 -16.4846 0.0000
# 4 0.0000 0.0000 0.0000 40.9727 0.0000 -1.3135
# 5 -18.5281 -4.7561 -16.4846 0.0000 34.8732 0.0000
# 6 0.0000 0.0000 0.0000 -1.3135 0.0000 21.2874
#
#
#
# Elastic Compliance Matrix: (Units=1/GPa)
#
#
# Indices 1 2 3 4 5 6 
#
# 1 0.010576 -0.001790 -0.000749 0.000000 0.005021 0.000000
# 2 -0.001790 0.010665 -0.003212 0.000000 -0.001015 0.000000
# 3 -0.000749 -0.003212 0.011569 0.000000 0.004633 0.000000
# 4 0.000000 0.000000 0.000000 0.024455 0.000000 0.001509
# 5 0.005021 -0.001015 0.004633 0.000000 0.033395 0.000000
# 6 0.000000 0.000000 0.000000 0.001509 0.000000 0.047069
#
#
# Mechanical properties :
#
#
# Convention : Reuss Voigt Hill
#
# Bulk Modulus (GPa) = 46.92871 52.50421 49.71646
# Shear Modulus (GPa) = 31.98292 35.60925 33.79609
#
# Velocity S-wave (km/s) = 3.90449 4.11990 4.01364
# Velocity P-wave (km/s) = 6.53421 6.90349 6.72139
#
# Compressibility (1/GPa) = 0.02130892
#
# Stress axis : x y z
#
# Youngs Moduli (GPa) = 94.55387 93.76555 86.43443
#
# Poissons Ratio (x) = 0.16782 0.06472
# Poissons Ratio (y) = 0.16923 0.27765
# Poissons Ratio (z) = 0.07080 0.30120
#
# Static dielectric constant tensor:
#      x y z
#    x 1.853800 0.000000 0.008830 
#    y 0.000000 1.574620 0.000000 
#    z 0.008830 0.000000 1.762930 
# 
# From -- ./inp_files/65999.got.cif
#   From: 2010.05.17/outbox.cif.g08.bks.cpg/sg12_33_cif.got.tgz:65999.got - 2010.06.03 13:09:07.
