data_PCOD9221711
_publ_section_title
;
Structure prediction by ZEFSAII (Michael W. Deem and Ramdas Pophale) SiO2 
 PCOD9221711
Probable space group: C 2/M
;
_chemical_formula_sum "Si O2"
_cell_formula_units_Z 32
_cell_length_a 8.183038
_cell_length_b 17.467328
_cell_length_c 12.712885
_cell_angle_alpha 90.000000
_cell_angle_beta 48.628305
_cell_angle_gamma 90.000000
_cell_volume 1363.640188
_symmetry_space_group_name_H-M "C 2/M"
_symmetry_group_IT_number 12
_symmetry_cell_setting 'monoclinic'
loop_
_space_group_symop_operation_xyz
x,y,z
-x,y,-z
-x,-y,-z
x,-y,z
1/2+x,1/2+y,z
1/2-x,1/2+y,-z
1/2-x,1/2-y,-z
1/2+x,1/2-y,z
loop_
_atom_site_type_symbol
_atom_site_label
_atom_site_fract_x
_atom_site_fract_y
_atom_site_fract_z
Si Si1 0.930677 0.640452 0.913381
Si Si2 0.972375 0.817328 0.175403
Si Si3 0.131875 0.167805 0.551247
Si Si4 0.547275 0.084895 0.318274
O O1 0.486648 0.772552 0.142839
O O2 0.994120 0.590770 0.216651
O O3 0.764253 0.647447 0.744537
O O4 0.000000 0.615668 0.000000
O O5 0.010965 0.832131 0.282946
O O6 0.167487 0.855618 0.028044
O O7 0.250000 0.250000 0.500000
O O8 0.327453 0.106886 0.472282
O O9 0.000000 0.158587 0.500000
O O10 0.623722 0.000000 0.312232
#
# Coordination Sequence:
#
# PCOD9221711 Si02
#       4
#     8   8   8   8
#     4  11  23  42  70 102 139 190 242 290 340 420
#     4  11  23  42  71 103 141 186 240 292 342 421
#     4  12  25  44  73 104 140 186 235 293 354 424
#     4  12  27  46  71 107 146 188 235 294 364 422
#
# _framework density 23.466602000000002
#
# number of rings (size 3 to 8) (size 9 to 14) (size 15 to 20)
#    0.000    0.500    2.500    7.500    0.000    5.000 
#    0.000    2.500    0.000    0.000    0.000    0.000 
#    0.000    0.000    0.000    0.000    0.000    0.000 
#
# Total GULP energy -89668.040409 kJ/mol
# GULP energy per Si atom -5604.252526 kJ/mol
# Density = 2.341319 g / cm^3
# Si number density = 23.466602 Si / 1000 Ang^3
#
#
#
# Elastic Constant Matrix: (Units=GPa)
#
#
# Indices 1 2 3 4 5 6 
#
# 1 107.5536 10.5394 9.7579 0.0000 1.1444 0.0000
# 2 10.5394 59.1048 1.4302 0.0000 -12.6538 0.0000
# 3 9.7579 1.4302 135.4611 0.0000 1.5936 0.0000
# 4 0.0000 0.0000 0.0000 -9.9537 0.0000 7.6877
# 5 1.1444 -12.6538 1.5936 0.0000 49.0547 0.0000
# 6 0.0000 0.0000 0.0000 7.6877 0.0000 11.4157
#
#
#
# Elastic Compliance Matrix: (Units=1/GPa)
#
#
# Indices 1 2 3 4 5 6 
#
# 1 0.009544 -0.001830 -0.000660 0.000000 -0.000673 0.000000
# 2 -0.001830 0.018267 -0.000117 0.000000 0.004759 0.000000
# 3 -0.000660 -0.000117 0.007434 0.000000 -0.000256 0.000000
# 4 0.000000 0.000000 0.000000 -0.066090 0.000000 0.044507
# 5 -0.000673 0.004759 -0.000256 0.000000 0.021637 0.000000
# 6 0.000000 0.000000 0.000000 0.044507 0.000000 0.057626
#
#
# Mechanical properties :
#
#
# Convention : Reuss Voigt Hill
#
# Bulk Modulus (GPa) = 33.29949 38.39716 35.84833
# Shear Modulus (GPa) = 78.56351 28.79614 53.67983
#
# Velocity S-wave (km/s) = 5.79237 3.50682 4.78797
# Velocity P-wave (km/s) = 7.67830 5.72669 6.77316
#
# Compressibility (1/GPa) = 0.03003049
#
# Stress axis : x y z
#
# Youngs Moduli (GPa) = 104.77693 54.74342 134.51698
#
# Poissons Ratio (x) = 0.10018 0.08882
# Poissons Ratio (y) = 0.19175 0.01574
# Poissons Ratio (z) = 0.06918 0.00641
#
# Static dielectric constant tensor:
#      x y z
#    x 1.925310 0.000000 0.047630 
#    y 0.000000 1.811970 0.000000 
#    z 0.047630 0.000000 1.893830 
# 
# From -- ./inp_files/38333.got.cif
#   From: 2010.05.17/outbox.cif.g08.bks.cpg/sg12_20_cif.got.tgz:38333.got - 2010.06.03 13:09:07.
