data_PCOD9221616
_publ_section_title
;
Structure prediction by ZEFSAII (Michael W. Deem and Ramdas Pophale) SiO2 
 PCOD9221616
Probable space group: C 2/M
;
_chemical_formula_sum "Si O2"
_cell_formula_units_Z 40
_cell_length_a 23.091205
_cell_length_b 15.529386
_cell_length_c 16.420855
_cell_angle_alpha 90.000000
_cell_angle_beta 17.360104
_cell_angle_gamma 90.000000
_cell_volume 1756.956154
_symmetry_space_group_name_H-M "C 2/M"
_symmetry_group_IT_number 12
_symmetry_cell_setting 'monoclinic'
loop_
_space_group_symop_operation_xyz
x,y,z
-x,y,-z
-x,-y,-z
x,-y,z
1/2+x,1/2+y,z
1/2-x,1/2+y,-z
1/2-x,1/2-y,-z
1/2+x,1/2-y,z
loop_
_atom_site_type_symbol
_atom_site_label
_atom_site_fract_x
_atom_site_fract_y
_atom_site_fract_z
Si Si1 0.510766 0.599641 0.394685
Si Si2 0.853820 0.601463 0.620784
Si Si3 0.694920 0.835247 0.695838
Si Si4 0.462412 0.310192 0.199782
Si Si5 0.109670 0.683426 0.142748
O O1 0.500000 0.635537 0.500000
O O2 0.447126 0.500000 0.477695
O O3 0.366410 0.652732 0.530934
O O4 0.739066 0.605197 0.070299
O O5 0.849341 0.500000 0.610432
O O6 0.000000 0.617199 0.500000
O O7 0.939102 0.651139 0.429121
O O8 0.642987 0.633943 0.929985
O O9 0.627880 0.741173 0.754697
O O10 0.804776 0.864182 0.464465
O O11 0.500000 0.873509 0.000000
O O12 0.540880 0.233396 0.154302
O O13 0.250000 0.750000 0.000000
#
# Coordination Sequence:
#
# PCOD9221616 Si02
#       5
#     8   8   8   8   8
#     4  11  25  44  68 101 136 175 231 296 352 411
#     4  11  23  41  68 103 145 184 230 294 359 409
#     4  11  23  42  66  95 136 183 230 285 337 421
#     4  11  24  40  67 104 136 185 237 278 345 428
#     4  12  22  39  70 105 132 179 228 293 337 423
#
# _framework density 22.766646999999999
#
# number of rings (size 3 to 8) (size 9 to 14) (size 15 to 20)
#    0.000    0.800    4.000    3.000    2.800    2.800 
#    0.000    2.000    0.000   12.600    0.000    0.000 
#    0.000    0.000    0.000    0.000    0.000    0.000 
#
# Total GULP energy -111680.536863 kJ/mol
# GULP energy per Si atom -5584.026843 kJ/mol
# Density = 2.271483 g / cm^3
# Si number density = 22.766647 Si / 1000 Ang^3
#
#
#
# Elastic Constant Matrix: (Units=GPa)
#
#
# Indices 1 2 3 4 5 6 
#
# 1 124.0284 47.8278 29.4303 -0.0079 -2.2413 0.0001
# 2 47.8278 69.4048 24.0059 -0.0653 -3.4980 -0.0052
# 3 29.4303 24.0059 188.5818 -0.0172 21.3906 0.0030
# 4 -0.0079 -0.0653 -0.0172 -151.4025 -0.0091 -35.0654
# 5 -2.2413 -3.4980 21.3906 -0.0091 41.2830 -0.0029
# 6 0.0001 -0.0052 0.0030 -35.0654 -0.0029 8.3099
#
#
#
# Elastic Compliance Matrix: (Units=1/GPa)
#
#
# Indices 1 2 3 4 5 6 
#
# 1 0.011100 -0.007335 -0.000846 0.000002 0.000419 0.000004
# 2 -0.007335 0.020149 -0.001667 -0.000006 0.002173 -0.000011
# 3 -0.000846 -0.001667 0.006022 0.000001 -0.003307 -0.000002
# 4 0.000002 -0.000006 0.000001 -0.003340 -0.000002 -0.014095
# 5 0.000419 0.002173 -0.003307 -0.000002 0.026144 0.000001
# 6 0.000004 -0.000011 -0.000002 -0.014095 0.000001 0.060860
#
#
# Mechanical properties :
#
#
# Convention : Reuss Voigt Hill
#
# Bulk Modulus (GPa) = 56.89885 64.94921 60.92403
# Shear Modulus (GPa) = 34.13265 -1.64517 16.24374
#
# Velocity S-wave (km/s) = 3.87620 -0.85099 2.67402
# Velocity P-wave (km/s) = 6.71414 5.25591 6.02927
#
# Compressibility (1/GPa) = 0.01757505
#
# Stress axis : x y z
#
# Youngs Moduli (GPa) = 90.09374 49.63060 166.05531
#
# Poissons Ratio (x) = 0.36404 0.14049
# Poissons Ratio (y) = 0.66084 0.27675
# Poissons Ratio (z) = 0.07622 0.08271
#
# Static dielectric constant tensor:
#      x y z
#    x 1.850320 0.000000 0.028140 
#    y 0.000000 1.848250 0.000000 
#    z 0.028140 0.000000 1.969920 
# 
# From -- ./inp_files/234581.got.cif
#   From: 2010.05.17/outbox.cif.g08.bks.cpg/sg12_118_cif.got.tgz:234581.got - 2010.06.03 13:09:07.
