data_PCOD9221150
_publ_section_title
;
Structure prediction by ZEFSAII (Michael W. Deem and Ramdas Pophale) SiO2 
 PCOD9221150
Probable space group: C 2/M
;
_chemical_formula_sum "Si O2"
_cell_formula_units_Z 32
_cell_length_a 22.235963
_cell_length_b 7.891318
_cell_length_c 13.141975
_cell_angle_alpha 90.000000
_cell_angle_beta 38.859967
_cell_angle_gamma 90.000000
_cell_volume 1446.851261
_symmetry_space_group_name_H-M "C 2/M"
_symmetry_group_IT_number 12
_symmetry_cell_setting 'monoclinic'
loop_
_space_group_symop_operation_xyz
x,y,z
-x,y,-z
-x,-y,-z
x,-y,z
1/2+x,1/2+y,z
1/2-x,1/2+y,-z
1/2-x,1/2-y,-z
1/2+x,1/2-y,z
loop_
_atom_site_type_symbol
_atom_site_label
_atom_site_fract_x
_atom_site_fract_y
_atom_site_fract_z
Si Si1 0.200105 0.194145 0.670070
Si Si2 0.841620 0.500000 0.757004
Si Si3 0.009213 0.305512 0.832556
Si Si4 0.039344 0.500000 0.607020
Si Si5 0.209289 0.695532 0.879792
O O1 0.250000 0.250000 0.500000
O O2 0.227815 0.297406 0.733694
O O3 0.086192 0.211628 0.799245
O O4 0.224155 0.000000 0.658701
O O5 0.927419 0.500000 0.724456
O O6 0.777893 0.330447 0.843659
O O7 0.896871 0.500000 0.575918
O O8 0.000548 0.500000 0.882781
O O9 0.052935 0.337438 0.662129
O O10 0.901182 0.242538 0.965435
O O11 0.218887 0.500000 0.901649
#
# Coordination Sequence:
#
# PCOD9221150 Si02
#       5
#     8   4   8   4   8
#     4  12  23  36  61  94 131 168 207 256 317 386
#     4  11  22  42  71  88 127 167 223 252 316 380
#     4   9  21  40  59  87 128 162 206 256 319 362
#     4   9  22  44  63  90 127 173 203 274 310 366
#     4  11  23  40  63  95 125 167 206 264 313 371
#
# _framework density 22.116993999999998
#
# number of rings (size 3 to 8) (size 9 to 14) (size 15 to 20)
#    0.750    0.750    1.250    4.500    1.750    4.000 
#    0.000    3.750    0.000    0.000    0.000    0.000 
#    0.000    0.000    0.000    0.000    0.000    0.000 
#
# Total GULP energy -89412.548174 kJ/mol
# GULP energy per Si atom -5588.284261 kJ/mol
# Density = 2.206665 g / cm^3
# Si number density = 22.116994 Si / 1000 Ang^3
#
#
#
# Elastic Constant Matrix: (Units=GPa)
#
#
# Indices 1 2 3 4 5 6 
#
# 1 80.7633 26.2873 0.4237 0.0002 -22.1060 0.0000
# 2 26.2873 99.6495 12.4863 0.0010 -23.0806 0.0000
# 3 0.4237 12.4863 78.4283 0.0006 -9.1119 0.0000
# 4 0.0002 0.0010 0.0006 28.3850 0.0000 -11.2038
# 5 -22.1060 -23.0806 -9.1119 0.0000 47.6673 0.0000
# 6 0.0000 0.0000 0.0000 -11.2038 0.0000 32.7967
#
#
#
# Elastic Compliance Matrix: (Units=1/GPa)
#
#
# Indices 1 2 3 4 5 6 
#
# 1 0.014835 -0.002706 0.001020 0.000000 0.005765 0.000000
# 2 -0.002706 0.011906 -0.001388 0.000000 0.004245 0.000000
# 3 0.001020 -0.001388 0.013237 0.000000 0.002332 0.000000
# 4 0.000000 0.000000 0.000000 0.040721 0.000000 0.013911
# 5 0.005765 0.004245 0.002332 0.000000 0.026153 0.000000
# 6 0.000000 0.000000 0.000000 0.013911 0.000000 0.035243
#
#
# Mechanical properties :
#
#
# Convention : Reuss Voigt Hill
#
# Bulk Modulus (GPa) = 29.55856 37.47061 33.51459
# Shear Modulus (GPa) = 31.34428 36.41272 33.87850
#
# Velocity S-wave (km/s) = 3.76866 4.06195 3.91805
# Velocity P-wave (km/s) = 5.68601 6.24324 5.97113
#
# Compressibility (1/GPa) = 0.03383114
#
# Stress axis : x y z
#
# Youngs Moduli (GPa) = 67.40732 83.99062 75.54689
#
# Poissons Ratio (x) = 0.22729 -0.07709
# Poissons Ratio (y) = 0.18241 0.10484
# Poissons Ratio (z) = -0.06878 0.11656
#
# Static dielectric constant tensor:
#      x y z
#    x 1.819470 0.000000 0.019710 
#    y 0.000000 1.761540 0.000000 
#    z 0.019710 0.000000 1.883860 
# 
# From -- ./inp_files/238191.got.cif
#   From: 2010.05.17/outbox.cif.g08.bks.cpg/sg12_120_cif.got.tgz:238191.got - 2010.06.03 13:09:07.
