data_PCOD9221763
_publ_section_title
;
Structure prediction by ZEFSAII (Michael W. Deem and Ramdas Pophale) SiO2 
 PCOD9221763
Probable space group: C 2/M
;
_chemical_formula_sum "Si O2"
_cell_formula_units_Z 48
_cell_length_a 20.079466
_cell_length_b 8.512908
_cell_length_c 13.680539
_cell_angle_alpha 90.000000
_cell_angle_beta 89.941721
_cell_angle_gamma 90.000000
_cell_volume 2338.476892
_symmetry_space_group_name_H-M "C 2/M"
_symmetry_group_IT_number 12
_symmetry_cell_setting 'monoclinic'
loop_
_space_group_symop_operation_xyz
x,y,z
-x,y,-z
-x,-y,-z
x,-y,z
1/2+x,1/2+y,z
1/2-x,1/2+y,-z
1/2-x,1/2-y,-z
1/2+x,1/2-y,z
loop_
_atom_site_type_symbol
_atom_site_label
_atom_site_fract_x
_atom_site_fract_y
_atom_site_fract_z
Si Si1 0.943297 0.686901 0.079643
Si Si2 0.798729 0.814199 0.082909
Si Si3 0.718621 0.815932 0.700289
Si Si4 0.007395 0.811646 0.277951
Si Si5 0.859770 0.683901 0.640853
Si Si6 0.896745 0.184713 0.433350
O O1 0.930783 0.500000 0.080588
O O2 0.874920 0.774859 0.056379
O O3 0.969860 0.740573 0.185036
O O4 0.000000 0.720820 0.000000
O O5 0.784702 0.731199 0.186369
O O6 0.789860 0.000000 0.094395
O O7 0.750000 0.750000 0.000000
O O8 0.791801 0.776781 0.660229
O O9 0.664032 0.717517 0.640499
O O10 0.703817 0.000000 0.688462
O O11 0.963859 0.774752 0.374589
O O12 0.080912 0.742706 0.289672
O O13 0.009882 0.000000 0.268917
O O14 0.847462 0.500000 0.655578
O O15 0.883911 0.717840 0.530773
O O16 0.899302 0.000000 0.459114
#
# Coordination Sequence:
#
# PCOD9221763 Si02
#       6
#     8   8   8   8   8   8
#     4  11  25  45  70 100 135 173 219 271 326 389
#     4  12  26  46  71 100 134 173 219 271 329 392
#     4  12  25  44  69  97 133 174 221 274 331 392
#     4  11  24  43  68  97 134 175 221 274 329 390
#     4  12  26  42  65  97 135 177 224 273 326 391
#     4  11  23  43  68  97 133 173 221 273 331 393
#
# _framework density 20.526183
#
# number of rings (size 3 to 8) (size 9 to 14) (size 15 to 20)
#    0.000    0.500    1.667    7.000    2.333    5.333 
#    0.000    0.000    0.000    0.000    0.000    0.000 
#    0.000    0.000    0.000    0.000    0.000    0.000 
#
# Total GULP energy -134452.296823 kJ/mol
# GULP energy per Si atom -5602.179034 kJ/mol
# Density = 2.047946 g / cm^3
# Si number density = 20.526183 Si / 1000 Ang^3
#
#
#
# Elastic Constant Matrix: (Units=GPa)
#
#
# Indices 1 2 3 4 5 6 
#
# 1 32.0672 -12.6917 8.1038 0.0000 2.6417 0.0000
# 2 -12.6917 44.8797 -4.7411 0.0000 -18.3669 0.0000
# 3 8.1038 -4.7411 48.7240 0.0000 3.2928 0.0000
# 4 0.0000 0.0000 0.0000 35.8121 0.0000 -0.7135
# 5 2.6417 -18.3669 3.2928 0.0000 37.3577 0.0000
# 6 0.0000 0.0000 0.0000 -0.7135 0.0000 33.7880
#
#
#
# Elastic Compliance Matrix: (Units=1/GPa)
#
#
# Indices 1 2 3 4 5 6 
#
# 1 0.036661 0.011195 -0.005236 0.000000 0.003373 0.000000
# 2 0.011195 0.031470 0.000209 0.000000 0.014662 0.000000
# 3 -0.005236 0.000209 0.021511 0.000000 -0.001423 0.000000
# 4 0.000000 0.000000 0.000000 0.027935 0.000000 0.000590
# 5 0.003373 0.014662 -0.001423 0.000000 0.033864 0.000000
# 6 0.000000 0.000000 0.000000 0.000590 0.000000 0.029609
#
#
# Mechanical properties :
#
#
# Convention : Reuss Voigt Hill
#
# Bulk Modulus (GPa) = 9.80607 11.89033 10.84820
# Shear Modulus (GPa) = 24.66622 30.39155 27.52889
#
# Velocity S-wave (km/s) = 3.47031 3.85206 3.66616
# Velocity P-wave (km/s) = 4.56564 5.05864 4.81845
#
# Compressibility (1/GPa) = 0.10197770
#
# Stress axis : x y z
#
# Youngs Moduli (GPa) = 27.27729 31.77617 46.48747
#
# Poissons Ratio (x) = -0.35572 0.24341
# Poissons Ratio (y) = -0.30536 -0.00974
# Poissons Ratio (z) = 0.14283 -0.00666
#
# Static dielectric constant tensor:
#      x y z
#    x 1.704830 0.000000 -0.008700 
#    y 0.000000 1.685960 0.000000 
#    z -0.008700 0.000000 1.702610 
# 
# From -- ./inp_files/221516.got.cif
#   From: 2010.05.17/outbox.cif.g08.bks.cpg/sg12_111_cif.got.tgz:221516.got - 2010.06.03 13:09:07.
