data_PCOD9221180
_publ_section_title
;
Structure prediction by ZEFSAII (Michael W. Deem and Ramdas Pophale) SiO2 
 PCOD9221180
Probable space group: C 2/M
;
_chemical_formula_sum "Si O2"
_cell_formula_units_Z 40
_cell_length_a 16.949669
_cell_length_b 15.356613
_cell_length_c 11.689454
_cell_angle_alpha 90.000000
_cell_angle_beta 44.227354
_cell_angle_gamma 90.000000
_cell_volume 2122.265128
_symmetry_space_group_name_H-M "C 2/M"
_symmetry_group_IT_number 12
_symmetry_cell_setting 'monoclinic'
loop_
_space_group_symop_operation_xyz
x,y,z
-x,y,-z
-x,-y,-z
x,-y,z
1/2+x,1/2+y,z
1/2-x,1/2+y,-z
1/2-x,1/2-y,-z
1/2+x,1/2-y,z
loop_
_atom_site_type_symbol
_atom_site_label
_atom_site_fract_x
_atom_site_fract_y
_atom_site_fract_z
Si Si1 0.153688 0.500000 0.228442
Si Si2 0.762001 0.146971 0.501372
Si Si3 0.629271 0.602775 0.372975
Si Si4 0.885487 0.500000 0.459510
Si Si5 0.491939 0.602559 0.138152
Si Si6 0.791433 0.848420 0.956948
O O1 0.160771 0.500000 0.360329
O O2 0.021338 0.500000 0.331006
O O3 0.214935 0.415057 0.110586
O O4 0.750000 0.250000 0.500000
O O5 0.797910 0.134049 0.595496
O O6 0.660539 0.085184 0.561242
O O7 0.868496 0.115715 0.316008
O O8 0.500000 0.639310 0.500000
O O9 0.616617 0.500000 0.403455
O O10 0.693963 0.619602 0.187913
O O11 0.520158 0.500000 0.112089
O O12 0.583863 0.649645 0.118978
O O13 0.500000 0.632947 0.000000
O O14 0.750000 0.750000 0.000000
#
# Coordination Sequence:
#
# PCOD9221180 Si02
#       6
#     4   8   8   4   8   8
#     4  11  26  48  69  94 136 182 222 271 332 399
#     4  12  26  43  67 103 134 173 224 273 333 395
#     4  11  22  44  70  97 134 175 219 278 334 393
#     4  11  26  48  69  94 136 182 222 271 332 399
#     4  11  22  43  71  96 127 171 227 280 322 381
#     4  12  26  43  67 103 134 173 224 273 333 395
#
# _framework density 18.847785999999999
#
# number of rings (size 3 to 8) (size 9 to 14) (size 15 to 20)
#    0.000    0.600    6.000    1.200    8.400    0.000 
#    0.000    2.000    0.000    0.000    0.000    0.000 
#    0.000    0.000    0.000    0.000    0.000    0.000 
#
# Total GULP energy -111739.582323 kJ/mol
# GULP energy per Si atom -5586.979116 kJ/mol
# Density = 1.880489 g / cm^3
# Si number density = 18.847786 Si / 1000 Ang^3
#
#
#
# Elastic Constant Matrix: (Units=GPa)
#
#
# Indices 1 2 3 4 5 6 
#
# 1 127.1203 38.3968 20.1657 0.0000 15.3081 0.0000
# 2 38.3968 103.8234 -10.2586 0.0000 -0.9581 0.0000
# 3 20.1657 -10.2586 47.4160 0.0000 8.8212 0.0000
# 4 0.0000 0.0000 0.0000 17.5522 0.0000 1.4868
# 5 15.3081 -0.9581 8.8212 0.0000 40.3159 0.0000
# 6 0.0000 0.0000 0.0000 1.4868 0.0000 22.1823
#
#
#
# Elastic Compliance Matrix: (Units=1/GPa)
#
#
# Indices 1 2 3 4 5 6 
#
# 1 0.010274 -0.004296 -0.004748 0.000000 -0.002965 0.000000
# 2 -0.004296 0.011641 0.004160 0.000000 0.000998 0.000000
# 3 -0.004748 0.004160 0.024659 0.000000 -0.003494 0.000000
# 4 0.000000 0.000000 0.000000 0.057298 0.000000 -0.003840
# 5 -0.002965 0.000998 -0.003494 0.000000 0.026718 0.000000
# 6 0.000000 0.000000 0.000000 -0.003840 0.000000 0.045338
#
#
# Mechanical properties :
#
#
# Convention : Reuss Voigt Hill
#
# Bulk Modulus (GPa) = 27.16887 41.66304 34.41596
# Shear Modulus (GPa) = 25.25697 31.34713 28.30205
#
# Velocity S-wave (km/s) = 3.66464 4.08263 3.87927
# Velocity P-wave (km/s) = 5.68791 6.66159 6.19391
#
# Compressibility (1/GPa) = 0.03680684
#
# Stress axis : x y z
#
# Youngs Moduli (GPa) = 97.32962 85.90432 40.55302
#
# Poissons Ratio (x) = 0.36906 0.19253
# Poissons Ratio (y) = 0.41815 -0.16870
# Poissons Ratio (z) = 0.46208 -0.35737
#
# Static dielectric constant tensor:
#      x y z
#    x 1.661840 0.000000 0.005480 
#    y 0.000000 1.662770 0.000000 
#    z 0.005480 0.000000 1.645830 
# 
# From -- ./inp_files/143379.got.cif
#   From: 2010.05.17/outbox.cif.g08.bks.cpg/sg12_72_cif.got.tgz:143379.got - 2010.06.03 13:09:07.
