data_PCOD9221439
_publ_section_title
;
Structure prediction by ZEFSAII (Michael W. Deem and Ramdas Pophale) SiO2 
 PCOD9221439
Probable space group: C 2/M
;
_chemical_formula_sum "Si O2"
_cell_formula_units_Z 32
_cell_length_a 20.044029
_cell_length_b 10.260868
_cell_length_c 16.054419
_cell_angle_alpha 90.000000
_cell_angle_beta 152.022146
_cell_angle_gamma 90.000000
_cell_volume 1549.020461
_symmetry_space_group_name_H-M "C 2/M"
_symmetry_group_IT_number 12
_symmetry_cell_setting 'monoclinic'
loop_
_space_group_symop_operation_xyz
x,y,z
-x,y,-z
-x,-y,-z
x,-y,z
1/2+x,1/2+y,z
1/2-x,1/2+y,-z
1/2-x,1/2-y,-z
1/2+x,1/2-y,z
loop_
_atom_site_type_symbol
_atom_site_label
_atom_site_fract_x
_atom_site_fract_y
_atom_site_fract_z
Si Si1 0.280986 0.704265 0.942967
Si Si2 0.042718 0.500000 0.642095
Si Si3 0.833274 0.282776 0.825508
Si Si4 0.227560 0.000000 0.326830
Si Si5 0.982936 0.000000 0.756424
Si Si6 0.606786 0.500000 0.534758
O O1 0.142840 0.621268 0.768126
O O2 0.302763 0.798469 0.890123
O O3 0.250000 0.750000 0.000000
O O4 0.423629 0.620907 0.109031
O O5 0.000000 0.500000 0.500000
O O6 0.895788 0.500000 0.528110
O O7 0.713454 0.375078 0.653023
O O8 0.812608 0.132132 0.769855
O O9 0.000000 0.316460 0.000000
O O10 0.154823 0.000000 0.337068
O O11 0.967689 0.000000 0.639127
O O12 0.500000 0.500000 0.500000
#
# Coordination Sequence:
#
# PCOD9221439 Si02
#       6
#     8   4   8   4   4   4
#     4  11  24  41  69 100 143 182 236 284 349 418
#     4  11  23  39  67 104 134 184 239 287 336 416
#     4  12  25  47  74 103 143 190 231 291 362 418
#     4  12  24  43  80 104 136 180 252 290 342 411
#     4  11  25  46  67 105 140 184 233 296 344 417
#     4  12  30  47  71 104 152 185 230 290 362 424
#
# _framework density 20.658217
#
# number of rings (size 3 to 8) (size 9 to 14) (size 15 to 20)
#    0.000    0.500    5.000    3.000    7.000    4.000 
#    0.000    0.000    0.000    0.000    0.000    0.000 
#    0.000    0.000    0.000    0.000    0.000    0.000 
#
# Total GULP energy -89282.768581 kJ/mol
# GULP energy per Si atom -5580.173036 kJ/mol
# Density = 2.061120 g / cm^3
# Si number density = 20.658217 Si / 1000 Ang^3
#
#
#
# Elastic Constant Matrix: (Units=GPa)
#
#
# Indices 1 2 3 4 5 6 
#
# 1 140.8211 7.1398 51.0725 0.0000 13.1674 0.0000
# 2 7.1398 59.7531 22.2541 0.0000 -0.7571 0.0000
# 3 51.0725 22.2541 142.3072 0.0000 8.4578 0.0000
# 4 0.0000 0.0000 0.0000 12.1581 0.0000 -5.2679
# 5 13.1674 -0.7571 8.4578 0.0000 62.8105 0.0000
# 6 0.0000 0.0000 0.0000 -5.2679 0.0000 22.9673
#
#
#
# Elastic Compliance Matrix: (Units=1/GPa)
#
#
# Indices 1 2 3 4 5 6 
#
# 1 0.008275 0.000075 -0.002902 0.000000 -0.001343 0.000000
# 2 0.000075 0.017793 -0.002844 0.000000 0.000582 0.000000
# 3 -0.002902 -0.002844 0.008548 0.000000 -0.000577 0.000000
# 4 0.000000 0.000000 0.000000 0.091326 0.000000 0.020947
# 5 -0.001343 0.000582 -0.000577 0.000000 0.016287 0.000000
# 6 0.000000 0.000000 0.000000 0.020947 0.000000 0.048345
#
#
# Mechanical properties :
#
#
# Convention : Reuss Voigt Hill
#
# Bulk Modulus (GPa) = 42.96588 55.97936 49.47262
# Shear Modulus (GPa) = 23.84656 37.08151 30.46404
#
# Velocity S-wave (km/s) = 3.40124 4.24134 3.84431
# Velocity P-wave (km/s) = 6.02231 7.15136 6.61098
#
# Compressibility (1/GPa) = 0.02327428
#
# Stress axis : x y z
#
# Youngs Moduli (GPa) = 120.83960 56.20148 116.99301
#
# Poissons Ratio (x) = -0.00421 0.33950
# Poissons Ratio (y) = -0.00905 0.33272
# Poissons Ratio (z) = 0.35066 0.15983
#
# Static dielectric constant tensor:
#      x y z
#    x 2.260190 0.000000 0.256620 
#    y 0.000000 1.854800 0.000000 
#    z 0.256620 0.000000 1.791780 
# 
# From -- ./inp_files/110310.got.cif
#   From: 2010.05.17/outbox.cif.g08.bks.cpg/sg12_56_cif.got.tgz:110310.got - 2010.06.03 13:09:07.
