data_PCOD9221297
_publ_section_title
;
Structure prediction by ZEFSAII (Michael W. Deem and Ramdas Pophale) SiO2 
 PCOD9221297
Probable space group: C 2/M
;
_chemical_formula_sum "Si O2"
_cell_formula_units_Z 56
_cell_length_a 11.657442
_cell_length_b 27.746308
_cell_length_c 12.928412
_cell_angle_alpha 90.000000
_cell_angle_beta 46.549674
_cell_angle_gamma 90.000000
_cell_volume 3035.797879
_symmetry_space_group_name_H-M "C 2/M"
_symmetry_group_IT_number 12
_symmetry_cell_setting 'monoclinic'
loop_
_space_group_symop_operation_xyz
x,y,z
-x,y,-z
-x,-y,-z
x,-y,z
1/2+x,1/2+y,z
1/2-x,1/2+y,-z
1/2-x,1/2-y,-z
1/2+x,1/2-y,z
loop_
_atom_site_type_symbol
_atom_site_label
_atom_site_fract_x
_atom_site_fract_y
_atom_site_fract_z
Si Si1 0.835930 0.800525 0.652356
Si Si2 0.009207 0.444121 0.320223
Si Si3 0.869884 0.310137 0.657066
Si Si4 0.043427 0.867240 0.860812
Si Si5 0.988296 0.655546 0.220473
Si Si6 0.266084 0.445089 0.342988
Si Si7 0.269977 0.697175 0.936444
O O1 0.831928 0.742784 0.636527
O O2 0.688908 0.828568 0.694743
O O3 0.822273 0.802992 0.784937
O O4 0.000000 0.817742 0.500000
O O5 0.011250 0.500000 0.281295
O O6 0.008967 0.400412 0.239364
O O7 0.852396 0.437847 0.487847
O O8 0.157288 0.438872 0.307354
O O9 0.704820 0.337062 0.766808
O O10 0.000000 0.333204 0.500000
O O11 0.950006 0.313168 0.719574
O O12 0.087843 0.909132 0.753707
O O13 0.903009 0.832402 0.914994
O O14 0.000000 0.887850 0.000000
O O15 0.103871 0.670232 0.055856
O O16 0.320211 0.500000 0.311500
O O17 0.250000 0.750000 0.000000
#
# Coordination Sequence:
#
# PCOD9221297 Si02
#       7
#     8   8   8   8   8   8   8
#     4  11  27  41  60  91 121 162 211 256 302 367
#     4   9  18  35  61  93 122 160 209 253 312 373
#     4  11  23  37  59  90 121 159 205 254 307 364
#     4  12  21  35  59  90 123 161 206 247 310 378
#     4  12  22  41  65  86 124 170 203 254 311 371
#     4   9  18  33  56  91 129 156 195 262 321 367
#     4  12  24  43  60  86 129 171 204 250 306 369
#
# _framework density 18.446550999999999
#
# number of rings (size 3 to 8) (size 9 to 14) (size 15 to 20)
#    0.000    1.143    4.286    3.000    4.000    1.429 
#    0.000    0.714    0.000    3.000    0.000    0.000 
#    0.000    0.000    0.000    0.000    0.000    0.000 
#
# Total GULP energy -156309.745952 kJ/mol
# GULP energy per Si atom -5582.490927 kJ/mol
# Density = 1.840457 g / cm^3
# Si number density = 18.446551 Si / 1000 Ang^3
#
#
#
# Elastic Constant Matrix: (Units=GPa)
#
#
# Indices 1 2 3 4 5 6 
#
# 1 48.2082 22.3319 26.4746 0.0000 -9.7759 0.0000
# 2 22.3319 117.7958 38.5268 0.0000 -6.9320 0.0000
# 3 26.4746 38.5268 128.2507 0.0000 -13.2786 0.0000
# 4 0.0000 0.0000 0.0000 28.2478 0.0000 -2.6232
# 5 -9.7759 -6.9320 -13.2786 0.0000 26.6591 0.0000
# 6 0.0000 0.0000 0.0000 -2.6232 0.0000 22.6313
#
#
#
# Elastic Compliance Matrix: (Units=1/GPa)
#
#
# Indices 1 2 3 4 5 6 
#
# 1 0.025609 -0.003280 -0.003603 0.000000 0.006743 0.000000
# 2 -0.003280 0.009865 -0.002262 0.000000 0.000236 0.000000
# 3 -0.003603 -0.002262 0.009513 0.000000 0.002829 0.000000
# 4 0.000000 0.000000 0.000000 0.035786 0.000000 0.004148
# 5 0.006743 0.000236 0.002829 0.000000 0.041454 0.000000
# 6 0.000000 0.000000 0.000000 0.004148 0.000000 0.044667
#
#
# Mechanical properties :
#
#
# Convention : Reuss Voigt Hill
#
# Bulk Modulus (GPa) = 37.45656 52.10237 44.77946
# Shear Modulus (GPa) = 25.76221 29.30240 27.53230
#
# Velocity S-wave (km/s) = 3.74115 3.98993 3.86754
# Velocity P-wave (km/s) = 6.24589 7.03792 6.65370
#
# Compressibility (1/GPa) = 0.02669760
#
# Stress axis : x y z
#
# Youngs Moduli (GPa) = 39.04920 101.37138 105.11493
#
# Poissons Ratio (x) = 0.33247 0.37873
# Poissons Ratio (y) = 0.12807 0.23776
# Poissons Ratio (z) = 0.14069 0.22930
#
# Static dielectric constant tensor:
#      x y z
#    x 1.618940 0.000000 0.018560 
#    y 0.000000 1.668800 0.000000 
#    z 0.018560 0.000000 1.672720 
# 
# From -- ./inp_files/80070.got.cif
#   From: 2010.05.17/outbox.cif.g08.bks.cpg/sg12_41_cif.got.tgz:80070.got - 2010.06.03 13:09:07.
