data_PCOD9221477
_publ_section_title
;
Structure prediction by ZEFSAII (Michael W. Deem and Ramdas Pophale) SiO2 
 PCOD9221477
Probable space group: C 2/M
;
_chemical_formula_sum "Si O2"
_cell_formula_units_Z 40
_cell_length_a 16.406629
_cell_length_b 28.077094
_cell_length_c 9.624214
_cell_angle_alpha 90.000000
_cell_angle_beta 151.580085
_cell_angle_gamma 90.000000
_cell_volume 2109.987112
_symmetry_space_group_name_H-M "C 2/M"
_symmetry_group_IT_number 12
_symmetry_cell_setting 'monoclinic'
loop_
_space_group_symop_operation_xyz
x,y,z
-x,y,-z
-x,-y,-z
x,-y,z
1/2+x,1/2+y,z
1/2-x,1/2+y,-z
1/2-x,1/2-y,-z
1/2+x,1/2-y,z
loop_
_atom_site_type_symbol
_atom_site_label
_atom_site_fract_x
_atom_site_fract_y
_atom_site_fract_z
Si Si1 0.509759 0.054302 0.346264
Si Si2 0.238796 0.715053 0.113541
Si Si3 0.845209 0.722952 0.519460
Si Si4 0.164516 0.109624 0.829114
Si Si5 0.675234 0.622529 0.177761
O O1 0.500000 0.053509 0.500000
O O2 0.673825 0.086029 0.552880
O O3 0.523712 0.000000 0.317850
O O4 0.331710 0.079159 0.040276
O O5 0.345354 0.739364 0.394785
O O6 0.303243 0.663220 0.172651
O O7 0.250000 0.750000 0.000000
O O8 0.038389 0.711150 0.852234
O O9 0.750000 0.750000 0.500000
O O10 0.747440 0.675703 0.318148
O O11 0.000000 0.090790 0.500000
O O12 0.144983 0.113456 0.967506
O O13 0.500000 0.615953 0.000000
#
# Coordination Sequence:
#
# PCOD9221477 Si02
#       5
#     8   8   8   8   8
#     4   9  20  42  70  93 120 163 211 257 310 368
#     4  12  23  38  60  86 123 165 209 246 300 365
#     4  12  25  40  56  90 125 167 205 253 306 366
#     4  11  23  40  63  94 124 163 208 256 305 368
#     4  11  23  41  62  92 129 161 206 257 308 368
#
# _framework density 18.957463000000001
#
# number of rings (size 3 to 8) (size 9 to 14) (size 15 to 20)
#    0.000    1.000    4.000    3.600    2.800    0.800 
#    0.000    1.000    0.000    1.200    0.000    0.000 
#    0.000    0.000    0.000    0.000    0.000    0.000 
#
# Total GULP energy -111763.090244 kJ/mol
# GULP energy per Si atom -5588.154512 kJ/mol
# Density = 1.891431 g / cm^3
# Si number density = 18.957463 Si / 1000 Ang^3
#
#
#
# Elastic Constant Matrix: (Units=GPa)
#
#
# Indices 1 2 3 4 5 6 
#
# 1 74.3627 38.0348 32.3632 0.0000 21.2908 0.0000
# 2 38.0348 129.9512 55.0107 0.0000 11.5120 0.0000
# 3 32.3632 55.0107 141.9890 0.0000 28.0298 0.0000
# 4 0.0000 0.0000 0.0000 22.1192 0.0000 6.2336
# 5 21.2908 11.5120 28.0298 0.0000 39.3541 0.0000
# 6 0.0000 0.0000 0.0000 6.2336 0.0000 18.1163
#
#
#
# Elastic Compliance Matrix: (Units=1/GPa)
#
#
# Indices 1 2 3 4 5 6 
#
# 1 0.018325 -0.004253 -0.000951 0.000000 -0.007992 0.000000
# 2 -0.004253 0.010193 -0.003311 0.000000 0.001677 0.000000
# 3 -0.000951 -0.003311 0.009599 0.000000 -0.005354 0.000000
# 4 0.000000 0.000000 0.000000 0.050064 0.000000 -0.017227
# 5 -0.007992 0.001677 -0.005354 0.000000 0.033057 0.000000
# 6 0.000000 0.000000 0.000000 -0.017227 0.000000 0.061126
#
#
# Mechanical properties :
#
#
# Convention : Reuss Voigt Hill
#
# Bulk Modulus (GPa) = 47.42177 66.34671 56.88424
# Shear Modulus (GPa) = 24.22202 30.64420 27.43311
#
# Velocity S-wave (km/s) = 3.57838 4.02490 3.80819
# Velocity P-wave (km/s) = 6.49170 7.52817 7.02907
#
# Compressibility (1/GPa) = 0.02108736
#
# Stress axis : x y z
#
# Youngs Moduli (GPa) = 54.56986 98.10802 104.17489
#
# Poissons Ratio (x) = 0.41723 0.09911
# Poissons Ratio (y) = 0.23207 0.34490
# Poissons Ratio (z) = 0.05192 0.32482
#
# Static dielectric constant tensor:
#      x y z
#    x 1.617780 0.000000 0.013090 
#    y 0.000000 1.629500 0.000000 
#    z 0.013090 0.000000 1.677050 
# 
# From -- ./inp_files/41390.got.cif
#   From: 2010.05.17/outbox.cif.g08.bks.cpg/sg12_21_cif.got.tgz:41390.got - 2010.06.03 13:09:07.
