data_PCOD9221873
_publ_section_title
;
Structure prediction by ZEFSAII (Michael W. Deem and Ramdas Pophale) SiO2 
 PCOD9221873
Probable space group: C 2/M
;
_chemical_formula_sum "Si O2"
_cell_formula_units_Z 36
_cell_length_a 18.297951
_cell_length_b 19.827303
_cell_length_c 4.884630
_cell_angle_alpha 90.000000
_cell_angle_beta 118.371789
_cell_angle_gamma 90.000000
_cell_volume 1559.274337
_symmetry_space_group_name_H-M "C 2/M"
_symmetry_group_IT_number 12
_symmetry_cell_setting 'monoclinic'
loop_
_space_group_symop_operation_xyz
x,y,z
-x,y,-z
-x,-y,-z
x,-y,z
1/2+x,1/2+y,z
1/2-x,1/2+y,-z
1/2-x,1/2-y,-z
1/2+x,1/2-y,z
loop_
_atom_site_type_symbol
_atom_site_label
_atom_site_fract_x
_atom_site_fract_y
_atom_site_fract_z
Si Si1 0.667405 0.294555 0.815537
Si Si2 0.922112 0.500000 0.157188
Si Si3 0.333453 0.612721 0.685354
Si Si4 0.925204 0.000000 0.573578
Si Si5 0.750490 0.000000 0.234922
Si Si6 0.000000 0.618729 0.000000
Si Si7 0.000000 0.713334 0.500000
O O1 0.663454 0.321522 0.500008
O O2 0.581089 0.256282 0.724402
O O3 0.750000 0.250000 0.000000
O O4 0.672144 0.359661 0.020769
O O5 0.828841 0.500000 0.097210
O O6 0.931816 0.566911 0.992914
O O7 0.000000 0.500000 0.500000
O O8 0.411655 0.565282 0.742006
O O9 0.258371 0.565359 0.445462
O O10 0.000000 0.000000 0.500000
O O11 0.839409 0.000000 0.242582
O O12 0.026521 0.665707 0.296225
#
# Coordination Sequence:
#
# PCOD9221873 Si02
#       7
#     8   4   8   4   4   4   4
#     4  12  26  45  71 100 144 189 239 291 358 431
#     4  11  23  45  73 105 140 188 227 308 353 432
#     4   9  24  45  70 105 137 183 244 291 362 432
#     4   8  20  43  74 102 141 186 233 318 362 422
#     4   8  23  41  77 104 142 182 240 301 370 415
#     4  11  26  46  68 104 142 181 240 286 366 423
#     4  12  28  43  70 101 142 192 232 288 352 434
#
# _framework density 23.087664
#
# number of rings (size 3 to 8) (size 9 to 14) (size 15 to 20)
#    1.333    0.222    1.111    2.000    7.778    3.556 
#    4.000    1.111    0.000    0.000    0.000    0.000 
#    0.000    0.000    0.000    0.000    0.000    0.000 
#
# Total GULP energy -100497.484761 kJ/mol
# GULP energy per Si atom -5583.193598 kJ/mol
# Density = 2.303511 g / cm^3
# Si number density = 23.087664 Si / 1000 Ang^3
#
#
#
# Elastic Constant Matrix: (Units=GPa)
#
#
# Indices 1 2 3 4 5 6 
#
# 1 134.8688 35.4614 49.9690 0.0000 39.2576 0.0000
# 2 35.4614 116.5977 29.3590 0.0000 12.4772 0.0000
# 3 49.9690 29.3590 88.3974 0.0000 10.7804 0.0000
# 4 0.0000 0.0000 0.0000 15.5025 0.0000 -41.6768
# 5 39.2576 12.4772 10.7804 0.0000 47.7259 0.0000
# 6 0.0000 0.0000 0.0000 -41.6768 0.0000 -60.5936
#
#
#
# Elastic Compliance Matrix: (Units=1/GPa)
#
#
# Indices 1 2 3 4 5 6 
#
# 1 0.012279 -0.001461 -0.005420 0.000000 -0.008494 0.000000
# 2 -0.001461 0.009685 -0.002292 0.000000 -0.000813 0.000000
# 3 -0.005420 -0.002292 0.014932 0.000000 0.001685 0.000000
# 4 0.000000 0.000000 0.000000 0.022641 0.000000 -0.015572
# 5 -0.008494 -0.000813 0.001685 0.000000 0.027772 0.000000
# 6 0.000000 0.000000 0.000000 -0.015572 0.000000 -0.005793
#
#
# Mechanical properties :
#
#
# Convention : Reuss Voigt Hill
#
# Bulk Modulus (GPa) = 53.90552 63.27140 58.58846
# Shear Modulus (GPa) = 47.14948 15.53194 31.34071
#
# Velocity S-wave (km/s) = 4.52397 2.59653 3.68838
# Velocity P-wave (km/s) = 7.11950 6.03769 6.60079
#
# Compressibility (1/GPa) = 0.01855097
#
# Stress axis : x y z
#
# Youngs Moduli (GPa) = 81.43692 103.25473 66.96972
#
# Poissons Ratio (x) = 0.15084 0.36299
# Poissons Ratio (y) = 0.11896 0.15347
# Poissons Ratio (z) = 0.44140 0.23663
#
# Static dielectric constant tensor:
#      x y z
#    x 1.892010 0.000000 0.057140 
#    y 0.000000 1.865600 0.000000 
#    z 0.057140 0.000000 1.910560 
# 
# From -- ./inp_files/15643.got.cif
#   From: 2010.05.17/outbox.cif.g08.bks.cpg/sg12_8_cif.got.tgz:15643.got - 2010.06.03 13:09:07.
