data_PCOD9221828
_publ_section_title
;
Structure prediction by ZEFSAII (Michael W. Deem and Ramdas Pophale) SiO2 
 PCOD9221828
Probable space group: C 2/M
;
_chemical_formula_sum "Si O2"
_cell_formula_units_Z 56
_cell_length_a 11.669751
_cell_length_b 27.973894
_cell_length_c 9.104712
_cell_angle_alpha 90.000000
_cell_angle_beta 55.552889
_cell_angle_gamma 90.000000
_cell_volume 2451.036029
_symmetry_space_group_name_H-M "C 2/M"
_symmetry_group_IT_number 12
_symmetry_cell_setting 'monoclinic'
loop_
_space_group_symop_operation_xyz
x,y,z
-x,y,-z
-x,-y,-z
x,-y,z
1/2+x,1/2+y,z
1/2-x,1/2+y,-z
1/2-x,1/2-y,-z
1/2+x,1/2-y,z
loop_
_atom_site_type_symbol
_atom_site_label
_atom_site_fract_x
_atom_site_fract_y
_atom_site_fract_z
Si Si1 0.573199 0.500000 0.288255
Si Si2 0.879971 0.722697 0.712430
Si Si3 0.158741 0.170678 0.325516
Si Si4 0.626255 0.000000 0.794506
Si Si5 0.461529 0.162369 0.195314
Si Si6 0.693966 0.633754 0.763453
Si Si7 0.419995 0.921686 0.417671
Si Si8 0.912045 0.898753 0.860966
O O1 0.500000 0.500000 0.500000
O O2 0.735899 0.500000 0.208654
O O3 0.541605 0.451439 0.222425
O O4 0.831534 0.777128 0.753634
O O5 0.760575 0.684767 0.755897
O O6 0.000000 0.719156 0.500000
O O7 0.954101 0.707821 0.809358
O O8 0.294711 0.168782 0.329890
O O9 0.174808 0.126393 0.203629
O O10 0.000000 0.166520 0.500000
O O11 0.620008 0.044052 0.685992
O O12 0.500000 0.000000 0.000000
O O13 0.505018 0.120819 0.277233
O O14 0.500000 0.151522 0.000000
O O15 0.789717 0.603753 0.586058
O O16 0.543775 0.635645 0.795741
O O17 0.670227 0.602623 0.927739
O O18 0.500000 0.943237 0.500000
#
# Coordination Sequence:
#
# PCOD9221828 Si02
#       8
#     4   8   8   4   8   8   8   8
#     4  12  26  51  74  99 152 189 240 296 378 429
#     4  11  24  45  70 102 145 198 236 301 366 443
#     4  11  26  42  71 103 149 189 250 294 371 437
#     4  12  29  44  74 113 143 185 243 312 356 435
#     4  12  24  42  70 101 140 189 238 299 360 431
#     4  11  23  44  71 100 143 188 247 295 359 437
#     4  12  24  45  71  98 144 187 236 290 372 427
#     4  11  26  43  72 106 139 192 244 306 354 439
#
# _framework density 22.847481999999999
#
# number of rings (size 3 to 8) (size 9 to 14) (size 15 to 20)
#    0.000    0.571    2.857    4.500    4.000    5.143 
#    0.000    0.000    0.000    0.000    0.000    0.000 
#    0.000    0.000    0.000    0.000    0.000    0.000 
#
# Total GULP energy -156638.588651 kJ/mol
# GULP energy per Si atom -5594.235309 kJ/mol
# Density = 2.279548 g / cm^3
# Si number density = 22.847482 Si / 1000 Ang^3
#
#
#
# Elastic Constant Matrix: (Units=GPa)
#
#
# Indices 1 2 3 4 5 6 
#
# 1 111.8317 9.7861 7.8490 0.0000 -5.3064 0.0000
# 2 9.7861 110.4725 26.5451 0.0000 12.5063 0.0000
# 3 7.8490 26.5451 128.4111 0.0000 0.4610 0.0000
# 4 0.0000 0.0000 0.0000 302.9399 0.0000 148.7148
# 5 -5.3064 12.5063 0.4610 0.0000 35.1903 0.0000
# 6 0.0000 0.0000 0.0000 148.7148 0.0000 95.4690
#
#
#
# Elastic Compliance Matrix: (Units=1/GPa)
#
#
# Indices 1 2 3 4 5 6 
#
# 1 0.009129 -0.000911 -0.000376 0.000000 0.001705 0.000000
# 2 -0.000911 0.010031 -0.002005 0.000000 -0.003676 0.000000
# 3 -0.000376 -0.002005 0.008223 0.000000 0.000548 0.000000
# 4 0.000000 0.000000 0.000000 0.014029 0.000000 -0.021853
# 5 0.001705 -0.003676 0.000548 0.000000 0.029973 0.000000
# 6 0.000000 0.000000 0.000000 -0.021853 0.000000 0.044515
#
#
# Mechanical properties :
#
#
# Convention : Reuss Voigt Hill
#
# Bulk Modulus (GPa) = 48.07939 48.78620 48.43279
# Shear Modulus (GPa) = 38.63495 107.15552 72.89524
#
# Velocity S-wave (km/s) = 4.11663 6.85581 5.65459
# Velocity P-wave (km/s) = 6.60945 9.16891 7.99230
#
# Compressibility (1/GPa) = 0.02079893
#
# Stress axis : x y z
#
# Youngs Moduli (GPa) = 109.54030 99.69501 121.61194
#
# Poissons Ratio (x) = 0.09087 0.04569
# Poissons Ratio (y) = 0.09984 0.24378
# Poissons Ratio (z) = 0.04116 0.19985
#
# Static dielectric constant tensor:
#      x y z
#    x 1.828770 0.000000 0.166520 
#    y 0.000000 1.887150 0.000000 
#    z 0.166520 0.000000 1.155900 
# 
# From -- ./inp_files/54648.got.cif
#   From: 2010.05.17/outbox.cif.g08.bks.cpg/sg12_28_cif.got.tgz:54648.got - 2010.06.03 13:09:07.
