data_PCOD9221551
_publ_section_title
;
Structure prediction by ZEFSAII (Michael W. Deem and Ramdas Pophale) SiO2 
 PCOD9221551
Probable space group: C 2/M
;
_chemical_formula_sum "Si O2"
_cell_formula_units_Z 64
_cell_length_a 9.541684
_cell_length_b 29.220957
_cell_length_c 20.104537
_cell_angle_alpha 90.000000
_cell_angle_beta 36.717415
_cell_angle_gamma 90.000000
_cell_volume 3351.347362
_symmetry_space_group_name_H-M "C 2/M"
_symmetry_group_IT_number 12
_symmetry_cell_setting 'monoclinic'
loop_
_space_group_symop_operation_xyz
x,y,z
-x,y,-z
-x,-y,-z
x,-y,z
1/2+x,1/2+y,z
1/2-x,1/2+y,-z
1/2-x,1/2-y,-z
1/2+x,1/2-y,z
loop_
_atom_site_type_symbol
_atom_site_label
_atom_site_fract_x
_atom_site_fract_y
_atom_site_fract_z
Si Si1 0.622759 0.366125 0.617585
Si Si2 0.180383 0.447300 0.061901
Si Si3 0.288927 0.448228 0.178164
Si Si4 0.599477 0.121705 0.356016
Si Si5 0.400045 0.807907 0.756348
Si Si6 0.405952 0.139484 0.194631
Si Si7 0.238636 0.764738 0.580043
Si Si8 0.494772 0.231030 0.077425
O O1 0.720072 0.384302 0.651322
O O2 0.361733 0.377478 0.692472
O O3 0.602630 0.311725 0.636312
O O4 0.834351 0.376913 0.485765
O O5 0.106662 0.500000 0.072607
O O6 0.210199 0.446901 0.130990
O O7 0.022783 0.402673 0.110331
O O8 0.432665 0.438619 0.932186
O O9 0.259137 0.500000 0.212873
O O10 0.151629 0.416216 0.280885
O O11 0.636810 0.168844 0.301379
O O12 0.453471 0.846494 0.791295
O O13 0.627624 0.775375 0.665587
O O14 0.185199 0.773768 0.851283
O O15 0.422722 0.187597 0.149003
O O16 0.500000 0.775994 0.500000
O O17 0.250000 0.750000 0.500000
O O18 0.500000 0.214657 0.000000
O O19 0.750000 0.250000 0.000000
#
# Coordination Sequence:
#
# PCOD9221551 Si02
#       8
#     8   8   8   8   8   8   8   8
#     4  11  24  40  58  92 129 172 212 258 314 381
#     4   9  20  41  68  99 124 156 215 270 323 390
#     4   9  19  40  71  97 120 157 207 266 326 389
#     4  11  23  41  63  91 128 165 217 260 317 383
#     4  12  25  38  62  88 123 171 216 261 309 384
#     4  12  25  41  64  93 129 170 214 266 329 370
#     4  12  21  37  57  82 119 162 210 256 296 357
#     4  12  28  42  57  90 132 174 218 263 321 386
#
# _framework density 19.096796999999999
#
# number of rings (size 3 to 8) (size 9 to 14) (size 15 to 20)
#    0.000    1.000    6.250    1.500    5.250    0.000 
#    0.000    2.500    0.000    3.375    0.000    0.000 
#    0.000    0.000    0.000    0.000    0.000    0.000 
#
# Total GULP energy -178462.910053 kJ/mol
# GULP energy per Si atom -5576.965939 kJ/mol
# Density = 1.905333 g / cm^3
# Si number density = 19.096797 Si / 1000 Ang^3
#
#
#
# Elastic Constant Matrix: (Units=GPa)
#
#
# Indices 1 2 3 4 5 6 
#
# 1 62.7063 10.4425 30.6197 0.0000 -1.7788 0.0000
# 2 10.4425 86.1905 44.1700 0.0000 -10.4276 0.0000
# 3 30.6197 44.1700 83.1822 0.0001 1.6665 0.0000
# 4 0.0000 0.0000 0.0001 37.2968 0.0000 4.2278
# 5 -1.7788 -10.4276 1.6665 0.0000 33.3775 0.0000
# 6 0.0000 0.0000 0.0000 4.2278 0.0000 11.2573
#
#
#
# Elastic Compliance Matrix: (Units=1/GPa)
#
#
# Indices 1 2 3 4 5 6 
#
# 1 0.019795 0.002228 -0.008513 0.000000 0.002176 0.000000
# 2 0.002228 0.017229 -0.010089 0.000000 0.006005 0.000000
# 3 -0.008513 -0.010089 0.020606 0.000000 -0.004635 0.000000
# 4 0.000000 0.000000 0.000000 0.028004 0.000000 -0.010517
# 5 0.002176 0.006005 -0.004635 0.000000 0.032184 0.000000
# 6 0.000000 0.000000 0.000000 -0.010517 0.000000 0.092781
#
#
# Mechanical properties :
#
#
# Convention : Reuss Voigt Hill
#
# Bulk Modulus (GPa) = 40.19146 44.72705 42.45925
# Shear Modulus (GPa) = 19.86948 26.17610 23.02279
#
# Velocity S-wave (km/s) = 3.22912 3.70632 3.47592
# Velocity P-wave (km/s) = 5.91564 6.46435 6.19607
#
# Compressibility (1/GPa) = 0.02488091
#
# Stress axis : x y z
#
# Youngs Moduli (GPa) = 50.51750 58.04104 48.53019
#
# Poissons Ratio (x) = -0.12930 0.41315
# Poissons Ratio (y) = -0.11254 0.48963
# Poissons Ratio (z) = 0.43006 0.58558
#
# Static dielectric constant tensor:
#      x y z
#    x 1.632980 0.000000 -0.007480 
#    y 0.000000 1.668280 0.000000 
#    z -0.007480 0.000000 1.667650 
# 
# From -- ./inp_files/260315.got.cif
#   From: 2010.05.17/outbox.cif.g08.bks.cpg/sg12_131_cif.got.tgz:260315.got - 2010.06.03 13:09:07.
