data_PCOD9221021
_publ_section_title
;
Structure prediction by ZEFSAII (Michael W. Deem and Ramdas Pophale) SiO2 
 PCOD9221021
Probable space group: C 2/M
;
_chemical_formula_sum "Si O2"
_cell_formula_units_Z 40
_cell_length_a 18.051535
_cell_length_b 16.843731
_cell_length_c 12.149181
_cell_angle_alpha 90.000000
_cell_angle_beta 28.762409
_cell_angle_gamma 90.000000
_cell_volume 1777.484306
_symmetry_space_group_name_H-M "C 2/M"
_symmetry_group_IT_number 12
_symmetry_cell_setting 'monoclinic'
loop_
_space_group_symop_operation_xyz
x,y,z
-x,y,-z
-x,-y,-z
x,-y,z
1/2+x,1/2+y,z
1/2-x,1/2+y,-z
1/2-x,1/2-y,-z
1/2+x,1/2-y,z
loop_
_atom_site_type_symbol
_atom_site_label
_atom_site_fract_x
_atom_site_fract_y
_atom_site_fract_z
Si Si1 0.170442 0.670036 0.642683
Si Si2 0.217507 0.334532 0.158156
Si Si3 0.108140 0.910176 0.257552
Si Si4 0.309975 0.832291 0.137284
Si Si5 0.589404 0.909225 0.531523
O O1 0.250000 0.750000 0.500000
O O2 0.237223 0.649291 0.675733
O O3 0.170521 0.608867 0.541676
O O4 0.990110 0.684477 0.897769
O O5 0.232146 0.245654 0.185112
O O6 0.206005 0.390668 0.279751
O O7 0.056205 0.351111 0.304266
O O8 0.357927 0.358076 0.894533
O O9 0.270248 0.906180 0.111741
O O10 0.000000 0.882428 0.500000
O O11 0.065811 0.000000 0.283371
O O12 0.536608 0.000000 0.593637
#
# Coordination Sequence:
#
# PCOD9221021 Si02
#       5
#     8   8   8   8   8
#     4  11  24  43  63  94 132 173 220 264 324 395
#     4  11  22  40  69  99 128 165 224 277 330 386
#     4  11  25  41  63  98 137 173 218 273 333 391
#     4  11  25  40  67  95 131 178 218 272 323 393
#     4  11  23  41  71 100 127 167 216 279 333 385
#
# _framework density 22.503713999999999
#
# number of rings (size 3 to 8) (size 9 to 14) (size 15 to 20)
#    0.000    1.000    4.000    3.000    5.600    0.800 
#    0.000    2.000    0.000    1.200    0.000    0.000 
#    0.000    0.000    0.000    0.000    0.000    0.000 
#
# Total GULP energy -111633.371780 kJ/mol
# GULP energy per Si atom -5581.668589 kJ/mol
# Density = 2.245249 g / cm^3
# Si number density = 22.503714 Si / 1000 Ang^3
#
#
#
# Elastic Constant Matrix: (Units=GPa)
#
#
# Indices 1 2 3 4 5 6 
#
# 1 112.2217 34.5379 26.6988 -0.0005 47.5486 0.0006
# 2 34.5379 84.7573 10.7727 -0.0007 8.6523 0.0004
# 3 26.6988 10.7727 104.4384 -0.0010 34.4289 0.0002
# 4 -0.0005 -0.0007 -0.0010 13.4990 0.0004 -5.4468
# 5 47.5486 8.6523 34.4289 0.0004 44.3686 -0.0002
# 6 0.0006 0.0004 0.0002 -5.4468 -0.0002 19.1273
#
#
#
# Elastic Compliance Matrix: (Units=1/GPa)
#
#
# Indices 1 2 3 4 5 6 
#
# 1 0.019270 -0.006000 0.002842 0.000001 -0.021686 0.000000
# 2 -0.006000 0.013937 -0.001515 0.000000 0.004887 0.000000
# 3 0.002842 -0.001515 0.013318 0.000001 -0.013085 0.000000
# 4 0.000001 0.000000 0.000001 0.083697 -0.000003 0.023834
# 5 -0.021686 0.004887 -0.013085 -0.000003 0.054979 0.000001
# 6 0.000000 0.000000 0.000000 0.023834 0.000001 0.059068
#
#
# Mechanical properties :
#
#
# Convention : Reuss Voigt Hill
#
# Bulk Modulus (GPa) = 26.89704 49.49292 38.19498
# Shear Modulus (GPa) = 18.79645 30.69283 24.74464
#
# Velocity S-wave (km/s) = 2.89322 3.69711 3.31959
# Velocity P-wave (km/s) = 4.81032 6.34553 5.63050
#
# Compressibility (1/GPa) = 0.03717881
#
# Stress axis : x y z
#
# Youngs Moduli (GPa) = 51.89487 71.75225 75.08478
#
# Poissons Ratio (x) = 0.43049 -0.21336
# Poissons Ratio (y) = 0.31135 0.11375
# Poissons Ratio (z) = -0.14747 0.10870
#
# Static dielectric constant tensor:
#      x y z
#    x 1.894270 0.000000 0.000100 
#    y 0.000000 1.789300 0.000000 
#    z 0.000100 0.000000 1.955420 
# 
# From -- ./inp_files/158448.got.cif
#   From: 2010.05.17/outbox.cif.g08.bks.cpg/sg12_80_cif.got.tgz:158448.got - 2010.06.03 13:09:07.
