data_PCOD9221662
_publ_section_title
;
Structure prediction by ZEFSAII (Michael W. Deem and Ramdas Pophale) SiO2 
 PCOD9221662
Probable space group: C 2/M
;
_chemical_formula_sum "Si O2"
_cell_formula_units_Z 50
_cell_length_a 8.723821
_cell_length_b 17.399137
_cell_length_c 18.263347
_cell_angle_alpha 90.000000
_cell_angle_beta 124.509703
_cell_angle_gamma 90.000000
_cell_volume 2284.325472
_symmetry_space_group_name_H-M "C 2/M"
_symmetry_group_IT_number 12
_symmetry_cell_setting 'monoclinic'
loop_
_space_group_symop_operation_xyz
x,y,z
-x,y,-z
-x,-y,-z
x,-y,z
1/2+x,1/2+y,z
1/2-x,1/2+y,-z
1/2-x,1/2-y,-z
1/2+x,1/2-y,z
loop_
_atom_site_type_symbol
_atom_site_label
_atom_site_fract_x
_atom_site_fract_y
_atom_site_fract_z
Si Si1 0.960905 0.639831 0.381852
Si Si2 0.000000 0.500000 0.500000
Si Si3 0.176711 0.791856 0.595928
Si Si4 0.722767 0.911247 0.072711
Si Si5 0.171140 0.348458 0.214106
Si Si6 0.506820 0.706922 0.082116
Si Si7 0.315401 0.913896 0.189954
O O1 0.135996 0.685785 0.395699
O O2 0.026246 0.567570 0.445281
O O3 0.843355 0.700667 0.397095
O O4 0.842743 0.608230 0.281904
O O5 0.193197 0.827463 0.682083
O O6 0.000000 0.817430 0.500000
O O7 0.760107 0.888201 0.167457
O O8 0.830917 0.845774 0.056190
O O9 0.782330 0.000000 0.074021
O O10 0.500000 0.910208 0.000000
O O11 0.066705 0.271013 0.157283
O O12 0.012420 0.403215 0.203686
O O13 0.673134 0.646547 0.120099
O O14 0.500000 0.743415 0.000000
O O15 0.248390 0.000000 0.163250
#
# Coordination Sequence:
#
# PCOD9221662 Si02
#       7
#     8   2   8   8   8   8   8
#     4  11  24  43  70  97 135 176 225 277 334 398
#     4  12  24  44  70 100 134 178 222 284 338 390
#     4  11  24  44  72  99 134 182 226 272 337 404
#     4  11  25  45  67  96 133 177 216 270 340 396
#     4  11  24  42  69  95 134 171 223 276 325 395
#     4  12  25  42  66  98 129 170 225 276 328 400
#     4  11  23  42  65  96 133 173 216 269 334 393
#
# _framework density 21.888297999999999
#
# number of rings (size 3 to 8) (size 9 to 14) (size 15 to 20)
#    0.000    0.800    3.200    3.840    2.240    4.480 
#    0.000    0.400    0.000    0.000    0.000    0.000 
#    0.000    0.000    0.000    0.000    0.000    0.000 
#
# Total GULP energy -139626.675235 kJ/mol
# GULP energy per Si atom -5585.067009 kJ/mol
# Density = 2.183848 g / cm^3
# Si number density = 21.888298 Si / 1000 Ang^3
#
#
#
# Elastic Constant Matrix: (Units=GPa)
#
#
# Indices 1 2 3 4 5 6 
#
# 1 43.9265 24.7412 28.6900 0.0000 -16.6511 0.0001
# 2 24.7412 132.1694 26.2281 0.0000 -11.9430 0.0000
# 3 28.6900 26.2281 115.1457 0.0000 -20.2212 0.0000
# 4 0.0000 0.0000 0.0000 -44.9553 0.0000 -143.9546
# 5 -16.6511 -11.9430 -20.2212 0.0000 28.1787 0.0001
# 6 0.0001 0.0000 0.0000 -143.9546 0.0001 -311.3645
#
#
#
# Elastic Compliance Matrix: (Units=1/GPa)
#
#
# Indices 1 2 3 4 5 6 
#
# 1 0.033842 -0.004024 -0.004924 0.000000 0.014759 0.000000
# 2 -0.004024 0.008542 -0.000829 0.000000 0.000647 0.000000
# 3 -0.004924 -0.000829 0.010902 0.000000 0.004562 0.000000
# 4 0.000000 0.000000 0.000000 0.046297 0.000000 -0.021404
# 5 0.014759 0.000647 0.004562 0.000000 0.047757 0.000000
# 6 0.000000 0.000000 0.000000 -0.021404 0.000000 0.006684
#
#
# Mechanical properties :
#
#
# Convention : Reuss Voigt Hill
#
# Bulk Modulus (GPa) = 29.64595 50.06224 39.85409
# Shear Modulus (GPa) = 27.05288 -51.52274 -12.23493
#
# Velocity S-wave (km/s) = 3.51942 -4.85696 -2.36682
# Velocity P-wave (km/s) = 5.48532 2.92097 3.28304
#
# Compressibility (1/GPa) = 0.03373143
#
# Stress axis : x y z
#
# Youngs Moduli (GPa) = 29.54870 117.06222 91.73010
#
# Poissons Ratio (x) = 0.47110 0.45165
# Poissons Ratio (y) = 0.11891 0.07608
# Poissons Ratio (z) = 0.14549 0.09709
#
# Static dielectric constant tensor:
#      x y z
#    x 1.799780 0.000000 -0.010270 
#    y 0.000000 1.752110 0.000000 
#    z -0.010270 0.000000 1.850530 
# 
# From -- ./inp_files/257263.got.cif
#   From: 2010.05.17/outbox.cif.g08.bks.cpg/sg12_129_cif.got.tgz:257263.got - 2010.06.03 13:09:07.
