data_PCOD9221706
_publ_section_title
;
Structure prediction by ZEFSAII (Michael W. Deem and Ramdas Pophale) SiO2 
 PCOD9221706
Probable space group: C 2/M
;
_chemical_formula_sum "Si O2"
_cell_formula_units_Z 36
_cell_length_a 23.219658
_cell_length_b 14.306539
_cell_length_c 14.421709
_cell_angle_alpha 90.000000
_cell_angle_beta 160.882397
_cell_angle_gamma 90.000000
_cell_volume 1569.022996
_symmetry_space_group_name_H-M "C 2/M"
_symmetry_group_IT_number 12
_symmetry_cell_setting 'monoclinic'
loop_
_space_group_symop_operation_xyz
x,y,z
-x,y,-z
-x,-y,-z
x,-y,z
1/2+x,1/2+y,z
1/2-x,1/2+y,-z
1/2-x,1/2-y,-z
1/2+x,1/2-y,z
loop_
_atom_site_type_symbol
_atom_site_label
_atom_site_fract_x
_atom_site_fract_y
_atom_site_fract_z
Si Si1 0.676090 0.697807 0.281896
Si Si2 0.807718 0.792522 0.185138
Si Si3 0.380428 0.500000 0.047629
Si Si4 0.677748 0.000000 0.546019
Si Si5 0.019342 0.798195 0.221255
Si Si6 0.731439 0.000000 0.025976
O O1 0.750000 0.750000 0.500000
O O2 0.749663 0.591860 0.395637
O O3 0.480580 0.697635 0.044840
O O4 0.835469 0.759753 0.483329
O O5 0.811494 0.904164 0.184863
O O6 0.000000 0.754732 0.500000
O O7 0.750000 0.750000 0.000000
O O8 0.653046 0.760750 0.016904
O O9 0.740886 0.500000 0.227753
O O10 0.495257 0.406371 0.212660
O O11 0.266766 0.500000 0.968704
O O12 0.470513 0.000000 0.246883
#
# Coordination Sequence:
#
# PCOD9221706 Si02
#       6
#     8   8   4   4   8   4
#     4  11  23  42  69  99 139 186 232 302 353 429
#     4  12  28  48  75 105 146 193 239 300 360 428
#     4  12  24  41  70 105 141 185 241 306 350 436
#     4  12  23  43  72 105 140 188 243 298 362 430
#     4  11  25  42  67 103 137 181 244 288 364 418
#     4  12  26  45  68 105 146 188 235 292 369 430
#
# _framework density 22.944215
#
# number of rings (size 3 to 8) (size 9 to 14) (size 15 to 20)
#    0.000    0.444    6.667    1.667    6.222    0.000 
#    0.000    0.556    0.000    0.000    0.000    0.000 
#    0.000    0.000    0.000    0.000    0.000    0.000 
#
# Total GULP energy -100283.934322 kJ/mol
# GULP energy per Si atom -5571.329685 kJ/mol
# Density = 2.289199 g / cm^3
# Si number density = 22.944215 Si / 1000 Ang^3
#
#
#
# Elastic Constant Matrix: (Units=GPa)
#
#
# Indices 1 2 3 4 5 6 
#
# 1 161.6585 53.3308 51.7679 0.0000 3.8414 0.0000
# 2 53.3308 183.1961 80.4739 0.0000 -0.5786 0.0000
# 3 51.7679 80.4739 232.8899 0.0000 10.7421 0.0000
# 4 0.0000 0.0000 0.0000 25.7885 0.0000 19.5607
# 5 3.8414 -0.5786 10.7421 0.0000 8.4540 0.0000
# 6 0.0000 0.0000 0.0000 19.5607 0.0000 10.4406
#
#
#
# Elastic Compliance Matrix: (Units=1/GPa)
#
#
# Indices 1 2 3 4 5 6 
#
# 1 0.007077 -0.001675 -0.000893 0.000000 -0.002195 0.000000
# 2 -0.001675 0.006929 -0.002208 0.000000 0.004041 0.000000
# 3 -0.000893 -0.002208 0.005570 0.000000 -0.006823 0.000000
# 4 0.000000 0.000000 0.000000 -0.092091 0.000000 0.172535
# 5 -0.002195 0.004041 -0.006823 0.000000 0.128231 0.000000
# 6 0.000000 0.000000 0.000000 0.172535 0.000000 -0.227468
#
#
# Mechanical properties :
#
#
# Convention : Reuss Voigt Hill
#
# Bulk Modulus (GPa) = 99.76673 105.43217 102.59945
# Shear Modulus (GPa) = -31.47446 35.08143 1.80349
#
# Velocity S-wave (km/s) = -3.70778 3.91447 0.88755
# Velocity P-wave (km/s) = 5.02460 8.15365 6.77232
#
# Compressibility (1/GPa) = 0.01002338
#
# Stress axis : x y z
#
# Youngs Moduli (GPa) = 141.31256 144.32021 179.52613
#
# Poissons Ratio (x) = 0.24169 0.16033
# Poissons Ratio (y) = 0.23666 0.39647
# Poissons Ratio (z) = 0.12620 0.31872
#
# Static dielectric constant tensor:
#      x y z
#    x 1.708760 0.000000 -0.202520 
#    y 0.000000 1.785460 0.000000 
#    z -0.202520 0.000000 1.729680 
# 
# From -- ./inp_files/240842.got.cif
#   From: 2010.05.17/outbox.cif.g08.bks.cpg/sg12_121_cif.got.tgz:240842.got - 2010.06.03 13:09:07.
