data_PCOD9221461
_publ_section_title
;
Structure prediction by ZEFSAII (Michael W. Deem and Ramdas Pophale) SiO2 
 PCOD9221461
Probable space group: C 2/M
;
_chemical_formula_sum "Si O2"
_cell_formula_units_Z 40
_cell_length_a 12.016773
_cell_length_b 23.455505
_cell_length_c 8.927726
_cell_angle_alpha 90.000000
_cell_angle_beta 128.843016
_cell_angle_gamma 90.000000
_cell_volume 1959.913815
_symmetry_space_group_name_H-M "C 2/M"
_symmetry_group_IT_number 12
_symmetry_cell_setting 'monoclinic'
loop_
_space_group_symop_operation_xyz
x,y,z
-x,y,-z
-x,-y,-z
x,-y,z
1/2+x,1/2+y,z
1/2-x,1/2+y,-z
1/2-x,1/2-y,-z
1/2+x,1/2-y,z
loop_
_atom_site_type_symbol
_atom_site_label
_atom_site_fract_x
_atom_site_fract_y
_atom_site_fract_z
Si Si1 0.400505 0.863178 0.285734
Si Si2 0.612014 0.649736 0.211471
Si Si3 0.843799 0.145532 0.427771
Si Si4 0.070691 0.280145 0.217719
Si Si5 0.656905 0.934099 0.056785
O O1 0.500000 0.888558 0.500000
O O2 0.257970 0.841575 0.245092
O O3 0.487791 0.812456 0.279234
O O4 0.358847 0.906976 0.120587
O O5 0.639272 0.618904 0.391638
O O6 0.555904 0.712319 0.211977
O O7 0.500000 0.623620 0.000000
O O8 0.733867 0.198312 0.352385
O O9 0.766687 0.102499 0.248671
O O10 0.000000 0.161253 0.500000
O O11 0.000000 0.297825 0.000000
O O12 0.700230 0.000000 0.086527
O O13 0.500000 0.931221 0.000000
#
# Coordination Sequence:
#
# PCOD9221461 Si02
#       5
#     8   8   8   8   8
#     4  12  22  41  65  93 136 161 214 268 306 378
#     4  11  26  37  61  97 134 173 206 256 320 369
#     4  12  23  41  64  91 131 164 217 260 310 383
#     4  11  23  40  61  93 128 177 213 244 311 388
#     4  11  23  45  71  92 120 169 220 266 318 374
#
# _framework density 20.40906
#
# number of rings (size 3 to 8) (size 9 to 14) (size 15 to 20)
#    0.000    0.600    6.000    1.800    2.800    2.400 
#    0.000    1.000    0.000    2.400    0.000    0.000 
#    0.000    0.000    0.000    0.000    0.000    0.000 
#
# Total GULP energy -111836.232907 kJ/mol
# GULP energy per Si atom -5591.811645 kJ/mol
# Density = 2.036261 g / cm^3
# Si number density = 20.409060 Si / 1000 Ang^3
#
#
#
# Elastic Constant Matrix: (Units=GPa)
#
#
# Indices 1 2 3 4 5 6 
#
# 1 129.5665 -4.9221 34.8391 0.0000 -0.5397 0.0000
# 2 -4.9221 50.8158 14.5333 0.0000 -15.1883 0.0000
# 3 34.8391 14.5333 185.5709 0.0000 -22.0057 0.0000
# 4 0.0000 0.0000 0.0000 8.3102 0.0000 2.5978
# 5 -0.5397 -15.1883 -22.0057 0.0000 44.1400 0.0000
# 6 0.0000 0.0000 0.0000 2.5978 0.0000 9.5671
#
#
#
# Elastic Compliance Matrix: (Units=1/GPa)
#
#
# Indices 1 2 3 4 5 6 
#
# 1 0.008211 0.001175 -0.001673 0.000000 -0.000329 0.000000
# 2 0.001175 0.022237 -0.001119 0.000000 0.007108 0.000000
# 3 -0.001673 -0.001119 0.006103 0.000000 0.002637 0.000000
# 4 0.000000 0.000000 0.000000 0.131496 0.000000 -0.035707
# 5 -0.000329 0.007108 0.002637 0.000000 0.026412 0.000000
# 6 0.000000 0.000000 0.000000 -0.035707 0.000000 0.114221
#
#
# Mechanical properties :
#
#
# Convention : Reuss Voigt Hill
#
# Bulk Modulus (GPa) = 30.01336 50.53931 40.27633
# Shear Modulus (GPa) = 15.47894 33.83699 24.65796
#
# Velocity S-wave (km/s) = 2.75696 4.07620 3.47967
# Velocity P-wave (km/s) = 4.98721 6.85352 5.99346
#
# Compressibility (1/GPa) = 0.03331850
#
# Stress axis : x y z
#
# Youngs Moduli (GPa) = 121.78672 44.96928 163.84929
#
# Poissons Ratio (x) = -0.05286 0.27406
# Poissons Ratio (y) = -0.14314 0.18340
# Poissons Ratio (z) = 0.20370 0.05034
#
# Static dielectric constant tensor:
#      x y z
#    x 1.715840 0.000000 -0.010440 
#    y 0.000000 1.691620 0.000000 
#    z -0.010440 0.000000 1.786060 
# 
# From -- ./inp_files/52344.got.cif
#   From: 2010.05.17/outbox.cif.g08.bks.cpg/sg12_27_cif.got.tgz:52344.got - 2010.06.03 13:09:07.
