data_PCOD9221366
_publ_section_title
;
Structure prediction by ZEFSAII (Michael W. Deem and Ramdas Pophale) SiO2 
 PCOD9221366
Probable space group: C 2/M
;
_chemical_formula_sum "Si O2"
_cell_formula_units_Z 56
_cell_length_a 16.610657
_cell_length_b 8.083329
_cell_length_c 18.483138
_cell_angle_alpha 90.000000
_cell_angle_beta 112.420796
_cell_angle_gamma 90.000000
_cell_volume 2294.120931
_symmetry_space_group_name_H-M "C 2/M"
_symmetry_group_IT_number 12
_symmetry_cell_setting 'monoclinic'
loop_
_space_group_symop_operation_xyz
x,y,z
-x,y,-z
-x,-y,-z
x,-y,z
1/2+x,1/2+y,z
1/2-x,1/2+y,-z
1/2-x,1/2-y,-z
1/2+x,1/2-y,z
loop_
_atom_site_type_symbol
_atom_site_label
_atom_site_fract_x
_atom_site_fract_y
_atom_site_fract_z
Si Si1 0.000834 0.692419 0.689329
Si Si2 0.238110 0.692880 0.265533
Si Si3 0.116401 0.307858 0.594540
Si Si4 0.243205 0.801568 0.885630
Si Si5 0.111693 0.200132 0.965144
Si Si6 0.651717 0.690718 0.453471
Si Si7 0.953559 0.807583 0.823035
O O1 0.020776 0.500000 0.709666
O O2 0.902981 0.708420 0.624097
O O3 0.007004 0.790973 0.766138
O O4 0.061039 0.754744 0.644078
O O5 0.259700 0.500000 0.282817
O O6 0.283571 0.790975 0.345240
O O7 0.274033 0.758643 0.200917
O O8 0.134985 0.710970 0.221398
O O9 0.094510 0.500000 0.575421
O O10 0.105830 0.215081 0.515746
O O11 0.175626 0.739687 0.922419
O O12 0.237478 0.000000 0.881799
O O13 0.339873 0.755579 0.945961
O O14 0.015313 0.253268 0.909185
O O15 0.110562 0.000000 0.964642
O O16 0.650590 0.500000 0.431777
O O17 0.750000 0.750000 0.500000
O O18 0.932279 0.000000 0.828141
#
# Coordination Sequence:
#
# PCOD9221366 Si02
#       7
#     8   8   8   8   8   8   8
#     4  11  24  42  64  90 120 154 195 242 291 346
#     4  11  23  39  59  85 119 156 197 243 293 349
#     4  11  24  42  64  90 120 154 195 242 291 346
#     4   9  19  36  58  83 112 149 193 241 292 348
#     4   9  19  36  58  83 112 149 193 241 292 348
#     4  12  25  42  65  91 123 159 195 238 289 344
#     4  11  23  39  59  85 119 156 197 243 293 349
#
# _framework density 24.410222000000001
#
# number of rings (size 3 to 8) (size 9 to 14) (size 15 to 20)
#    0.000    1.429    0.000    5.143    0.000    8.000 
#    0.000    5.714    0.000    0.000    0.000    0.000 
#    0.000    0.000    0.000    0.000    0.000    0.000 
#
# Total GULP energy -156788.895899 kJ/mol
# GULP energy per Si atom -5599.603425 kJ/mol
# Density = 2.435466 g / cm^3
# Si number density = 24.410222 Si / 1000 Ang^3
#
#
#
# Elastic Constant Matrix: (Units=GPa)
#
#
# Indices 1 2 3 4 5 6 
#
# 1 62.1740 -6.5314 -5.2183 0.0000 9.2398 0.0000
# 2 -6.5314 47.8478 -3.2720 0.0000 -1.4256 0.0000
# 3 -5.2183 -3.2720 115.8986 0.0000 16.3078 0.0000
# 4 0.0000 0.0000 0.0000 25.5326 0.0000 -0.4977
# 5 9.2398 -1.4256 16.3078 0.0000 40.5954 0.0000
# 6 0.0000 0.0000 0.0000 -0.4977 0.0000 24.5132
#
#
#
# Elastic Compliance Matrix: (Units=1/GPa)
#
#
# Indices 1 2 3 4 5 6 
#
# 1 0.017101 0.002303 0.001453 0.000000 -0.004395 0.000000
# 2 0.002303 0.021261 0.000713 0.000000 -0.000064 0.000000
# 3 0.001453 0.000713 0.009281 0.000000 -0.004034 0.000000
# 4 0.000000 0.000000 0.000000 0.039181 0.000000 0.000795
# 5 -0.004395 -0.000064 -0.004034 0.000000 0.027252 0.000000
# 6 0.000000 0.000000 0.000000 0.000795 0.000000 0.040810
#
#
# Mechanical properties :
#
#
# Convention : Reuss Voigt Hill
#
# Bulk Modulus (GPa) = 17.67363 21.76411 19.71887
# Shear Modulus (GPa) = 30.33810 34.19105 32.26457
#
# Velocity S-wave (km/s) = 3.52922 3.74663 3.63955
# Velocity P-wave (km/s) = 4.88500 5.25849 5.07518
#
# Compressibility (1/GPa) = 0.05658146
#
# Stress axis : x y z
#
# Youngs Moduli (GPa) = 58.47617 47.03492 107.74172
#
# Poissons Ratio (x) = -0.10831 -0.15660
# Poissons Ratio (y) = -0.13466 -0.07681
# Poissons Ratio (z) = -0.08499 -0.03353
#
# Static dielectric constant tensor:
#      x y z
#    x 2.050830 0.000000 -0.003220 
#    y 0.000000 1.820240 0.000000 
#    z -0.003220 0.000000 1.901650 
# 
# From -- ./inp_files/314364.got.cif
#   From: 2010.05.17/outbox.cif.g08.bks.cpg/sg12_158_cif.got.tgz:314364.got - 2010.06.03 13:09:07.
