data_PCOD9221777
_publ_section_title
;
Structure prediction by ZEFSAII (Michael W. Deem and Ramdas Pophale) SiO2 
 PCOD9221777
Probable space group: C 2/M
;
_chemical_formula_sum "Si O2"
_cell_formula_units_Z 44
_cell_length_a 30.082746
_cell_length_b 7.531360
_cell_length_c 9.447655
_cell_angle_alpha 90.000000
_cell_angle_beta 69.516072
_cell_angle_gamma 90.000000
_cell_volume 2005.155530
_symmetry_space_group_name_H-M "C 2/M"
_symmetry_group_IT_number 12
_symmetry_cell_setting 'monoclinic'
loop_
_space_group_symop_operation_xyz
x,y,z
-x,y,-z
-x,-y,-z
x,-y,z
1/2+x,1/2+y,z
1/2-x,1/2+y,-z
1/2-x,1/2-y,-z
1/2+x,1/2-y,z
loop_
_atom_site_type_symbol
_atom_site_label
_atom_site_fract_x
_atom_site_fract_y
_atom_site_fract_z
Si Si1 0.797313 0.288362 0.035065
Si Si2 0.598432 0.298675 0.131987
Si Si3 0.610222 0.295898 0.567785
Si Si4 0.551530 0.714794 0.895732
Si Si5 0.593322 0.000000 0.353624
Si Si6 0.202352 0.288550 0.639342
O O1 0.805100 0.500000 0.023708
O O2 0.792910 0.228427 0.202927
O O3 0.750000 0.250000 0.000000
O O4 0.844611 0.207179 0.914773
O O5 0.580916 0.500000 0.170934
O O6 0.576418 0.156372 0.260797
O O7 0.587803 0.242906 0.981630
O O8 0.601154 0.500000 0.532067
O O9 0.569652 0.229986 0.722277
O O10 0.658120 0.295110 0.607199
O O11 0.612797 0.156968 0.439148
O O12 0.549946 0.500000 0.889466
O O13 0.500000 0.778993 0.000000
O O14 0.194705 0.500000 0.650686
O O15 0.250000 0.250000 0.500000
#
# Coordination Sequence:
#
# PCOD9221777 Si02
#       6
#     8   8   8   8   4   8
#     4  11  24  40  62  93 135 176 224 278 336 403
#     4  11  23  43  69  98 134 180 227 281 344 401
#     4  11  23  43  69  98 134 180 227 281 344 401
#     4   9  20  43  76 105 132 176 233 289 343 407
#     4  12  26  42  65  92 144 176 218 274 339 406
#     4  11  24  40  62  93 135 176 224 278 336 403
#
# _framework density 21.943436999999999
#
# number of rings (size 3 to 8) (size 9 to 14) (size 15 to 20)
#    0.000    1.273    3.636    1.636    2.545    2.909 
#    0.000    3.636    0.000    4.364    0.000    0.000 
#    0.000    0.000    0.000    0.000    0.000    0.000 
#
# Total GULP energy -122495.476301 kJ/mol
# GULP energy per Si atom -5567.976195 kJ/mol
# Density = 2.189349 g / cm^3
# Si number density = 21.943437 Si / 1000 Ang^3
#
#
#
# Elastic Constant Matrix: (Units=GPa)
#
#
# Indices 1 2 3 4 5 6 
#
# 1 37.9242 -7.6235 -5.1137 0.0000 -14.3484 0.0000
# 2 -7.6235 141.3636 31.9772 0.0000 14.1322 0.0000
# 3 -5.1137 31.9772 58.3781 0.0000 13.2507 0.0000
# 4 0.0000 0.0000 0.0000 30.7871 0.0000 9.4234
# 5 -14.3484 14.1322 13.2507 0.0000 32.4538 0.0000
# 6 0.0000 0.0000 0.0000 9.4234 0.0000 9.0834
#
#
#
# Elastic Compliance Matrix: (Units=1/GPa)
#
#
# Indices 1 2 3 4 5 6 
#
# 1 0.031701 0.000452 -0.000669 0.000000 0.014092 0.000000
# 2 0.000452 0.008187 -0.004057 0.000000 -0.001709 0.000000
# 3 -0.000669 -0.004057 0.020896 0.000000 -0.007061 0.000000
# 4 0.000000 0.000000 0.000000 0.047594 0.000000 -0.049375
# 5 0.014092 -0.001709 -0.007061 0.000000 0.040670 0.000000
# 6 0.000000 0.000000 0.000000 -0.049375 0.000000 0.161314
#
#
# Mechanical properties :
#
#
# Convention : Reuss Voigt Hill
#
# Bulk Modulus (GPa) = 19.14424 30.68289 24.91356
# Shear Modulus (GPa) = 14.86671 29.02659 21.94665
#
# Velocity S-wave (km/s) = 2.60571 3.64097 3.16594
# Velocity P-wave (km/s) = 4.21856 5.62926 4.97418
#
# Compressibility (1/GPa) = 0.05223503
#
# Stress axis : x y z
#
# Youngs Moduli (GPa) = 31.54524 122.14671 47.85590
#
# Poissons Ratio (x) = -0.05524 0.03204
# Poissons Ratio (y) = -0.01427 0.19415
# Poissons Ratio (z) = 0.02112 0.49555
#
# Static dielectric constant tensor:
#      x y z
#    x 1.798740 0.000000 -0.050240 
#    y 0.000000 1.849810 0.000000 
#    z -0.050240 0.000000 1.841570 
# 
# From -- ./inp_files/108066.got.cif
#   From: 2010.05.17/outbox.cif.g08.bks.cpg/sg12_55_cif.got.tgz:108066.got - 2010.06.03 13:09:07.
