data_PCOD9221851
_publ_section_title
;
Structure prediction by ZEFSAII (Michael W. Deem and Ramdas Pophale) SiO2 
 PCOD9221851
Probable space group: C 2/M
;
_chemical_formula_sum "Si O2"
_cell_formula_units_Z 56
_cell_length_a 8.118303
_cell_length_b 18.726029
_cell_length_c 17.380899
_cell_angle_alpha 90.000000
_cell_angle_beta 107.670645
_cell_angle_gamma 90.000000
_cell_volume 2517.634830
_symmetry_space_group_name_H-M "C 2/M"
_symmetry_group_IT_number 12
_symmetry_cell_setting 'monoclinic'
loop_
_space_group_symop_operation_xyz
x,y,z
-x,y,-z
-x,-y,-z
x,-y,z
1/2+x,1/2+y,z
1/2-x,1/2+y,-z
1/2-x,1/2-y,-z
1/2+x,1/2-y,z
loop_
_atom_site_type_symbol
_atom_site_label
_atom_site_fract_x
_atom_site_fract_y
_atom_site_fract_z
Si Si1 0.907128 0.912852 0.599212
Si Si2 0.998329 0.205569 0.922222
Si Si3 0.261671 0.422235 0.030053
Si Si4 0.037439 0.577609 0.142212
Si Si5 0.863944 0.699182 0.193001
Si Si6 0.866963 0.691122 0.367148
Si Si7 0.774306 0.158011 0.421389
O O1 0.779106 0.870108 0.639671
O O2 0.830663 0.882520 0.507486
O O3 0.107288 0.884535 0.625444
O O4 0.899644 0.000000 0.603385
O O5 0.122674 0.144350 0.967353
O O6 0.080680 0.242774 0.860686
O O7 0.821033 0.175447 0.864530
O O8 0.000000 0.255172 0.000000
O O9 0.345629 0.500000 0.036945
O O10 0.199601 0.413851 0.109469
O O11 0.112093 0.421604 0.944724
O O12 0.039668 0.500000 0.179242
O O13 0.002422 0.636885 0.199890
O O14 0.847227 0.721561 0.278028
O O15 0.833264 0.758675 0.418996
O O16 0.064379 0.661472 0.395793
#
# Coordination Sequence:
#
# PCOD9221851 Si02
#       7
#     8   8   8   8   8   8   8
#     4  11  26  46  76 114 145 181 239 289 333 412
#     4  12  24  39  62  88 123 167 225 288 335 388
#     4   9  19  37  61  85 112 155 213 276 336 394
#     4   9  19  38  60  83 116 158 209 268 334 402
#     4  12  26  40  61  94 133 168 220 279 342 402
#     4  12  25  44  72 102 149 193 233 283 357 427
#     4  11  23  44  75 107 142 188 234 284 336 416
#
# _framework density 22.243096999999999
#
# number of rings (size 3 to 8) (size 9 to 14) (size 15 to 20)
#    0.000    1.143    2.857    4.714    4.000    3.143 
#    0.000    0.000    0.000    0.000    0.000    0.000 
#    0.000    0.000    0.000    0.000    0.000    0.000 
#
# Total GULP energy -156145.217809 kJ/mol
# GULP energy per Si atom -5576.614922 kJ/mol
# Density = 2.219247 g / cm^3
# Si number density = 22.243097 Si / 1000 Ang^3
#
#
#
# Elastic Constant Matrix: (Units=GPa)
#
#
# Indices 1 2 3 4 5 6 
#
# 1 99.4839 24.6865 3.3023 0.0000 -11.0722 0.0000
# 2 24.6865 115.2623 -0.2167 0.0000 -17.3167 0.0000
# 3 3.3023 -0.2167 61.1260 0.0000 -22.3623 0.0000
# 4 0.0000 0.0000 0.0000 12.2408 0.0000 -0.6760
# 5 -11.0722 -17.3167 -22.3623 0.0000 31.2803 0.0000
# 6 0.0000 0.0000 0.0000 -0.6760 0.0000 30.4542
#
#
#
# Elastic Compliance Matrix: (Units=1/GPa)
#
#
# Indices 1 2 3 4 5 6 
#
# 1 0.010849 -0.001834 0.000597 0.000000 0.003252 0.000000
# 2 -0.001834 0.010099 0.002631 0.000000 0.006822 0.000000
# 3 0.000597 0.002631 0.022949 0.000000 0.018074 0.000000
# 4 0.000000 0.000000 0.000000 0.081794 0.000000 0.001815
# 5 0.003252 0.006822 0.018074 0.000000 0.049818 0.000000
# 6 0.000000 0.000000 0.000000 0.001815 0.000000 0.032877
#
#
# Mechanical properties :
#
#
# Convention : Reuss Voigt Hill
#
# Bulk Modulus (GPa) = 21.42077 36.82406 29.12241
# Shear Modulus (GPa) = 22.60819 31.33506 26.97163
#
# Velocity S-wave (km/s) = 3.19158 3.75741 3.48600
# Velocity P-wave (km/s) = 4.82004 5.95108 5.41517
#
# Compressibility (1/GPa) = 0.04668367
#
# Stress axis : x y z
#
# Youngs Moduli (GPa) = 92.17390 99.02448 43.57526
#
# Poissons Ratio (x) = 0.18161 -0.02601
# Poissons Ratio (y) = 0.16904 -0.11463
# Poissons Ratio (z) = -0.05503 -0.26050
#
# Static dielectric constant tensor:
#      x y z
#    x 1.967710 0.000000 -0.087020 
#    y 0.000000 1.620230 0.000000 
#    z -0.087020 0.000000 1.985650 
# 
# From -- ./inp_files/257162.got.cif
#   From: 2010.05.17/outbox.cif.g08.bks.cpg/sg12_129_cif.got.tgz:257162.got - 2010.06.03 13:09:07.
