data_PCOD9221601
_publ_section_title
;
Structure prediction by ZEFSAII (Michael W. Deem and Ramdas Pophale) SiO2 
 PCOD9221601
Probable space group: C 2/M
;
_chemical_formula_sum "Si O2"
_cell_formula_units_Z 44
_cell_length_a 9.101859
_cell_length_b 26.176366
_cell_length_c 12.612037
_cell_angle_alpha 90.000000
_cell_angle_beta 136.647629
_cell_angle_gamma 90.000000
_cell_volume 2062.788306
_symmetry_space_group_name_H-M "C 2/M"
_symmetry_group_IT_number 12
_symmetry_cell_setting 'monoclinic'
loop_
_space_group_symop_operation_xyz
x,y,z
-x,y,-z
-x,-y,-z
x,-y,z
1/2+x,1/2+y,z
1/2-x,1/2+y,-z
1/2-x,1/2-y,-z
1/2+x,1/2-y,z
loop_
_atom_site_type_symbol
_atom_site_label
_atom_site_fract_x
_atom_site_fract_y
_atom_site_fract_z
Si Si1 0.706880 0.099871 0.048114
Si Si2 0.559120 0.697507 0.751201
Si Si3 0.866790 0.500000 0.241162
Si Si4 0.645059 0.203527 0.675646
Si Si5 0.921179 0.000000 0.123202
Si Si6 0.967546 0.393222 0.705299
Si Si7 0.000000 0.856069 0.500000
O O1 0.771341 0.154862 0.126349
O O2 0.880768 0.055145 0.154959
O O3 0.500000 0.079916 0.000000
O O4 0.637168 0.108453 0.890650
O O5 0.641072 0.754059 0.766183
O O6 0.379036 0.697829 0.747381
O O7 0.475430 0.676766 0.594119
O O8 0.660178 0.500000 0.206456
O O9 0.003956 0.449202 0.328266
O O10 0.756642 0.500000 0.065545
O O11 0.500000 0.220409 0.500000
O O12 0.541359 0.151521 0.665184
O O13 0.726246 0.385781 0.621837
#
# Coordination Sequence:
#
# PCOD9221601 Si02
#       7
#     8   8   4   8   4   8   4
#     4  11  23  41  67 100 130 166 224 273 319 382
#     4  12  25  42  68  95 129 175 223 264 324 390
#     4   9  20  41  66  95 130 170 217 266 321 385
#     4  12  24  43  69  95 130 180 217 261 329 396
#     4   9  19  40  67  91 130 179 211 256 333 390
#     4  11  24  43  69  96 133 171 218 270 324 385
#     4  12  22  43  66  96 132 177 212 264 328 396
#
# _framework density 21.330352000000001
#
# number of rings (size 3 to 8) (size 9 to 14) (size 15 to 20)
#    0.000    0.909    4.545    3.000    0.000    3.273 
#    0.000    1.364    0.000    0.000    0.000    0.000 
#    0.000    0.000    0.000    0.000    0.000    0.000 
#
# Total GULP energy -122863.804978 kJ/mol
# GULP energy per Si atom -5584.718408 kJ/mol
# Density = 2.128180 g / cm^3
# Si number density = 21.330352 Si / 1000 Ang^3
#
#
#
# Elastic Constant Matrix: (Units=GPa)
#
#
# Indices 1 2 3 4 5 6 
#
# 1 128.9468 68.0170 -2.5866 0.0000 6.1479 0.0000
# 2 68.0170 180.8791 24.4262 0.0000 4.4490 0.0000
# 3 -2.5866 24.4262 30.9893 0.0000 -5.3767 0.0000
# 4 0.0000 0.0000 0.0000 -48.8401 0.0000 109.0328
# 5 6.1479 4.4490 -5.3767 0.0000 16.1300 0.0000
# 6 0.0000 0.0000 0.0000 109.0328 0.0000 -171.0897
#
#
#
# Elastic Compliance Matrix: (Units=1/GPa)
#
#
# Indices 1 2 3 4 5 6 
#
# 1 0.010192 -0.004346 0.004044 0.000000 -0.001338 0.000000
# 2 -0.004346 0.008236 -0.007389 0.000000 -0.003078 0.000000
# 3 0.004044 -0.007389 0.040881 0.000000 0.014124 0.000000
# 4 0.000000 0.000000 0.000000 0.048438 0.000000 0.030869
# 5 -0.001338 -0.003078 0.014124 0.000000 0.068063 0.000000
# 6 0.000000 0.000000 0.000000 0.030869 0.000000 0.013827
#
#
# Mechanical properties :
#
#
# Convention : Reuss Voigt Hill
#
# Bulk Modulus (GPa) = 22.76417 57.83647 40.30032
# Shear Modulus (GPa) = 22.76212 -24.02940 -0.63364
#
# Velocity S-wave (km/s) = 3.27023 -3.36003 -0.54562
# Velocity P-wave (km/s) = 4.99545 3.48144 4.30552
#
# Compressibility (1/GPa) = 0.04392869
#
# Stress axis : x y z
#
# Youngs Moduli (GPa) = 98.11175 121.41399 24.46117
#
# Poissons Ratio (x) = 0.52766 -0.09892
# Poissons Ratio (y) = 0.42639 0.18074
# Poissons Ratio (z) = -0.39678 0.89710
#
# Static dielectric constant tensor:
#      x y z
#    x 1.772260 0.000000 -0.020790 
#    y 0.000000 1.781690 0.000000 
#    z -0.020790 0.000000 1.804700 
# 
# From -- ./inp_files/124491.got.cif
#   From: 2010.05.17/outbox.cif.g08.bks.cpg/sg12_63_cif.got.tgz:124491.got - 2010.06.03 13:09:07.
