data_PCOD9221157
_publ_section_title
;
Structure prediction by ZEFSAII (Michael W. Deem and Ramdas Pophale) SiO2 
 PCOD9221157
Probable space group: C 2/M
;
_chemical_formula_sum "Si O2"
_cell_formula_units_Z 40
_cell_length_a 9.813982
_cell_length_b 16.195024
_cell_length_c 16.798893
_cell_angle_alpha 90.000000
_cell_angle_beta 36.078291
_cell_angle_gamma 90.000000
_cell_volume 1572.323205
_symmetry_space_group_name_H-M "C 2/M"
_symmetry_group_IT_number 12
_symmetry_cell_setting 'monoclinic'
loop_
_space_group_symop_operation_xyz
x,y,z
-x,y,-z
-x,-y,-z
x,-y,z
1/2+x,1/2+y,z
1/2-x,1/2+y,-z
1/2-x,1/2-y,-z
1/2+x,1/2-y,z
loop_
_atom_site_type_symbol
_atom_site_label
_atom_site_fract_x
_atom_site_fract_y
_atom_site_fract_z
Si Si1 0.319173 0.700627 0.646441
Si Si2 0.129684 0.160703 0.055182
Si Si3 0.635937 0.855898 0.206325
Si Si4 0.604982 0.402533 0.247366
Si Si5 0.083021 0.376100 0.542180
O O1 0.500000 0.656539 0.500000
O O2 0.250165 0.650983 0.758343
O O3 0.463168 0.784449 0.597024
O O4 0.072676 0.708656 0.717127
O O5 0.372250 0.329254 0.139853
O O6 0.125915 0.122189 0.144898
O O7 0.250000 0.250000 0.000000
O O8 0.270201 0.110029 0.921560
O O9 0.507596 0.911015 0.332446
O O10 0.645822 0.500000 0.235178
O O11 0.353691 0.379684 0.401774
O O12 0.000000 0.415893 0.500000
#
# Coordination Sequence:
#
# PCOD9221157 Si02
#       5
#     8   8   8   8   8
#     4  11  24  41  76 113 148 189 251 313 363 435
#     4  11  25  46  72 107 151 198 255 305 372 447
#     4  11  23  44  71 112 144 193 247 317 365 434
#     4  12  27  49  72 109 156 201 243 305 381 447
#     4  11  22  42  75 108 149 185 255 302 366 430
#
# _framework density 25.440062999999999
#
# number of rings (size 3 to 8) (size 9 to 14) (size 15 to 20)
#    0.000    0.800    4.000    3.000    5.600    3.200 
#    0.000    6.000    0.000    0.000    0.000    0.000 
#    0.000    0.000    0.000    0.000    0.000    0.000 
#
# Total GULP energy -111616.924827 kJ/mol
# GULP energy per Si atom -5580.846241 kJ/mol
# Density = 2.538216 g / cm^3
# Si number density = 25.440063 Si / 1000 Ang^3
#
#
#
# Elastic Constant Matrix: (Units=GPa)
#
#
# Indices 1 2 3 4 5 6 
#
# 1 149.9322 50.2717 45.8776 -0.0348 25.3837 0.0066
# 2 50.2717 153.6317 27.6730 -0.0357 28.3696 0.0089
# 3 45.8776 27.6730 204.1408 -0.1675 63.3755 0.0342
# 4 -0.0348 -0.0357 -0.1675 303.2243 0.0608 -39.7179
# 5 25.3837 28.3696 63.3755 0.0608 76.4047 -0.0123
# 6 0.0066 0.0089 0.0342 -39.7179 -0.0123 -2.7250
#
#
#
# Elastic Compliance Matrix: (Units=1/GPa)
#
#
# Indices 1 2 3 4 5 6 
#
# 1 0.007927 -0.002227 -0.001237 0.000000 -0.000780 -0.000001
# 2 -0.002227 0.007619 0.000157 0.000002 -0.002219 0.000005
# 3 -0.001237 0.000157 0.006796 0.000006 -0.005284 0.000013
# 4 0.000000 0.000002 0.000006 0.001134 -0.000010 -0.016523
# 5 -0.000780 -0.002219 -0.005284 -0.000010 0.018554 -0.000020
# 6 -0.000001 0.000005 0.000013 -0.016523 -0.000020 -0.126144
#
#
# Mechanical properties :
#
#
# Convention : Reuss Voigt Hill
#
# Bulk Modulus (GPa) = 63.58576 83.92770 73.75673
# Shear Modulus (GPa) = -69.19867 100.97294 15.88714
#
# Velocity S-wave (km/s) = -5.22108 6.30688 2.50170
# Velocity P-wave (km/s) = 3.36120 9.27888 6.11555
#
# Compressibility (1/GPa) = 0.01572679
#
# Stress axis : x y z
#
# Youngs Moduli (GPa) = 126.14949 131.24449 147.14833
#
# Poissons Ratio (x) = 0.29227 0.18207
# Poissons Ratio (y) = 0.28093 -0.02303
# Poissons Ratio (z) = 0.15609 -0.02054
#
# Static dielectric constant tensor:
#      x y z
#    x 2.356950 -0.000010 -0.027070 
#    y -0.000010 2.030350 0.000010 
#    z -0.027070 0.000010 2.104870 
# 
# From -- ./inp_files/264396.got.cif
#   From: 2010.05.17/outbox.cif.g08.bks.cpg/sg12_133_cif.got.tgz:264396.got - 2010.06.03 13:09:07.
