data_PCOD9221642
_publ_section_title
;
Structure prediction by ZEFSAII (Michael W. Deem and Ramdas Pophale) SiO2 
 PCOD9221642
Probable space group: C 2/M
;
_chemical_formula_sum "Si O2"
_cell_formula_units_Z 58
_cell_length_a 19.196976
_cell_length_b 25.772869
_cell_length_c 14.779263
_cell_angle_alpha 90.000000
_cell_angle_beta 160.009842
_cell_angle_gamma 90.000000
_cell_volume 2499.741101
_symmetry_space_group_name_H-M "C 2/M"
_symmetry_group_IT_number 12
_symmetry_cell_setting 'monoclinic'
loop_
_space_group_symop_operation_xyz
x,y,z
-x,y,-z
-x,-y,-z
x,-y,z
1/2+x,1/2+y,z
1/2-x,1/2+y,-z
1/2-x,1/2-y,-z
1/2+x,1/2-y,z
loop_
_atom_site_type_symbol
_atom_site_label
_atom_site_fract_x
_atom_site_fract_y
_atom_site_fract_z
Si Si1 0.397205 0.411336 0.283677
Si Si2 0.686470 0.942143 0.847800
Si Si3 0.000000 0.500000 0.500000
Si Si4 0.038659 0.874006 0.946286
Si Si5 0.618606 0.824296 0.030834
Si Si6 0.691864 0.360513 0.502260
Si Si7 0.484351 0.248080 0.253930
Si Si8 0.797724 0.724575 0.314339
O O1 0.500000 0.436056 0.500000
O O2 0.238712 0.437529 0.017623
O O3 0.285086 0.359976 0.185237
O O4 0.577442 0.396106 0.435405
O O5 0.757192 0.000000 0.895379
O O6 0.463967 0.952730 0.535834
O O7 0.800947 0.899634 0.928688
O O8 0.133410 0.816544 0.080300
O O9 0.837808 0.877351 0.638126
O O10 0.000000 0.895134 0.000000
O O11 0.722043 0.784219 0.225470
O O12 0.574824 0.858834 0.183511
O O13 0.520569 0.781959 0.844596
O O14 0.574387 0.305348 0.359847
O O15 0.619677 0.213443 0.485750
O O16 0.250000 0.250000 0.000000
O O17 0.000000 0.723797 0.500000
#
# Coordination Sequence:
#
# PCOD9221642 Si02
#       8
#     8   8   2   8   8   8   8   8
#     4  11  24  43  69 102 131 175 230 272 337 408
#     4   9  23  46  73  96 133 163 210 288 352 410
#     4   8  20  44  72 104 120 164 206 262 366 408
#     4  11  24  40  63 100 130 173 228 274 333 406
#     4  12  24  39  61  90 139 188 220 274 325 383
#     4  11  23  42  59  90 139 181 231 275 322 388
#     4  12  21  37  55  81 128 180 233 268 318 372
#     4  12  24  35  57  90 129 184 228 269 318 383
#
# _framework density 23.202403
#
# number of rings (size 3 to 8) (size 9 to 14) (size 15 to 20)
#    0.414    0.552    4.138    2.483    4.828    3.310 
#    0.000    0.000    0.000    0.000    0.000    2.897 
#    0.000    0.000    0.000    0.000    0.000    0.000 
#
# Total GULP energy -161445.742707 kJ/mol
# GULP energy per Si atom -5567.094576 kJ/mol
# Density = 2.314959 g / cm^3
# Si number density = 23.202403 Si / 1000 Ang^3
#
#
#
# Elastic Constant Matrix: (Units=GPa)
#
#
# Indices 1 2 3 4 5 6 
#
# 1 84.5869 3.8958 44.2902 0.0001 -16.9592 0.0000
# 2 3.8958 46.6401 2.3612 0.0000 -6.8880 0.0000
# 3 44.2902 2.3612 125.8051 0.0001 -38.4343 -0.0001
# 4 0.0001 0.0000 0.0001 21.1047 0.0000 -11.7728
# 5 -16.9592 -6.8880 -38.4343 0.0000 51.0090 0.0000
# 6 0.0000 0.0000 -0.0001 -11.7728 0.0000 4.1840
#
#
#
# Elastic Compliance Matrix: (Units=1/GPa)
#
#
# Indices 1 2 3 4 5 6 
#
# 1 0.014587 -0.000808 -0.004770 0.000000 0.001147 0.000001
# 2 -0.000808 0.021961 0.000904 0.000000 0.003378 0.000000
# 3 -0.004770 0.000904 0.011904 0.000000 0.007506 0.000000
# 4 0.000000 0.000000 0.000000 -0.083187 0.000000 -0.234068
# 5 0.001147 0.003378 0.007506 0.000000 0.026097 0.000000
# 6 0.000001 0.000000 0.000000 -0.234068 0.000000 -0.419605
#
#
# Mechanical properties :
#
#
# Convention : Reuss Voigt Hill
#
# Bulk Modulus (GPa) = 25.57157 39.79183 32.68170
# Shear Modulus (GPa) = -12.31951 29.02521 8.35285
#
# Velocity S-wave (km/s) = -2.30675 3.54072 1.89942
# Velocity P-wave (km/s) = 1.98751 5.82261 4.35046
#
# Compressibility (1/GPa) = 0.03910592
#
# Stress axis : x y z
#
# Youngs Moduli (GPa) = 68.55522 45.53447 84.00431
#
# Poissons Ratio (x) = 0.03677 0.40069
# Poissons Ratio (y) = 0.05537 -0.07596
# Poissons Ratio (z) = 0.32700 -0.04118
#
# Static dielectric constant tensor:
#      x y z
#    x 1.921140 0.000000 -0.102700 
#    y 0.000000 1.907630 0.000000 
#    z -0.102700 0.000000 1.343180 
# 
# From -- ./inp_files/161117.got.cif
#   From: 2010.05.17/outbox.cif.g08.bks.cpg/sg12_81_cif.got.tgz:161117.got - 2010.06.03 13:09:07.
