data_PCOD9221742
_publ_section_title
;
Structure prediction by ZEFSAII (Michael W. Deem and Ramdas Pophale) SiO2 
 PCOD9221742
Probable space group: C 2/M
;
_chemical_formula_sum "Si O2"
_cell_formula_units_Z 56
_cell_length_a 9.382044
_cell_length_b 22.726347
_cell_length_c 16.239227
_cell_angle_alpha 90.000000
_cell_angle_beta 54.644548
_cell_angle_gamma 90.000000
_cell_volume 2823.955995
_symmetry_space_group_name_H-M "C 2/M"
_symmetry_group_IT_number 12
_symmetry_cell_setting 'monoclinic'
loop_
_space_group_symop_operation_xyz
x,y,z
-x,y,-z
-x,-y,-z
x,-y,z
1/2+x,1/2+y,z
1/2-x,1/2+y,-z
1/2-x,1/2-y,-z
1/2+x,1/2-y,z
loop_
_atom_site_type_symbol
_atom_site_label
_atom_site_fract_x
_atom_site_fract_y
_atom_site_fract_z
Si Si1 0.600973 0.384331 0.305261
Si Si2 0.153058 0.569113 0.636512
Si Si3 0.549792 0.266931 0.576132
Si Si4 0.751305 0.564928 0.587250
Si Si5 0.851444 0.350449 0.696136
Si Si6 0.822211 0.679017 0.100888
Si Si7 0.520369 0.302244 0.897007
O O1 0.697408 0.405588 0.354878
O O2 0.493343 0.323944 0.356147
O O3 0.455759 0.431240 0.329936
O O4 0.740675 0.368124 0.189633
O O5 0.123914 0.500000 0.662662
O O6 0.211631 0.574566 0.521517
O O7 0.981810 0.609119 0.705534
O O8 0.500000 0.281250 0.500000
O O9 0.750000 0.250000 0.500000
O O10 0.441809 0.212015 0.647865
O O11 0.815163 0.500000 0.590103
O O12 0.833005 0.614630 0.616799
O O13 0.663627 0.340774 0.800758
O O14 0.665657 0.696390 0.089071
O O15 0.892181 0.737152 0.125722
O O16 0.000000 0.656332 0.000000
O O17 0.500000 0.320207 0.000000
#
# Coordination Sequence:
#
# PCOD9221742 Si02
#       7
#     8   8   8   8   8   8   8
#     4  12  23  40  65  94 130 170 214 266 327 384
#     4  11  25  41  64  94 129 179 225 265 309 378
#     4  12  24  36  57  92 135 166 199 253 326 386
#     4  11  23  43  64  90 128 175 227 264 306 379
#     4  12  23  40  66  93 132 170 216 264 328 384
#     4  11  24  42  67  96 130 169 213 263 326 397
#     4  11  24  42  66  97 130 169 213 263 326 396
#
# _framework density 19.830338000000001
#
# number of rings (size 3 to 8) (size 9 to 14) (size 15 to 20)
#    0.000    0.571    2.857    7.714    4.000    2.286 
#    0.000    0.000    0.000    5.143    0.000    0.000 
#    0.000    0.000    0.000    0.000    0.000    0.000 
#
# Total GULP energy -156584.704918 kJ/mol
# GULP energy per Si atom -5592.310890 kJ/mol
# Density = 1.978520 g / cm^3
# Si number density = 19.830338 Si / 1000 Ang^3
#
#
#
# Elastic Constant Matrix: (Units=GPa)
#
#
# Indices 1 2 3 4 5 6 
#
# 1 95.3963 22.9079 18.0723 0.0000 -17.0233 0.0000
# 2 22.9079 104.2505 35.5582 0.0000 -8.1127 0.0000
# 3 18.0723 35.5582 98.4587 0.0000 -28.5446 0.0000
# 4 0.0000 0.0000 0.0000 24.0814 0.0000 -11.1466
# 5 -17.0233 -8.1127 -28.5446 0.0000 37.5807 0.0000
# 6 0.0000 0.0000 0.0000 -11.1466 0.0000 27.5045
#
#
#
# Elastic Compliance Matrix: (Units=1/GPa)
#
#
# Indices 1 2 3 4 5 6 
#
# 1 0.011894 -0.002250 0.000065 0.000000 0.004951 0.000000
# 2 -0.002250 0.011385 -0.004208 0.000000 -0.001758 0.000000
# 3 0.000065 -0.004208 0.014632 0.000000 0.010234 0.000000
# 4 0.000000 0.000000 0.000000 0.051114 0.000000 0.020715
# 5 0.004951 -0.001758 0.010234 0.000000 0.036246 0.000000
# 6 0.000000 0.000000 0.000000 0.020715 0.000000 0.044753
#
#
# Mechanical properties :
#
#
# Convention : Reuss Voigt Hill
#
# Bulk Modulus (GPa) = 39.80345 50.13136 44.96741
# Shear Modulus (GPa) = 26.15241 32.60446 29.37844
#
# Velocity S-wave (km/s) = 3.63548 4.05924 3.85319
# Velocity P-wave (km/s) = 6.14311 6.87785 6.52084
#
# Compressibility (1/GPa) = 0.02512345
#
# Stress axis : x y z
#
# Youngs Moduli (GPa) = 84.07414 87.83164 68.34525
#
# Poissons Ratio (x) = 0.19766 -0.00444
# Poissons Ratio (y) = 0.18921 0.28763
# Poissons Ratio (z) = -0.00547 0.36964
#
# Static dielectric constant tensor:
#      x y z
#    x 1.727570 0.000000 -0.009530 
#    y 0.000000 1.691920 0.000000 
#    z -0.009530 0.000000 1.694480 
# 
# From -- ./inp_files/198792.got.cif
#   From: 2010.05.17/outbox.cif.g08.bks.cpg/sg12_100_cif.got.tgz:198792.got - 2010.06.03 13:09:07.
