data_PCOD9221280
_publ_section_title
;
Structure prediction by ZEFSAII (Michael W. Deem and Ramdas Pophale) SiO2 
 PCOD9221280
Probable space group: C 2/M
;
_chemical_formula_sum "Si O2"
_cell_formula_units_Z 44
_cell_length_a 13.883224
_cell_length_b 25.060304
_cell_length_c 7.373285
_cell_angle_alpha 90.000000
_cell_angle_beta 72.720734
_cell_angle_gamma 90.000000
_cell_volume 2449.521103
_symmetry_space_group_name_H-M "C 2/M"
_symmetry_group_IT_number 12
_symmetry_cell_setting 'monoclinic'
loop_
_space_group_symop_operation_xyz
x,y,z
-x,y,-z
-x,-y,-z
x,-y,z
1/2+x,1/2+y,z
1/2-x,1/2+y,-z
1/2-x,1/2-y,-z
1/2+x,1/2-y,z
loop_
_atom_site_type_symbol
_atom_site_label
_atom_site_fract_x
_atom_site_fract_y
_atom_site_fract_z
Si Si1 0.578537 0.289419 0.229650
Si Si2 0.000000 0.407429 0.500000
Si Si3 0.908212 0.559559 0.188052
Si Si4 0.660502 0.175969 0.264805
Si Si5 0.364063 0.278059 0.229780
Si Si6 0.782732 0.663020 0.191639
O O1 0.602610 0.232033 0.300525
O O2 0.458503 0.296394 0.297015
O O3 0.661763 0.329358 0.264798
O O4 0.606434 0.285170 0.999261
O O5 0.957409 0.440508 0.357887
O O6 0.909888 0.369884 0.621525
O O7 0.870388 0.500000 0.162583
O O8 0.826803 0.606918 0.231276
O O9 0.000000 0.573166 0.000000
O O10 0.764915 0.186303 0.311597
O O11 0.686793 0.166527 0.038550
O O12 0.334824 0.215049 0.257208
#
# Coordination Sequence:
#
# PCOD9221280 Si02
#       6
#     8   4   8   8   8   8
#     4   8  14  26  47  73 104 138 165 200 242 300
#     4  12  21  34  54  76 108 132 163 210 262 300
#     4  11  23  37  53  73  98 134 176 216 255 295
#     4   9  17  28  46  76 105 137 164 199 250 306
#     4   8  14  25  48  77 106 134 167 196 244 306
#     4   9  16  31  51  72 102 135 168 206 251 291
#
# _framework density 17.962695
#
# number of rings (size 3 to 8) (size 9 to 14) (size 15 to 20)
#    0.000    2.727    1.818    3.545    2.545    0.000 
#    0.000    8.182    0.000    0.000    0.000   14.000 
#    0.000    0.000    0.000    0.000    0.000    0.000 
#
# Total GULP energy -122755.602969 kJ/mol
# GULP energy per Si atom -5579.800135 kJ/mol
# Density = 1.792181 g / cm^3
# Si number density = 17.962695 Si / 1000 Ang^3
#
#
#
# Elastic Constant Matrix: (Units=GPa)
#
#
# Indices 1 2 3 4 5 6 
#
# 1 155.1071 62.5872 18.3798 0.0000 -3.8409 0.0000
# 2 62.5872 96.9594 6.4299 0.0000 -2.5336 0.0000
# 3 18.3798 6.4299 62.8734 0.0000 -2.1103 0.0000
# 4 0.0000 0.0000 0.0000 -16.5830 0.0000 15.7655
# 5 -3.8409 -2.5336 -2.1103 0.0000 20.4733 0.0000
# 6 0.0000 0.0000 0.0000 15.7655 0.0000 11.4408
#
#
#
# Elastic Compliance Matrix: (Units=1/GPa)
#
#
# Indices 1 2 3 4 5 6 
#
# 1 0.008984 -0.005645 -0.002023 0.000000 0.000778 0.000000
# 2 -0.005645 0.013959 0.000246 0.000000 0.000694 0.000000
# 3 -0.002023 0.000246 0.016517 0.000000 0.001353 0.000000
# 4 0.000000 0.000000 0.000000 -0.026104 0.000000 0.035972
# 5 0.000778 0.000694 0.001353 0.000000 0.049216 0.000000
# 6 0.000000 0.000000 0.000000 0.035972 0.000000 0.037837
#
#
# Mechanical properties :
#
#
# Convention : Reuss Voigt Hill
#
# Bulk Modulus (GPa) = 40.62370 54.41486 47.51928
# Shear Modulus (GPa) = 40.50023 18.23576 29.36799
#
# Velocity S-wave (km/s) = 4.75350 3.18968 4.04783
# Velocity P-wave (km/s) = 7.26584 6.62755 6.95402
#
# Compressibility (1/GPa) = 0.02461617
#
# Stress axis : x y z
#
# Youngs Moduli (GPa) = 111.31207 71.63864 60.54516
#
# Poissons Ratio (x) = 0.40437 0.12247
# Poissons Ratio (y) = 0.62830 -0.01488
# Poissons Ratio (z) = 0.22517 -0.01761
#
# Static dielectric constant tensor:
#      x y z
#    x 1.648220 0.000000 0.011130 
#    y 0.000000 1.568260 0.000000 
#    z 0.011130 0.000000 1.684170 
# 
# From -- ./inp_files/64350.got.cif
#   From: 2010.05.17/outbox.cif.g08.bks.cpg/sg12_33_cif.got.tgz:64350.got - 2010.06.03 13:09:07.
