data_PCOD9221329
_publ_section_title
;
Structure prediction by ZEFSAII (Michael W. Deem and Ramdas Pophale) SiO2 
 PCOD9221329
Probable space group: C 2/M
;
_chemical_formula_sum "Si O2"
_cell_formula_units_Z 40
_cell_length_a 15.915944
_cell_length_b 27.697955
_cell_length_c 8.921685
_cell_angle_alpha 90.000000
_cell_angle_beta 30.321110
_cell_angle_gamma 90.000000
_cell_volume 1985.572061
_symmetry_space_group_name_H-M "C 2/M"
_symmetry_group_IT_number 12
_symmetry_cell_setting 'monoclinic'
loop_
_space_group_symop_operation_xyz
x,y,z
-x,y,-z
-x,-y,-z
x,-y,z
1/2+x,1/2+y,z
1/2-x,1/2+y,-z
1/2-x,1/2-y,-z
1/2+x,1/2-y,z
loop_
_atom_site_type_symbol
_atom_site_label
_atom_site_fract_x
_atom_site_fract_y
_atom_site_fract_z
Si Si1 0.673853 0.557124 0.313277
Si Si2 0.325624 0.399011 0.362158
Si Si3 0.579636 0.224587 0.222926
Si Si4 0.881627 0.208622 0.325373
Si Si5 0.515259 0.883107 0.294034
O O1 0.500000 0.572629 0.500000
O O2 0.691434 0.500000 0.260445
O O3 0.671992 0.566984 0.495589
O O4 0.831095 0.584685 0.999613
O O5 0.318830 0.344991 0.441697
O O6 0.160526 0.400028 0.510667
O O7 0.500000 0.404459 0.000000
O O8 0.500000 0.210712 0.500000
O O9 0.481302 0.269237 0.306854
O O10 0.561530 0.172528 0.169977
O O11 0.750000 0.250000 0.000000
O O12 0.750000 0.250000 0.500000
O O13 0.000000 0.206777 0.000000
O O14 0.500000 0.887219 0.500000
#
# Coordination Sequence:
#
# PCOD9221329 Si02
#       5
#     8   8   8   8   8
#     4  11  27  49  75 102 132 175 228 289 353 406
#     4  11  25  43  70 101 138 181 226 282 338 406
#     4  11  25  38  60  95 133 181 224 271 329 396
#     4  11  23  38  60  93 135 177 222 269 327 391
#     4  11  25  44  68 102 139 179 229 280 339 406
#
# _framework density 20.145327000000002
#
# number of rings (size 3 to 8) (size 9 to 14) (size 15 to 20)
#    0.000    1.000    2.000    3.000   16.800    2.400 
#    0.000    0.000    0.000    0.000    0.000    0.000 
#    0.000    0.000    0.000    0.000    0.000    0.000 
#
# Total GULP energy -111463.940544 kJ/mol
# GULP energy per Si atom -5573.197027 kJ/mol
# Density = 2.009948 g / cm^3
# Si number density = 20.145327 Si / 1000 Ang^3
#
#
#
# Elastic Constant Matrix: (Units=GPa)
#
#
# Indices 1 2 3 4 5 6 
#
# 1 141.9538 22.8931 56.3173 0.0000 -29.8789 0.0000
# 2 22.8931 76.5694 45.0761 0.0000 -5.1636 0.0000
# 3 56.3173 45.0761 126.9871 0.0000 -22.7836 0.0000
# 4 0.0000 0.0000 0.0000 35.9577 0.0000 2.9555
# 5 -29.8789 -5.1636 -22.7836 0.0000 48.1322 0.0000
# 6 0.0000 0.0000 0.0000 2.9555 0.0000 30.4460
#
#
#
# Elastic Compliance Matrix: (Units=1/GPa)
#
#
# Indices 1 2 3 4 5 6 
#
# 1 0.009276 -0.000648 -0.003129 0.000000 0.004208 0.000000
# 2 -0.000648 0.016608 -0.005858 0.000000 -0.001393 0.000000
# 3 -0.003129 -0.005858 0.011891 0.000000 0.003058 0.000000
# 4 0.000000 0.000000 0.000000 0.028034 0.000000 -0.002721
# 5 0.004208 -0.001393 0.003058 0.000000 0.024686 0.000000
# 6 0.000000 0.000000 0.000000 -0.002721 0.000000 0.033109
#
#
# Mechanical properties :
#
#
# Convention : Reuss Voigt Hill
#
# Bulk Modulus (GPa) = 54.03844 66.00925 60.02385
# Shear Modulus (GPa) = 33.54753 37.65543 35.60148
#
# Velocity S-wave (km/s) = 4.08521 4.32810 4.20841
# Velocity P-wave (km/s) = 7.00959 7.60357 7.31262
#
# Compressibility (1/GPa) = 0.01850534
#
# Stress axis : x y z
#
# Youngs Moduli (GPa) = 107.80525 60.21044 84.10059
#
# Poissons Ratio (x) = 0.03899 0.26315
# Poissons Ratio (y) = 0.06982 0.49268
# Poissons Ratio (z) = 0.33732 0.35272
#
# Static dielectric constant tensor:
#      x y z
#    x 1.860490 0.000000 0.002950 
#    y 0.000000 1.757020 0.000000 
#    z 0.002950 0.000000 1.696680 
# 
# From -- ./inp_files/41445.got.cif
#   From: 2010.05.17/outbox.cif.g08.bks.cpg/sg12_21_cif.got.tgz:41445.got - 2010.06.03 13:09:07.
