data_PCOD9221631
_publ_section_title
;
Structure prediction by ZEFSAII (Michael W. Deem and Ramdas Pophale) SiO2 
 PCOD9221631
Probable space group: C 2/M
;
_chemical_formula_sum "Si O2"
_cell_formula_units_Z 34
_cell_length_a 8.764952
_cell_length_b 13.852406
_cell_length_c 14.103180
_cell_angle_alpha 90.000000
_cell_angle_beta 63.236836
_cell_angle_gamma 90.000000
_cell_volume 1528.912786
_symmetry_space_group_name_H-M "C 2/M"
_symmetry_group_IT_number 12
_symmetry_cell_setting 'monoclinic'
loop_
_space_group_symop_operation_xyz
x,y,z
-x,y,-z
-x,-y,-z
x,-y,z
1/2+x,1/2+y,z
1/2-x,1/2+y,-z
1/2-x,1/2-y,-z
1/2+x,1/2-y,z
loop_
_atom_site_type_symbol
_atom_site_label
_atom_site_fract_x
_atom_site_fract_y
_atom_site_fract_z
Si Si1 0.184877 0.684891 0.265103
Si Si2 0.369943 0.678308 0.405969
Si Si3 0.623589 0.500000 0.101305
Si Si4 0.688313 0.187280 0.926389
Si Si5 0.500000 0.500000 0.500000
Si Si6 0.729847 0.000000 0.151147
O O1 0.268728 0.651004 0.338981
O O2 0.318144 0.742326 0.161712
O O3 0.132741 0.593912 0.215447
O O4 0.032209 0.756960 0.331204
O O5 0.250000 0.750000 0.500000
O O6 0.425271 0.585593 0.449817
O O7 0.685824 0.598839 0.130499
O O8 0.421299 0.500000 0.142429
O O9 0.724634 0.500000 0.972128
O O10 0.500000 0.149108 0.000000
O O11 0.750000 0.250000 0.000000
#
# Coordination Sequence:
#
# PCOD9221631 Si02
#       6
#     8   8   4   8   2   4
#     4  12  25  45  75 106 147 199 250 310 379 455
#     4  12  26  51  77 111 148 190 255 321 386 454
#     4  11  23  42  66 102 153 198 240 303 361 436
#     4  12  24  43  68 103 149 192 246 307 364 444
#     4  12  26  54  84 106 148 198 240 334 400 440
#     4  11  23  41  70 105 145 198 250 295 370 440
#
# _framework density 22.238025
#
# number of rings (size 3 to 8) (size 9 to 14) (size 15 to 20)
#    0.000    0.235    4.706    5.294    0.000    1.882 
#    0.000    2.353    0.000    0.000    0.000    0.000 
#    0.000    0.000    0.000    0.000    0.000    0.000 
#
# Total GULP energy -94928.811108 kJ/mol
# GULP energy per Si atom -5584.047712 kJ/mol
# Density = 2.218741 g / cm^3
# Si number density = 22.238025 Si / 1000 Ang^3
#
#
#
# Elastic Constant Matrix: (Units=GPa)
#
#
# Indices 1 2 3 4 5 6 
#
# 1 41.1097 8.6113 11.3428 0.0000 -1.2051 0.0000
# 2 8.6113 165.3155 37.1857 0.0000 -0.5007 0.0000
# 3 11.3428 37.1857 97.7657 0.0000 8.2223 0.0000
# 4 0.0000 0.0000 0.0000 36.7868 0.0000 17.7447
# 5 -1.2051 -0.5007 8.2223 0.0000 40.8290 0.0000
# 6 0.0000 0.0000 0.0000 17.7447 0.0000 32.3670
#
#
#
# Elastic Compliance Matrix: (Units=1/GPa)
#
#
# Indices 1 2 3 4 5 6 
#
# 1 0.025274 -0.000687 -0.002780 0.000000 0.001297 0.000000
# 2 -0.000687 0.006648 -0.002496 0.000000 0.000564 0.000000
# 3 -0.002780 -0.002496 0.011708 0.000000 -0.002471 0.000000
# 4 0.000000 0.000000 0.000000 0.036957 0.000000 -0.020261
# 5 0.001297 0.000564 -0.002471 0.000000 0.025035 0.000000
# 6 0.000000 0.000000 0.000000 -0.020261 0.000000 0.042004
#
#
# Mechanical properties :
#
#
# Convention : Reuss Voigt Hill
#
# Bulk Modulus (GPa) = 31.54236 46.49672 39.01954
# Shear Modulus (GPa) = 29.39078 38.46661 33.92870
#
# Velocity S-wave (km/s) = 3.63939 4.16356 3.91027
# Velocity P-wave (km/s) = 5.64579 6.63835 6.16209
#
# Compressibility (1/GPa) = 0.03170339
#
# Stress axis : x y z
#
# Youngs Moduli (GPa) = 39.56600 150.41965 85.40917
#
# Poissons Ratio (x) = 0.10338 0.23744
# Poissons Ratio (y) = 0.02719 0.21321
# Poissons Ratio (z) = 0.10999 0.37550
#
# Static dielectric constant tensor:
#      x y z
#    x 1.809000 0.000000 0.000370 
#    y 0.000000 1.804090 0.000000 
#    z 0.000370 0.000000 1.821700 
# 
# From -- ./inp_files/193936.got.cif
#   From: 2010.05.17/outbox.cif.g08.bks.cpg/sg12_97_cif.got.tgz:193936.got - 2010.06.03 13:09:07.
