data_PCOD9221044
_publ_section_title
;
Structure prediction by ZEFSAII (Michael W. Deem and Ramdas Pophale) SiO2 
 PCOD9221044
Probable space group: C 2/M
;
_chemical_formula_sum "Si O2"
_cell_formula_units_Z 40
_cell_length_a 11.052611
_cell_length_b 21.614446
_cell_length_c 14.737178
_cell_angle_alpha 90.000000
_cell_angle_beta 28.542705
_cell_angle_gamma 90.000000
_cell_volume 1682.216441
_symmetry_space_group_name_H-M "C 2/M"
_symmetry_group_IT_number 12
_symmetry_cell_setting 'monoclinic'
loop_
_space_group_symop_operation_xyz
x,y,z
-x,y,-z
-x,-y,-z
x,-y,z
1/2+x,1/2+y,z
1/2-x,1/2+y,-z
1/2-x,1/2-y,-z
1/2+x,1/2-y,z
loop_
_atom_site_type_symbol
_atom_site_label
_atom_site_fract_x
_atom_site_fract_y
_atom_site_fract_z
Si Si1 0.019347 0.132432 0.205386
Si Si2 0.064490 0.000000 0.791392
Si Si3 0.948695 0.328544 0.130999
Si Si4 0.236864 0.191563 0.784283
Si Si5 0.174709 0.628621 0.598523
Si Si6 0.987647 0.500000 0.653976
O O1 0.083100 0.063152 0.130337
O O2 0.789352 0.155299 0.293166
O O3 0.924664 0.130864 0.371488
O O4 0.257134 0.176800 0.031664
O O5 0.213741 0.000000 0.787816
O O6 0.295394 0.000000 0.566619
O O7 0.815143 0.263491 0.199705
O O8 0.804043 0.359671 0.309126
O O9 0.000000 0.361387 0.000000
O O10 0.488484 0.178876 0.674843
O O11 0.000000 0.168247 0.000000
O O12 0.039731 0.562679 0.673104
#
# Coordination Sequence:
#
# PCOD9221044 Si02
#       6
#     8   4   8   8   8   4
#     4  11  22  42  67  98 131 165 212 268 331 385
#     4   9  18  35  67 102 127 157 208 272 334 377
#     4  11  27  45  60  89 137 179 220 263 308 385
#     4  11  22  41  64  93 135 162 209 276 319 380
#     4  11  23  43  69 100 128 167 214 270 335 381
#     4   9  18  37  67 104 131 149 206 284 326 383
#
# _framework density 23.778151999999999
#
# number of rings (size 3 to 8) (size 9 to 14) (size 15 to 20)
#    0.000    1.400    4.000    1.200    2.800    2.400 
#    7.200    4.000    0.000    3.600    0.000    0.000 
#    0.000    0.000    0.000    0.000    0.000    0.000 
#
# Total GULP energy -111883.554114 kJ/mol
# GULP energy per Si atom -5594.177706 kJ/mol
# Density = 2.372403 g / cm^3
# Si number density = 23.778152 Si / 1000 Ang^3
#
#
#
# Elastic Constant Matrix: (Units=GPa)
#
#
# Indices 1 2 3 4 5 6 
#
# 1 92.0096 43.5168 34.5022 0.0388 28.5438 -0.0099
# 2 43.5168 141.2926 31.0758 -0.0159 6.8706 0.0019
# 3 34.5022 31.0758 117.3123 0.0281 23.5671 -0.0403
# 4 0.0388 -0.0159 0.0281 16.7307 -0.0045 7.8462
# 5 28.5438 6.8706 23.5671 -0.0045 56.7828 0.0288
# 6 -0.0099 0.0019 -0.0403 7.8462 0.0288 26.2015
#
#
#
# Elastic Compliance Matrix: (Units=1/GPa)
#
#
# Indices 1 2 3 4 5 6 
#
# 1 0.015591 -0.003998 -0.002235 -0.000049 -0.006426 0.000025
# 2 -0.003998 0.008541 -0.001400 0.000027 0.001557 -0.000014
# 3 -0.002235 -0.001400 0.010138 -0.000026 -0.002915 0.000026
# 4 -0.000049 0.000027 -0.000026 0.069536 0.000049 -0.020823
# 5 -0.006426 0.001557 -0.002915 0.000049 0.021862 -0.000046
# 6 0.000025 -0.000014 0.000026 -0.020823 -0.000046 0.044401
#
#
# Mechanical properties :
#
#
# Convention : Reuss Voigt Hill
#
# Bulk Modulus (GPa) = 52.61954 63.20047 57.91001
# Shear Modulus (GPa) = 26.08654 36.04431 31.06542
#
# Velocity S-wave (km/s) = 3.31581 3.89763 3.61843
# Velocity P-wave (km/s) = 6.06934 6.84779 6.47028
#
# Compressibility (1/GPa) = 0.01900435
#
# Stress axis : x y z
#
# Youngs Moduli (GPa) = 64.13984 117.08404 98.63888
#
# Poissons Ratio (x) = 0.46807 0.22051
# Poissons Ratio (y) = 0.25641 0.13805
# Poissons Ratio (z) = 0.14338 0.16386
#
# Static dielectric constant tensor:
#      x y z
#    x 1.962660 -0.000010 0.007520 
#    y -0.000010 1.868450 0.000030 
#    z 0.007520 0.000030 1.919990 
# 
# From -- ./inp_files/208551.got.cif
#   From: 2010.05.17/outbox.cif.g08.bks.cpg/sg12_105_cif.got.tgz:208551.got - 2010.06.03 13:09:07.
