data_PCOD9221554
_publ_section_title
;
Structure prediction by ZEFSAII (Michael W. Deem and Ramdas Pophale) SiO2 
 PCOD9221554
Probable space group: C 2/M
;
_chemical_formula_sum "Si O2"
_cell_formula_units_Z 24
_cell_length_a 13.829327
_cell_length_b 13.812310
_cell_length_c 10.861140
_cell_angle_alpha 90.000000
_cell_angle_beta 142.066709
_cell_angle_gamma 90.000000
_cell_volume 1275.371710
_symmetry_space_group_name_H-M "C 2/M"
_symmetry_group_IT_number 12
_symmetry_cell_setting 'monoclinic'
loop_
_space_group_symop_operation_xyz
x,y,z
-x,y,-z
-x,-y,-z
x,-y,z
1/2+x,1/2+y,z
1/2-x,1/2+y,-z
1/2-x,1/2-y,-z
1/2+x,1/2-y,z
loop_
_atom_site_type_symbol
_atom_site_label
_atom_site_fract_x
_atom_site_fract_y
_atom_site_fract_z
Si Si1 0.810527 0.294352 0.688707
Si Si2 0.836632 0.784656 0.967480
Si Si3 0.943788 0.000000 0.084780
Si Si4 0.639655 0.500000 0.533558
O O1 0.750000 0.250000 0.500000
O O2 0.755524 0.236402 0.755223
O O3 0.747582 0.403350 0.646732
O O4 0.997413 0.273190 0.870161
O O5 0.750000 0.750000 0.000000
O O6 0.856595 0.898578 0.005522
O O7 0.063457 0.000000 0.320136
O O8 0.000000 0.000000 0.000000
O O9 0.500000 0.500000 0.500000
#
# Coordination Sequence:
#
# PCOD9221554 Si02
#       4
#     8   8   4   4
#     4  11  23  41  63  96 128 165 218 266 317 387
#     4  11  24  40  66  95 131 166 218 271 321 380
#     4  12  20  43  65  89 125 179 206 255 333 382
#     4  12  24  40  69  95 129 176 215 263 333 384
#
# _framework density 18.818041999999998
#
# number of rings (size 3 to 8) (size 9 to 14) (size 15 to 20)
#    0.000    0.667    6.667    2.000    0.000    4.000 
#    0.000    0.000    0.000    6.000    0.000    0.000 
#    0.000    0.000    0.000    0.000    0.000    0.000 
#
# Total GULP energy -66862.844259 kJ/mol
# GULP energy per Si atom -5571.903688 kJ/mol
# Density = 1.877521 g / cm^3
# Si number density = 18.818042 Si / 1000 Ang^3
#
#
#
# Elastic Constant Matrix: (Units=GPa)
#
#
# Indices 1 2 3 4 5 6 
#
# 1 176.9571 75.0163 47.5952 0.0000 -23.1295 0.0000
# 2 75.0163 220.5121 52.6694 0.0000 6.0508 0.0000
# 3 47.5952 52.6694 93.7620 0.0000 -37.4021 0.0000
# 4 0.0000 0.0000 0.0000 38.8449 0.0000 4.4324
# 5 -23.1295 6.0508 -37.4021 0.0000 26.0538 0.0000
# 6 0.0000 0.0000 0.0000 4.4324 0.0000 32.6699
#
#
#
# Elastic Compliance Matrix: (Units=1/GPa)
#
#
# Indices 1 2 3 4 5 6 
#
# 1 0.008061 -0.003758 0.002860 0.000000 0.012135 0.000000
# 2 -0.003758 0.009742 -0.013568 0.000000 -0.025077 0.000000
# 3 0.002860 -0.013568 0.044707 0.000000 0.069869 0.000000
# 4 0.000000 0.000000 0.000000 0.026148 0.000000 -0.003548
# 5 0.012135 -0.025077 0.069869 0.000000 0.155281 0.000000
# 6 0.000000 0.000000 0.000000 -0.003548 0.000000 0.031091
#
#
# Mechanical properties :
#
#
# Convention : Reuss Voigt Hill
#
# Bulk Modulus (GPa) = 29.78272 93.53255 61.65764
# Shear Modulus (GPa) = 15.86515 40.57706 28.22111
#
# Velocity S-wave (km/s) = 2.90674 4.64862 3.87678
# Velocity P-wave (km/s) = 5.20831 8.86704 7.27155
#
# Compressibility (1/GPa) = 0.03357651
#
# Stress axis : x y z
#
# Youngs Moduli (GPa) = 124.04970 102.64421 22.36807
#
# Poissons Ratio (x) = 0.38578 -0.06397
# Poissons Ratio (y) = 0.46623 0.30350
# Poissons Ratio (z) = -0.35476 1.39271
#
# Static dielectric constant tensor:
#      x y z
#    x 1.619670 0.000000 0.079000 
#    y 0.000000 1.600490 0.000000 
#    z 0.079000 0.000000 1.530550 
# 
# From -- ./inp_files/58141.got.cif
#   From: 2010.05.17/outbox.cif.g08.bks.cpg/sg12_30_cif.got.tgz:58141.got - 2010.06.03 13:09:07.
