data_PCOD9221605
_publ_section_title
;
Structure prediction by ZEFSAII (Michael W. Deem and Ramdas Pophale) SiO2 
 PCOD9221605
Probable space group: C 2/M
;
_chemical_formula_sum "Si O2"
_cell_formula_units_Z 28
_cell_length_a 25.155598
_cell_length_b 13.097610
_cell_length_c 10.422299
_cell_angle_alpha 90.000000
_cell_angle_beta 157.743499
_cell_angle_gamma 90.000000
_cell_volume 1300.609832
_symmetry_space_group_name_H-M "C 2/M"
_symmetry_group_IT_number 12
_symmetry_cell_setting 'monoclinic'
loop_
_space_group_symop_operation_xyz
x,y,z
-x,y,-z
-x,-y,-z
x,-y,z
1/2+x,1/2+y,z
1/2-x,1/2+y,-z
1/2-x,1/2-y,-z
1/2+x,1/2-y,z
loop_
_atom_site_type_symbol
_atom_site_label
_atom_site_fract_x
_atom_site_fract_y
_atom_site_fract_z
Si Si1 0.855428 0.282942 0.127903
Si Si2 0.334345 0.000000 0.988279
Si Si3 0.007658 0.000000 0.167945
Si Si4 0.427865 0.000000 0.702985
Si Si5 0.285960 0.680842 0.710506
O O1 0.000000 0.236743 0.500000
O O2 0.750000 0.250000 0.000000
O O3 0.857989 0.403497 0.129314
O O4 0.816852 0.255413 0.896619
O O5 0.170634 0.000000 0.575026
O O6 0.451604 0.000000 0.136473
O O7 0.000000 0.000000 0.000000
O O8 0.920100 0.896264 0.003580
O O9 0.334977 0.103684 0.506157
O O10 0.500000 0.000000 0.000000
O O11 0.250000 0.750000 0.500000
#
# Coordination Sequence:
#
# PCOD9221605 Si02
#       5
#     8   4   4   4   8
#     4  12  26  45  68  98 135 178 223 279 341 405
#     4  12  25  43  66 100 137 177 226 280 340 409
#     4  11  23  41  67 101 136 174 224 282 336 402
#     4  11  23  42  70 103 137 175 226 286 338 399
#     4  11  25  46  71  99 135 180 229 278 338 406
#
# _framework density 21.528362999999999
#
# number of rings (size 3 to 8) (size 9 to 14) (size 15 to 20)
#    0.000    0.571    0.000    9.000    0.000    8.000 
#    0.000    6.429    0.000    0.000    0.000    0.000 
#    0.000    0.000    0.000    0.000    0.000    0.000 
#
# Total GULP energy -78090.334485 kJ/mol
# GULP energy per Si atom -5577.881035 kJ/mol
# Density = 2.147936 g / cm^3
# Si number density = 21.528363 Si / 1000 Ang^3
#
#
#
# Elastic Constant Matrix: (Units=GPa)
#
#
# Indices 1 2 3 4 5 6 
#
# 1 165.1158 63.2525 63.8563 0.0000 13.7649 0.0000
# 2 63.2525 144.3711 32.0021 0.0000 3.8624 0.0000
# 3 63.8563 32.0021 155.4614 0.0000 12.9644 0.0000
# 4 0.0000 0.0000 0.0000 22.9766 0.0000 -5.7125
# 5 13.7649 3.8624 12.9644 0.0000 53.7510 0.0000
# 6 0.0000 0.0000 0.0000 -5.7125 0.0000 35.1954
#
#
#
# Elastic Compliance Matrix: (Units=1/GPa)
#
#
# Indices 1 2 3 4 5 6 
#
# 1 0.008372 -0.003034 -0.002708 0.000000 -0.001273 0.000000
# 2 -0.003034 0.008358 -0.000499 0.000000 0.000297 0.000000
# 3 -0.002708 -0.000499 0.007743 0.000000 -0.001138 0.000000
# 4 0.000000 0.000000 0.000000 0.045353 0.000000 0.007361
# 5 -0.001273 0.000297 -0.001138 0.000000 0.019183 0.000000
# 6 0.000000 0.000000 0.000000 0.007361 0.000000 0.029608
#
#
# Mechanical properties :
#
#
# Convention : Reuss Voigt Hill
#
# Bulk Modulus (GPa) = 83.39743 87.01889 85.20816
# Shear Modulus (GPa) = 37.01085 42.77377 39.89231
#
# Velocity S-wave (km/s) = 4.15078 4.46225 4.30933
# Velocity P-wave (km/s) = 7.86095 8.18885 8.02657
#
# Compressibility (1/GPa) = 0.01199078
#
# Stress axis : x y z
#
# Youngs Moduli (GPa) = 119.44700 119.63991 129.15651
#
# Poissons Ratio (x) = 0.36294 0.34978
# Poissons Ratio (y) = 0.36235 0.06449
# Poissons Ratio (z) = 0.32348 0.05973
#
# Static dielectric constant tensor:
#      x y z
#    x 1.704610 0.000000 -0.020800 
#    y 0.000000 1.628460 0.000000 
#    z -0.020800 0.000000 1.731610 
# 
# From -- ./inp_files/86201.got.cif
#   From: 2010.05.17/outbox.cif.g08.bks.cpg/sg12_44_cif.got.tgz:86201.got - 2010.06.03 13:09:07.
