data_PCOD9221353
_publ_section_title
;
Structure prediction by ZEFSAII (Michael W. Deem and Ramdas Pophale) SiO2 
 PCOD9221353
Probable space group: C 2/M
;
_chemical_formula_sum "Si O2"
_cell_formula_units_Z 42
_cell_length_a 14.912263
_cell_length_b 7.382068
_cell_length_c 15.590697
_cell_angle_alpha 90.000000
_cell_angle_beta 110.019720
_cell_angle_gamma 90.000000
_cell_volume 1612.569755
_symmetry_space_group_name_H-M "C 2/M"
_symmetry_group_IT_number 12
_symmetry_cell_setting 'monoclinic'
loop_
_space_group_symop_operation_xyz
x,y,z
-x,y,-z
-x,-y,-z
x,-y,z
1/2+x,1/2+y,z
1/2-x,1/2+y,-z
1/2-x,1/2-y,-z
1/2+x,1/2-y,z
loop_
_atom_site_type_symbol
_atom_site_label
_atom_site_fract_x
_atom_site_fract_y
_atom_site_fract_z
Si Si1 0.000000 0.500000 0.000000
Si Si2 0.408758 0.718242 0.665427
Si Si3 0.053370 0.199572 0.137372
Si Si4 0.368939 0.718519 0.287124
Si Si5 0.771243 0.284605 0.908809
Si Si6 0.614492 0.281731 0.524266
O O1 0.986115 0.343608 0.070980
O O2 0.398114 0.500000 0.660378
O O3 0.393805 0.771365 0.758953
O O4 0.520470 0.764357 0.689217
O O5 0.358603 0.787406 0.561968
O O6 0.136927 0.185017 0.095980
O O7 0.010486 0.000000 0.140784
O O8 0.363871 0.500000 0.288975
O O9 0.311418 0.770640 0.184309
O O10 0.337382 0.784970 0.371702
O O11 0.794058 0.500000 0.906063
O O12 0.750000 0.250000 0.000000
O O13 0.500000 0.248920 0.500000
O O14 0.624805 0.500000 0.526014
#
# Coordination Sequence:
#
# PCOD9221353 Si02
#       6
#     2   8   8   8   8   8
#     4  12  26  44  64  86 118 160 202 244 300 354
#     4   8  15  29  55  87 116 149 194 245 293 348
#     4  11  24  42  62  89 121 154 200 250 295 356
#     4   8  15  28  52  82 115 154 197 242 293 349
#     4  11  23  39  56  83 121 160 203 249 300 357
#     4   7  10  22  46  81 115 145 190 242 288 343
#
# _framework density 26.045386000000001
#
# number of rings (size 3 to 8) (size 9 to 14) (size 15 to 20)
#    0.000    2.857    0.952    3.143    2.667    0.000 
#    0.000    0.952    0.000    0.000    4.952    2.000 
#    0.000    0.000    0.000    0.000    0.000    0.000 
#
# Total GULP energy -117037.240414 kJ/mol
# GULP energy per Si atom -5573.201924 kJ/mol
# Density = 2.598611 g / cm^3
# Si number density = 26.045386 Si / 1000 Ang^3
#
#
#
# Elastic Constant Matrix: (Units=GPa)
#
#
# Indices 1 2 3 4 5 6 
#
# 1 29.1729 4.0668 38.9039 0.0000 -12.5027 0.0000
# 2 4.0668 118.5517 39.6130 0.0000 0.6640 0.0000
# 3 38.9039 39.6130 284.6190 0.0000 -31.0571 0.0000
# 4 0.0000 0.0000 0.0000 -12.2888 0.0000 23.4659
# 5 -12.5027 0.6640 -31.0571 0.0000 47.6323 0.0000
# 6 0.0000 0.0000 0.0000 23.4659 0.0000 -20.1867
#
#
#
# Elastic Compliance Matrix: (Units=1/GPa)
#
#
# Indices 1 2 3 4 5 6 
#
# 1 0.044818 0.000166 -0.005238 0.000000 0.008346 0.000000
# 2 0.000166 0.008891 -0.001366 0.000000 -0.000971 0.000000
# 3 -0.005238 -0.001366 0.004599 0.000000 0.001643 0.000000
# 4 0.000000 0.000000 0.000000 0.066716 0.000000 0.077553
# 5 0.008346 -0.000971 0.001643 0.000000 0.024269 0.000000
# 6 0.000000 0.000000 0.000000 0.077553 0.000000 0.040613
#
#
# Mechanical properties :
#
#
# Convention : Reuss Voigt Hill
#
# Bulk Modulus (GPa) = 22.01129 66.39013 44.20071
# Shear Modulus (GPa) = 22.94344 26.34869 24.64606
#
# Velocity S-wave (km/s) = 2.97122 3.18409 3.07949
# Velocity P-wave (km/s) = 4.49893 6.25007 5.44535
#
# Compressibility (1/GPa) = 0.04543122
#
# Stress axis : x y z
#
# Youngs Moduli (GPa) = 22.31253 112.46861 217.44424
#
# Poissons Ratio (x) = -0.01869 1.13908
# Poissons Ratio (y) = -0.00371 0.29707
# Poissons Ratio (z) = 0.11688 0.15365
#
# Static dielectric constant tensor:
#      x y z
#    x 2.181870 0.000000 0.122950 
#    y 0.000000 2.086070 0.000000 
#    z 0.122950 0.000000 2.182030 
# 
# From -- ./inp_files/220782.got.cif
#   From: 2010.05.17/outbox.cif.g08.bks.cpg/sg12_111_cif.got.tgz:220782.got - 2010.06.03 13:09:07.
