data_PCOD9221099
_publ_section_title
;
Structure prediction by ZEFSAII (Michael W. Deem and Ramdas Pophale) SiO2 
 PCOD9221099
Probable space group: C 2/M
;
_chemical_formula_sum "Si O2"
_cell_formula_units_Z 24
_cell_length_a 14.129262
_cell_length_b 13.396068
_cell_length_c 9.990916
_cell_angle_alpha 90.000000
_cell_angle_beta 44.999597
_cell_angle_gamma 90.000000
_cell_volume 1337.162156
_symmetry_space_group_name_H-M "C 2/M"
_symmetry_group_IT_number 12
_symmetry_cell_setting 'monoclinic'
loop_
_space_group_symop_operation_xyz
x,y,z
-x,y,-z
-x,-y,-z
x,-y,z
1/2+x,1/2+y,z
1/2-x,1/2+y,-z
1/2-x,1/2-y,-z
1/2+x,1/2-y,z
loop_
_atom_site_type_symbol
_atom_site_label
_atom_site_fract_x
_atom_site_fract_y
_atom_site_fract_z
Si Si1 0.565650 0.500000 0.217300
Si Si2 0.217050 0.000000 0.348597
Si Si3 0.132063 0.789028 0.024177
Si Si4 0.156243 0.710972 0.711696
O O1 0.660977 0.500000 0.253114
O O2 0.414094 0.500000 0.424935
O O3 0.593629 0.400825 0.104650
O O4 0.301721 0.900825 0.291906
O O5 0.998560 0.722181 0.174223
O O6 0.250000 0.750000 0.000000
O O7 0.172789 0.777819 0.828651
O O8 0.250000 0.750000 0.500000
#
# Coordination Sequence:
#
# PCOD9221099 Si02
#       4
#     4   4   8   8
#     4  11  22  41  71  94 130 183 218 259 337 398
#     4  11  22  41  71  94 130 183 218 259 337 398
#     4  11  24  41  66  99 132 168 219 274 321 386
#     4  11  24  41  66  99 132 168 219 274 321 386
#
# _framework density 17.948460000000001
#
# number of rings (size 3 to 8) (size 9 to 14) (size 15 to 20)
#    0.000    1.000    6.667    0.000    0.000    9.333 
#    0.000    0.000    0.000    4.000    0.000    0.000 
#    0.000    0.000    0.000    0.000    0.000    0.000 
#
# Total GULP energy -67062.545286 kJ/mol
# GULP energy per Si atom -5588.545440 kJ/mol
# Density = 1.790761 g / cm^3
# Si number density = 17.948460 Si / 1000 Ang^3
#
#
#
# Elastic Constant Matrix: (Units=GPa)
#
#
# Indices 1 2 3 4 5 6 
#
# 1 145.6145 68.2608 81.1553 0.0000 -16.2452 0.0000
# 2 68.2608 177.6895 68.2581 0.0000 0.0004 0.0000
# 3 81.1553 68.2581 145.6063 0.0000 16.2512 0.0000
# 4 0.0000 0.0000 0.0000 38.2751 0.0000 0.0002
# 5 -16.2452 0.0004 16.2512 0.0000 32.9393 0.0000
# 6 0.0000 0.0000 0.0000 0.0002 0.0000 38.2767
#
#
#
# Elastic Compliance Matrix: (Units=1/GPa)
#
#
# Indices 1 2 3 4 5 6 
#
# 1 0.013193 -0.002204 -0.007457 0.000000 0.010185 0.000000
# 2 -0.002204 0.007321 -0.002204 0.000000 0.000000 0.000000
# 3 -0.007457 -0.002204 0.013194 0.000000 -0.010187 0.000000
# 4 0.000000 0.000000 0.000000 0.026127 0.000000 0.000000
# 5 0.010185 0.000000 -0.010187 0.000000 0.040408 0.000000
# 6 0.000000 0.000000 0.000000 0.000000 0.000000 0.026126
#
#
# Mechanical properties :
#
#
# Convention : Reuss Voigt Hill
#
# Bulk Modulus (GPa) = 100.20866 100.47321 100.34093
# Shear Modulus (GPa) = 32.58961 38.64728 35.61844
#
# Velocity S-wave (km/s) = 4.26576 4.64533 4.45959
# Velocity P-wave (km/s) = 8.95628 9.21262 9.08535
#
# Compressibility (1/GPa) = 0.00997918
#
# Stress axis : x y z
#
# Youngs Moduli (GPa) = 75.79931 136.59545 75.79139
#
# Poissons Ratio (x) = 0.30100 0.56517
# Poissons Ratio (y) = 0.16703 0.16703
# Poissons Ratio (z) = 0.56523 0.30102
#
# Static dielectric constant tensor:
#      x y z
#    x 1.606390 0.000000 0.000000 
#    y 0.000000 1.579390 0.000000 
#    z 0.000000 0.000000 1.606400 
# 
# From -- ./inp_files/57557.got.cif
#   From: 2010.05.17/outbox.cif.g08.bks.cpg/sg12_29_cif.got.tgz:57557.got - 2010.06.03 13:09:07.
