data_PCOD9221750
_publ_section_title
;
Structure prediction by ZEFSAII (Michael W. Deem and Ramdas Pophale) SiO2 
 PCOD9221750
Probable space group: C 2/M
;
_chemical_formula_sum "Si O2"
_cell_formula_units_Z 44
_cell_length_a 10.667388
_cell_length_b 23.480686
_cell_length_c 13.709561
_cell_angle_alpha 90.000000
_cell_angle_beta 139.588298
_cell_angle_gamma 90.000000
_cell_volume 2226.137462
_symmetry_space_group_name_H-M "C 2/M"
_symmetry_group_IT_number 12
_symmetry_cell_setting 'monoclinic'
loop_
_space_group_symop_operation_xyz
x,y,z
-x,y,-z
-x,-y,-z
x,-y,z
1/2+x,1/2+y,z
1/2-x,1/2+y,-z
1/2-x,1/2-y,-z
1/2+x,1/2-y,z
loop_
_atom_site_type_symbol
_atom_site_label
_atom_site_fract_x
_atom_site_fract_y
_atom_site_fract_z
Si Si1 0.422504 0.000000 0.652568
Si Si2 0.050332 0.220713 0.915435
Si Si3 0.373488 0.401897 0.514386
Si Si4 0.556232 0.595754 0.830637
Si Si5 0.118866 0.500000 0.972416
Si Si6 0.847882 0.000000 0.818779
Si Si7 0.287954 0.274017 0.414975
O O1 0.294250 0.944945 0.555201
O O2 0.473623 0.000000 0.796837
O O3 0.371203 0.000000 0.276801
O O4 0.067442 0.154570 0.895076
O O5 0.876030 0.249965 0.752791
O O6 0.250000 0.250000 0.000000
O O7 0.000000 0.226007 0.000000
O O8 0.500000 0.426316 0.500000
O O9 0.505526 0.392196 0.687867
O O10 0.288891 0.342366 0.425560
O O11 0.393156 0.555776 0.782252
O O12 0.745403 0.555943 0.950789
O O13 0.000000 0.500000 0.000000
O O14 0.000000 0.000000 0.000000
O O15 0.500000 0.257745 0.500000
O O16 0.250000 0.250000 0.500000
#
# Coordination Sequence:
#
# PCOD9221750 Si02
#       7
#     4   8   8   8   4   4   8
#     4  12  24  41  70 102 126 186 223 281 344 411
#     4  12  28  45  74 106 141 184 243 296 354 419
#     4  11  25  44  70  98 140 173 231 283 345 417
#     4  11  24  46  67  99 140 183 221 293 343 412
#     4  11  24  41  70 100 140 177 230 280 356 412
#     4  11  23  43  66  96 142 172 224 280 341 408
#     4  11  24  47  70 101 139 187 230 286 350 417
#
# _framework density 19.765177000000001
#
# number of rings (size 3 to 8) (size 9 to 14) (size 15 to 20)
#    0.000    0.727    3.636    4.091    5.091    3.636 
#    0.000    0.000    0.000    0.000    0.000    0.000 
#    0.000    0.000    0.000    0.000    0.000    0.000 
#
# Total GULP energy -123060.946479 kJ/mol
# GULP energy per Si atom -5593.679385 kJ/mol
# Density = 1.972019 g / cm^3
# Si number density = 19.765177 Si / 1000 Ang^3
#
#
#
# Elastic Constant Matrix: (Units=GPa)
#
#
# Indices 1 2 3 4 5 6 
#
# 1 159.5095 49.2433 48.0178 0.0000 -3.0729 0.0000
# 2 49.2433 133.1548 45.6159 0.0000 8.2973 0.0000
# 3 48.0178 45.6159 136.3315 0.0000 -11.6581 0.0000
# 4 0.0000 0.0000 0.0000 19.2700 0.0000 -11.3373
# 5 -3.0729 8.2973 -11.6581 0.0000 45.2548 0.0000
# 6 0.0000 0.0000 0.0000 -11.3373 0.0000 13.2401
#
#
#
# Elastic Compliance Matrix: (Units=1/GPa)
#
#
# Indices 1 2 3 4 5 6 
#
# 1 0.007512 -0.002157 -0.001888 0.000000 0.000419 0.000000
# 2 -0.002157 0.009351 -0.002585 0.000000 -0.002527 0.000000
# 3 -0.001888 -0.002585 0.009095 0.000000 0.002689 0.000000
# 4 0.000000 0.000000 0.000000 0.104581 0.000000 0.089552
# 5 0.000419 -0.002527 0.002689 0.000000 0.023281 0.000000
# 6 0.000000 0.000000 0.000000 0.089552 0.000000 0.152210
#
#
# Mechanical properties :
#
#
# Convention : Reuss Voigt Hill
#
# Bulk Modulus (GPa) = 78.76023 79.41666 79.08845
# Shear Modulus (GPa) = 15.45484 34.62756 25.04120
#
# Velocity S-wave (km/s) = 2.79932 4.19017 3.56327
# Velocity P-wave (km/s) = 7.09808 7.97981 7.55182
#
# Compressibility (1/GPa) = 0.01269676
#
# Stress axis : x y z
#
# Youngs Moduli (GPa) = 133.12656 106.94162 109.95160
#
# Poissons Ratio (x) = 0.23070 0.20759
# Poissons Ratio (y) = 0.28719 0.28423
# Poissons Ratio (z) = 0.25135 0.27645
#
# Static dielectric constant tensor:
#      x y z
#    x 1.690880 0.000000 -0.019320 
#    y 0.000000 1.680630 0.000000 
#    z -0.019320 0.000000 1.697030 
# 
# From -- ./inp_files/136127.got.cif
#   From: 2010.05.17/outbox.cif.g08.bks.cpg/sg12_69_cif.got.tgz:136127.got - 2010.06.03 13:09:07.
