data_PCOD9221720
_publ_section_title
;
Structure prediction by ZEFSAII (Michael W. Deem and Ramdas Pophale) SiO2 
 PCOD9221720
Probable space group: C 2/M
;
_chemical_formula_sum "Si O2"
_cell_formula_units_Z 40
_cell_length_a 17.298230
_cell_length_b 10.162375
_cell_length_c 24.035195
_cell_angle_alpha 90.000000
_cell_angle_beta 153.991724
_cell_angle_gamma 90.000000
_cell_volume 1852.742609
_symmetry_space_group_name_H-M "C 2/M"
_symmetry_group_IT_number 12
_symmetry_cell_setting 'monoclinic'
loop_
_space_group_symop_operation_xyz
x,y,z
-x,y,-z
-x,-y,-z
x,-y,z
1/2+x,1/2+y,z
1/2-x,1/2+y,-z
1/2-x,1/2-y,-z
1/2+x,1/2-y,z
loop_
_atom_site_type_symbol
_atom_site_label
_atom_site_fract_x
_atom_site_fract_y
_atom_site_fract_z
Si Si1 0.946592 0.212087 0.284468
Si Si2 0.832676 0.655271 0.802185
Si Si3 0.208809 0.348402 0.624495
Si Si4 0.261547 0.137085 0.564828
Si Si5 0.766497 0.647029 0.960773
O O1 0.783176 0.202609 0.220618
O O2 0.107315 0.138392 0.419416
O O3 0.045119 0.349897 0.336995
O O4 0.879046 0.162875 0.181233
O O5 0.788142 0.500000 0.762723
O O6 0.790066 0.755631 0.724728
O O7 0.042922 0.660953 0.945264
O O8 0.274321 0.500000 0.665523
O O9 0.235998 0.264815 0.586172
O O10 0.000000 0.354372 0.500000
O O11 0.248208 0.000000 0.588639
O O12 0.757266 0.500000 0.978501
O O13 0.750000 0.750000 0.000000
#
# Coordination Sequence:
#
# PCOD9221720 Si02
#       5
#     8   8   8   8   8
#     4  11  24  41  66  99 131 167 216 275 324 375
#     4  11  23  42  70  99 128 172 222 267 320 390
#     4  11  24  41  63  96 135 172 212 265 324 383
#     4  11  24  42  68  98 132 176 220 265 321 390
#     4  11  25  45  68  94 128 170 220 269 325 390
#
# _framework density 21.589614999999998
#
# number of rings (size 3 to 8) (size 9 to 14) (size 15 to 20)
#    0.000    1.000    2.000    4.200    0.000   12.800 
#    0.000    0.000    0.000    3.600    0.000    0.000 
#    0.000    0.000    0.000    0.000    0.000    0.000 
#
# Total GULP energy -111662.702947 kJ/mol
# GULP energy per Si atom -5583.135147 kJ/mol
# Density = 2.154048 g / cm^3
# Si number density = 21.589615 Si / 1000 Ang^3
#
#
#
# Elastic Constant Matrix: (Units=GPa)
#
#
# Indices 1 2 3 4 5 6 
#
# 1 128.4269 77.4303 52.1472 -0.0001 -0.9693 0.0000
# 2 77.4303 174.7029 64.4569 -0.0002 -7.8982 -0.0001
# 3 52.1472 64.4569 120.7650 -0.0003 3.0369 -0.0001
# 4 -0.0001 -0.0002 -0.0003 4.7946 -0.0001 -1.5109
# 5 -0.9693 -7.8982 3.0369 -0.0001 43.3510 0.0000
# 6 0.0000 -0.0001 -0.0001 -1.5109 0.0000 21.4464
#
#
#
# Elastic Compliance Matrix: (Units=1/GPa)
#
#
# Indices 1 2 3 4 5 6 
#
# 1 0.011319 -0.004021 -0.002734 0.000000 -0.000288 0.000000
# 2 -0.004021 0.008664 -0.002931 0.000000 0.001694 0.000000
# 3 -0.002734 -0.002931 0.011060 0.000001 -0.001370 0.000000
# 4 0.000000 0.000000 0.000001 0.213305 0.000000 0.015027
# 5 -0.000288 0.001694 -0.001370 0.000000 0.023466 0.000000
# 6 0.000000 0.000000 0.000000 0.015027 0.000000 0.047687
#
#
# Mechanical properties :
#
#
# Convention : Reuss Voigt Hill
#
# Bulk Modulus (GPa) = 85.68125 90.21819 87.94972
# Shear Modulus (GPa) = 14.75963 29.24242 22.00103
#
# Velocity S-wave (km/s) = 2.61750 3.68430 3.19573
# Velocity P-wave (km/s) = 6.99339 7.74450 7.37851
#
# Compressibility (1/GPa) = 0.01167117
#
# Stress axis : x y z
#
# Youngs Moduli (GPa) = 88.34866 115.42106 90.41722
#
# Poissons Ratio (x) = 0.46409 0.24722
# Poissons Ratio (y) = 0.35524 0.26498
# Poissons Ratio (z) = 0.24156 0.33826
#
# Static dielectric constant tensor:
#      x y z
#    x 1.802500 0.000000 0.018490 
#    y 0.000000 1.797920 0.000000 
#    z 0.018490 0.000000 1.774000 
# 
# From -- ./inp_files/342760.got.cif
#   From: 2010.05.17/outbox.cif.g08.bks.cpg/sg12_172_cif.got.tgz:342760.got - 2010.06.03 13:09:07.
