data_PCOD9221637
_publ_section_title
;
Structure prediction by ZEFSAII (Michael W. Deem and Ramdas Pophale) SiO2 
 PCOD9221637
Probable space group: C 2/M
;
_chemical_formula_sum "Si O2"
_cell_formula_units_Z 32
_cell_length_a 10.204819
_cell_length_b 17.168510
_cell_length_c 8.172835
_cell_angle_alpha 90.000000
_cell_angle_beta 75.294505
_cell_angle_gamma 90.000000
_cell_volume 1384.989316
_symmetry_space_group_name_H-M "C 2/M"
_symmetry_group_IT_number 12
_symmetry_cell_setting 'monoclinic'
loop_
_space_group_symop_operation_xyz
x,y,z
-x,y,-z
-x,-y,-z
x,-y,z
1/2+x,1/2+y,z
1/2-x,1/2+y,-z
1/2-x,1/2-y,-z
1/2+x,1/2-y,z
loop_
_atom_site_type_symbol
_atom_site_label
_atom_site_fract_x
_atom_site_fract_y
_atom_site_fract_z
Si Si1 0.498423 0.586863 0.698671
Si Si2 0.764705 0.794308 0.826854
Si Si3 0.066285 0.589947 0.735043
Si Si4 0.201145 0.635209 0.345003
O O1 0.500000 0.592290 0.500000
O O2 0.452812 0.500000 0.756294
O O3 0.394899 0.650813 0.792480
O O4 0.648866 0.601412 0.716890
O O5 0.635690 0.848227 0.831447
O O6 0.787500 0.728252 0.681155
O O7 0.750000 0.750000 0.000000
O O8 0.088594 0.500000 0.773520
O O9 0.142319 0.607648 0.538163
O O10 0.908287 0.605022 0.751209
#
# Coordination Sequence:
#
# PCOD9221637 Si02
#       4
#     8   8   8   8
#     4  11  23  43  73 105 137 184 242 295 349 419
#     4  12  27  45  67 103 147 191 233 292 366 431
#     4  11  23  44  71 103 141 183 238 297 356 422
#     4  11  23  41  72 107 138 184 240 295 355 424
#
# _framework density 23.104872
#
# number of rings (size 3 to 8) (size 9 to 14) (size 15 to 20)
#    0.000    0.750    2.500    6.000    3.500    4.000 
#    0.000   10.000    0.000    0.000    0.000    0.000 
#    0.000    0.000    0.000    0.000    0.000    0.000 
#
# Total GULP energy -89698.396656 kJ/mol
# GULP energy per Si atom -5606.149791 kJ/mol
# Density = 2.305228 g / cm^3
# Si number density = 23.104872 Si / 1000 Ang^3
#
#
#
# Elastic Constant Matrix: (Units=GPa)
#
#
# Indices 1 2 3 4 5 6 
#
# 1 131.3662 61.3025 26.6078 0.0000 10.4116 0.0000
# 2 61.3025 203.2507 44.7301 0.0000 3.8687 0.0000
# 3 26.6078 44.7301 60.0735 0.0000 6.9673 0.0000
# 4 0.0000 0.0000 0.0000 104.3284 0.0000 211.3785
# 5 10.4116 3.8687 6.9673 0.0000 24.3344 0.0000
# 6 0.0000 0.0000 0.0000 211.3785 0.0000 801.4984
#
#
#
# Elastic Compliance Matrix: (Units=1/GPa)
#
#
# Indices 1 2 3 4 5 6 
#
# 1 0.009349 -0.002306 -0.002071 0.000000 -0.003040 0.000000
# 2 -0.002306 0.006456 -0.003911 0.000000 0.001080 0.000000
# 3 -0.002071 -0.003911 0.020998 0.000000 -0.004504 0.000000
# 4 0.000000 0.000000 0.000000 0.020584 0.000000 -0.005429
# 5 -0.003040 0.001080 -0.004504 0.000000 0.043513 0.000000
# 6 0.000000 0.000000 0.000000 -0.005429 0.000000 0.002679
#
#
# Mechanical properties :
#
#
# Convention : Reuss Voigt Hill
#
# Bulk Modulus (GPa) = 49.43965 73.33013 61.38489
# Shear Modulus (GPa) = 39.40223 203.50224 121.45223
#
# Velocity S-wave (km/s) = 4.13409 9.39515 7.25808
# Velocity P-wave (km/s) = 6.65071 12.22696 9.84202
#
# Compressibility (1/GPa) = 0.02022668
#
# Stress axis : x y z
#
# Youngs Moduli (GPa) = 106.96441 154.90345 47.62398
#
# Poissons Ratio (x) = 0.35722 0.09864
# Poissons Ratio (y) = 0.24667 0.18624
# Poissons Ratio (z) = 0.22154 0.60577
#
# Static dielectric constant tensor:
#      x y z
#    x 1.828130 0.000000 0.021870 
#    y 0.000000 1.814700 0.000000 
#    z 0.021870 0.000000 1.901870 
# 
# From -- ./inp_files/45232.got.cif
#   From: 2010.05.17/outbox.cif.g08.bks.cpg/sg12_23_cif.got.tgz:45232.got - 2010.06.03 13:09:07.
