data_PCOD9221359
_publ_section_title
;
Structure prediction by ZEFSAII (Michael W. Deem and Ramdas Pophale) SiO2 
 PCOD9221359
Probable space group: C 2/M
;
_chemical_formula_sum "Si O2"
_cell_formula_units_Z 48
_cell_length_a 14.291104
_cell_length_b 9.156407
_cell_length_c 17.767492
_cell_angle_alpha 90.000000
_cell_angle_beta 87.903181
_cell_angle_gamma 90.000000
_cell_volume 2323.411355
_symmetry_space_group_name_H-M "C 2/M"
_symmetry_group_IT_number 12
_symmetry_cell_setting 'monoclinic'
loop_
_space_group_symop_operation_xyz
x,y,z
-x,y,-z
-x,-y,-z
x,-y,z
1/2+x,1/2+y,z
1/2-x,1/2+y,-z
1/2-x,1/2-y,-z
1/2+x,1/2-y,z
loop_
_atom_site_type_symbol
_atom_site_label
_atom_site_fract_x
_atom_site_fract_y
_atom_site_fract_z
Si Si1 0.141877 0.831951 0.131214
Si Si2 0.954584 0.823544 0.324697
Si Si3 0.584541 0.668659 0.835867
Si Si4 0.711211 0.324843 0.575637
Si Si5 0.386729 0.167649 0.016415
Si Si6 0.829136 0.822456 0.702896
O O1 0.184293 0.779160 0.209181
O O2 0.028633 0.831650 0.147770
O O3 0.168861 0.000000 0.119845
O O4 0.158172 0.744555 0.054548
O O5 0.906938 0.768179 0.248616
O O6 0.896116 0.785415 0.400235
O O7 0.063176 0.785869 0.321176
O O8 0.951078 0.000000 0.317751
O O9 0.615826 0.500000 0.837771
O O10 0.629222 0.756444 0.902968
O O11 0.719009 0.500000 0.569626
O O12 0.750000 0.250000 0.500000
O O13 0.767198 0.263258 0.645493
O O14 0.359499 0.000000 0.019696
O O15 0.500000 0.174374 0.000000
O O16 0.817838 0.000000 0.698033
#
# Coordination Sequence:
#
# PCOD9221359 Si02
#       6
#     8   8   8   8   8   8
#     4   8  14  25  44  68  95 131 174 213 249 297
#     4   8  17  35  58  79 104 142 181 214 258 319
#     4   8  13  25  45  67  92 130 178 215 245 294
#     4  11  23  39  58  82 109 137 171 214 267 323
#     4   9  15  21  34  64 104 137 166 207 257 301
#     4   9  18  36  59  81 105 138 180 221 261 309
#
# _framework density 20.659278
#
# number of rings (size 3 to 8) (size 9 to 14) (size 15 to 20)
#    0.000    3.167    0.000    3.000    0.000    3.333 
#    0.000    9.167    0.000    1.000    0.000    0.000 
#    0.000    0.000    0.000    0.000    0.000    0.000 
#
# Total GULP energy -133944.314328 kJ/mol
# GULP energy per Si atom -5581.013097 kJ/mol
# Density = 2.061226 g / cm^3
# Si number density = 20.659278 Si / 1000 Ang^3
#
#
#
# Elastic Constant Matrix: (Units=GPa)
#
#
# Indices 1 2 3 4 5 6 
#
# 1 58.0687 1.4596 25.5248 0.0000 -10.9321 0.0000
# 2 1.4596 51.5164 32.6077 0.0000 0.0279 0.0000
# 3 25.5248 32.6077 92.8142 0.0000 -15.6489 0.0000
# 4 0.0000 0.0000 0.0000 36.4265 0.0000 9.1485
# 5 -10.9321 0.0279 -15.6489 0.0000 34.9817 0.0000
# 6 0.0000 0.0000 0.0000 9.1485 0.0000 9.4134
#
#
#
# Elastic Compliance Matrix: (Units=1/GPa)
#
#
# Indices 1 2 3 4 5 6 
#
# 1 0.020554 0.003350 -0.006216 0.000000 0.003640 0.000000
# 2 0.003350 0.026111 -0.010731 0.000000 -0.003774 0.000000
# 3 -0.006216 -0.010731 0.017227 0.000000 0.005772 0.000000
# 4 0.000000 0.000000 0.000000 0.036317 0.000000 -0.035294
# 5 0.003640 -0.003774 0.005772 0.000000 0.032309 0.000000
# 6 0.000000 0.000000 0.000000 -0.035294 0.000000 0.140532
#
#
# Mechanical properties :
#
#
# Convention : Reuss Voigt Hill
#
# Bulk Modulus (GPa) = 27.24912 35.73151 31.49031
# Shear Modulus (GPa) = 16.00124 25.68481 20.84303
#
# Velocity S-wave (km/s) = 2.78606 3.52981 3.17976
# Velocity P-wave (km/s) = 4.85468 5.82631 5.36255
#
# Compressibility (1/GPa) = 0.03669844
#
# Stress axis : x y z
#
# Youngs Moduli (GPa) = 48.65153 38.29849 58.04868
#
# Poissons Ratio (x) = -0.12830 0.36082
# Poissons Ratio (y) = -0.16299 0.62292
# Poissons Ratio (z) = 0.30241 0.41098
#
# Static dielectric constant tensor:
#      x y z
#    x 1.805800 0.000000 -0.028270 
#    y 0.000000 1.689480 0.000000 
#    z -0.028270 0.000000 1.731070 
# 
# From -- ./inp_files/267644.got.cif
#   From: 2010.05.17/outbox.cif.g08.bks.cpg/sg12_134_cif.got.tgz:267644.got - 2010.06.03 13:09:07.
