data_PCOD9221676
_publ_section_title
;
Structure prediction by ZEFSAII (Michael W. Deem and Ramdas Pophale) SiO2 
 PCOD9221676
Probable space group: C 2/M
;
_chemical_formula_sum "Si O2"
_cell_formula_units_Z 44
_cell_length_a 18.721311
_cell_length_b 8.251834
_cell_length_c 23.410638
_cell_angle_alpha 90.000000
_cell_angle_beta 143.863203
_cell_angle_gamma 90.000000
_cell_volume 2132.761417
_symmetry_space_group_name_H-M "C 2/M"
_symmetry_group_IT_number 12
_symmetry_cell_setting 'monoclinic'
loop_
_space_group_symop_operation_xyz
x,y,z
-x,y,-z
-x,-y,-z
x,-y,z
1/2+x,1/2+y,z
1/2-x,1/2+y,-z
1/2-x,1/2-y,-z
1/2+x,1/2-y,z
loop_
_atom_site_type_symbol
_atom_site_label
_atom_site_fract_x
_atom_site_fract_y
_atom_site_fract_z
Si Si1 0.996928 0.252111 0.738696
Si Si2 0.061066 0.500000 0.398063
Si Si3 0.926364 0.677981 0.084656
Si Si4 0.786238 0.000000 0.625286
Si Si5 0.677930 0.000000 0.681813
Si Si6 0.253955 0.689856 0.891681
Si Si7 0.326407 0.808966 0.823865
O O1 0.037083 0.325978 0.825638
O O2 0.133201 0.200662 0.808922
O O3 0.955443 0.352661 0.656841
O O4 0.881708 0.145980 0.681060
O O5 0.190055 0.500000 0.512093
O O6 0.958257 0.500000 0.380991
O O7 0.881382 0.500000 0.039124
O O8 0.049736 0.712196 0.130599
O O9 0.824052 0.799614 0.996718
O O10 0.710813 0.000000 0.635650
O O11 0.736284 0.168553 0.742701
O O12 0.222900 0.500000 0.860270
O O13 0.341237 0.760253 0.899466
O O14 0.290724 0.000000 0.794871
#
# Coordination Sequence:
#
# PCOD9221676 Si02
#       7
#     8   4   8   4   4   8   8
#     4  12  24  44  67  99 140 176 228 295 362 421
#     4  12  25  52  74 101 139 184 240 308 372 417
#     4  11  24  40  64  97 141 187 236 289 347 429
#     4  12  29  44  78 105 133 188 244 302 366 439
#     4  12  23  50  77 104 140 188 247 304 357 426
#     4  12  24  40  67 100 143 194 240 288 350 433
#     4  11  23  42  67 102 145 194 239 290 359 420
#
# _framework density 20.630531999999999
#
# number of rings (size 3 to 8) (size 9 to 14) (size 15 to 20)
#    0.000    0.364    6.364    2.455    5.091    2.182 
#    0.000    0.000    0.000    1.091    0.000    0.000 
#    0.000    0.000    0.000    0.000    0.000    0.000 
#
# Total GULP energy -122600.835897 kJ/mol
# GULP energy per Si atom -5572.765268 kJ/mol
# Density = 2.058358 g / cm^3
# Si number density = 20.630532 Si / 1000 Ang^3
#
#
#
# Elastic Constant Matrix: (Units=GPa)
#
#
# Indices 1 2 3 4 5 6 
#
# 1 129.8199 25.1163 27.3414 0.0000 -7.4738 0.0000
# 2 25.1163 83.9477 50.2054 0.0000 6.1792 0.0000
# 3 27.3414 50.2054 132.9719 0.0000 -3.8384 0.0000
# 4 0.0000 0.0000 0.0000 30.5316 0.0000 10.3681
# 5 -7.4738 6.1792 -3.8384 0.0000 28.4656 0.0000
# 6 0.0000 0.0000 0.0000 10.3681 0.0000 47.4384
#
#
#
# Elastic Compliance Matrix: (Units=1/GPa)
#
#
# Indices 1 2 3 4 5 6 
#
# 1 0.008457 -0.002229 -0.000822 0.000000 0.002593 0.000000
# 2 -0.002229 0.016476 -0.005905 0.000000 -0.004958 0.000000
# 3 -0.000822 -0.005905 0.009989 0.000000 0.002413 0.000000
# 4 0.000000 0.000000 0.000000 0.035379 0.000000 -0.007732
# 5 0.002593 -0.004958 0.002413 0.000000 0.037213 0.000000
# 6 0.000000 0.000000 0.000000 -0.007732 0.000000 0.022770
#
#
# Mechanical properties :
#
#
# Convention : Reuss Voigt Hill
#
# Bulk Modulus (GPa) = 58.79797 61.34063 60.06930
# Shear Modulus (GPa) = 32.49579 37.55888 35.02733
#
# Velocity S-wave (km/s) = 3.97310 4.27142 4.12496
# Velocity P-wave (km/s) = 7.04341 7.35691 7.20187
#
# Compressibility (1/GPa) = 0.01700739
#
# Stress axis : x y z
#
# Youngs Moduli (GPa) = 118.24846 60.69476 100.11215
#
# Poissons Ratio (x) = 0.13531 0.08232
# Poissons Ratio (y) = 0.26361 0.59121
# Poissons Ratio (z) = 0.09724 0.35843
#
# Static dielectric constant tensor:
#      x y z
#    x 1.775370 0.000000 -0.026190 
#    y 0.000000 1.863100 0.000000 
#    z -0.026190 0.000000 1.689300 
# 
# From -- ./inp_files/342688.got.cif
#   From: 2010.05.17/outbox.cif.g08.bks.cpg/sg12_172_cif.got.tgz:342688.got - 2010.06.03 13:09:07.
