data_PCOD9221691
_publ_section_title
;
Structure prediction by ZEFSAII (Michael W. Deem and Ramdas Pophale) SiO2 
 PCOD9221691
Probable space group: C 2/M
;
_chemical_formula_sum "Si O2"
_cell_formula_units_Z 48
_cell_length_a 9.041029
_cell_length_b 16.169322
_cell_length_c 25.564982
_cell_angle_alpha 90.000000
_cell_angle_beta 38.055856
_cell_angle_gamma 90.000000
_cell_volume 2303.766725
_symmetry_space_group_name_H-M "C 2/M"
_symmetry_group_IT_number 12
_symmetry_cell_setting 'monoclinic'
loop_
_space_group_symop_operation_xyz
x,y,z
-x,y,-z
-x,-y,-z
x,-y,z
1/2+x,1/2+y,z
1/2-x,1/2+y,-z
1/2-x,1/2-y,-z
1/2+x,1/2-y,z
loop_
_atom_site_type_symbol
_atom_site_label
_atom_site_fract_x
_atom_site_fract_y
_atom_site_fract_z
Si Si1 0.932434 0.833686 0.683262
Si Si2 0.753426 0.845548 0.232060
Si Si3 0.138057 0.838443 0.516436
Si Si4 0.578269 0.096696 0.167704
Si Si5 0.844802 0.589053 0.630968
Si Si6 0.242597 0.760580 0.063385
O O1 0.872234 0.738310 0.711824
O O2 0.703017 0.886094 0.766306
O O3 0.965638 0.855796 0.613258
O O4 0.182697 0.848987 0.642876
O O5 0.632809 0.881900 0.213485
O O6 0.737030 0.904874 0.286182
O O7 0.022831 0.816406 0.143706
O O8 0.250000 0.750000 0.500000
O O9 0.371756 0.896059 0.449950
O O10 0.000000 0.838716 0.500000
O O11 0.716884 0.170038 0.097856
O O12 0.637871 0.000000 0.140729
O O13 0.788272 0.500000 0.623876
O O14 0.500000 0.801036 0.000000
O O15 0.250000 0.750000 0.000000
#
# Coordination Sequence:
#
# PCOD9221691 Si02
#       6
#     8   8   8   8   8   8
#     4  11  23  42  68  95 132 177 222 266 322 396
#     4  11  23  42  69  94 130 176 220 266 322 398
#     4  12  25  42  68  96 129 178 229 271 321 390
#     4  11  24  42  67  98 134 171 213 271 331 383
#     4  12  26  42  66 101 136 171 218 280 332 379
#     4  11  23  44  69  98 126 169 217 265 318 398
#
# _framework density 20.835442
#
# number of rings (size 3 to 8) (size 9 to 14) (size 15 to 20)
#    0.000    0.667    3.333    5.500    2.333    2.667 
#    0.000    0.000    0.000    2.500    0.000    0.000 
#    0.000    0.000    0.000    0.000    0.000    0.000 
#
# Total GULP energy -134091.044874 kJ/mol
# GULP energy per Si atom -5587.126870 kJ/mol
# Density = 2.078802 g / cm^3
# Si number density = 20.835442 Si / 1000 Ang^3
#
#
#
# Elastic Constant Matrix: (Units=GPa)
#
#
# Indices 1 2 3 4 5 6 
#
# 1 100.3276 -3.8491 13.4005 0.0014 -3.4663 -0.0017
# 2 -3.8491 71.1820 13.6606 0.0020 -9.1118 -0.0005
# 3 13.4005 13.6606 102.0650 0.0030 -7.1614 0.0023
# 4 0.0014 0.0020 0.0030 9.2127 -0.0009 0.8043
# 5 -3.4663 -9.1118 -7.1614 -0.0009 46.8546 0.0001
# 6 -0.0017 -0.0005 0.0023 0.8043 0.0001 7.7251
#
#
#
# Elastic Compliance Matrix: (Units=1/GPa)
#
#
# Indices 1 2 3 4 5 6 
#
# 1 0.010216 0.000916 -0.001413 -0.000001 0.000718 0.000003
# 2 0.000916 0.014805 -0.001916 -0.000003 0.002654 0.000002
# 3 -0.001413 -0.001916 0.010317 -0.000002 0.001100 -0.000003
# 4 -0.000001 -0.000003 -0.000002 0.109542 0.000001 -0.011405
# 5 0.000718 0.002654 0.001100 0.000001 0.022080 -0.000001
# 6 0.000003 0.000002 -0.000003 -0.011405 -0.000001 0.130636
#
#
# Mechanical properties :
#
#
# Convention : Reuss Voigt Hill
#
# Bulk Modulus (GPa) = 32.77475 35.55541 34.16508
# Shear Modulus (GPa) = 15.99523 29.44932 22.72227
#
# Velocity S-wave (km/s) = 2.77373 3.76363 3.30594
# Velocity P-wave (km/s) = 5.10123 5.99904 5.56826
#
# Compressibility (1/GPa) = 0.03051129
#
# Stress axis : x y z
#
# Youngs Moduli (GPa) = 97.88501 67.54304 96.92924
#
# Poissons Ratio (x) = -0.06184 0.13701
# Poissons Ratio (y) = -0.08962 0.18567
# Poissons Ratio (z) = 0.13836 0.12938
#
# Static dielectric constant tensor:
#      x y z
#    x 1.703300 -0.000010 -0.009180 
#    y -0.000010 1.737700 0.000000 
#    z -0.009180 0.000000 1.776290 
# 
# From -- ./inp_files/256726.got.cif
#   From: 2010.05.17/outbox.cif.g08.bks.cpg/sg12_129_cif.got.tgz:256726.got - 2010.06.03 13:09:07.
