data_PCOD9221819
_publ_section_title
;
Structure prediction by ZEFSAII (Michael W. Deem and Ramdas Pophale) SiO2 
 PCOD9221819
Probable space group: C 2/M
;
_chemical_formula_sum "Si O2"
_cell_formula_units_Z 40
_cell_length_a 8.558381
_cell_length_b 26.074080
_cell_length_c 15.890689
_cell_angle_alpha 90.000000
_cell_angle_beta 149.488887
_cell_angle_gamma 90.000000
_cell_volume 1800.342707
_symmetry_space_group_name_H-M "C 2/M"
_symmetry_group_IT_number 12
_symmetry_cell_setting 'monoclinic'
loop_
_space_group_symop_operation_xyz
x,y,z
-x,y,-z
-x,-y,-z
x,-y,z
1/2+x,1/2+y,z
1/2-x,1/2+y,-z
1/2-x,1/2-y,-z
1/2+x,1/2-y,z
loop_
_atom_site_type_symbol
_atom_site_label
_atom_site_fract_x
_atom_site_fract_y
_atom_site_fract_z
Si Si1 0.367900 0.200352 0.671654
Si Si2 0.223494 0.706230 0.183991
Si Si3 0.498759 0.000000 0.730863
Si Si4 0.518997 0.500000 0.652965
Si Si5 0.780242 0.890578 0.824377
Si Si6 0.864581 0.901068 0.185734
O O1 0.536494 0.247401 0.704891
O O2 0.454611 0.204315 0.810763
O O3 0.490062 0.147382 0.689381
O O4 0.000000 0.203239 0.500000
O O5 0.387472 0.651316 0.248975
O O6 0.000000 0.711588 0.000000
O O7 0.685286 0.052119 0.805945
O O8 0.333554 0.000000 0.744755
O O9 0.246573 0.000000 0.539676
O O10 0.506940 0.449612 0.704649
O O11 0.959375 0.892744 0.819900
O O12 0.000000 0.869991 0.000000
O O13 0.500000 0.909798 0.000000
#
# Coordination Sequence:
#
# PCOD9221819 Si02
#       6
#     8   8   4   4   8   8
#     4  12  26  44  70 105 140 180 228 286 346 401
#     4  11  23  44  69  99 139 185 231 276 339 409
#     4  11  26  43  70  99 136 181 222 280 342 404
#     4  11  24  45  68  99 142 175 224 283 341 401
#     4  12  25  45  71 100 137 181 229 276 339 410
#     4  11  24  43  71 101 136 181 229 279 335 406
#
# _framework density 22.217991000000001
#
# number of rings (size 3 to 8) (size 9 to 14) (size 15 to 20)
#    0.000    0.600    0.000    9.000    5.600    1.600 
#    0.000    0.000    0.000    0.000    0.000    0.000 
#    0.000    0.000    0.000    0.000    0.000    0.000 
#
# Total GULP energy -112071.222513 kJ/mol
# GULP energy per Si atom -5603.561126 kJ/mol
# Density = 2.216742 g / cm^3
# Si number density = 22.217991 Si / 1000 Ang^3
#
#
#
# Elastic Constant Matrix: (Units=GPa)
#
#
# Indices 1 2 3 4 5 6 
#
# 1 170.0667 45.7254 16.9647 0.0001 1.2198 0.0000
# 2 45.7254 162.1950 30.5894 0.0001 14.3098 0.0000
# 3 16.9647 30.5894 62.6990 -0.0006 7.4563 -0.0002
# 4 0.0001 0.0001 -0.0006 -236.3478 -0.0002 -17.8902
# 5 1.2198 14.3098 7.4563 -0.0002 32.8123 -0.0001
# 6 0.0000 0.0000 -0.0002 -17.8902 -0.0001 34.1389
#
#
#
# Elastic Compliance Matrix: (Units=1/GPa)
#
#
# Indices 1 2 3 4 5 6 
#
# 1 0.006428 -0.001687 -0.001002 0.000000 0.000725 0.000000
# 2 -0.001687 0.007402 -0.002855 0.000000 -0.002516 0.000000
# 3 -0.001002 -0.002855 0.017946 0.000000 -0.002796 0.000000
# 4 0.000000 0.000000 0.000000 -0.004070 0.000000 -0.002133
# 5 0.000725 -0.002516 -0.002796 0.000000 0.032182 0.000000
# 6 0.000000 0.000000 0.000000 -0.002133 0.000000 0.028175
#
#
# Mechanical properties :
#
#
# Convention : Reuss Voigt Hill
#
# Bulk Modulus (GPa) = 48.34138 64.61328 56.47733
# Shear Modulus (GPa) = 47.14841 -13.76724 16.69059
#
# Velocity S-wave (km/s) = 4.61160 -2.49196 2.74381
# Velocity P-wave (km/s) = 7.08243 4.56780 5.95926
#
# Compressibility (1/GPa) = 0.02068621
#
# Stress axis : x y z
#
# Youngs Moduli (GPa) = 155.55814 135.10657 55.72291
#
# Poissons Ratio (x) = 0.22795 0.05586
# Poissons Ratio (y) = 0.26245 0.15911
# Poissons Ratio (z) = 0.15593 0.38577
#
# Static dielectric constant tensor:
#      x y z
#    x 1.771090 0.000000 -0.011770 
#    y 0.000000 1.771420 0.000000 
#    z -0.011770 0.000000 1.850300 
# 
# From -- ./inp_files/259366.got.cif
#   From: 2010.05.17/outbox.cif.g08.bks.cpg/sg12_130_cif.got.tgz:259366.got - 2010.06.03 13:09:07.
