data_PCOD9221728
_publ_section_title
;
Structure prediction by ZEFSAII (Michael W. Deem and Ramdas Pophale) SiO2 
 PCOD9221728
Probable space group: C 2/M
;
_chemical_formula_sum "Si O2"
_cell_formula_units_Z 52
_cell_length_a 10.447431
_cell_length_b 22.424906
_cell_length_c 14.910297
_cell_angle_alpha 90.000000
_cell_angle_beta 132.747681
_cell_angle_gamma 90.000000
_cell_volume 2565.248995
_symmetry_space_group_name_H-M "C 2/M"
_symmetry_group_IT_number 12
_symmetry_cell_setting 'monoclinic'
loop_
_space_group_symop_operation_xyz
x,y,z
-x,y,-z
-x,-y,-z
x,-y,z
1/2+x,1/2+y,z
1/2-x,1/2+y,-z
1/2-x,1/2-y,-z
1/2+x,1/2-y,z
loop_
_atom_site_type_symbol
_atom_site_label
_atom_site_fract_x
_atom_site_fract_y
_atom_site_fract_z
Si Si1 0.219739 0.568502 0.371887
Si Si2 0.000000 0.833213 0.500000
Si Si3 0.228538 0.000000 0.022687
Si Si4 0.585077 0.899936 0.636027
Si Si5 0.568755 0.765432 0.866183
Si Si6 0.498584 0.898472 0.106976
Si Si7 0.347469 0.500000 0.802081
Si Si8 0.323152 0.236893 0.283978
O O1 0.278388 0.500000 0.412713
O O2 0.354165 0.620022 0.465688
O O3 0.167782 0.577927 0.242118
O O4 0.045419 0.578641 0.347534
O O5 0.099739 0.788392 0.615024
O O6 0.344169 0.943290 0.055745
O O7 0.184188 0.000000 0.106233
O O8 0.051768 0.000000 0.882971
O O9 0.500000 0.911947 0.500000
O O10 0.756319 0.940443 0.723326
O O11 0.620055 0.829582 0.661365
O O12 0.540685 0.835255 0.867909
O O13 0.597637 0.750996 0.776054
O O14 0.388037 0.737694 0.816258
O O15 0.750000 0.750000 0.000000
O O16 0.500000 0.892885 0.000000
#
# Coordination Sequence:
#
# PCOD9221728 Si02
#       8
#     8   4   4   8   8   8   4   8
#     4  12  25  49  71 100 143 187 238 291 351 423
#     4  12  27  46  72 107 140 184 240 286 362 419
#     4  11  23  42  72  97 134 182 238 295 359 407
#     4  12  24  44  71 100 141 185 229 289 356 421
#     4  12  27  46  71 104 142 185 236 292 356 424
#     4  12  23  45  70  99 142 186 230 294 354 417
#     4  11  23  44  66 103 138 178 236 301 349 421
#     4  12  25  46  73 107 142 185 234 296 357 427
#
# _framework density 20.270937
#
# number of rings (size 3 to 8) (size 9 to 14) (size 15 to 20)
#    0.000    0.154    6.923    2.077    4.308    1.231 
#    2.769    0.000    0.000    0.000    0.000    0.000 
#    0.000    0.000    0.000    0.000    0.000    0.000 
#
# Total GULP energy -145309.197449 kJ/mol
# GULP energy per Si atom -5588.815287 kJ/mol
# Density = 2.022480 g / cm^3
# Si number density = 20.270937 Si / 1000 Ang^3
#
#
#
# Elastic Constant Matrix: (Units=GPa)
#
#
# Indices 1 2 3 4 5 6 
#
# 1 65.0934 14.3302 15.3847 0.0000 5.2769 0.0000
# 2 14.3302 134.8229 29.1766 0.0000 9.7138 0.0000
# 3 15.3847 29.1766 78.4523 0.0000 7.4252 0.0000
# 4 0.0000 0.0000 0.0000 75.2253 0.0000 78.0349
# 5 5.2769 9.7138 7.4252 0.0000 36.7736 0.0000
# 6 0.0000 0.0000 0.0000 78.0349 0.0000 142.6920
#
#
#
# Elastic Compliance Matrix: (Units=1/GPa)
#
#
# Indices 1 2 3 4 5 6 
#
# 1 0.016349 -0.001049 -0.002671 0.000000 -0.001529 0.000000
# 2 -0.001049 0.008222 -0.002712 0.000000 -0.001474 0.000000
# 3 -0.002671 -0.002712 0.014451 0.000000 -0.001818 0.000000
# 4 0.000000 0.000000 0.000000 0.030722 0.000000 -0.016801
# 5 -0.001529 -0.001474 -0.001818 0.000000 0.028169 0.000000
# 6 0.000000 0.000000 0.000000 -0.016801 0.000000 0.016196
#
#
# Mechanical properties :
#
#
# Convention : Reuss Voigt Hill
#
# Bulk Modulus (GPa) = 38.23202 44.01684 41.12443
# Shear Modulus (GPa) = 36.84757 65.56997 51.20877
#
# Velocity S-wave (km/s) = 4.26814 5.69359 5.03160
# Velocity P-wave (km/s) = 6.57197 8.06127 7.35442
#
# Compressibility (1/GPa) = 0.02615609
#
# Stress axis : x y z
#
# Youngs Moduli (GPa) = 61.16637 121.62718 69.19821
#
# Poissons Ratio (x) = 0.12765 0.18483
# Poissons Ratio (y) = 0.06419 0.18770
# Poissons Ratio (z) = 0.16337 0.32991
#
# Static dielectric constant tensor:
#      x y z
#    x 1.706320 0.000000 0.012300 
#    y 0.000000 1.680580 0.000000 
#    z 0.012300 0.000000 1.753480 
# 
# From -- ./inp_files/207784.got.cif
#   From: 2010.05.17/outbox.cif.g08.bks.cpg/sg12_104_cif.got.tgz:207784.got - 2010.06.03 13:09:07.
