data_PCOD9221835
_publ_section_title
;
Structure prediction by ZEFSAII (Michael W. Deem and Ramdas Pophale) SiO2 
 PCOD9221835
Probable space group: C 2/M
;
_chemical_formula_sum "Si O2"
_cell_formula_units_Z 32
_cell_length_a 16.673890
_cell_length_b 21.772104
_cell_length_c 10.846096
_cell_angle_alpha 90.000000
_cell_angle_beta 158.194111
_cell_angle_gamma 90.000000
_cell_volume 1462.603636
_symmetry_space_group_name_H-M "C 2/M"
_symmetry_group_IT_number 12
_symmetry_cell_setting 'monoclinic'
loop_
_space_group_symop_operation_xyz
x,y,z
-x,y,-z
-x,-y,-z
x,-y,z
1/2+x,1/2+y,z
1/2-x,1/2+y,-z
1/2-x,1/2-y,-z
1/2+x,1/2-y,z
loop_
_atom_site_type_symbol
_atom_site_label
_atom_site_fract_x
_atom_site_fract_y
_atom_site_fract_z
Si Si1 0.333390 0.902600 0.369680
Si Si2 0.226305 0.312663 0.295766
Si Si3 0.429186 0.786016 0.182705
Si Si4 0.665738 0.569865 0.400232
O O1 0.500000 0.926481 0.500000
O O2 0.432112 0.835738 0.543356
O O3 0.293656 0.929787 0.451498
O O4 0.086545 0.909159 0.970672
O O5 0.405795 0.269085 0.608741
O O6 0.233691 0.378554 0.369757
O O7 0.206089 0.317599 0.119999
O O8 0.000000 0.280629 0.000000
O O9 0.250000 0.750000 0.000000
O O10 0.669852 0.500000 0.452545
#
# Coordination Sequence:
#
# PCOD9221835 Si02
#       4
#     8   8   8   8
#     4  11  23  44  72 104 136 180 231 288 350 409
#     4  12  24  43  68  99 138 177 225 284 354 405
#     4  12  25  43  71 105 139 176 227 290 358 424
#     4  11  26  46  70 101 139 188 240 281 337 414
#
# _framework density 21.878789999999999
#
# number of rings (size 3 to 8) (size 9 to 14) (size 15 to 20)
#    0.000    0.500    2.500    7.500    3.500    2.500 
#    0.000    0.000    0.000    4.500    0.000    0.000 
#    0.000    0.000    0.000    0.000    0.000    0.000 
#
# Total GULP energy -89145.799664 kJ/mol
# GULP energy per Si atom -5571.612479 kJ/mol
# Density = 2.182899 g / cm^3
# Si number density = 21.878790 Si / 1000 Ang^3
#
#
#
# Elastic Constant Matrix: (Units=GPa)
#
#
# Indices 1 2 3 4 5 6 
#
# 1 141.7347 51.0772 66.7251 0.0000 7.8030 0.0000
# 2 51.0772 132.2428 65.5301 0.0000 -5.1616 0.0000
# 3 66.7251 65.5301 114.7569 0.0000 7.3632 0.0000
# 4 0.0000 0.0000 0.0000 5.8092 0.0000 9.1813
# 5 7.8030 -5.1616 7.3632 0.0000 46.5063 0.0000
# 6 0.0000 0.0000 0.0000 9.1813 0.0000 14.6239
#
#
#
# Elastic Compliance Matrix: (Units=1/GPa)
#
#
# Indices 1 2 3 4 5 6 
#
# 1 0.009935 -0.001464 -0.004873 0.000004 -0.001058 -0.000002
# 2 -0.001464 0.010978 -0.005568 0.000004 0.002346 -0.000002
# 3 -0.004873 -0.005568 0.014865 -0.000012 -0.002154 0.000008
# 4 0.000004 0.000004 -0.000012 22.264169 -0.000003-13.978095
# 5 -0.001058 0.002346 -0.002154 -0.000003 0.022281 0.000002
# 6 -0.000002 -0.000002 0.000008-13.978095 0.000002 8.844238
#
#
# Mechanical properties :
#
#
# Convention : Reuss Voigt Hill
#
# Bulk Modulus (GPa) = 83.55320 83.93324 83.74322
# Shear Modulus (GPa) = 0.16029 27.08135 13.62082
#
# Velocity S-wave (km/s) = 0.27096 3.52204 2.49782
# Velocity P-wave (km/s) = 6.19435 7.41524 6.83212
#
# Compressibility (1/GPa) = 0.01196842
#
# Stress axis : x y z
#
# Youngs Moduli (GPa) = 100.65073 91.09133 67.27107
#
# Poissons Ratio (x) = 0.13336 0.32781
# Poissons Ratio (y) = 0.14735 0.37457
# Poissons Ratio (z) = 0.49047 0.50720
#
# Static dielectric constant tensor:
#      x y z
#    x 1.973150 0.000000 -0.033280 
#    y 0.000000 1.775590 0.000000 
#    z -0.033280 0.000000 1.788080 
# 
# From -- ./inp_files/122273.got.cif
#   From: 2010.05.17/outbox.cif.g08.bks.cpg/sg12_62_cif.got.tgz:122273.got - 2010.06.03 13:09:07.
