data_PCOD9222546
_publ_section_title
;
Structure prediction by ZEFSAII (Michael W. Deem and Ramdas Pophale) SiO2 
 PCOD9222546
Probable space group: C 2/M
;
_chemical_formula_sum "Si O2"
_cell_formula_units_Z 42
_cell_length_a 12.908101
_cell_length_b 7.222757
_cell_length_c 16.575700
_cell_angle_alpha 90.000000
_cell_angle_beta 64.996642
_cell_angle_gamma 90.000000
_cell_volume 1400.557934
_symmetry_space_group_name_H-M "C 2/M"
_symmetry_group_IT_number 12
_symmetry_cell_setting 'monoclinic'
loop_
_space_group_symop_operation_xyz
x,y,z
-x,y,-z
-x,-y,-z
x,-y,z
1/2+x,1/2+y,z
1/2-x,1/2+y,-z
1/2-x,1/2-y,-z
1/2+x,1/2-y,z
loop_
_atom_site_type_symbol
_atom_site_label
_atom_site_fract_x
_atom_site_fract_y
_atom_site_fract_z
Si Si1 0.392680 0.223514 0.976517
Si Si2 0.790117 0.718153 0.396450
Si Si3 0.500000 0.000000 0.500000
Si Si4 0.043802 0.723660 0.786575
Si Si5 0.076106 0.222647 0.355597
Si Si6 0.240892 0.222891 0.166201
O O1 0.436783 0.294469 0.875256
O O2 0.386931 0.000000 0.976116
O O3 0.500000 0.265408 0.000000
O O4 0.283375 0.291161 0.064440
O O5 0.793768 0.500000 0.381859
O O6 0.750000 0.750000 0.500000
O O7 0.908000 0.791616 0.316623
O O8 0.684880 0.785478 0.376196
O O9 0.483469 0.839917 0.434254
O O10 0.035744 0.500000 0.789343
O O11 0.153494 0.767594 0.808407
O O12 0.125358 0.280950 0.251204
O O13 0.065880 0.000000 0.365846
O O14 0.237972 0.000000 0.166053
#
# Coordination Sequence:
#
# PCOD9222546 Si02
#       6
#     8   8   2   8   8   8
#     4   7   8  12  28  53  79 109 140 170 206 265
#     4   9  17  28  44  64  93 127 154 189 224 272
#     4  12  22  32  52  66  90 128 158 198 234 278
#     4   7  10  17  30  55  84 112 146 174 211 261
#     4   9  19  33  46  68  94 122 157 193 233 274
#     4   7  10  19  35  55  83 113 141 174 218 269
#
# _framework density 29.988047999999999
#
# number of rings (size 3 to 8) (size 9 to 14) (size 15 to 20)
#    0.000    4.000    0.000    4.857    1.333    0.000 
#    0.000    0.000    0.000    0.000    2.476    3.333 
#    0.000    1.524    3.048    0.762    0.000    4.762 
#
# Total GULP energy -117323.435051 kJ/mol
# GULP energy per Si atom -5586.830241 kJ/mol
# Density = 2.991979 g / cm^3
# Si number density = 29.988048 Si / 1000 Ang^3
#
#
#
# Elastic Constant Matrix: (Units=GPa)
#
#
# Indices 1 2 3 4 5 6 
#
# 1 62.9078 24.0884 77.4298 0.0000 -41.1901 0.0000
# 2 24.0884 179.1842 49.8088 0.0000 1.7851 0.0001
# 3 77.4298 49.8088 386.0696 0.0000 1.3421 0.0000
# 4 0.0000 0.0000 0.0000 13.7232 0.0000 14.9158
# 5 -41.1901 1.7851 1.3421 0.0000 101.4942 0.0000
# 6 0.0000 0.0001 0.0000 14.9158 0.0000 -48.9652
#
#
#
# Elastic Compliance Matrix: (Units=1/GPa)
#
#
# Indices 1 2 3 4 5 6 
#
# 1 0.034269 -0.002928 -0.006544 0.000000 0.014045 0.000000
# 2 -0.002928 0.006039 -0.000188 0.000000 -0.001292 0.000000
# 3 -0.006544 -0.000188 0.003936 0.000000 -0.002705 0.000000
# 4 0.000000 0.000000 0.000000 0.054744 0.000000 0.016676
# 5 0.014045 -0.001292 -0.002705 0.000000 0.015611 0.000000
# 6 0.000000 0.000000 0.000000 0.016676 0.000000 -0.015343
#
#
# Mechanical properties :
#
#
# Convention : Reuss Voigt Hill
#
# Bulk Modulus (GPa) = 40.11904 103.42393 71.77149
# Shear Modulus (GPa) = 39.40615 45.03942 42.22278
#
# Velocity S-wave (km/s) = 3.62893 3.87966 3.75639
# Velocity P-wave (km/s) = 5.56473 7.39136 6.54211
#
# Compressibility (1/GPa) = 0.02492582
#
# Stress axis : x y z
#
# Youngs Moduli (GPa) = 29.18129 165.57863 254.04868
#
# Poissons Ratio (x) = 0.48477 1.66249
# Poissons Ratio (y) = 0.08543 0.04764
# Poissons Ratio (z) = 0.19096 0.03105
#
# Static dielectric constant tensor:
#      x y z
#    x 2.776360 0.000000 -0.003970 
#    y 0.000000 2.091520 0.000000 
#    z -0.003970 0.000000 2.460380 
# 
# From -- ./inp_files/279882.got.cif
#   From: 2010.05.17/outbox.cif.g08.bks.cpg/sg12_140_cif.got.tgz:279882.got - 2010.06.03 13:09:07.
