data_PCOD9222393
_publ_section_title
;
Structure prediction by ZEFSAII (Michael W. Deem and Ramdas Pophale) SiO2 
 PCOD9222393
Probable space group: C 2/M
;
_chemical_formula_sum "Si O2"
_cell_formula_units_Z 36
_cell_length_a 8.137099
_cell_length_b 23.126351
_cell_length_c 7.782760
_cell_angle_alpha 90.000000
_cell_angle_beta 95.070631
_cell_angle_gamma 90.000000
_cell_volume 1458.839135
_symmetry_space_group_name_H-M "C 2/M"
_symmetry_group_IT_number 12
_symmetry_cell_setting 'monoclinic'
loop_
_space_group_symop_operation_xyz
x,y,z
-x,y,-z
-x,-y,-z
x,-y,z
1/2+x,1/2+y,z
1/2-x,1/2+y,-z
1/2-x,1/2-y,-z
1/2+x,1/2-y,z
loop_
_atom_site_type_symbol
_atom_site_label
_atom_site_fract_x
_atom_site_fract_y
_atom_site_fract_z
Si Si1 0.835434 0.091599 0.873052
Si Si2 0.801239 0.438814 0.502752
Si Si3 0.686936 0.821294 0.288114
Si Si4 0.000000 0.387059 0.000000
Si Si5 0.038191 0.198780 0.308661
O O1 0.796063 0.061544 0.686879
O O2 0.670987 0.081350 0.971408
O O3 0.855289 0.157467 0.803268
O O4 0.000000 0.077513 0.000000
O O5 0.756843 0.500000 0.589009
O O6 0.775382 0.377949 0.593956
O O7 0.000000 0.440049 0.500000
O O8 0.541467 0.845669 0.159828
O O9 0.855880 0.803683 0.209395
O O10 0.618489 0.760883 0.349546
O O11 0.000000 0.178276 0.500000
#
# Coordination Sequence:
#
# PCOD9222393 Si02
#       5
#     8   8   8   4   8
#     4  12  26  47  75 113 157 199 253 311 387 457
#     4  11  25  49  78 107 148 205 263 313 372 451
#     4  12  25  44  71 112 149 202 249 309 383 453
#     4  12  26  44  73 106 160 198 247 314 374 462
#     4  12  25  42  73 110 151 194 250 311 378 455
#
# _framework density 24.677156
#
# number of rings (size 3 to 8) (size 9 to 14) (size 15 to 20)
#    0.000    0.222    6.667    2.667    1.556    2.222 
#    0.000    4.444    0.000    0.000    0.000    0.000 
#    0.000    0.000    0.000    0.000    0.000    0.000 
#
# Total GULP energy -100356.805592 kJ/mol
# GULP energy per Si atom -5575.378088 kJ/mol
# Density = 2.462099 g / cm^3
# Si number density = 24.677156 Si / 1000 Ang^3
#
#
#
# Elastic Constant Matrix: (Units=GPa)
#
#
# Indices 1 2 3 4 5 6 
#
# 1 126.6762 74.2386 31.1783 0.0000 12.1324 0.0000
# 2 74.2386 171.3851 41.0050 0.0000 13.1125 0.0000
# 3 31.1783 41.0050 122.1215 0.0000 37.4816 0.0000
# 4 0.0000 0.0000 0.0000 18.3869 0.0000 21.2310
# 5 12.1324 13.1125 37.4816 0.0000 42.5723 0.0000
# 6 0.0000 0.0000 0.0000 21.2310 0.0000 57.3478
#
#
#
# Elastic Compliance Matrix: (Units=1/GPa)
#
#
# Indices 1 2 3 4 5 6 
#
# 1 0.010783 -0.004360 -0.001039 0.000000 -0.000816 0.000000
# 2 -0.004360 0.008108 -0.001677 0.000000 0.000222 0.000000
# 3 -0.001039 -0.001677 0.012014 0.000000 -0.009765 0.000000
# 4 0.000000 0.000000 0.000000 0.094995 0.000000 -0.035169
# 5 -0.000816 0.000222 -0.009765 0.000000 0.032251 0.000000
# 6 0.000000 0.000000 0.000000 -0.035169 0.000000 0.030457
#
#
# Mechanical properties :
#
#
# Convention : Reuss Voigt Hill
#
# Bulk Modulus (GPa) = 59.69203 79.22519 69.45861
# Shear Modulus (GPa) = 23.99871 41.91212 32.95542
#
# Velocity S-wave (km/s) = 3.12189 4.12566 3.65836
# Velocity P-wave (km/s) = 6.10218 7.40737 6.78623
#
# Compressibility (1/GPa) = 0.01675266
#
# Stress axis : x y z
#
# Youngs Moduli (GPa) = 92.73795 123.33883 83.23643
#
# Poissons Ratio (x) = 0.53775 0.08646
# Poissons Ratio (y) = 0.40433 0.13962
# Poissons Ratio (z) = 0.09633 0.20689
#
# Static dielectric constant tensor:
#      x y z
#    x 2.162930 0.000000 0.249340 
#    y 0.000000 1.978300 0.000000 
#    z 0.249340 0.000000 2.367560 
# 
# From -- ./inp_files/39511.got.cif
#   From: 2010.05.17/outbox.cif.g08.bks.cpg/sg12_20_cif.got.tgz:39511.got - 2010.06.03 13:09:07.
