data_PCOD9222865
_publ_section_title
;
Structure prediction by ZEFSAII (Michael W. Deem and Ramdas Pophale) SiO2 
 PCOD9222865
Probable space group: C 2/M
;
_chemical_formula_sum "Si O2"
_cell_formula_units_Z 40
_cell_length_a 29.916336
_cell_length_b 7.528502
_cell_length_c 28.544519
_cell_angle_alpha 90.000000
_cell_angle_beta 14.025951
_cell_angle_gamma 90.000000
_cell_volume 1558.127740
_symmetry_space_group_name_H-M "C 2/M"
_symmetry_group_IT_number 12
_symmetry_cell_setting 'monoclinic'
loop_
_space_group_symop_operation_xyz
x,y,z
-x,y,-z
-x,-y,-z
x,-y,z
1/2+x,1/2+y,z
1/2-x,1/2+y,-z
1/2-x,1/2-y,-z
1/2+x,1/2-y,z
loop_
_atom_site_type_symbol
_atom_site_label
_atom_site_fract_x
_atom_site_fract_y
_atom_site_fract_z
Si Si1 0.042497 0.201423 0.907340
Si Si2 0.491679 0.204673 0.661393
Si Si3 0.029284 0.287740 0.722745
Si Si4 0.981161 0.294494 0.467195
Si Si5 0.581258 0.791814 0.767763
O O1 0.262430 0.198913 0.682724
O O2 0.983547 0.272804 0.917031
O O3 0.970765 0.000000 0.982682
O O4 0.000000 0.291816 0.000000
O O5 0.446217 0.286775 0.758720
O O6 0.446754 0.283761 0.655639
O O7 0.717326 0.202368 0.434473
O O8 0.429628 0.000000 0.722823
O O9 0.002941 0.500000 0.746403
O O10 0.250000 0.250000 0.500000
O O11 0.971822 0.226215 0.833213
O O12 0.047959 0.500000 0.402519
O O13 0.000000 0.213183 0.500000
O O14 0.619139 0.000000 0.722388
#
# Coordination Sequence:
#
# PCOD9222865 Si02
#       5
#     8   8   8   8   8
#     4   9  17  28  40  54  74  99 124 150 182 219
#     4   8  13  22  35  51  74 100 122 147 182 219
#     4   8  13  20  31  49  72  96 119 145 180 218
#     4   8  13  22  38  58  75  92 119 154 184 210
#     4   9  15  22  34  53  75  96 121 152 183 216
#
# _framework density 25.671835999999999
#
# number of rings (size 3 to 8) (size 9 to 14) (size 15 to 20)
#    0.000    3.600    0.000    1.800    0.000    1.200 
#    0.000    0.000    0.000    9.600    0.000    1.400 
#    0.000    0.000    0.000    0.000    0.000    0.000 
#
# Total GULP energy -111362.841557 kJ/mol
# GULP energy per Si atom -5568.142078 kJ/mol
# Density = 2.561341 g / cm^3
# Si number density = 25.671836 Si / 1000 Ang^3
#
#
#
# Elastic Constant Matrix: (Units=GPa)
#
#
# Indices 1 2 3 4 5 6 
#
# 1 297.5822 8.8547 53.3555 0.0203 86.5457 0.0059
# 2 8.8547 80.1147 0.4409 0.3112 10.7436 -0.0851
# 3 53.3555 0.4409 55.4541 0.0845 -9.7619 -0.0292
# 4 0.0203 0.3112 0.0845 2.2948 -0.0418 8.4095
# 5 86.5457 10.7436 -9.7619 -0.0418 63.0494 -0.0039
# 6 0.0059 -0.0851 -0.0292 8.4095 -0.0039 18.6342
#
#
#
# Elastic Compliance Matrix: (Units=1/GPa)
#
#
# Indices 1 2 3 4 5 6 
#
# 1 0.010499 0.001141 -0.013037 -0.000016 -0.016624 -0.000015
# 2 0.001141 0.012898 -0.001920 0.003002 -0.004059 -0.001300
# 3 -0.013037 -0.001920 0.034745 0.001033 0.023603 -0.000411
# 4 -0.000016 0.003002 0.001033 -0.665709 -0.000752 0.300447
# 5 -0.016624 -0.004059 0.023603 -0.000752 0.043026 0.000372
# 6 -0.000015 -0.001300 -0.000411 0.300447 0.000372 -0.081932
#
#
# Mechanical properties :
#
#
# Convention : Reuss Voigt Hill
#
# Bulk Modulus (GPa) = 32.77692 62.05034 47.41363
# Shear Modulus (GPa) = -8.21461 41.49566 16.64053
#
# Velocity S-wave (km/s) = -1.79075 4.02480 2.54874
# Velocity P-wave (km/s) = 2.91884 6.76917 5.21255
#
# Compressibility (1/GPa) = 0.03050927
#
# Stress axis : x y z
#
# Youngs Moduli (GPa) = 95.24952 77.53215 28.78128
#
# Poissons Ratio (x) = -0.08845 0.37522
# Poissons Ratio (y) = -0.10866 0.05526
# Poissons Ratio (z) = 1.24176 0.14886
#
# Static dielectric constant tensor:
#      x y z
#    x 2.167360 -0.000200 0.070110 
#    y -0.000200 2.101650 0.000680 
#    z 0.070110 0.000680 2.142800 
# 
# From -- ./inp_files/107446.got.cif
#   From: 2010.05.17/outbox.cif.g08.bks.cpg/sg12_54_cif.got.tgz:107446.got - 2010.06.03 13:09:07.
