data_PCOD9222965
_publ_section_title
;
Structure prediction by ZEFSAII (Michael W. Deem and Ramdas Pophale) SiO2 
 PCOD9222965
Probable space group: C 2/M
;
_chemical_formula_sum "Si O2"
_cell_formula_units_Z 56
_cell_length_a 24.142568
_cell_length_b 7.338520
_cell_length_c 19.320530
_cell_angle_alpha 90.000000
_cell_angle_beta 140.664176
_cell_angle_gamma 90.000000
_cell_volume 2169.738885
_symmetry_space_group_name_H-M "C 2/M"
_symmetry_group_IT_number 12
_symmetry_cell_setting 'monoclinic'
loop_
_space_group_symop_operation_xyz
x,y,z
-x,y,-z
-x,-y,-z
x,-y,z
1/2+x,1/2+y,z
1/2-x,1/2+y,-z
1/2-x,1/2-y,-z
1/2+x,1/2-y,z
loop_
_atom_site_type_symbol
_atom_site_label
_atom_site_fract_x
_atom_site_fract_y
_atom_site_fract_z
Si Si1 0.613412 0.294724 0.809807
Si Si2 0.784538 0.784838 0.352430
Si Si3 0.056885 0.209464 0.997429
Si Si4 0.155757 0.784132 0.444634
Si Si5 0.418912 0.277895 0.371687
Si Si6 0.313145 0.275874 0.978547
Si Si7 0.394138 0.291453 0.744057
O O1 0.577569 0.500000 0.783923
O O2 0.572536 0.214102 0.700025
O O3 0.625187 0.214556 0.898019
O O4 0.716767 0.299098 0.891494
O O5 0.836760 0.710813 0.470527
O O6 0.830244 0.715892 0.326249
O O7 0.682145 0.770365 0.276168
O O8 0.800078 0.000000 0.364508
O O9 0.145315 0.284451 0.053389
O O10 0.987853 0.206517 0.868824
O O11 0.075749 0.000000 0.038611
O O12 0.000000 0.303668 0.000000
O O13 0.250000 0.750000 0.500000
O O14 0.097787 0.710076 0.325519
O O15 0.139821 0.000000 0.438599
O O16 0.500000 0.230816 0.500000
O O17 0.417775 0.500000 0.364654
O O18 0.310672 0.500000 0.978228
O O19 0.367734 0.500000 0.706891
#
# Coordination Sequence:
#
# PCOD9222965 Si02
#       7
#     8   8   8   8   8   8   8
#     4   9  18  33  53  75  98 126 166 208 244 289
#     4   9  17  29  46  67  93 123 153 189 234 285
#     4   9  18  30  45  70  99 123 156 198 237 281
#     4   8  14  25  41  62  86 113 148 183 218 267
#     4   9  18  31  48  72  98 124 157 200 246 287
#     4   9  18  33  53  74  97 130 166 203 247 290
#     4   9  17  29  46  67  91 123 158 192 232 277
#
# _framework density 25.809557999999999
#
# number of rings (size 3 to 8) (size 9 to 14) (size 15 to 20)
#    0.000    3.143    0.000    0.000    2.000    1.143 
#    0.000    6.429    0.000    2.571    0.000    8.000 
#    0.000    0.000    0.000    0.000    0.000    0.000 
#
# Total GULP energy -156031.166952 kJ/mol
# GULP energy per Si atom -5572.541677 kJ/mol
# Density = 2.575081 g / cm^3
# Si number density = 25.809558 Si / 1000 Ang^3
#
#
#
# Elastic Constant Matrix: (Units=GPa)
#
#
# Indices 1 2 3 4 5 6 
#
# 1 99.8489 -1.7396 -12.2988 0.0000 4.9817 0.0000
# 2 -1.7396 107.8779 -3.3365 0.0000 -2.3500 0.0000
# 3 -12.2988 -3.3365 63.8801 0.0000 -4.7384 0.0000
# 4 0.0000 0.0000 0.0000 -22.1630 0.0000 -30.4011
# 5 4.9817 -2.3500 -4.7384 0.0000 29.0085 0.0000
# 6 0.0000 0.0000 0.0000 -30.4011 0.0000 -61.0395
#
#
#
# Elastic Compliance Matrix: (Units=1/GPa)
#
#
# Indices 1 2 3 4 5 6 
#
# 1 0.010324 0.000193 0.001890 0.000000 -0.001448 0.000000
# 2 0.000193 0.009309 0.000584 0.000000 0.000816 0.000000
# 3 0.001890 0.000584 0.016225 0.000000 0.002373 0.000000
# 4 0.000000 0.000000 0.000000 -0.142421 0.000000 0.070934
# 5 -0.001448 0.000816 0.002373 0.000000 0.035175 0.000000
# 6 0.000000 0.000000 0.000000 0.070934 0.000000 -0.051712
#
#
# Mechanical properties :
#
#
# Convention : Reuss Voigt Hill
#
# Bulk Modulus (GPa) = 24.27638 26.31747 25.29692
# Shear Modulus (GPa) = -43.59028 8.42665 -17.58182
#
# Velocity S-wave (km/s) = -4.11411 1.80887 -2.61284
# Velocity P-wave (km/s) = 3.62511 3.81859 0.84858
#
# Compressibility (1/GPa) = 0.04119231
#
# Stress axis : x y z
#
# Youngs Moduli (GPa) = 96.86540 107.42641 61.63411
#
# Poissons Ratio (x) = -0.02077 -0.11650
# Poissons Ratio (y) = -0.01873 -0.03599
# Poissons Ratio (z) = -0.18310 -0.06273
#
# Static dielectric constant tensor:
#      x y z
#    x 2.093530 0.000000 -0.072080 
#    y 0.000000 2.356430 0.000000 
#    z -0.072080 0.000000 2.096430 
# 
# From -- ./inp_files/289191.got.cif
#   From: 2010.05.17/outbox.cif.g08.bks.cpg/sg12_145_cif.got.tgz:289191.got - 2010.06.03 13:09:07.
