data_PCOD9222131
_publ_section_title
;
Structure prediction by ZEFSAII (Michael W. Deem and Ramdas Pophale) SiO2 
 PCOD9222131
Probable space group: C 2/M
;
_chemical_formula_sum "Si O2"
_cell_formula_units_Z 28
_cell_length_a 10.571499
_cell_length_b 14.349141
_cell_length_c 8.770685
_cell_angle_alpha 90.000000
_cell_angle_beta 61.955425
_cell_angle_gamma 90.000000
_cell_volume 1174.224393
_symmetry_space_group_name_H-M "C 2/M"
_symmetry_group_IT_number 12
_symmetry_cell_setting 'monoclinic'
loop_
_space_group_symop_operation_xyz
x,y,z
-x,y,-z
-x,-y,-z
x,-y,z
1/2+x,1/2+y,z
1/2-x,1/2+y,-z
1/2-x,1/2-y,-z
1/2+x,1/2-y,z
loop_
_atom_site_type_symbol
_atom_site_label
_atom_site_fract_x
_atom_site_fract_y
_atom_site_fract_z
Si Si1 0.065657 0.000000 0.778669
Si Si2 0.782233 0.500000 0.069467
Si Si3 0.119232 0.690941 0.139437
Si Si4 0.500000 0.147537 0.500000
Si Si5 0.500000 0.670853 0.000000
Si Si6 0.178705 0.500000 0.590493
O O1 0.893502 0.000000 0.841589
O O2 0.100002 0.091022 0.862362
O O3 0.163645 0.000000 0.574226
O O4 0.817134 0.500000 0.229679
O O5 0.852199 0.589215 0.945976
O O6 0.994133 0.752787 0.138716
O O7 0.105978 0.699682 0.327455
O O8 0.250000 0.750000 0.000000
O O9 0.591140 0.086288 0.567865
#
# Coordination Sequence:
#
# PCOD9222131 Si02
#       6
#     4   4   8   4   4   4
#     4  11  24  45  75 106 148 188 235 300 360 417
#     4  12  25  46  75 104 146 192 234 296 363 421
#     4  12  25  46  73 105 142 188 238 294 354 425
#     4  11  26  44  70 107 144 186 244 295 354 421
#     4  11  24  43  74 102 140 193 240 285 360 418
#     4  11  24  44  72 106 144 188 241 294 354 428
#
# _framework density 23.845528999999999
#
# number of rings (size 3 to 8) (size 9 to 14) (size 15 to 20)
#    0.000    0.571    2.857    5.571    4.000    4.000 
#    0.000    5.714    0.000    0.000    0.000    0.000 
#    0.000    0.000    0.000    0.000    0.000    0.000 
#
# Total GULP energy -78000.074843 kJ/mol
# GULP energy per Si atom -5571.433917 kJ/mol
# Density = 2.379126 g / cm^3
# Si number density = 23.845529 Si / 1000 Ang^3
#
#
#
# Elastic Constant Matrix: (Units=GPa)
#
#
# Indices 1 2 3 4 5 6 
#
# 1 92.1498 19.8517 42.6768 0.0000 11.0295 0.0000
# 2 19.8517 172.1156 55.2991 0.0000 4.6252 0.0000
# 3 42.6768 55.2991 228.6277 0.0000 16.9010 0.0000
# 4 0.0000 0.0000 0.0000 30.7870 0.0000 0.6389
# 5 11.0295 4.6252 16.9010 0.0000 47.5113 0.0000
# 6 0.0000 0.0000 0.0000 0.6389 0.0000 22.8100
#
#
#
# Elastic Compliance Matrix: (Units=1/GPa)
#
#
# Indices 1 2 3 4 5 6 
#
# 1 0.012153 -0.000723 -0.001942 0.000000 -0.002060 0.000000
# 2 -0.000723 0.006343 -0.001403 0.000000 0.000049 0.000000
# 3 -0.001942 -0.001403 0.005168 0.000000 -0.001251 0.000000
# 4 0.000000 0.000000 0.000000 0.032500 0.000000 -0.000910
# 5 -0.002060 0.000049 -0.001251 0.000000 0.021966 0.000000
# 6 0.000000 0.000000 0.000000 -0.000910 0.000000 0.043866
#
#
# Mechanical properties :
#
#
# Convention : Reuss Voigt Hill
#
# Bulk Modulus (GPa) = 64.39059 80.94980 72.67019
# Shear Modulus (GPa) = 36.95294 45.22605 41.08949
#
# Velocity S-wave (km/s) = 3.94087 4.35975 4.15559
# Velocity P-wave (km/s) = 6.91152 7.70484 7.31893
#
# Compressibility (1/GPa) = 0.01553022
#
# Stress axis : x y z
#
# Youngs Moduli (GPa) = 82.28199 157.65880 193.49253
#
# Poissons Ratio (x) = 0.11392 0.37567
# Poissons Ratio (y) = 0.05946 0.27146
# Poissons Ratio (z) = 0.15975 0.22118
#
# Static dielectric constant tensor:
#      x y z
#    x 1.975630 0.000000 -0.106390 
#    y 0.000000 1.862230 0.000000 
#    z -0.106390 0.000000 1.899560 
# 
# From -- ./inp_files/45190.got.cif
#   From: 2010.05.17/outbox.cif.g08.bks.cpg/sg12_23_cif.got.tgz:45190.got - 2010.06.03 13:09:07.
