data_PCOD9222425
_publ_section_title
;
Structure prediction by ZEFSAII (Michael W. Deem and Ramdas Pophale) SiO2 
 PCOD9222425
Probable space group: C 2/M
;
_chemical_formula_sum "Si O2"
_cell_formula_units_Z 40
_cell_length_a 10.907962
_cell_length_b 18.220763
_cell_length_c 9.011204
_cell_angle_alpha 90.000000
_cell_angle_beta 116.238763
_cell_angle_gamma 90.000000
_cell_volume 1606.444830
_symmetry_space_group_name_H-M "C 2/M"
_symmetry_group_IT_number 12
_symmetry_cell_setting 'monoclinic'
loop_
_space_group_symop_operation_xyz
x,y,z
-x,y,-z
-x,-y,-z
x,-y,z
1/2+x,1/2+y,z
1/2-x,1/2+y,-z
1/2-x,1/2-y,-z
1/2+x,1/2-y,z
loop_
_atom_site_type_symbol
_atom_site_label
_atom_site_fract_x
_atom_site_fract_y
_atom_site_fract_z
Si Si1 0.233830 0.415053 0.376448
Si Si2 0.850676 0.693576 0.405624
Si Si3 0.152675 0.083327 0.871019
Si Si4 0.926983 0.421617 0.195128
Si Si5 0.639862 0.277624 0.056786
O O1 0.260692 0.500000 0.443602
O O2 0.213393 0.353777 0.492869
O O3 0.339876 0.399337 0.300187
O O4 0.081401 0.416932 0.226034
O O5 0.896339 0.637126 0.302647
O O6 0.718471 0.728137 0.255337
O O7 0.000000 0.734222 0.500000
O O8 0.096430 0.000000 0.860361
O O9 0.309014 0.080977 0.011795
O O10 0.094139 0.146712 0.945625
O O11 0.913488 0.500000 0.266589
O O12 0.500000 0.233925 0.000000
O O13 0.750000 0.250000 0.000000
#
# Coordination Sequence:
#
# PCOD9222425 Si02
#       5
#     8   8   8   8   8
#     4   9  15  26  51  90 130 163 203 260 319 374
#     4   9  18  34  59  90 121 161 212 265 315 367
#     4   9  18  34  59  91 126 166 210 258 317 383
#     4   8  13  23  45  82 126 167 204 246 302 369
#     4  11  26  47  68  92 128 175 219 262 317 386
#
# _framework density 24.899702999999999
#
# number of rings (size 3 to 8) (size 9 to 14) (size 15 to 20)
#    0.000    2.800    0.000    1.200    0.000   10.800 
#    0.000    5.000    0.000    2.400    0.000    0.000 
#    0.000    0.000    0.000    0.000    0.000    0.000 
#
# Total GULP energy -111423.518769 kJ/mol
# GULP energy per Si atom -5571.175938 kJ/mol
# Density = 2.484303 g / cm^3
# Si number density = 24.899703 Si / 1000 Ang^3
#
#
#
# Elastic Constant Matrix: (Units=GPa)
#
#
# Indices 1 2 3 4 5 6 
#
# 1 101.4340 20.3829 37.9746 0.0000 -12.7050 0.0000
# 2 20.3829 66.8283 14.7428 0.0000 -15.4694 0.0000
# 3 37.9746 14.7428 84.9146 0.0000 -10.2458 0.0000
# 4 0.0000 0.0000 0.0000 174.9740 0.0000 -35.8725
# 5 -12.7050 -15.4694 -10.2458 0.0000 42.5039 0.0000
# 6 0.0000 0.0000 0.0000 -35.8725 0.0000 20.4119
#
#
#
# Elastic Compliance Matrix: (Units=1/GPa)
#
#
# Indices 1 2 3 4 5 6 
#
# 1 0.012378 -0.002299 -0.004934 0.000000 0.001674 0.000000
# 2 -0.002299 0.017170 -0.001320 0.000000 0.005244 0.000000
# 3 -0.004934 -0.001320 0.014395 0.000000 0.001515 0.000000
# 4 0.000000 0.000000 0.000000 0.008934 0.000000 0.015701
# 5 0.001674 0.005244 0.001515 0.000000 0.026301 0.000000
# 6 0.000000 0.000000 0.000000 0.015701 0.000000 0.076585
#
#
# Mechanical properties :
#
#
# Convention : Reuss Voigt Hill
#
# Bulk Modulus (GPa) = 37.26408 44.37526 40.81967
# Shear Modulus (GPa) = 27.50053 59.58307 43.54180
#
# Velocity S-wave (km/s) = 3.32694 4.89706 4.18627
# Velocity P-wave (km/s) = 5.45492 7.05940 6.30838
#
# Compressibility (1/GPa) = 0.02683549
#
# Stress axis : x y z
#
# Youngs Moduli (GPa) = 80.79151 58.24108 69.46803
#
# Poissons Ratio (x) = 0.13391 0.34277
# Poissons Ratio (y) = 0.18576 0.09170
# Poissons Ratio (z) = 0.39864 0.07688
#
# Static dielectric constant tensor:
#      x y z
#    x 1.977580 0.000000 0.079030 
#    y 0.000000 2.113610 0.000000 
#    z 0.079030 0.000000 2.018710 
# 
# From -- ./inp_files/48878.got.cif
#   From: 2010.05.17/outbox.cif.g08.bks.cpg/sg12_25_cif.got.tgz:48878.got - 2010.06.03 13:09:07.
