data_PCOD9222919
_publ_section_title
;
Structure prediction by ZEFSAII (Michael W. Deem and Ramdas Pophale) SiO2 
 PCOD9222919
Probable space group: C 2/M
;
_chemical_formula_sum "Si O2"
_cell_formula_units_Z 64
_cell_length_a 20.572049
_cell_length_b 7.274801
_cell_length_c 16.038159
_cell_angle_alpha 90.000000
_cell_angle_beta 71.537513
_cell_angle_gamma 90.000000
_cell_volume 2276.694734
_symmetry_space_group_name_H-M "C 2/M"
_symmetry_group_IT_number 12
_symmetry_cell_setting 'monoclinic'
loop_
_space_group_symop_operation_xyz
x,y,z
-x,y,-z
-x,-y,-z
x,-y,z
1/2+x,1/2+y,z
1/2-x,1/2+y,-z
1/2-x,1/2-y,-z
1/2+x,1/2-y,z
loop_
_atom_site_type_symbol
_atom_site_label
_atom_site_fract_x
_atom_site_fract_y
_atom_site_fract_z
Si Si1 0.826923 0.277523 0.905464
Si Si2 0.456248 0.775756 0.439049
Si Si3 0.081428 0.711695 0.790716
Si Si4 0.583024 0.222789 0.292843
Si Si5 0.328950 0.779641 0.400590
Si Si6 0.793843 0.282473 0.655467
Si Si7 0.203130 0.221883 0.852017
Si Si8 0.043768 0.724945 0.060950
O O1 0.823593 0.500000 0.909717
O O2 0.874113 0.226611 0.806091
O O3 0.750021 0.214761 0.911684
O O4 0.877690 0.213939 0.958790
O O5 0.500000 0.714215 0.500000
O O6 0.505204 0.723043 0.341537
O O7 0.378777 0.714044 0.454122
O O8 0.453284 0.000000 0.446025
O O9 0.070767 0.500000 0.771363
O O10 0.129110 0.789718 0.698693
O O11 0.127516 0.714012 0.856904
O O12 0.006527 0.783426 0.843195
O O13 0.630307 0.282811 0.352264
O O14 0.580575 0.000000 0.291481
O O15 0.250012 0.741465 0.410621
O O16 0.330893 0.000000 0.402566
O O17 0.799422 0.500000 0.661120
O O18 0.747256 0.218037 0.752388
O O19 0.201769 0.000000 0.854015
O O20 0.045045 0.500000 0.059941
O O21 0.000000 0.786524 0.000000
#
# Coordination Sequence:
#
# PCOD9222919 Si02
#       8
#     8   8   8   8   8   8   8   8
#     4   8  13  23  40  59  77 101 136 171 198 231
#     4   9  16  25  38  58  83 108 135 168 202 235
#     4   9  16  26  42  63  84 105 130 164 205 242
#     4   8  13  23  40  59  77 101 136 171 198 231
#     4   9  16  26  42  63  84 105 130 164 205 242
#     4   8  14  25  42  62  81 103 133 167 200 236
#     4   8  14  25  42  62  81 103 133 167 200 236
#     4   9  16  25  38  58  83 108 135 168 202 235
#
# _framework density 28.110928000000001
#
# number of rings (size 3 to 8) (size 9 to 14) (size 15 to 20)
#    0.000    3.500    0.000    2.250    0.000    3.000 
#    0.000    1.250    0.000    2.250    0.000    7.000 
#    0.000    0.000    0.000    0.000    0.000    0.000 
#
# Total GULP energy -178763.762474 kJ/mol
# GULP energy per Si atom -5586.367577 kJ/mol
# Density = 2.804695 g / cm^3
# Si number density = 28.110928 Si / 1000 Ang^3
#
#
#
# Elastic Constant Matrix: (Units=GPa)
#
#
# Indices 1 2 3 4 5 6 
#
# 1 272.1687 -4.3968 39.8235 0.0000 10.7115 0.0000
# 2 -4.3968 123.1886 -6.4338 0.0000 -2.5593 0.0000
# 3 39.8235 -6.4338 83.3781 0.0000 25.4012 0.0000
# 4 0.0000 0.0000 0.0000 -4.7085 0.0000 10.6860
# 5 10.7115 -2.5593 25.4012 0.0000 60.2360 0.0000
# 6 0.0000 0.0000 0.0000 10.6860 0.0000 -7.8729
#
#
#
# Elastic Compliance Matrix: (Units=1/GPa)
#
#
# Indices 1 2 3 4 5 6 
#
# 1 0.003951 0.000043 -0.001917 0.000000 0.000107 0.000000
# 2 0.000043 0.008151 0.000580 0.000000 0.000094 0.000000
# 3 -0.001917 0.000580 0.014735 0.000000 -0.005848 0.000000
# 4 0.000000 0.000000 0.000000 0.102085 0.000000 0.138561
# 5 0.000107 0.000094 -0.005848 0.000000 0.019052 0.000000
# 6 0.000000 0.000000 0.000000 0.138561 0.000000 0.061053
#
#
# Mechanical properties :
#
#
# Convention : Reuss Voigt Hill
#
# Bulk Modulus (GPa) = 41.23629 59.63571 50.43600
# Shear Modulus (GPa) = 22.75837 39.51376 31.13607
#
# Velocity S-wave (km/s) = 2.84842 3.75325 3.33169
# Velocity P-wave (km/s) = 5.05163 6.32795 5.72547
#
# Compressibility (1/GPa) = 0.02425048
#
# Stress axis : x y z
#
# Youngs Moduli (GPa) = 253.09488 122.67824 67.86383
#
# Poissons Ratio (x) = -0.00529 0.13006
# Poissons Ratio (y) = -0.01092 -0.03934
# Poissons Ratio (z) = 0.48507 -0.07111
#
# Static dielectric constant tensor:
#      x y z
#    x 2.147630 0.000000 0.030110 
#    y 0.000000 2.103790 0.000000 
#    z 0.030110 0.000000 2.311740 
# 
# From -- ./inp_files/319197.got.cif
#   From: 2010.05.17/outbox.cif.g08.bks.cpg/sg12_160_cif.got.tgz:319197.got - 2010.06.03 13:09:07.
