data_PCOD9222401
_publ_section_title
;
Structure prediction by ZEFSAII (Michael W. Deem and Ramdas Pophale) SiO2 
 PCOD9222401
Probable space group: C 2/M
;
_chemical_formula_sum "Si O2"
_cell_formula_units_Z 48
_cell_length_a 14.752306
_cell_length_b 29.156517
_cell_length_c 9.400792
_cell_angle_alpha 90.000000
_cell_angle_beta 38.318494
_cell_angle_gamma 90.000000
_cell_volume 2507.115374
_symmetry_space_group_name_H-M "C 2/M"
_symmetry_group_IT_number 12
_symmetry_cell_setting 'monoclinic'
loop_
_space_group_symop_operation_xyz
x,y,z
-x,y,-z
-x,-y,-z
x,-y,z
1/2+x,1/2+y,z
1/2-x,1/2+y,-z
1/2-x,1/2-y,-z
1/2+x,1/2-y,z
loop_
_atom_site_type_symbol
_atom_site_label
_atom_site_fract_x
_atom_site_fract_y
_atom_site_fract_z
Si Si1 0.133977 0.636784 0.232043
Si Si2 0.146788 0.949807 0.500097
Si Si3 0.105411 0.853160 0.500042
Si Si4 0.379943 0.803522 0.024951
Si Si5 0.095146 0.803523 0.024878
Si Si6 0.298331 0.450748 0.903277
O O1 0.257569 0.666871 0.158835
O O2 0.000000 0.626360 0.500000
O O3 0.083626 0.666888 0.158810
O O4 0.212742 0.591467 0.074464
O O5 0.175829 0.896256 0.500135
O O6 0.200522 0.950380 0.269908
O O7 0.970341 0.950385 0.730176
O O8 0.196224 0.000000 0.500133
O O9 0.229999 0.823053 0.273961
O O10 0.000000 0.869988 0.500000
O O11 0.003906 0.823035 0.726082
O O12 0.368873 0.749998 0.000092
O O13 0.500000 0.808296 0.000000
O O14 0.000000 0.808300 0.000000
O O15 0.237058 0.500000 0.025801
#
# Coordination Sequence:
#
# PCOD9222401 Si02
#       6
#     8   8   8   8   8   8
#     4  12  24  39  60  89 123 157 195 248 304 352
#     4   9  14  28  59  90 110 140 201 256 285 339
#     4  12  20  38  67  85 114 158 203 250 290 351
#     4  11  26  41  59  88 121 160 202 246 296 353
#     4  11  26  41  59  88 121 160 202 246 296 353
#     4   9  16  32  57  88 117 149 193 240 297 355
#
# _framework density 19.145510000000002
#
# number of rings (size 3 to 8) (size 9 to 14) (size 15 to 20)
#    0.000    1.333    6.667    1.500    4.667    1.667 
#    0.000    0.000    0.000    4.000    0.000    0.000 
#    0.000    0.000    0.000    0.000    0.000    0.000 
#
# Total GULP energy -133782.972164 kJ/mol
# GULP energy per Si atom -5574.290507 kJ/mol
# Density = 1.910193 g / cm^3
# Si number density = 19.145510 Si / 1000 Ang^3
#
#
#
# Elastic Constant Matrix: (Units=GPa)
#
#
# Indices 1 2 3 4 5 6 
#
# 1 51.5411 30.9289 15.1899 0.0000 1.3643 0.0000
# 2 30.9289 189.6850 64.7106 0.0000 -1.8132 0.0000
# 3 15.1899 64.7106 125.4241 0.0000 -5.2709 0.0000
# 4 0.0000 0.0000 0.0000 8.1518 0.0000 0.0273
# 5 1.3643 -1.8132 -5.2709 0.0000 5.1875 0.0000
# 6 0.0000 0.0000 0.0000 0.0273 0.0000 8.2923
#
#
#
# Elastic Compliance Matrix: (Units=1/GPa)
#
#
# Indices 1 2 3 4 5 6 
#
# 1 0.021937 -0.003193 -0.001357 0.000000 -0.008264 0.000000
# 2 -0.003193 0.006870 -0.003156 0.000000 0.000034 0.000000
# 3 -0.001357 -0.003156 0.010168 0.000000 0.009585 0.000000
# 4 0.000000 0.000000 0.000000 0.122674 0.000000 -0.000404
# 5 -0.008264 0.000034 0.009585 0.000000 0.204697 0.000000
# 6 0.000000 0.000000 0.000000 -0.000404 0.000000 0.120595
#
#
# Mechanical properties :
#
#
# Convention : Reuss Voigt Hill
#
# Bulk Modulus (GPa) = 42.43921 65.36766 53.90343
# Shear Modulus (GPa) = 9.79996 21.38104 15.59050
#
# Velocity S-wave (km/s) = 2.26490 3.34543 2.85672
# Velocity P-wave (km/s) = 5.39022 7.00994 6.25275
#
# Compressibility (1/GPa) = 0.02356312
#
# Stress axis : x y z
#
# Youngs Moduli (GPa) = 45.58585 145.56972 98.34386
#
# Poissons Ratio (x) = 0.46481 0.13341
# Poissons Ratio (y) = 0.14556 0.31038
# Poissons Ratio (z) = 0.06184 0.45943
#
# Static dielectric constant tensor:
#      x y z
#    x 1.731840 0.000000 0.005750 
#    y 0.000000 1.735390 0.000000 
#    z 0.005750 0.000000 1.621820 
# 
# From -- ./inp_files/67292.got.cif
#   From: 2010.05.17/outbox.cif.g08.bks.cpg/sg12_34_cif.got.tgz:67292.got - 2010.06.03 13:09:07.
