data_PCOD9222823
_publ_section_title
;
Structure prediction by ZEFSAII (Michael W. Deem and Ramdas Pophale) SiO2 
 PCOD9222823
Probable space group: C 2/M
;
_chemical_formula_sum "Si O2"
_cell_formula_units_Z 56
_cell_length_a 20.001330
_cell_length_b 7.387549
_cell_length_c 26.110636
_cell_angle_alpha 90.000000
_cell_angle_beta 133.550875
_cell_angle_gamma 90.000000
_cell_volume 2796.228362
_symmetry_space_group_name_H-M "C 2/M"
_symmetry_group_IT_number 12
_symmetry_cell_setting 'monoclinic'
loop_
_space_group_symop_operation_xyz
x,y,z
-x,y,-z
-x,-y,-z
x,-y,z
1/2+x,1/2+y,z
1/2-x,1/2+y,-z
1/2-x,1/2-y,-z
1/2+x,1/2-y,z
loop_
_atom_site_type_symbol
_atom_site_label
_atom_site_fract_x
_atom_site_fract_y
_atom_site_fract_z
Si Si1 0.677157 0.283297 0.007430
Si Si2 0.282768 0.722220 0.855405
Si Si3 0.282184 0.781442 0.441217
Si Si4 0.521725 0.289634 0.072583
Si Si5 0.101429 0.710532 0.400440
Si Si6 0.400814 0.220753 0.298579
Si Si7 0.409537 0.220203 0.420838
O O1 0.669245 0.500000 0.006444
O O2 0.711917 0.222127 0.082032
O O3 0.750000 0.250000 0.000000
O O4 0.570045 0.215482 0.947495
O O5 0.285665 0.500000 0.856802
O O6 0.373892 0.784364 0.872105
O O7 0.188187 0.782440 0.779332
O O8 0.178920 0.724387 0.398472
O O9 0.349527 0.713384 0.522457
O O10 0.322608 0.724284 0.408691
O O11 0.283582 0.000000 0.444094
O O12 0.528915 0.500000 0.092014
O O13 0.500000 0.284958 0.000000
O O14 0.086147 0.500000 0.404823
O O15 0.001577 0.781011 0.332362
O O16 0.402182 0.277572 0.358654
O O17 0.395815 0.000000 0.294180
O O18 0.500000 0.278680 0.500000
O O19 0.413435 0.000000 0.421918
#
# Coordination Sequence:
#
# PCOD9222823 Si02
#       7
#     8   8   8   8   8   8   8
#     4   9  16  27  45  68  90 112 139 172 208 247
#     4   8  14  25  42  63  84 108 143 179 208 245
#     4   9  16  26  41  60  82 107 138 176 215 252
#     4   7  11  22  40  59  79 105 136 169 202 238
#     4   9  16  26  41  60  82 109 139 172 211 254
#     4   9  15  24  41  63  83 107 142 182 217 246
#     4   9  14  23  39  59  80 103 137 180 215 241
#
# _framework density 20.026976999999999
#
# number of rings (size 3 to 8) (size 9 to 14) (size 15 to 20)
#    0.000    3.429    1.429    1.714    0.000    0.000 
#    0.000    1.429    0.000    7.714    0.000    0.000 
#    0.000    0.000    0.000    0.000    0.000    0.000 
#
# Total GULP energy -155899.788126 kJ/mol
# GULP energy per Si atom -5567.849576 kJ/mol
# Density = 1.998140 g / cm^3
# Si number density = 20.026977 Si / 1000 Ang^3
#
#
#
# Elastic Constant Matrix: (Units=GPa)
#
#
# Indices 1 2 3 4 5 6 
#
# 1 188.4134 -0.6975 92.5709 0.0000 35.8243 0.0000
# 2 -0.6975 65.1604 5.7829 0.0000 3.7489 0.0001
# 3 92.5709 5.7829 131.3522 0.0000 38.2940 0.0000
# 4 0.0000 0.0000 0.0000 -5.0422 0.0000 1.2485
# 5 35.8243 3.7489 38.2940 0.0000 34.6423 0.0000
# 6 0.0000 0.0001 0.0000 1.2485 0.0000 16.6575
#
#
#
# Elastic Compliance Matrix: (Units=1/GPa)
#
#
# Indices 1 2 3 4 5 6 
#
# 1 0.008377 0.000718 -0.004998 0.000000 -0.003216 0.000000
# 2 0.000718 0.015512 -0.000713 0.000000 -0.001633 0.000000
# 3 -0.004998 -0.000713 0.014220 0.000000 -0.010474 0.000000
# 4 0.000000 0.000000 0.000000 -0.194713 0.000000 0.014594
# 5 -0.003216 -0.001633 -0.010474 0.000000 0.043947 0.000000
# 6 0.000000 0.000000 0.000000 0.014594 0.000000 0.058939
#
#
# Mechanical properties :
#
#
# Convention : Reuss Voigt Hill
#
# Bulk Modulus (GPa) = 35.55688 64.47097 50.01392
# Shear Modulus (GPa) = -145.52463 28.40285 -58.56089
#
# Velocity S-wave (km/s) = -8.53358 3.77002 -5.41336
# Velocity P-wave (km/s) = 8.90522 7.15631 3.74769
#
# Compressibility (1/GPa) = 0.02812395
#
# Stress axis : x y z
#
# Youngs Moduli (GPa) = 119.37212 64.46753 70.32247
#
# Poissons Ratio (x) = -0.04630 0.35146
# Poissons Ratio (y) = -0.08574 0.05014
# Poissons Ratio (z) = 0.59661 0.04596
#
# Static dielectric constant tensor:
#      x y z
#    x 1.736960 0.000000 0.029990 
#    y 0.000000 1.801310 0.000000 
#    z 0.029990 0.000000 1.690470 
# 
# From -- ./inp_files/342887.got.cif
#   From: 2010.05.17/outbox.cif.g08.bks.cpg/sg12_172_cif.got.tgz:342887.got - 2010.06.03 13:09:07.
