data_PCOD9222000
_publ_section_title
;
Structure prediction by ZEFSAII (Michael W. Deem and Ramdas Pophale) SiO2 
 PCOD9222000
Probable space group: C 2/M
;
_chemical_formula_sum "Si O2"
_cell_formula_units_Z 60
_cell_length_a 18.005262
_cell_length_b 12.847952
_cell_length_c 20.991777
_cell_angle_alpha 90.000000
_cell_angle_beta 142.117074
_cell_angle_gamma 90.000000
_cell_volume 2981.853552
_symmetry_space_group_name_H-M "C 2/M"
_symmetry_group_IT_number 12
_symmetry_cell_setting 'monoclinic'
loop_
_space_group_symop_operation_xyz
x,y,z
-x,y,-z
-x,-y,-z
x,-y,z
1/2+x,1/2+y,z
1/2-x,1/2+y,-z
1/2-x,1/2-y,-z
1/2+x,1/2-y,z
loop_
_atom_site_type_symbol
_atom_site_label
_atom_site_fract_x
_atom_site_fract_y
_atom_site_fract_z
Si Si1 0.046644 0.385139 0.459702
Si Si2 0.586018 0.184924 0.927216
Si Si3 0.690484 0.123756 0.269605
Si Si4 0.169388 0.745758 0.741470
Si Si5 0.712651 0.729142 0.402177
Si Si6 0.128004 0.880062 0.049751
Si Si7 0.935267 0.183055 0.202943
Si Si8 0.220115 0.000000 0.939147
O O1 0.040241 0.500000 0.426366
O O2 0.183471 0.346231 0.553320
O O3 0.000000 0.388984 0.500000
O O4 0.955681 0.309381 0.361872
O O5 0.447330 0.150524 0.843868
O O6 0.595181 0.214576 0.858685
O O7 0.615031 0.287155 0.989200
O O8 0.677078 0.091717 0.000593
O O9 0.776418 0.186294 0.279093
O O10 0.710263 0.170706 0.353839
O O11 0.710029 0.000000 0.280865
O O12 0.266934 0.660325 0.831348
O O13 0.134269 0.817337 0.777418
O O14 0.750000 0.750000 0.500000
O O15 0.578851 0.681621 0.309321
O O16 0.155084 0.000000 0.045219
O O17 0.000000 0.883862 0.000000
O O18 0.885608 0.088857 0.129286
#
# Coordination Sequence:
#
# PCOD9222000 Si02
#       8
#     8   8   8   8   8   8   8   4
#     4  11  24  45  72  96 129 177 225 288 351 411
#     4  11  24  46  68  98 143 189 237 286 346 422
#     4  11  25  45  72 104 139 185 230 284 355 424
#     4  12  23  44  66 103 140 173 236 282 346 429
#     4  11  24  49  71  98 141 174 230 292 343 421
#     4  11  24  41  66 100 139 183 235 295 349 407
#     4  11  27  41  66 105 138 185 232 282 349 425
#     4  12  24  44  69 100 147 181 235 286 351 419
#
# _framework density 20.121711999999999
#
# number of rings (size 3 to 8) (size 9 to 14) (size 15 to 20)
#    0.000    0.800    6.000    0.800    2.800    0.533 
#    1.200    3.000    0.000    0.000    0.000    0.000 
#    0.000    0.000    0.000    0.000    0.000    0.000 
#
# Total GULP energy -167082.043639 kJ/mol
# GULP energy per Si atom -5569.401455 kJ/mol
# Density = 2.007591 g / cm^3
# Si number density = 20.121712 Si / 1000 Ang^3
#
#
#
# Elastic Constant Matrix: (Units=GPa)
#
#
# Indices 1 2 3 4 5 6 
#
# 1 86.5950 41.3356 45.2707 0.0000 13.2300 0.0000
# 2 41.3356 139.5193 66.1680 0.0000 8.7963 0.0000
# 3 45.2707 66.1680 110.9732 0.0000 15.8372 0.0000
# 4 0.0000 0.0000 0.0000 23.8953 0.0000 14.2098
# 5 13.2300 8.7963 15.8372 0.0000 35.9326 0.0000
# 6 0.0000 0.0000 0.0000 14.2098 0.0000 13.8118
#
#
#
# Elastic Compliance Matrix: (Units=1/GPa)
#
#
# Indices 1 2 3 4 5 6 
#
# 1 0.015462 -0.002237 -0.004524 0.000000 -0.003151 0.000000
# 2 -0.002237 0.010318 -0.005332 0.000000 0.000648 0.000000
# 3 -0.004524 -0.005332 0.014526 0.000000 -0.003431 0.000000
# 4 0.000000 0.000000 0.000000 0.107805 0.000000 -0.110911
# 5 -0.003151 0.000648 -0.003431 0.000000 0.030344 0.000000
# 6 0.000000 0.000000 0.000000 -0.110911 0.000000 0.186509
#
#
# Mechanical properties :
#
#
# Convention : Reuss Voigt Hill
#
# Bulk Modulus (GPa) = 62.03530 71.40401 66.71965
# Shear Modulus (GPa) = 12.67348 27.01548 19.84448
#
# Velocity S-wave (km/s) = 2.51239 3.66813 3.14382
# Velocity P-wave (km/s) = 6.27001 7.31460 6.81236
#
# Compressibility (1/GPa) = 0.01611985
#
# Stress axis : x y z
#
# Youngs Moduli (GPa) = 64.67274 96.91682 68.84254
#
# Poissons Ratio (x) = 0.21677 0.31147
# Poissons Ratio (y) = 0.14465 0.36708
# Poissons Ratio (z) = 0.29261 0.51678
#
# Static dielectric constant tensor:
#      x y z
#    x 1.747740 0.000000 -0.032640 
#    y 0.000000 1.664550 0.000000 
#    z -0.032640 0.000000 1.745510 
# 
# From -- ./inp_files/315991.got.cif
#   From: 2010.05.17/outbox.cif.g08.bks.cpg/sg12_158_cif.got.tgz:315991.got - 2010.06.03 13:09:07.
