data_PCOD9222298
_publ_section_title
;
Structure prediction by ZEFSAII (Michael W. Deem and Ramdas Pophale) SiO2 
 PCOD9222298
Probable space group: C 2/M
;
_chemical_formula_sum "Si O2"
_cell_formula_units_Z 48
_cell_length_a 11.098609
_cell_length_b 17.679441
_cell_length_c 20.937085
_cell_angle_alpha 90.000000
_cell_angle_beta 30.405063
_cell_angle_gamma 90.000000
_cell_volume 2079.209244
_symmetry_space_group_name_H-M "C 2/M"
_symmetry_group_IT_number 12
_symmetry_cell_setting 'monoclinic'
loop_
_space_group_symop_operation_xyz
x,y,z
-x,y,-z
-x,-y,-z
x,-y,z
1/2+x,1/2+y,z
1/2-x,1/2+y,-z
1/2-x,1/2-y,-z
1/2+x,1/2-y,z
loop_
_atom_site_type_symbol
_atom_site_label
_atom_site_fract_x
_atom_site_fract_y
_atom_site_fract_z
Si Si1 0.933760 0.797482 0.458869
Si Si2 0.671342 0.689305 0.225293
Si Si3 0.182998 0.661503 0.018119
Si Si4 0.281239 0.852608 0.859005
Si Si5 0.038888 0.585215 0.624365
Si Si6 0.394700 0.591446 0.259787
O O1 0.750000 0.750000 0.500000
O O2 0.783325 0.874636 0.531123
O O3 0.000000 0.773613 0.500000
O O4 0.151555 0.800886 0.310477
O O5 0.643580 0.769543 0.201831
O O6 0.472772 0.632223 0.289417
O O7 0.936456 0.659777 0.093179
O O8 0.129089 0.627108 0.112049
O O9 0.250000 0.750000 0.000000
O O10 0.402328 0.621343 0.882400
O O11 0.370358 0.908344 0.763716
O O12 0.000000 0.850225 0.000000
O O13 0.090856 0.500000 0.582831
O O14 0.865071 0.616164 0.647647
O O15 0.399869 0.500000 0.261276
#
# Coordination Sequence:
#
# PCOD9222298 Si02
#       6
#     8   8   8   8   8   8
#     4  12  29  49  78 108 142 188 242 303 360 426
#     4  12  25  41  71 102 144 184 242 300 361 426
#     4  12  22  39  65 105 146 184 236 295 358 432
#     4  12  21  38  69 102 136 183 234 295 356 423
#     4  11  26  47  71 103 146 190 243 296 355 432
#     4  11  25  44  69 105 146 193 239 296 364 433
#
# _framework density 23.085699999999999
#
# number of rings (size 3 to 8) (size 9 to 14) (size 15 to 20)
#    0.000    0.333    6.667    1.500    2.333    3.333 
#    0.000    3.333    0.000    0.000    0.000    0.000 
#    0.000    0.000    0.000    0.000    0.000    0.000 
#
# Total GULP energy -134168.076780 kJ/mol
# GULP energy per Si atom -5590.336532 kJ/mol
# Density = 2.303316 g / cm^3
# Si number density = 23.085700 Si / 1000 Ang^3
#
#
#
# Elastic Constant Matrix: (Units=GPa)
#
#
# Indices 1 2 3 4 5 6 
#
# 1 144.0156 10.9263 18.8315 -0.0069 18.6983 -0.0022
# 2 10.9263 58.1431 -2.4913 -0.0175 -6.5227 -0.0005
# 3 18.8315 -2.4913 68.1408 0.0049 10.2428 -0.0274
# 4 -0.0069 -0.0175 0.0049 23.3956 -0.0059 -5.6047
# 5 18.6983 -6.5227 10.2428 -0.0059 46.6541 0.0048
# 6 -0.0022 -0.0005 -0.0274 -5.6047 0.0048 24.7636
#
#
#
# Elastic Compliance Matrix: (Units=1/GPa)
#
#
# Indices 1 2 3 4 5 6 
#
# 1 0.007697 -0.001854 -0.001750 0.000000 -0.002960 -0.000001
# 2 -0.001854 0.017925 0.000702 0.000014 0.003095 0.000004
# 3 -0.001750 0.000702 0.015579 0.000000 -0.002621 0.000018
# 4 0.000000 0.000014 0.000000 0.045193 0.000006 0.010229
# 5 -0.002960 0.003095 -0.002621 0.000006 0.023629 -0.000006
# 6 -0.000001 0.000004 0.000018 0.010229 -0.000006 0.042697
#
#
# Mechanical properties :
#
#
# Convention : Reuss Voigt Hill
#
# Bulk Modulus (GPa) = 28.24997 36.09248 32.17123
# Shear Modulus (GPa) = 29.35620 35.16486 32.26053
#
# Velocity S-wave (km/s) = 3.56984 3.90709 3.74227
# Velocity P-wave (km/s) = 5.40882 6.00183 5.71302
#
# Compressibility (1/GPa) = 0.03539827
#
# Stress axis : x y z
#
# Youngs Moduli (GPa) = 129.91280 55.78945 64.18984
#
# Poissons Ratio (x) = 0.10341 0.11234
# Poissons Ratio (y) = 0.24080 -0.04509
# Poissons Ratio (z) = 0.22736 -0.03919
#
# Static dielectric constant tensor:
#      x y z
#    x 1.938120 0.000000 -0.048430 
#    y 0.000000 1.888790 -0.000010 
#    z -0.048430 -0.000010 2.011890 
# 
# From -- ./inp_files/336390.got.cif
#   From: 2010.05.17/outbox.cif.g08.bks.cpg/sg12_169_cif.got.tgz:336390.got - 2010.06.03 13:09:07.
