data_PCOD9222730
_publ_section_title
;
Structure prediction by ZEFSAII (Michael W. Deem and Ramdas Pophale) SiO2 
 PCOD9222730
Probable space group: C 2/M
;
_chemical_formula_sum "Si O2"
_cell_formula_units_Z 38
_cell_length_a 8.874947
_cell_length_b 14.517409
_cell_length_c 14.157223
_cell_angle_alpha 90.000000
_cell_angle_beta 113.644779
_cell_angle_gamma 90.000000
_cell_volume 1670.905637
_symmetry_space_group_name_H-M "C 2/M"
_symmetry_group_IT_number 12
_symmetry_cell_setting 'monoclinic'
loop_
_space_group_symop_operation_xyz
x,y,z
-x,y,-z
-x,-y,-z
x,-y,z
1/2+x,1/2+y,z
1/2-x,1/2+y,-z
1/2-x,1/2-y,-z
1/2+x,1/2-y,z
loop_
_atom_site_type_symbol
_atom_site_label
_atom_site_fract_x
_atom_site_fract_y
_atom_site_fract_z
Si Si1 0.615676 0.500000 0.395640
Si Si2 0.882837 0.195832 0.594454
Si Si3 0.706602 0.500000 0.812183
Si Si4 0.500000 0.000000 0.500000
Si Si5 0.996102 0.500000 0.722774
Si Si6 0.187885 0.687614 0.070494
Si Si7 0.188573 0.683681 0.734510
O O1 0.589629 0.596132 0.441299
O O2 0.472350 0.500000 0.280406
O O3 0.809371 0.500000 0.416642
O O4 0.750000 0.250000 0.500000
O O5 0.813072 0.170477 0.680000
O O6 0.039689 0.259207 0.649300
O O7 0.726893 0.591245 0.881079
O O8 0.848090 0.500000 0.763666
O O9 0.437361 0.000000 0.597923
O O10 0.107470 0.592537 0.759561
O O11 0.217616 0.753003 0.167670
O O12 0.250000 0.750000 0.000000
O O13 0.000000 0.665910 0.000000
#
# Coordination Sequence:
#
# PCOD9222730 Si02
#       7
#     4   8   4   2   4   8   8
#     4  12  26  48  72 108 153 203 257 307 387 448
#     4  12  25  45  72 105 150 199 252 311 375 458
#     4  12  27  53  76 110 152 205 251 329 384 463
#     4  12  24  46  72 108 150 204 256 302 364 464
#     4  12  26  48  74 107 161 205 252 313 388 442
#     4  12  27  49  77 112 149 199 259 320 393 457
#     4  12  25  47  71 109 150 200 252 318 378 450
#
# _framework density 22.742159999999998
#
# number of rings (size 3 to 8) (size 9 to 14) (size 15 to 20)
#    0.000    0.000    4.211    6.000    0.000    1.263 
#    3.789    1.053    0.000    0.000    0.000    0.000 
#    0.000    0.000    0.000    0.000    0.000    0.000 
#
# Total GULP energy -106024.771027 kJ/mol
# GULP energy per Si atom -5580.251107 kJ/mol
# Density = 2.269040 g / cm^3
# Si number density = 22.742160 Si / 1000 Ang^3
#
#
#
# Elastic Constant Matrix: (Units=GPa)
#
#
# Indices 1 2 3 4 5 6 
#
# 1 127.5334 35.4677 37.0833 0.0000 -1.7942 0.0000
# 2 35.4677 190.0106 47.4657 0.0000 4.3674 0.0000
# 3 37.0833 47.4657 117.1626 0.0000 4.5259 0.0000
# 4 0.0000 0.0000 0.0000 39.5816 0.0000 13.9394
# 5 -1.7942 4.3674 4.5259 0.0000 58.5260 0.0000
# 6 0.0000 0.0000 0.0000 13.9394 0.0000 20.2379
#
#
#
# Elastic Compliance Matrix: (Units=1/GPa)
#
#
# Indices 1 2 3 4 5 6 
#
# 1 0.008839 -0.001066 -0.002386 0.000000 0.000535 0.000000
# 2 -0.001066 0.005988 -0.002076 0.000000 -0.000319 0.000000
# 3 -0.002386 -0.002076 0.010159 0.000000 -0.000704 0.000000
# 4 0.000000 0.000000 0.000000 0.033355 0.000000 -0.022974
# 5 0.000535 -0.000319 -0.000704 0.000000 0.017181 0.000000
# 6 0.000000 0.000000 0.000000 -0.022974 0.000000 0.065236
#
#
# Mechanical properties :
#
#
# Convention : Reuss Voigt Hill
#
# Bulk Modulus (GPa) = 71.79566 74.97112 73.38339
# Shear Modulus (GPa) = 31.95753 44.64844 38.30298
#
# Velocity S-wave (km/s) = 3.75268 4.43566 4.10839
# Velocity P-wave (km/s) = 7.10034 7.69875 7.40559
#
# Compressibility (1/GPa) = 0.01392842
#
# Stress axis : x y z
#
# Youngs Moduli (GPa) = 113.13510 167.00617 98.43744
#
# Poissons Ratio (x) = 0.17804 0.23491
# Poissons Ratio (y) = 0.12061 0.20436
# Poissons Ratio (z) = 0.26999 0.34672
#
# Static dielectric constant tensor:
#      x y z
#    x 1.840090 0.000000 -0.056690 
#    y 0.000000 1.900540 0.000000 
#    z -0.056690 0.000000 1.827400 
# 
# From -- ./inp_files/194706.got.cif
#   From: 2010.05.17/outbox.cif.g08.bks.cpg/sg12_98_cif.got.tgz:194706.got - 2010.06.03 13:09:07.
