data_PCOD9222685
_publ_section_title
;
Structure prediction by ZEFSAII (Michael W. Deem and Ramdas Pophale) SiO2 
 PCOD9222685
Probable space group: C 2/M
;
_chemical_formula_sum "Si O2"
_cell_formula_units_Z 34
_cell_length_a 14.508893
_cell_length_b 15.053826
_cell_length_c 14.574300
_cell_angle_alpha 90.000000
_cell_angle_beta 151.658461
_cell_angle_gamma 90.000000
_cell_volume 1511.166371
_symmetry_space_group_name_H-M "C 2/M"
_symmetry_group_IT_number 12
_symmetry_cell_setting 'monoclinic'
loop_
_space_group_symop_operation_xyz
x,y,z
-x,y,-z
-x,-y,-z
x,-y,z
1/2+x,1/2+y,z
1/2-x,1/2+y,-z
1/2-x,1/2-y,-z
1/2+x,1/2-y,z
loop_
_atom_site_type_symbol
_atom_site_label
_atom_site_fract_x
_atom_site_fract_y
_atom_site_fract_z
Si Si1 0.546918 0.774091 0.368247
Si Si2 0.726312 0.603333 0.300292
Si Si3 0.605917 0.406687 0.690812
Si Si4 0.284259 0.602505 0.930665
Si Si5 0.000000 0.500000 0.000000
O O1 0.750000 0.750000 0.500000
O O2 0.622196 0.831274 0.520946
O O3 0.441307 0.682798 0.299534
O O4 0.386046 0.836352 0.178745
O O5 0.770792 0.500000 0.361733
O O6 0.723717 0.609414 0.187713
O O7 0.509108 0.624058 0.147191
O O8 0.500000 0.400936 0.500000
O O9 0.532308 0.500000 0.671161
O O10 0.831862 0.424241 0.871921
O O11 0.249355 0.500000 0.925588
#
# Coordination Sequence:
#
# PCOD9222685 Si02
#       5
#     8   8   8   8   2
#     4  12  24  34  55  87 128 157 184 231 302 363
#     4   9  19  38  63  88 112 145 197 245 287 344
#     4   9  20  39  60  84 106 148 210 251 277 321
#     4   9  19  38  63  89 111 147 197 244 291 341
#     4   8  18  40  64  78  98 144 204 256 274 304
#
# _framework density 22.499177
#
# number of rings (size 3 to 8) (size 9 to 14) (size 15 to 20)
#    0.706    1.647    0.000    4.235    0.000    8.471 
#    0.000    0.000    5.176    0.000    0.000    0.000 
#    0.000    0.000    0.000    0.000    0.000    0.000 
#
# Total GULP energy -94666.381983 kJ/mol
# GULP energy per Si atom -5568.610705 kJ/mol
# Density = 2.244797 g / cm^3
# Si number density = 22.499177 Si / 1000 Ang^3
#
#
#
# Elastic Constant Matrix: (Units=GPa)
#
#
# Indices 1 2 3 4 5 6 
#
# 1 43.2262 24.5785 37.4167 0.0024 12.9265 -0.0002
# 2 24.5785 133.9254 98.5243 0.0165 25.2953 -0.0007
# 3 37.4167 98.5243 153.2149 0.0168 49.0099 -0.0012
# 4 0.0024 0.0165 0.0168 124.5049 0.0073 5.1574
# 5 12.9265 25.2953 49.0099 0.0073 42.7607 -0.0007
# 6 -0.0002 -0.0007 -0.0012 5.1574 -0.0007 11.7342
#
#
#
# Elastic Compliance Matrix: (Units=1/GPa)
#
#
# Indices 1 2 3 4 5 6 
#
# 1 0.029371 -0.000313 -0.006616 0.000000 -0.001111 0.000000
# 2 -0.000313 0.014467 -0.010292 -0.000001 0.003334 0.000000
# 3 -0.006616 -0.010292 0.019220 0.000000 -0.013941 0.000001
# 4 0.000000 -0.000001 0.000000 0.008181 -0.000001 -0.003596
# 5 -0.001111 0.003334 -0.013941 -0.000001 0.037728 0.000001
# 6 0.000000 0.000000 0.000001 -0.003596 0.000001 0.086802
#
#
# Mechanical properties :
#
#
# Convention : Reuss Voigt Hill
#
# Bulk Modulus (GPa) = 34.94748 72.37838 53.66293
# Shear Modulus (GPa) = 20.85507 47.12310 33.98908
#
# Velocity S-wave (km/s) = 3.04785 4.58147 3.89096
# Velocity P-wave (km/s) = 5.28700 7.76052 6.63995
#
# Compressibility (1/GPa) = 0.02861437
#
# Stress axis : x y z
#
# Youngs Moduli (GPa) = 34.04693 69.12510 52.02833
#
# Poissons Ratio (x) = 0.02167 0.34422
# Poissons Ratio (y) = 0.01067 0.53550
# Poissons Ratio (z) = 0.22525 0.71147
#
# Static dielectric constant tensor:
#      x y z
#    x 1.877350 -0.000010 0.003450 
#    y -0.000010 1.837410 0.000000 
#    z 0.003450 0.000000 1.824200 
# 
# From -- ./inp_files/316560.got.cif
#   From: 2010.05.17/outbox.cif.g08.bks.cpg/sg12_159_cif.got.tgz:316560.got - 2010.06.03 13:09:07.
