data_PCOD9222049
_publ_section_title
;
Structure prediction by ZEFSAII (Michael W. Deem and Ramdas Pophale) SiO2 
 PCOD9222049
Probable space group: C 2/M
;
_chemical_formula_sum "Si O2"
_cell_formula_units_Z 48
_cell_length_a 10.276520
_cell_length_b 26.704148
_cell_length_c 8.234781
_cell_angle_alpha 90.000000
_cell_angle_beta 85.414714
_cell_angle_gamma 90.000000
_cell_volume 2252.602894
_symmetry_space_group_name_H-M "C 2/M"
_symmetry_group_IT_number 12
_symmetry_cell_setting 'monoclinic'
loop_
_space_group_symop_operation_xyz
x,y,z
-x,y,-z
-x,-y,-z
x,-y,z
1/2+x,1/2+y,z
1/2-x,1/2+y,-z
1/2-x,1/2-y,-z
1/2+x,1/2-y,z
loop_
_atom_site_type_symbol
_atom_site_label
_atom_site_fract_x
_atom_site_fract_y
_atom_site_fract_z
Si Si1 0.000000 0.135312 0.500000
Si Si2 0.500000 0.139355 0.500000
Si Si3 0.274039 0.304775 0.435003
Si Si4 0.907618 0.635244 0.166384
Si Si5 0.207140 0.944077 0.066946
Si Si6 0.369298 0.747894 0.113817
Si Si7 0.420145 0.555098 0.253101
O O1 0.877065 0.170439 0.549386
O O2 0.931704 0.099152 0.378054
O O3 0.365802 0.168632 0.557296
O O4 0.465033 0.114719 0.330518
O O5 0.250000 0.250000 0.500000
O O6 0.340537 0.294247 0.252632
O O7 0.783050 0.601641 0.137432
O O8 0.885035 0.695462 0.184812
O O9 0.000000 0.629682 0.000000
O O10 0.062394 0.946078 0.156024
O O11 0.265538 0.000000 0.086450
O O12 0.185499 0.936479 0.876852
O O13 0.500000 0.736459 0.000000
O O14 0.250000 0.750000 0.000000
O O15 0.396632 0.500000 0.329408
#
# Coordination Sequence:
#
# PCOD9222049 Si02
#       7
#     4   4   8   8   8   8   8
#     4  12  26  38  70 101 127 182 227 275 346 414
#     4  12  25  46  67  95 141 184 221 291 344 392
#     4  12  26  44  65  95 141 179 230 284 342 404
#     4  11  24  42  67  93 134 178 226 276 340 407
#     4   9  20  42  66  94 131 168 212 279 346 408
#     4  11  26  43  65  93 132 180 232 287 334 403
#     4   9  20  40  67  98 131 163 217 287 345 403
#
# _framework density 21.308682000000001
#
# number of rings (size 3 to 8) (size 9 to 14) (size 15 to 20)
#    0.000    1.333    1.667    4.750    7.000    0.333 
#    0.000    0.417    0.000    0.000    0.000    0.000 
#    0.000    0.000    0.000    0.000    0.000    0.000 
#
# Total GULP energy -133936.888099 kJ/mol
# GULP energy per Si atom -5580.703671 kJ/mol
# Density = 2.126018 g / cm^3
# Si number density = 21.308682 Si / 1000 Ang^3
#
#
#
# Elastic Constant Matrix: (Units=GPa)
#
#
# Indices 1 2 3 4 5 6 
#
# 1 112.0770 22.9656 21.3686 0.0000 2.9841 0.0000
# 2 22.9656 68.1072 21.4456 0.0000 3.4172 0.0000
# 3 21.3686 21.4456 87.5208 0.0000 1.2100 0.0000
# 4 0.0000 0.0000 0.0000 -0.6088 0.0000 12.2067
# 5 2.9841 3.4172 1.2100 0.0000 34.1986 0.0000
# 6 0.0000 0.0000 0.0000 12.2067 0.0000 25.1881
#
#
#
# Elastic Compliance Matrix: (Units=1/GPa)
#
#
# Indices 1 2 3 4 5 6 
#
# 1 0.009827 -0.002746 -0.001719 0.000000 -0.000522 0.000000
# 2 -0.002746 0.016750 -0.003416 0.000000 -0.001313 0.000000
# 3 -0.001719 -0.003416 0.012682 0.000000 0.000043 0.000000
# 4 0.000000 0.000000 0.000000 -0.153270 0.000000 0.074278
# 5 -0.000522 -0.001313 0.000043 0.000000 0.029416 0.000000
# 6 0.000000 0.000000 0.000000 0.074278 0.000000 0.003704
#
#
# Mechanical properties :
#
#
# Convention : Reuss Voigt Hill
#
# Bulk Modulus (GPa) = 42.55858 44.36273 43.46066
# Shear Modulus (GPa) = -87.26637 25.21726 -31.02456
#
# Velocity S-wave (km/s) = -6.40643 3.44383 -3.81984
# Velocity P-wave (km/s) = 5.89129 6.05620 0.99252
#
# Compressibility (1/GPa) = 0.02349702
#
# Stress axis : x y z
#
# Youngs Moduli (GPa) = 101.76242 59.70099 78.85203
#
# Poissons Ratio (x) = 0.16394 0.13556
# Poissons Ratio (y) = 0.27944 0.26934
# Poissons Ratio (z) = 0.17495 0.20392
#
# Static dielectric constant tensor:
#      x y z
#    x 1.786790 0.000000 0.003120 
#    y 0.000000 1.784640 0.000000 
#    z 0.003120 0.000000 1.861190 
# 
# From -- ./inp_files/42278.got.cif
#   From: 2010.05.17/outbox.cif.g08.bks.cpg/sg12_22_cif.got.tgz:42278.got - 2010.06.03 13:09:07.
