data_PCOD9222372
_publ_section_title
;
Structure prediction by ZEFSAII (Michael W. Deem and Ramdas Pophale) SiO2 
 PCOD9222372
Probable space group: C 2/M
;
_chemical_formula_sum "Si O2"
_cell_formula_units_Z 42
_cell_length_a 9.297404
_cell_length_b 15.177925
_cell_length_c 16.462214
_cell_angle_alpha 90.000000
_cell_angle_beta 61.380022
_cell_angle_gamma 90.000000
_cell_volume 2039.228284
_symmetry_space_group_name_H-M "C 2/M"
_symmetry_group_IT_number 12
_symmetry_cell_setting 'monoclinic'
loop_
_space_group_symop_operation_xyz
x,y,z
-x,y,-z
-x,-y,-z
x,-y,z
1/2+x,1/2+y,z
1/2-x,1/2+y,-z
1/2-x,1/2-y,-z
1/2+x,1/2-y,z
loop_
_atom_site_type_symbol
_atom_site_label
_atom_site_fract_x
_atom_site_fract_y
_atom_site_fract_z
Si Si1 0.027033 0.151346 0.629634
Si Si2 0.791004 0.601270 0.188546
Si Si3 0.324998 0.733103 0.067141
Si Si4 0.610570 0.163035 0.396828
Si Si5 0.907130 0.401579 0.777469
Si Si6 0.500000 0.500000 0.500000
O O1 0.892657 0.121205 0.732309
O O2 0.959335 0.240985 0.608106
O O3 0.036961 0.076825 0.558710
O O4 0.202418 0.167497 0.623804
O O5 0.804146 0.500000 0.156382
O O6 0.843639 0.674339 0.109389
O O7 0.911897 0.610596 0.233459
O O8 0.211025 0.670851 0.151851
O O9 0.500000 0.691548 0.000000
O O10 0.250000 0.750000 0.000000
O O11 0.500000 0.127235 0.500000
O O12 0.593710 0.108160 0.318866
O O13 0.853337 0.500000 0.814983
#
# Coordination Sequence:
#
# PCOD9222372 Si02
#       6
#     8   8   8   8   8   2
#     4  12  26  45  71 105 143 192 236 293 351 419
#     4  11  25  47  74 103 145 189 237 295 362 432
#     4  12  26  47  75 105 140 186 240 300 366 435
#     4  12  27  45  74 104 146 195 239 286 354 424
#     4  11  27  47  72 108 147 188 241 300 360 426
#     4  12  28  44  74 108 144 182 256 286 352 418
#
# _framework density 20.596026999999999
#
# number of rings (size 3 to 8) (size 9 to 14) (size 15 to 20)
#    0.000    0.381    5.714    1.714    6.667    1.905 
#    0.000    0.000    0.000    0.000    0.000    0.000 
#    0.000    0.000    0.000    0.000    0.000    0.000 
#
# Total GULP energy -117231.431586 kJ/mol
# GULP energy per Si atom -5582.449123 kJ/mol
# Density = 2.054915 g / cm^3
# Si number density = 20.596027 Si / 1000 Ang^3
#
#
#
# Elastic Constant Matrix: (Units=GPa)
#
#
# Indices 1 2 3 4 5 6 
#
# 1 132.3368 48.8250 48.3206 0.0000 -5.5752 0.0000
# 2 48.8250 99.0115 36.9655 0.0000 5.4354 0.0000
# 3 48.3206 36.9655 102.4635 0.0000 4.2462 0.0000
# 4 0.0000 0.0000 0.0000 -23.5606 0.0000 -6.1432
# 5 -5.5752 5.4354 4.2462 0.0000 42.7183 0.0000
# 6 0.0000 0.0000 0.0000 -6.1432 0.0000 13.2730
#
#
#
# Elastic Compliance Matrix: (Units=1/GPa)
#
#
# Indices 1 2 3 4 5 6 
#
# 1 0.010402 -0.003912 -0.003586 0.000000 0.002212 0.000000
# 2 -0.003912 0.013192 -0.002835 0.000000 -0.001907 0.000000
# 3 -0.003586 -0.002835 0.012530 0.000000 -0.001353 0.000000
# 4 0.000000 0.000000 0.000000 -0.037873 0.000000 -0.017529
# 5 0.002212 -0.001907 -0.001353 0.000000 0.024075 0.000000
# 6 0.000000 0.000000 0.000000 -0.017529 0.000000 0.067228
#
#
# Mechanical properties :
#
#
# Convention : Reuss Voigt Hill
#
# Bulk Modulus (GPa) = 64.69438 66.89267 65.79352
# Shear Modulus (GPa) = 43.33751 19.79952 31.56852
#
# Velocity S-wave (km/s) = 4.59210 3.10389 3.91928
# Velocity P-wave (km/s) = 7.71983 6.73754 7.24535
#
# Compressibility (1/GPa) = 0.01545729
#
# Stress axis : x y z
#
# Youngs Moduli (GPa) = 96.13145 75.80132 79.81116
#
# Poissons Ratio (x) = 0.29656 0.28619
# Poissons Ratio (y) = 0.37610 0.22629
# Poissons Ratio (z) = 0.34472 0.21492
#
# Static dielectric constant tensor:
#      x y z
#    x 1.690490 0.000000 -0.010210 
#    y 0.000000 1.728720 0.000000 
#    z -0.010210 0.000000 1.714940 
# 
# From -- ./inp_files/255703.got.cif
#   From: 2010.05.17/outbox.cif.g08.bks.cpg/sg12_128_cif.got.tgz:255703.got - 2010.06.03 13:09:07.
