data_PCOD9222089
_publ_section_title
;
Structure prediction by ZEFSAII (Michael W. Deem and Ramdas Pophale) SiO2 
 PCOD9222089
Probable space group: C 2/M
;
_chemical_formula_sum "Si O2"
_cell_formula_units_Z 32
_cell_length_a 7.834391
_cell_length_b 22.832481
_cell_length_c 10.512388
_cell_angle_alpha 90.000000
_cell_angle_beta 49.923874
_cell_angle_gamma 90.000000
_cell_volume 1438.894195
_symmetry_space_group_name_H-M "C 2/M"
_symmetry_group_IT_number 12
_symmetry_cell_setting 'monoclinic'
loop_
_space_group_symop_operation_xyz
x,y,z
-x,y,-z
-x,-y,-z
x,-y,z
1/2+x,1/2+y,z
1/2-x,1/2+y,-z
1/2-x,1/2-y,-z
1/2+x,1/2-y,z
loop_
_atom_site_type_symbol
_atom_site_label
_atom_site_fract_x
_atom_site_fract_y
_atom_site_fract_z
Si Si1 0.390904 0.371385 0.853152
Si Si2 0.253896 0.932995 0.329149
Si Si3 0.339086 0.135573 0.761806
Si Si4 0.994538 0.765778 0.634057
O O1 0.266217 0.408377 0.805125
O O2 0.646052 0.390698 0.763241
O O3 0.411266 0.306370 0.785328
O O4 0.261299 0.367752 0.047814
O O5 0.423343 0.896202 0.336916
O O6 0.000000 0.932880 0.500000
O O7 0.335165 0.000000 0.287956
O O8 0.372724 0.203086 0.702204
O O9 0.000000 0.802274 0.500000
O O10 0.250000 0.750000 0.500000
#
# Coordination Sequence:
#
# PCOD9222089 Si02
#       4
#     8   8   8   8
#     4  11  24  43  66  98 134 174 217 266 332 392
#     4  11  26  46  69  96 129 173 224 275 326 388
#     4  11  25  42  66  97 135 173 216 272 326 393
#     4  12  22  38  64  95 133 174 213 265 322 389
#
# _framework density 22.239298999999999
#
# number of rings (size 3 to 8) (size 9 to 14) (size 15 to 20)
#    0.000    0.750    2.500    5.250    0.000    3.000 
#    0.000    5.000    0.000    0.000    0.000    0.000 
#    0.000    0.000    0.000    0.000    0.000    0.000 
#
# Total GULP energy -89271.662746 kJ/mol
# GULP energy per Si atom -5579.478922 kJ/mol
# Density = 2.218868 g / cm^3
# Si number density = 22.239299 Si / 1000 Ang^3
#
#
#
# Elastic Constant Matrix: (Units=GPa)
#
#
# Indices 1 2 3 4 5 6 
#
# 1 91.9590 33.0965 7.1957 0.0000 -10.0149 0.0000
# 2 33.0965 105.1069 1.8205 0.0000 -3.1132 0.0000
# 3 7.1957 1.8205 70.2672 0.0000 0.3647 0.0000
# 4 0.0000 0.0000 0.0000 427.4579 0.0000 -354.3288
# 5 -10.0149 -3.1132 0.3647 0.0000 37.6277 0.0000
# 6 0.0000 0.0000 0.0000 -354.3288 0.0000 331.2034
#
#
#
# Elastic Compliance Matrix: (Units=1/GPa)
#
#
# Indices 1 2 3 4 5 6 
#
# 1 0.012703 -0.003888 -0.001216 0.000000 0.003071 0.000000
# 2 -0.003888 0.010732 0.000121 0.000000 -0.000148 0.000000
# 3 -0.001216 0.000121 0.014355 0.000000 -0.000453 0.000000
# 4 0.000000 0.000000 0.000000 0.020666 0.000000 0.022109
# 5 0.003071 -0.000148 -0.000453 0.000000 0.027386 0.000000
# 6 0.000000 0.000000 0.000000 0.022109 0.000000 0.026672
#
#
# Mechanical properties :
#
#
# Convention : Reuss Voigt Hill
#
# Bulk Modulus (GPa) = 35.94033 39.06205 37.50119
# Shear Modulus (GPa) = 37.94924 174.27248 106.11086
#
# Velocity S-wave (km/s) = 4.13535 8.86186 6.91497
# Velocity P-wave (km/s) = 6.24478 11.05950 8.98081
#
# Compressibility (1/GPa) = 0.02782389
#
# Stress axis : x y z
#
# Youngs Moduli (GPa) = 78.71920 93.17982 69.66149
#
# Poissons Ratio (x) = 0.36229 0.08472
# Poissons Ratio (y) = 0.30607 -0.00842
# Poissons Ratio (z) = 0.09573 -0.01126
#
# Static dielectric constant tensor:
#      x y z
#    x 1.872980 0.000000 -0.015990 
#    y 0.000000 2.563690 0.000000 
#    z -0.015990 0.000000 1.803670 
# 
# From -- ./inp_files/38534.got.cif
#   From: 2010.05.17/outbox.cif.g08.bks.cpg/sg12_20_cif.got.tgz:38534.got - 2010.06.03 13:09:07.
