data_PCOD9222431
_publ_section_title
;
Structure prediction by ZEFSAII (Michael W. Deem and Ramdas Pophale) SiO2 
 PCOD9222431
Probable space group: C 2/M
;
_chemical_formula_sum "Si O2"
_cell_formula_units_Z 30
_cell_length_a 11.981578
_cell_length_b 19.342472
_cell_length_c 6.878775
_cell_angle_alpha 90.000000
_cell_angle_beta 57.749589
_cell_angle_gamma 90.000000
_cell_volume 1348.235482
_symmetry_space_group_name_H-M "C 2/M"
_symmetry_group_IT_number 12
_symmetry_cell_setting 'monoclinic'
loop_
_space_group_symop_operation_xyz
x,y,z
-x,y,-z
-x,-y,-z
x,-y,z
1/2+x,1/2+y,z
1/2-x,1/2+y,-z
1/2-x,1/2-y,-z
1/2+x,1/2-y,z
loop_
_atom_site_type_symbol
_atom_site_label
_atom_site_fract_x
_atom_site_fract_y
_atom_site_fract_z
Si Si1 0.266229 0.681213 0.613540
Si Si2 0.000000 0.262521 0.500000
Si Si3 0.500000 0.000000 0.000000
Si Si4 0.391160 0.870419 0.883513
Si Si5 0.655711 0.416460 0.808684
O O1 0.250000 0.750000 0.500000
O O2 0.383161 0.709030 0.639464
O O3 0.306827 0.619442 0.431270
O O4 0.157985 0.660427 0.867958
O O5 0.986321 0.316230 0.688868
O O6 0.536292 0.940410 0.128511
O O7 0.262928 0.887035 0.864870
O O8 0.668592 0.500000 0.788112
O O9 0.500000 0.401188 0.000000
#
# Coordination Sequence:
#
# PCOD9222431 Si02
#       5
#     8   4   2   8   8
#     4  12  26  44  73 105 148 188 239 293 361 431
#     4  12  26  47  75 108 148 190 240 308 354 430
#     4  12  28  46  78 106 148 190 240 302 370 438
#     4  12  27  48  72 110 145 189 243 301 364 428
#     4  11  26  48  75 105 148 194 240 299 361 434
#
# _framework density 22.251304999999999
#
# number of rings (size 3 to 8) (size 9 to 14) (size 15 to 20)
#    0.000    0.267    4.000    4.000    5.600    0.533 
#    0.000    3.333    0.000    0.000    0.000    0.000 
#    0.000    0.000    0.000    0.000    0.000    0.000 
#
# Total GULP energy -83501.459754 kJ/mol
# GULP energy per Si atom -5566.763984 kJ/mol
# Density = 2.220066 g / cm^3
# Si number density = 22.251305 Si / 1000 Ang^3
#
#
#
# Elastic Constant Matrix: (Units=GPa)
#
#
# Indices 1 2 3 4 5 6 
#
# 1 61.9473 43.8273 22.9751 0.0000 7.0256 0.0000
# 2 43.8273 103.9320 75.8820 0.0000 -3.8464 0.0000
# 3 22.9751 75.8820 180.2399 0.0000 -10.5667 0.0000
# 4 0.0000 0.0000 0.0000 150.2982 0.0000 -1.4455
# 5 7.0256 -3.8464 -10.5667 0.0000 37.4294 0.0000
# 6 0.0000 0.0000 0.0000 -1.4455 0.0000 39.6016
#
#
#
# Elastic Compliance Matrix: (Units=1/GPa)
#
#
# Indices 1 2 3 4 5 6 
#
# 1 0.024368 -0.011517 0.001429 0.000000 -0.005354 0.000000
# 2 -0.011517 0.019337 -0.006538 0.000000 0.002303 0.000000
# 3 0.001429 -0.006538 0.008199 0.000000 0.001375 0.000000
# 4 0.000000 0.000000 0.000000 0.006656 0.000000 0.000243
# 5 -0.005354 0.002303 0.001375 0.000000 0.028347 0.000000
# 6 0.000000 0.000000 0.000000 0.000243 0.000000 0.025260
#
#
# Mechanical properties :
#
#
# Convention : Reuss Voigt Hill
#
# Bulk Modulus (GPa) = 53.61423 70.16535 61.88979
# Shear Modulus (GPa) = 32.97335 59.02816 46.00075
#
# Velocity S-wave (km/s) = 3.85367 5.15612 4.55172
# Velocity P-wave (km/s) = 6.62935 8.18834 7.44974
#
# Compressibility (1/GPa) = 0.01865176
#
# Stress axis : x y z
#
# Youngs Moduli (GPa) = 41.03664 51.71428 121.96437
#
# Poissons Ratio (x) = 0.59561 -0.17425
# Poissons Ratio (y) = 0.47263 0.79739
# Poissons Ratio (z) = -0.05863 0.33810
#
# Static dielectric constant tensor:
#      x y z
#    x 1.884610 0.000000 0.042260 
#    y 0.000000 1.718480 0.000000 
#    z 0.042260 0.000000 1.761540 
# 
# From -- ./inp_files/10191.got.cif
#   From: 2010.05.17/outbox.cif.g08.bks.cpg/sg12_6_cif.got.tgz:10191.got - 2010.06.03 13:09:07.
