data_PCOD9222657
_publ_section_title
;
Structure prediction by ZEFSAII (Michael W. Deem and Ramdas Pophale) SiO2 
 PCOD9222657
Probable space group: C 2/M
;
_chemical_formula_sum "Si O2"
_cell_formula_units_Z 46
_cell_length_a 13.121797
_cell_length_b 13.185674
_cell_length_c 11.206664
_cell_angle_alpha 90.000000
_cell_angle_beta 107.378866
_cell_angle_gamma 90.000000
_cell_volume 1850.460998
_symmetry_space_group_name_H-M "C 2/M"
_symmetry_group_IT_number 12
_symmetry_cell_setting 'monoclinic'
loop_
_space_group_symop_operation_xyz
x,y,z
-x,y,-z
-x,-y,-z
x,-y,z
1/2+x,1/2+y,z
1/2-x,1/2+y,-z
1/2-x,1/2-y,-z
1/2+x,1/2-y,z
loop_
_atom_site_type_symbol
_atom_site_label
_atom_site_fract_x
_atom_site_fract_y
_atom_site_fract_z
Si Si1 0.570855 0.287817 0.199629
Si Si2 0.000000 0.500000 0.000000
Si Si3 0.881664 0.000000 0.299102
Si Si4 0.105628 0.700404 0.465434
Si Si5 0.139319 0.688074 0.932743
Si Si6 0.611417 0.500000 0.264048
Si Si7 0.267416 0.000000 0.528120
Si Si8 0.794925 0.780154 0.261877
O O1 0.571198 0.273020 0.344197
O O2 0.459444 0.265378 0.102507
O O3 0.606143 0.400344 0.185022
O O4 0.667894 0.215558 0.197117
O O5 0.084592 0.589164 0.973847
O O6 0.839300 0.109533 0.239039
O O7 0.830892 0.000000 0.413725
O O8 0.006650 0.000000 0.313506
O O9 0.160805 0.599673 0.434431
O O10 0.178249 0.756907 0.590005
O O11 0.000000 0.671252 0.500000
O O12 0.158026 0.684198 0.794742
O O13 0.250000 0.750000 0.000000
O O14 0.716044 0.500000 0.380319
#
# Coordination Sequence:
#
# PCOD9222657 Si02
#       8
#     8   2   4   8   8   4   4   8
#     4  12  25  46  76 116 169 211 268 339 419 504
#     4  12  32  62  96 120 162 214 292 362 454 490
#     4  12  23  42  73 111 151 214 262 314 413 490
#     4  12  23  43  66 114 166 216 263 327 410 514
#     4  12  29  55  85 119 157 214 288 356 419 507
#     4  12  23  41  70 108 153 207 255 327 401 492
#     4  12  24  38  69 109 166 216 268 319 419 506
#     4  12  25  46  78 111 163 210 268 337 416 508
#
# _framework density 24.858671000000001
#
# number of rings (size 3 to 8) (size 9 to 14) (size 15 to 20)
#    0.000    0.000    6.957    3.130    0.000    5.565 
#    0.000    0.000    0.000    4.696    0.000    0.000 
#    0.000    0.000    0.000    0.000    0.000    0.000 
#
# Total GULP energy -128140.698895 kJ/mol
# GULP energy per Si atom -5571.334735 kJ/mol
# Density = 2.480209 g / cm^3
# Si number density = 24.858671 Si / 1000 Ang^3
#
#
#
# Elastic Constant Matrix: (Units=GPa)
#
#
# Indices 1 2 3 4 5 6 
#
# 1 129.9409 49.4486 46.6009 0.0000 9.7588 0.0000
# 2 49.4486 197.8835 53.2529 0.0000 14.8775 0.0000
# 3 46.6009 53.2529 77.4355 0.0000 16.7330 0.0000
# 4 0.0000 0.0000 0.0000 10.2026 0.0000 -8.2339
# 5 9.7588 14.8775 16.7330 0.0000 58.6623 0.0000
# 6 0.0000 0.0000 0.0000 -8.2339 0.0000 58.9618
#
#
#
# Elastic Compliance Matrix: (Units=1/GPa)
#
#
# Indices 1 2 3 4 5 6 
#
# 1 0.009999 -0.001081 -0.005300 0.000000 0.000123 0.000000
# 2 -0.001081 0.006326 -0.003615 0.000000 -0.000393 0.000000
# 3 -0.005300 -0.003615 0.019396 0.000000 -0.003734 0.000000
# 4 0.000000 0.000000 0.000000 0.110463 0.000000 0.015426
# 5 0.000123 -0.000393 -0.003734 0.000000 0.018191 0.000000
# 6 0.000000 0.000000 0.000000 0.015426 0.000000 0.019114
#
#
# Mechanical properties :
#
#
# Convention : Reuss Voigt Hill
#
# Bulk Modulus (GPa) = 63.57761 78.20719 70.89240
# Shear Modulus (GPa) = 23.95490 42.62916 33.29203
#
# Velocity S-wave (km/s) = 3.10763 4.14558 3.66355
# Velocity P-wave (km/s) = 6.20545 7.37858 6.81730
#
# Compressibility (1/GPa) = 0.01572881
#
# Stress axis : x y z
#
# Youngs Moduli (GPa) = 100.01036 158.07666 51.55606
#
# Poissons Ratio (x) = 0.17096 0.27326
# Poissons Ratio (y) = 0.10816 0.18635
# Poissons Ratio (z) = 0.53007 0.57138
#
# Static dielectric constant tensor:
#      x y z
#    x 2.070770 0.000000 -0.094490 
#    y 0.000000 1.848980 0.000000 
#    z -0.094490 0.000000 2.150160 
# 
# From -- ./inp_files/213567.got.cif
#   From: 2010.05.17/outbox.cif.g08.bks.cpg/sg12_107_cif.got.tgz:213567.got - 2010.06.03 13:09:07.
