data_PCOD9222117
_publ_section_title
;
Structure prediction by ZEFSAII (Michael W. Deem and Ramdas Pophale) SiO2 
 PCOD9222117
Probable space group: C 2/M
;
_chemical_formula_sum "Si O2"
_cell_formula_units_Z 40
_cell_length_a 11.359648
_cell_length_b 25.080761
_cell_length_c 8.483342
_cell_angle_alpha 90.000000
_cell_angle_beta 126.344938
_cell_angle_gamma 90.000000
_cell_volume 1946.787446
_symmetry_space_group_name_H-M "C 2/M"
_symmetry_group_IT_number 12
_symmetry_cell_setting 'monoclinic'
loop_
_space_group_symop_operation_xyz
x,y,z
-x,y,-z
-x,-y,-z
x,-y,z
1/2+x,1/2+y,z
1/2-x,1/2+y,-z
1/2-x,1/2-y,-z
1/2+x,1/2-y,z
loop_
_atom_site_type_symbol
_atom_site_label
_atom_site_fract_x
_atom_site_fract_y
_atom_site_fract_z
Si Si1 0.419483 0.500000 0.213754
Si Si2 0.335144 0.200053 0.647827
Si Si3 0.149966 0.591570 0.520931
Si Si4 0.819443 0.695020 0.003036
Si Si5 0.750033 0.000000 0.388628
Si Si6 0.143995 0.896904 0.041966
O O1 0.285640 0.500000 0.232716
O O2 0.583389 0.500000 0.413361
O O3 0.403255 0.445448 0.105198
O O4 0.250000 0.250000 0.500000
O O5 0.313189 0.149696 0.516956
O O6 0.510844 0.202113 0.813125
O O7 0.287462 0.189585 0.790698
O O8 0.162722 0.550662 0.386763
O O9 0.270157 0.577226 0.745088
O O10 0.000000 0.590932 0.500000
O O11 0.747054 0.645368 0.036145
O O12 0.750000 0.750000 0.000000
O O13 0.000000 0.869200 0.000000
#
# Coordination Sequence:
#
# PCOD9222117 Si02
#       6
#     4   8   8   8   4   8
#     4  11  24  44  68 102 138 177 226 274 331 409
#     4  11  26  46  68  97 136 176 225 280 338 399
#     4  12  24  45  69 100 137 175 224 281 336 399
#     4  11  26  45  69  98 133 178 227 277 336 401
#     4  11  24  43  70 101 136 179 224 274 339 397
#     4  12  24  44  70  99 138 178 225 277 334 400
#
# _framework density 20.546669999999999
#
# number of rings (size 3 to 8) (size 9 to 14) (size 15 to 20)
#    0.000    0.600    4.000    3.600    5.600    0.000 
#    0.000    1.000    0.000    0.000    0.000    0.000 
#    0.000    0.000    0.000    0.000    0.000    0.000 
#
# Total GULP energy -111705.079140 kJ/mol
# GULP energy per Si atom -5585.253957 kJ/mol
# Density = 2.049991 g / cm^3
# Si number density = 20.546670 Si / 1000 Ang^3
#
#
#
# Elastic Constant Matrix: (Units=GPa)
#
#
# Indices 1 2 3 4 5 6 
#
# 1 138.9279 53.3527 28.8580 0.0000 -22.6931 0.0000
# 2 53.3527 115.6203 9.3037 0.0000 -9.3186 0.0000
# 3 28.8580 9.3037 66.2502 0.0000 -9.2470 0.0000
# 4 0.0000 0.0000 0.0000 25.5457 0.0000 -4.3410
# 5 -22.6931 -9.3186 -9.2470 0.0000 27.9484 0.0000
# 6 0.0000 0.0000 0.0000 -4.3410 0.0000 35.4744
#
#
#
# Elastic Compliance Matrix: (Units=1/GPa)
#
#
# Indices 1 2 3 4 5 6 
#
# 1 0.010391 -0.004057 -0.003111 0.000000 0.006055 0.000000
# 2 -0.004057 0.010520 0.000335 0.000000 0.000325 0.000000
# 3 -0.003111 0.000335 0.016843 0.000000 0.003158 0.000000
# 4 0.000000 0.000000 0.000000 0.039977 0.000000 0.004892
# 5 0.006055 0.000325 0.003158 0.000000 0.041850 0.000000
# 6 0.000000 0.000000 0.000000 0.004892 0.000000 0.028788
#
#
# Mechanical properties :
#
#
# Convention : Reuss Voigt Hill
#
# Bulk Modulus (GPa) = 41.51357 55.98080 48.74719
# Shear Modulus (GPa) = 29.40046 33.07930 31.23988
#
# Velocity S-wave (km/s) = 3.78684 4.01678 3.90351
# Velocity P-wave (km/s) = 6.27444 6.98696 6.64026
#
# Compressibility (1/GPa) = 0.02408851
#
# Stress axis : x y z
#
# Youngs Moduli (GPa) = 96.23475 95.05592 59.37052
#
# Poissons Ratio (x) = 0.38560 0.18473
# Poissons Ratio (y) = 0.39039 -0.01989
# Poissons Ratio (z) = 0.29943 -0.03184
#
# Static dielectric constant tensor:
#      x y z
#    x 1.594450 0.000000 -0.014980 
#    y 0.000000 1.694840 0.000000 
#    z -0.014980 0.000000 1.752880 
# 
# From -- ./inp_files/50993.got.cif
#   From: 2010.05.17/outbox.cif.g08.bks.cpg/sg12_26_cif.got.tgz:50993.got - 2010.06.03 13:09:07.
