data_PCOD9222553
_publ_section_title
;
Structure prediction by ZEFSAII (Michael W. Deem and Ramdas Pophale) SiO2 
 PCOD9222553
Probable space group: C 2/M
;
_chemical_formula_sum "Si O2"
_cell_formula_units_Z 56
_cell_length_a 9.144141
_cell_length_b 27.747404
_cell_length_c 14.583658
_cell_angle_alpha 90.000000
_cell_angle_beta 56.761853
_cell_angle_gamma 90.000000
_cell_volume 3094.892306
_symmetry_space_group_name_H-M "C 2/M"
_symmetry_group_IT_number 12
_symmetry_cell_setting 'monoclinic'
loop_
_space_group_symop_operation_xyz
x,y,z
-x,y,-z
-x,-y,-z
x,-y,z
1/2+x,1/2+y,z
1/2-x,1/2+y,-z
1/2-x,1/2-y,-z
1/2+x,1/2-y,z
loop_
_atom_site_type_symbol
_atom_site_label
_atom_site_fract_x
_atom_site_fract_y
_atom_site_fract_z
Si Si1 0.257901 0.223143 0.774763
Si Si2 0.719019 0.057735 0.152793
Si Si3 0.797824 0.219847 0.573927
Si Si4 0.170674 0.623497 0.892760
Si Si5 0.587932 0.556965 0.108823
Si Si6 0.531451 0.855534 0.741809
Si Si7 0.644777 0.712957 0.097544
O O1 0.272600 0.242189 0.666277
O O2 0.365978 0.177440 0.772385
O O3 0.339704 0.266201 0.805811
O O4 0.055011 0.212658 0.863820
O O5 0.550689 0.090417 0.234545
O O6 0.887233 0.070877 0.157942
O O7 0.686415 0.000000 0.171838
O O8 0.795754 0.066246 0.023327
O O9 0.750000 0.250000 0.500000
O O10 0.680267 0.171903 0.630576
O O11 0.000000 0.205781 0.500000
O O12 0.321625 0.583842 0.837739
O O13 0.108164 0.646384 0.818862
O O14 0.253682 0.663114 0.932153
O O15 0.000000 0.602355 0.000000
O O16 0.590016 0.500000 0.121533
O O17 0.750000 0.750000 0.000000
#
# Coordination Sequence:
#
# PCOD9222553 Si02
#       7
#     8   8   8   8   8   8   8
#     4  12  22  40  57  84 116 156 210 243 295 369
#     4   9  19  38  61  88 123 164 208 247 292 357
#     4  12  24  44  64  82 114 154 206 269 315 358
#     4  12  22  34  50  84 127 165 203 237 288 356
#     4   9  19  36  58  86 126 170 204 240 286 349
#     4  12  23  38  61  88 117 160 203 250 309 358
#     4  12  23  35  52  80 125 167 192 236 289 360
#
# _framework density 18.094328999999998
#
# number of rings (size 3 to 8) (size 9 to 14) (size 15 to 20)
#    0.000    0.857    5.714    3.857    0.000    0.857 
#    0.000    0.000    0.000    0.429    0.000    2.000 
#    0.000    0.000    0.000    0.000    0.000    0.000 
#
# Total GULP energy -156089.909017 kJ/mol
# GULP energy per Si atom -5574.639608 kJ/mol
# Density = 1.805315 g / cm^3
# Si number density = 18.094329 Si / 1000 Ang^3
#
#
#
# Elastic Constant Matrix: (Units=GPa)
#
#
# Indices 1 2 3 4 5 6 
#
# 1 137.3070 49.6674 42.9381 0.0000 -32.6339 0.0000
# 2 49.6674 86.2537 24.6861 0.0000 -15.8956 0.0000
# 3 42.9381 24.6861 65.7718 0.0000 -7.8485 0.0000
# 4 0.0000 0.0000 0.0000 19.8395 0.0000 -11.2342
# 5 -32.6339 -15.8956 -7.8485 0.0000 32.4280 0.0000
# 6 0.0000 0.0000 0.0000 -11.2342 0.0000 36.2939
#
#
#
# Elastic Compliance Matrix: (Units=1/GPa)
#
#
# Indices 1 2 3 4 5 6 
#
# 1 0.012765 -0.003961 -0.005710 0.000000 0.009522 0.000000
# 2 -0.003961 0.015183 -0.002781 0.000000 0.002783 0.000000
# 3 -0.005710 -0.002781 0.019696 0.000000 -0.002342 0.000000
# 4 0.000000 0.000000 0.000000 0.061117 0.000000 0.018918
# 5 0.009522 0.002783 -0.002342 0.000000 0.041217 0.000000
# 6 0.000000 0.000000 0.000000 0.018918 0.000000 0.033408
#
#
# Mechanical properties :
#
#
# Convention : Reuss Voigt Hill
#
# Bulk Modulus (GPa) = 43.97536 58.21285 51.09411
# Shear Modulus (GPa) = 23.16208 29.18168 26.17188
#
# Velocity S-wave (km/s) = 3.58169 4.02027 3.80730
# Velocity P-wave (km/s) = 6.43901 7.33429 6.90118
#
# Compressibility (1/GPa) = 0.02274001
#
# Stress axis : x y z
#
# Youngs Moduli (GPa) = 78.34216 65.86122 50.77163
#
# Poissons Ratio (x) = 0.26089 0.28991
# Poissons Ratio (y) = 0.31032 0.14118
# Poissons Ratio (z) = 0.44735 0.18314
#
# Static dielectric constant tensor:
#      x y z
#    x 1.786280 0.000000 0.092160 
#    y 0.000000 1.439430 0.000000 
#    z 0.092160 0.000000 1.709500 
# 
# From -- ./inp_files/199685.got.cif
#   From: 2010.05.17/outbox.cif.g08.bks.cpg/sg12_100_cif.got.tgz:199685.got - 2010.06.03 13:09:07.
