data_PCOD9222594
_publ_section_title
;
Structure prediction by ZEFSAII (Michael W. Deem and Ramdas Pophale) SiO2 
 PCOD9222594
Probable space group: C 2/M
;
_chemical_formula_sum "Si O2"
_cell_formula_units_Z 36
_cell_length_a 9.143702
_cell_length_b 14.092449
_cell_length_c 20.415163
_cell_angle_alpha 90.000000
_cell_angle_beta 40.496795
_cell_angle_gamma 90.000000
_cell_volume 1708.351989
_symmetry_space_group_name_H-M "C 2/M"
_symmetry_group_IT_number 12
_symmetry_cell_setting 'monoclinic'
loop_
_space_group_symop_operation_xyz
x,y,z
-x,y,-z
-x,-y,-z
x,-y,z
1/2+x,1/2+y,z
1/2-x,1/2+y,-z
1/2-x,1/2-y,-z
1/2+x,1/2-y,z
loop_
_atom_site_type_symbol
_atom_site_label
_atom_site_fract_x
_atom_site_fract_y
_atom_site_fract_z
Si Si1 0.990415 0.000000 0.922654
Si Si2 0.332743 0.500000 0.492895
Si Si3 0.244694 0.819071 0.062678
Si Si4 0.511608 0.000000 0.715528
Si Si5 0.369548 0.787718 0.273271
Si Si6 0.885633 0.806648 0.399249
O O1 0.868318 0.911532 0.930213
O O2 0.246465 0.000000 0.812577
O O3 0.000000 0.000000 0.000000
O O4 0.500000 0.500000 0.500000
O O5 0.367657 0.411766 0.433516
O O6 0.095930 0.500000 0.611729
O O7 0.085025 0.765067 0.169384
O O8 0.500000 0.836407 0.000000
O O9 0.250000 0.750000 0.000000
O O10 0.590323 0.898875 0.720883
O O11 0.289581 0.726831 0.363101
O O12 0.151261 0.784208 0.301669
O O13 0.750000 0.750000 0.500000
#
# Coordination Sequence:
#
# PCOD9222594 Si02
#       6
#     4   4   8   4   8   8
#     4  12  27  48  75 102 145 187 236 297 368 426
#     4  12  22  43  67  97 139 186 238 277 351 418
#     4  12  26  48  73 108 142 185 240 299 357 430
#     4  12  22  43  69 101 132 187 233 282 353 422
#     4  12  25  42  72 100 139 182 236 285 354 423
#     4  12  23  42  65  99 135 185 228 288 341 416
#
# _framework density 21.072941
#
# number of rings (size 3 to 8) (size 9 to 14) (size 15 to 20)
#    0.000    0.000    4.444    7.000    0.000    0.889 
#    0.000    5.556    0.000    0.000    0.000    0.000 
#    0.000    0.000    0.000    0.000    0.000    0.000 
#
# Total GULP energy -100525.269499 kJ/mol
# GULP energy per Si atom -5584.737194 kJ/mol
# Density = 2.102498 g / cm^3
# Si number density = 21.072941 Si / 1000 Ang^3
#
#
#
# Elastic Constant Matrix: (Units=GPa)
#
#
# Indices 1 2 3 4 5 6 
#
# 1 88.9021 40.6085 33.5933 -0.0008 -3.0581 -0.0010
# 2 40.6085 171.5857 37.4520 -0.0008 9.8146 0.0001
# 3 33.5933 37.4520 149.1887 -0.0034 2.4374 -0.0007
# 4 -0.0008 -0.0008 -0.0034 35.3935 0.0009 0.3427
# 5 -3.0581 9.8146 2.4374 0.0009 50.8636 0.0004
# 6 -0.0010 0.0001 -0.0007 0.3427 0.0004 22.5934
#
#
#
# Elastic Compliance Matrix: (Units=1/GPa)
#
#
# Indices 1 2 3 4 5 6 
#
# 1 0.013447 -0.002750 -0.002361 0.000000 0.001452 0.000000
# 2 -0.002750 0.006792 -0.001063 0.000000 -0.001425 0.000000
# 3 -0.002361 -0.001063 0.007506 0.000001 -0.000297 0.000000
# 4 0.000000 0.000000 0.000001 0.028258 -0.000001 -0.000429
# 5 0.001452 -0.001425 -0.000297 -0.000001 0.020037 0.000000
# 6 0.000000 0.000000 0.000000 -0.000429 0.000000 0.044267
#
#
# Mechanical properties :
#
#
# Convention : Reuss Voigt Hill
#
# Bulk Modulus (GPa) = 64.94579 70.33157 67.63868
# Shear Modulus (GPa) = 36.28780 41.63829 38.96304
#
# Velocity S-wave (km/s) = 4.15421 4.44995 4.30462
# Velocity P-wave (km/s) = 7.34142 7.73631 7.54145
#
# Compressibility (1/GPa) = 0.01539746
#
# Stress axis : x y z
#
# Youngs Moduli (GPa) = 74.36784 147.22593 133.22332
#
# Poissons Ratio (x) = 0.40488 0.31457
# Poissons Ratio (y) = 0.20452 0.14156
# Poissons Ratio (z) = 0.17560 0.15644
#
# Static dielectric constant tensor:
#      x y z
#    x 1.758780 0.000000 -0.033890 
#    y 0.000000 1.648180 0.000000 
#    z -0.033890 0.000000 1.742810 
# 
# From -- ./inp_files/300089.got.cif
#   From: 2010.05.17/outbox.cif.g08.bks.cpg/sg12_151_cif.got.tgz:300089.got - 2010.06.03 13:09:07.
