data_PCOD9222289
_publ_section_title
;
Structure prediction by ZEFSAII (Michael W. Deem and Ramdas Pophale) SiO2 
 PCOD9222289
Probable space group: C 2/M
;
_chemical_formula_sum "Si O2"
_cell_formula_units_Z 36
_cell_length_a 12.743254
_cell_length_b 22.362295
_cell_length_c 6.467287
_cell_angle_alpha 90.000000
_cell_angle_beta 63.941854
_cell_angle_gamma 90.000000
_cell_volume 1655.631929
_symmetry_space_group_name_H-M "C 2/M"
_symmetry_group_IT_number 12
_symmetry_cell_setting 'monoclinic'
loop_
_space_group_symop_operation_xyz
x,y,z
-x,y,-z
-x,-y,-z
x,-y,z
1/2+x,1/2+y,z
1/2-x,1/2+y,-z
1/2-x,1/2-y,-z
1/2+x,1/2-y,z
loop_
_atom_site_type_symbol
_atom_site_label
_atom_site_fract_x
_atom_site_fract_y
_atom_site_fract_z
Si Si1 0.138063 0.930353 0.426338
Si Si2 0.000000 0.637223 0.500000
Si Si3 0.612500 0.653034 0.815119
Si Si4 0.697124 0.863076 0.022671
Si Si5 0.632532 0.777466 0.698233
O O1 0.168333 0.887381 0.590465
O O2 0.225926 0.911416 0.168306
O O3 0.000000 0.919440 0.500000
O O4 0.151318 0.000000 0.463627
O O5 0.924341 0.678451 0.414726
O O6 0.906209 0.609476 0.743939
O O7 0.562275 0.715286 0.772090
O O8 0.500000 0.618596 0.000000
O O9 0.708132 0.666490 0.906016
O O10 0.650305 0.814129 0.896798
O O11 0.750000 0.750000 0.500000
#
# Coordination Sequence:
#
# PCOD9222289 Si02
#       5
#     8   4   8   8   8
#     4  11  25  44  68 101 138 180 237 293 341 399
#     4  12  26  42  67  98 145 182 228 274 346 424
#     4  12  24  39  68 100 138 178 223 276 348 412
#     4  12  24  45  65 100 142 181 225 283 340 408
#     4  12  25  40  67 104 140 180 224 278 342 418
#
# _framework density 21.743963999999998
#
# number of rings (size 3 to 8) (size 9 to 14) (size 15 to 20)
#    0.000    0.222    6.667    2.667    4.667    1.333 
#    0.000    0.556    0.000    6.667    0.000    0.000 
#    0.000    0.000    0.000    0.000    0.000    0.000 
#
# Total GULP energy -100457.511970 kJ/mol
# GULP energy per Si atom -5580.972887 kJ/mol
# Density = 2.169447 g / cm^3
# Si number density = 21.743964 Si / 1000 Ang^3
#
#
#
# Elastic Constant Matrix: (Units=GPa)
#
#
# Indices 1 2 3 4 5 6 
#
# 1 89.9064 21.1488 45.7029 0.0000 5.9495 0.0000
# 2 21.1488 87.6627 35.4146 0.0000 11.6019 0.0000
# 3 45.7029 35.4146 166.9846 0.0000 -25.2974 0.0000
# 4 0.0000 0.0000 0.0000 -6.9834 0.0000 3.4628
# 5 5.9495 11.6019 -25.2974 0.0000 63.3916 0.0000
# 6 0.0000 0.0000 0.0000 3.4628 0.0000 15.5297
#
#
#
# Elastic Compliance Matrix: (Units=1/GPa)
#
#
# Indices 1 2 3 4 5 6 
#
# 1 0.013548 -0.001401 -0.003794 0.000000 -0.002529 0.000000
# 2 -0.001401 0.013422 -0.002996 0.000000 -0.003521 0.000000
# 3 -0.003794 -0.002996 0.008301 0.000000 0.004217 0.000000
# 4 0.000000 0.000000 0.000000 -0.128940 0.000000 0.028751
# 5 -0.002529 -0.003521 0.004217 0.000000 0.018340 0.000000
# 6 0.000000 0.000000 0.000000 0.028751 0.000000 0.057982
#
#
# Mechanical properties :
#
#
# Convention : Reuss Voigt Hill
#
# Bulk Modulus (GPa) = 52.94284 61.00959 56.97622
# Shear Modulus (GPa) = 937.58936 30.54007 484.06471
#
# Velocity S-wave (km/s) = 20.78777 3.75177 14.93665
# Velocity P-wave (km/s) = 24.50666 6.84739 17.99254
#
# Compressibility (1/GPa) = 0.01888829
#
# Stress axis : x y z
#
# Youngs Moduli (GPa) = 73.80986 74.50535 120.46136
#
# Poissons Ratio (x) = 0.10439 0.45705
# Poissons Ratio (y) = 0.10341 0.36096
# Poissons Ratio (z) = 0.28005 0.22325
#
# Static dielectric constant tensor:
#      x y z
#    x 1.853390 0.000000 -0.124150 
#    y 0.000000 1.747450 0.000000 
#    z -0.124150 0.000000 2.052190 
# 
# From -- ./inp_files/7490.got.cif
#   From: 2010.05.17/outbox.cif.g08.bks.cpg/sg12_4_cif.got.tgz:7490.got - 2010.06.03 13:09:07.
