data_PCOD9222699
_publ_section_title
;
Structure prediction by ZEFSAII (Michael W. Deem and Ramdas Pophale) SiO2 
 PCOD9222699
Probable space group: C 2/M
;
_chemical_formula_sum "Si O2"
_cell_formula_units_Z 32
_cell_length_a 21.779887
_cell_length_b 17.712102
_cell_length_c 9.364077
_cell_angle_alpha 90.000000
_cell_angle_beta 158.673360
_cell_angle_gamma 90.000000
_cell_volume 1313.757957
_symmetry_space_group_name_H-M "C 2/M"
_symmetry_group_IT_number 12
_symmetry_cell_setting 'monoclinic'
loop_
_space_group_symop_operation_xyz
x,y,z
-x,y,-z
-x,-y,-z
x,-y,z
1/2+x,1/2+y,z
1/2-x,1/2+y,-z
1/2-x,1/2-y,-z
1/2+x,1/2-y,z
loop_
_atom_site_type_symbol
_atom_site_label
_atom_site_fract_x
_atom_site_fract_y
_atom_site_fract_z
Si Si1 0.141532 0.585031 0.011317
Si Si2 0.209902 0.580647 0.468045
Si Si3 0.848427 0.178745 0.277972
Si Si4 0.585480 0.789264 0.337540
O O1 0.069316 0.500000 0.847641
O O2 0.259339 0.584399 0.409569
O O3 0.235243 0.606762 0.069577
O O4 0.017087 0.654400 0.779039
O O5 0.264432 0.500000 0.647140
O O6 0.240394 0.655826 0.624814
O O7 0.000000 0.577826 0.000000
O O8 0.889068 0.213824 0.521042
O O9 0.000000 0.161810 0.500000
O O10 0.750000 0.250000 0.000000
O O11 0.500000 0.772030 0.000000
#
# Coordination Sequence:
#
# PCOD9222699 Si02
#       4
#     8   8   8   8
#     4   9  18  36  61  85 117 156 196 244 295 347
#     4   7  12  26  53  85 112 140 189 245 285 331
#     4  12  24  40  57  89 126 159 194 246 297 352
#     4   9  18  35  62  90 113 154 203 244 289 350
#
# _framework density 24.357609
#
# number of rings (size 3 to 8) (size 9 to 14) (size 15 to 20)
#    0.000    3.250    2.500    2.250    0.000    5.000 
#    0.000    3.750    0.000    0.750    0.000    0.000 
#    0.000    0.000    0.000    0.000    0.000    0.000 
#
# Total GULP energy -89134.981406 kJ/mol
# GULP energy per Si atom -5570.936338 kJ/mol
# Density = 2.430217 g / cm^3
# Si number density = 24.357609 Si / 1000 Ang^3
#
#
#
# Elastic Constant Matrix: (Units=GPa)
#
#
# Indices 1 2 3 4 5 6 
#
# 1 122.6478 32.6596 17.0361 0.0000 6.3966 0.0000
# 2 32.6596 80.2430 12.0075 0.0000 2.7850 0.0000
# 3 17.0361 12.0075 26.4000 0.0000 -9.2100 0.0000
# 4 0.0000 0.0000 0.0000 -7.8066 0.0000 18.0267
# 5 6.3966 2.7850 -9.2100 0.0000 22.6432 0.0000
# 6 0.0000 0.0000 0.0000 18.0267 0.0000 23.4641
#
#
#
# Elastic Compliance Matrix: (Units=1/GPa)
#
#
# Indices 1 2 3 4 5 6 
#
# 1 0.010203 -0.002891 -0.007167 0.000000 -0.005442 0.000000
# 2 -0.002891 0.014655 -0.005994 0.000000 -0.003424 0.000000
# 3 -0.007167 -0.005994 0.053833 0.000000 0.024658 0.000000
# 4 0.000000 0.000000 0.000000 -0.046177 0.000000 0.035476
# 5 -0.005442 -0.003424 0.024658 0.000000 0.056151 0.000000
# 6 0.000000 0.000000 0.000000 0.035476 0.000000 0.015363
#
#
# Mechanical properties :
#
#
# Convention : Reuss Voigt Hill
#
# Bulk Modulus (GPa) = 21.46633 39.18859 30.32746
# Shear Modulus (GPa) = 32.96818 18.83265 25.90041
#
# Velocity S-wave (km/s) = 3.68299 2.78362 3.26443
# Velocity P-wave (km/s) = 5.18826 5.14346 5.16591
#
# Compressibility (1/GPa) = 0.04658457
#
# Stress axis : x y z
#
# Youngs Moduli (GPa) = 98.01327 68.23756 18.57612
#
# Poissons Ratio (x) = 0.19729 0.13314
# Poissons Ratio (y) = 0.28338 0.11135
# Poissons Ratio (z) = 0.70250 0.40903
#
# Static dielectric constant tensor:
#      x y z
#    x 1.994150 0.000000 0.008450 
#    y 0.000000 1.963290 0.000000 
#    z 0.008450 0.000000 2.139280 
# 
# From -- ./inp_files/88296.got.cif
#   From: 2010.05.17/outbox.cif.g08.bks.cpg/sg12_45_cif.got.tgz:88296.got - 2010.06.03 13:09:07.
