data_PCOD9222430
_publ_section_title
;
Structure prediction by ZEFSAII (Michael W. Deem and Ramdas Pophale) SiO2 
 PCOD9222430
Probable space group: C 2/M
;
_chemical_formula_sum "Si O2"
_cell_formula_units_Z 44
_cell_length_a 18.824633
_cell_length_b 17.013906
_cell_length_c 8.503949
_cell_angle_alpha 90.000000
_cell_angle_beta 54.605848
_cell_angle_gamma 90.000000
_cell_volume 2220.283314
_symmetry_space_group_name_H-M "C 2/M"
_symmetry_group_IT_number 12
_symmetry_cell_setting 'monoclinic'
loop_
_space_group_symop_operation_xyz
x,y,z
-x,y,-z
-x,-y,-z
x,-y,z
1/2+x,1/2+y,z
1/2-x,1/2+y,-z
1/2-x,1/2-y,-z
1/2+x,1/2-y,z
loop_
_atom_site_type_symbol
_atom_site_label
_atom_site_fract_x
_atom_site_fract_y
_atom_site_fract_z
Si Si1 0.267896 0.334839 0.904825
Si Si2 0.567778 0.905561 0.649035
Si Si3 0.000000 0.183232 0.000000
Si Si4 0.105824 0.591465 0.246806
Si Si5 0.955814 0.905536 0.729592
Si Si6 0.176412 0.287505 0.708614
O O1 0.363014 0.364921 0.819339
O O2 0.235414 0.323190 0.770701
O O3 0.250000 0.250000 0.000000
O O4 0.201676 0.394667 0.069365
O O5 0.466332 0.879326 0.784594
O O6 0.593242 0.878966 0.439500
O O7 0.628184 0.859793 0.688027
O O8 0.576485 0.000000 0.657056
O O9 0.906548 0.231390 0.133757
O O10 0.005586 0.133795 0.158734
O O11 0.086065 0.500000 0.285132
O O12 0.000000 0.893604 0.500000
O O13 0.950443 0.000000 0.760917
O O14 0.250000 0.250000 0.500000
#
# Coordination Sequence:
#
# PCOD9222430 Si02
#       6
#     8   8   4   8   8   8
#     4  12  23  41  63  94 128 168 218 277 337 398
#     4   9  20  38  62  94 132 169 210 267 330 402
#     4  12  25  48  71 100 142 186 228 292 349 416
#     4   9  19  38  62  91 127 169 210 258 327 396
#     4  11  26  48  72 101 137 186 240 287 342 414
#     4  12  25  42  65 101 134 173 228 280 350 416
#
# _framework density 19.817291999999998
#
# number of rings (size 3 to 8) (size 9 to 14) (size 15 to 20)
#    0.000    1.273    1.818    5.182    0.000    1.455 
#    0.000    3.182    0.000    0.000    0.000    0.000 
#    0.000    0.000    0.000    0.000    0.000    0.000 
#
# Total GULP energy -122570.084826 kJ/mol
# GULP energy per Si atom -5571.367492 kJ/mol
# Density = 1.977219 g / cm^3
# Si number density = 19.817292 Si / 1000 Ang^3
#
#
#
# Elastic Constant Matrix: (Units=GPa)
#
#
# Indices 1 2 3 4 5 6 
#
# 1 158.4192 52.1332 46.2815 0.0000 14.3667 0.0000
# 2 52.1332 68.9152 42.5377 0.0000 4.7874 0.0000
# 3 46.2815 42.5377 95.6373 0.0000 -8.6038 0.0000
# 4 0.0000 0.0000 0.0000 29.3480 0.0000 3.3718
# 5 14.3667 4.7874 -8.6038 0.0000 37.1264 0.0000
# 6 0.0000 0.0000 0.0000 3.3718 0.0000 41.3662
#
#
#
# Elastic Compliance Matrix: (Units=1/GPa)
#
#
# Indices 1 2 3 4 5 6 
#
# 1 0.008993 -0.005093 -0.002391 0.000000 -0.003377 0.000000
# 2 -0.005093 0.023737 -0.008366 0.000000 -0.003029 0.000000
# 3 -0.002391 -0.008366 0.015845 0.000000 0.005676 0.000000
# 4 0.000000 0.000000 0.000000 0.034396 0.000000 -0.002804
# 5 -0.003377 -0.003029 0.005676 0.000000 0.029948 0.000000
# 6 0.000000 0.000000 0.000000 -0.002804 0.000000 0.024403
#
#
# Mechanical properties :
#
#
# Convention : Reuss Voigt Hill
#
# Bulk Modulus (GPa) = 59.25418 67.20848 63.23133
# Shear Modulus (GPa) = 28.62934 33.70273 31.16604
#
# Velocity S-wave (km/s) = 3.80500 4.12840 3.96999
# Velocity P-wave (km/s) = 7.01920 7.53077 7.27948
#
# Compressibility (1/GPa) = 0.01687645
#
# Stress axis : x y z
#
# Youngs Moduli (GPa) = 111.19718 42.12744 63.11284
#
# Poissons Ratio (x) = 0.21455 0.15088
# Poissons Ratio (y) = 0.56631 0.52799
# Poissons Ratio (z) = 0.26583 0.35243
#
# Static dielectric constant tensor:
#      x y z
#    x 1.300730 0.000000 -0.005740 
#    y 0.000000 1.700850 0.000000 
#    z -0.005740 0.000000 1.763850 
# 
# From -- ./inp_files/75680.got.cif
#   From: 2010.05.17/outbox.cif.g08.bks.cpg/sg12_38_cif.got.tgz:75680.got - 2010.06.03 13:09:07.
