data_PCOD9222821
_publ_section_title
;
Structure prediction by ZEFSAII (Michael W. Deem and Ramdas Pophale) SiO2 
 PCOD9222821
Probable space group: C 2/M
;
_chemical_formula_sum "Si O2"
_cell_formula_units_Z 56
_cell_length_a 20.370471
_cell_length_b 7.448078
_cell_length_c 19.384157
_cell_angle_alpha 90.000000
_cell_angle_beta 75.518472
_cell_angle_gamma 90.000000
_cell_volume 2847.540982
_symmetry_space_group_name_H-M "C 2/M"
_symmetry_group_IT_number 12
_symmetry_cell_setting 'monoclinic'
loop_
_space_group_symop_operation_xyz
x,y,z
-x,y,-z
-x,-y,-z
x,-y,z
1/2+x,1/2+y,z
1/2-x,1/2+y,-z
1/2-x,1/2-y,-z
1/2+x,1/2-y,z
loop_
_atom_site_type_symbol
_atom_site_label
_atom_site_fract_x
_atom_site_fract_y
_atom_site_fract_z
Si Si1 0.213963 0.785970 0.437596
Si Si2 0.420187 0.207096 0.999788
Si Si3 0.744200 0.219344 0.722140
Si Si4 0.435413 0.280466 0.560087
Si Si5 0.615402 0.220540 0.843798
Si Si6 0.394258 0.284977 0.720457
Si Si7 0.535015 0.213752 0.153693
O O1 0.250000 0.750000 0.500000
O O2 0.253116 0.722199 0.358648
O O3 0.136232 0.721977 0.453887
O O4 0.210195 0.000000 0.431319
O O5 0.421249 0.286747 0.922660
O O6 0.397339 0.000000 0.000490
O O7 0.500000 0.206889 0.000000
O O8 0.382715 0.282564 0.076822
O O9 0.678927 0.279629 0.781763
O O10 0.816104 0.276410 0.736094
O O11 0.742643 0.000000 0.723533
O O12 0.500000 0.218503 0.500000
O O13 0.436913 0.500000 0.558851
O O14 0.432714 0.223554 0.640937
O O15 0.542744 0.277916 0.831594
O O16 0.615558 0.000000 0.844754
O O17 0.391682 0.500000 0.716574
O O18 0.431268 0.241249 0.781534
O O19 0.531236 0.000000 0.143013
#
# Coordination Sequence:
#
# PCOD9222821 Si02
#       7
#     8   8   8   8   8   8   8
#     4   9  17  29  45  64  84 106 135 171 207 242
#     4   7  11  21  38  60  82 104 134 169 201 235
#     4   8  15  28  43  59  82 112 141 166 197 242
#     4   8  15  29  46  60  78 110 146 170 192 236
#     4   8  13  24  44  64  80 105 142 175 199 233
#     4   9  17  29  44  61  83 111 139 166 200 245
#     4   9  16  26  43  66  86 104 133 174 210 237
#
# _framework density 19.666091999999999
#
# number of rings (size 3 to 8) (size 9 to 14) (size 15 to 20)
#    0.000    3.714    0.000    3.429    0.000    1.143 
#    0.000    3.571    0.000    5.571    0.000    0.000 
#    0.000    0.000    0.000    0.000    0.000    0.000 
#
# Total GULP energy -155939.123716 kJ/mol
# GULP energy per Si atom -5569.254418 kJ/mol
# Density = 1.962133 g / cm^3
# Si number density = 19.666092 Si / 1000 Ang^3
#
#
#
# Elastic Constant Matrix: (Units=GPa)
#
#
# Indices 1 2 3 4 5 6 
#
# 1 116.6333 4.1822 142.5024 0.0000 -11.7853 0.0000
# 2 4.1822 55.7136 5.1966 0.0000 -4.8015 0.0000
# 3 142.5024 5.1966 236.3336 0.0000 -9.3546 0.0000
# 4 0.0000 0.0000 0.0000 -27.7606 0.0000 -12.1297
# 5 -11.7853 -4.8015 -9.3546 0.0000 40.3189 0.0000
# 6 0.0000 0.0000 0.0000 -12.1297 0.0000 -9.9561
#
#
#
# Elastic Compliance Matrix: (Units=1/GPa)
#
#
# Indices 1 2 3 4 5 6 
#
# 1 0.033601 -0.000209 -0.020052 0.000000 0.005144 0.000000
# 2 -0.000209 0.018160 -0.000192 0.000000 0.002057 0.000000
# 3 -0.020052 -0.000192 0.016243 0.000000 -0.002116 0.000000
# 4 0.000000 0.000000 0.000000 -0.077025 0.000000 0.093841
# 5 0.005144 0.002057 -0.002116 0.000000 0.026060 0.000000
# 6 0.000000 0.000000 0.000000 0.093841 0.000000 -0.214768
#
#
# Mechanical properties :
#
#
# Convention : Reuss Voigt Hill
#
# Bulk Modulus (GPa) = 36.90364 79.16033 58.03198
# Shear Modulus (GPa) = -33.83138 17.64039 -8.09550
#
# Velocity S-wave (km/s) = -4.15214 2.99824 -2.03111
# Velocity P-wave (km/s) = 2.04479 7.23363 4.90634
#
# Compressibility (1/GPa) = 0.02709760
#
# Stress axis : x y z
#
# Youngs Moduli (GPa) = 29.76119 55.06667 61.56634
#
# Poissons Ratio (x) = 0.01149 1.23454
# Poissons Ratio (y) = 0.00621 0.01183
# Poissons Ratio (z) = 0.59677 0.01058
#
# Static dielectric constant tensor:
#      x y z
#    x 1.655770 0.000000 -0.003130 
#    y 0.000000 1.757360 0.000000 
#    z -0.003130 0.000000 1.717080 
# 
# From -- ./inp_files/276079.got.cif
#   From: 2010.05.17/outbox.cif.g08.bks.cpg/sg12_139_cif.got.tgz:276079.got - 2010.06.03 13:09:07.
