data_PCOD9222894
_publ_section_title
;
Structure prediction by ZEFSAII (Michael W. Deem and Ramdas Pophale) SiO2 
 PCOD9222894
Probable space group: C 2/M
;
_chemical_formula_sum "Si O2"
_cell_formula_units_Z 56
_cell_length_a 24.220269
_cell_length_b 7.433013
_cell_length_c 19.564597
_cell_angle_alpha 90.000000
_cell_angle_beta 52.441105
_cell_angle_gamma 90.000000
_cell_volume 2792.148444
_symmetry_space_group_name_H-M "C 2/M"
_symmetry_group_IT_number 12
_symmetry_cell_setting 'monoclinic'
loop_
_space_group_symop_operation_xyz
x,y,z
-x,y,-z
-x,-y,-z
x,-y,z
1/2+x,1/2+y,z
1/2-x,1/2+y,-z
1/2-x,1/2-y,-z
1/2+x,1/2-y,z
loop_
_atom_site_type_symbol
_atom_site_label
_atom_site_fract_x
_atom_site_fract_y
_atom_site_fract_z
Si Si1 0.364378 0.280833 0.519034
Si Si2 0.004188 0.220816 0.337074
Si Si3 0.210532 0.284255 0.789429
Si Si4 0.213143 0.715887 0.627010
Si Si5 0.942863 0.211850 0.094758
Si Si6 0.059005 0.210607 0.749481
Si Si7 0.861380 0.780649 0.681145
O O1 0.363126 0.500000 0.518025
O O2 0.434512 0.221802 0.429513
O O3 0.289381 0.220955 0.544729
O O4 0.368323 0.229807 0.596120
O O5 0.993910 0.282663 0.266979
O O6 0.073927 0.280394 0.322479
O O7 0.004525 0.000000 0.337462
O O8 0.210670 0.500000 0.790746
O O9 0.212104 0.230830 0.708214
O O10 0.135952 0.226618 0.873569
O O11 0.284379 0.222976 0.763723
O O12 0.212481 0.500000 0.623296
O O13 0.137619 0.777983 0.659448
O O14 0.943417 0.288269 0.171957
O O15 0.957590 0.000000 0.090163
O O16 0.000000 0.288520 0.000000
O O17 0.044205 0.000000 0.767176
O O18 0.862360 0.000000 0.681125
#
# Coordination Sequence:
#
# PCOD9222894 Si02
#       7
#     8   8   8   8   8   8   8
#     4   8  13  21  35  56  79 104 134 162 189 223
#     4   9  15  22  35  56  81 106 131 162 193 221
#     4   8  14  25  42  63  81  98 125 159 193 228
#     4   8  14  25  39  55  79 107 130 156 191 230
#     4   9  17  29  44  60  78 101 128 158 194 236
#     4   9  17  27  39  58  80 101 129 162 196 232
#     4   8  13  22  37  57  81 106 130 157 190 226
#
# _framework density 20.056242000000001
#
# number of rings (size 3 to 8) (size 9 to 14) (size 15 to 20)
#    0.000    3.571    0.000    2.143    0.000    2.571 
#    0.000    0.000    0.000    1.714    0.000    0.000 
#    0.000    8.000    0.000    0.000    0.000    0.000 
#
# Total GULP energy -155989.653298 kJ/mol
# GULP energy per Si atom -5571.059046 kJ/mol
# Density = 2.001059 g / cm^3
# Si number density = 20.056242 Si / 1000 Ang^3
#
#
#
# Elastic Constant Matrix: (Units=GPa)
#
#
# Indices 1 2 3 4 5 6 
#
# 1 150.5287 0.8695 63.8635 0.0417 -11.9082 -0.0086
# 2 0.8695 57.8740 2.2511 0.0175 0.7291 -0.0072
# 3 63.8635 2.2511 119.9771 0.0496 -22.1813 -0.0129
# 4 0.0417 0.0175 0.0496 22.0700 -0.0488 -8.6164
# 5 -11.9082 0.7291 -22.1813 -0.0488 18.5179 0.0108
# 6 -0.0086 -0.0072 -0.0129 -8.6164 0.0108 7.4662
#
#
#
# Elastic Compliance Matrix: (Units=1/GPa)
#
#
# Indices 1 2 3 4 5 6 
#
# 1 0.008581 0.000048 -0.004558 -0.000009 0.000056 -0.000009
# 2 0.000048 0.017319 -0.000605 -0.000016 -0.001376 0.000000
# 3 -0.004558 -0.000605 0.013146 0.000013 0.012840 0.000013
# 4 -0.000009 -0.000016 0.000013 0.082468 0.000172 0.095173
# 5 0.000056 -0.001376 0.012840 0.000172 0.069472 0.000119
# 6 -0.000009 0.000000 0.000013 0.095173 0.000119 0.243773
#
#
# Mechanical properties :
#
#
# Convention : Reuss Voigt Hill
#
# Bulk Modulus (GPa) = 34.70259 51.37201 43.03730
# Shear Modulus (GPa) = 10.99878 27.03720 19.01799
#
# Velocity S-wave (km/s) = 2.34433 3.67559 3.08268
# Velocity P-wave (km/s) = 4.96669 6.60930 5.84598
#
# Compressibility (1/GPa) = 0.02881629
#
# Stress axis : x y z
#
# Youngs Moduli (GPa) = 116.53190 57.73990 76.06637
#
# Poissons Ratio (x) = -0.00275 0.34673
# Poissons Ratio (y) = -0.00556 0.04599
# Poissons Ratio (z) = 0.53119 0.03491
#
# Static dielectric constant tensor:
#      x y z
#    x 1.729830 0.000000 -0.003350 
#    y 0.000000 1.761010 0.000000 
#    z -0.003350 0.000000 1.720260 
# 
# From -- ./inp_files/282619.got.cif
#   From: 2010.05.17/outbox.cif.g08.bks.cpg/sg12_142_cif.got.tgz:282619.got - 2010.06.03 13:09:07.
