data_PCOD9222167
_publ_section_title
;
Structure prediction by ZEFSAII (Michael W. Deem and Ramdas Pophale) SiO2 
 PCOD9222167
Probable space group: C 2/M
;
_chemical_formula_sum "Si O2"
_cell_formula_units_Z 40
_cell_length_a 14.950821
_cell_length_b 11.150804
_cell_length_c 11.889431
_cell_angle_alpha 90.000000
_cell_angle_beta 92.690950
_cell_angle_gamma 90.000000
_cell_volume 1979.945042
_symmetry_space_group_name_H-M "C 2/M"
_symmetry_group_IT_number 12
_symmetry_cell_setting 'monoclinic'
loop_
_space_group_symop_operation_xyz
x,y,z
-x,y,-z
-x,-y,-z
x,-y,z
1/2+x,1/2+y,z
1/2-x,1/2+y,-z
1/2-x,1/2-y,-z
1/2+x,1/2-y,z
loop_
_atom_site_type_symbol
_atom_site_label
_atom_site_fract_x
_atom_site_fract_y
_atom_site_fract_z
Si Si1 0.742940 0.218359 0.370214
Si Si2 0.911407 0.761997 0.242501
Si Si3 0.376928 0.000000 0.587108
Si Si4 0.325009 0.356612 0.010988
Si Si5 0.416207 0.000000 0.329599
Si Si6 0.397605 0.361794 0.767483
O O1 0.750000 0.250000 0.500000
O O2 0.839916 0.186654 0.327301
O O3 0.673176 0.111225 0.361885
O O4 0.694403 0.321792 0.296554
O O5 0.883533 0.819782 0.122391
O O6 0.898307 0.619052 0.256517
O O7 0.015140 0.790809 0.268824
O O8 0.367776 0.000000 0.449586
O O9 0.480027 0.000000 0.627268
O O10 0.296651 0.500000 0.018146
O O11 0.250000 0.250000 0.000000
O O12 0.381690 0.347095 0.899725
O O13 0.414801 0.500000 0.744251
#
# Coordination Sequence:
#
# PCOD9222167 Si02
#       6
#     8   8   4   8   4   8
#     4  12  26  42  70 101 136 180 232 285 343 411
#     4  12  25  45  71 103 138 188 228 287 353 415
#     4  11  24  46  65 100 143 183 237 292 343 406
#     4  11  25  46  75 105 141 183 233 289 352 420
#     4  11  24  44  72  96 144 186 231 294 357 408
#     4  11  26  48  69 100 139 181 230 284 350 420
#
# _framework density 20.202580999999999
#
# number of rings (size 3 to 8) (size 9 to 14) (size 15 to 20)
#    0.000    0.600    6.000    1.200    7.000    2.400 
#    1.800    2.000    0.000    0.000    0.000    0.000 
#    0.000    0.000    0.000    0.000    0.000    0.000 
#
# Total GULP energy -111658.966259 kJ/mol
# GULP energy per Si atom -5582.948313 kJ/mol
# Density = 2.015660 g / cm^3
# Si number density = 20.202581 Si / 1000 Ang^3
#
#
#
# Elastic Constant Matrix: (Units=GPa)
#
#
# Indices 1 2 3 4 5 6 
#
# 1 102.0423 32.0276 32.3187 0.0000 -19.8031 0.0000
# 2 32.0276 124.5979 25.8104 0.0000 -15.5747 0.0000
# 3 32.3187 25.8104 110.4852 0.0000 -2.0416 0.0000
# 4 0.0000 0.0000 0.0000 28.7648 0.0000 -1.7949
# 5 -19.8031 -15.5747 -2.0416 0.0000 36.5650 0.0000
# 6 0.0000 0.0000 0.0000 -1.7949 0.0000 16.7550
#
#
#
# Elastic Compliance Matrix: (Units=1/GPa)
#
#
# Indices 1 2 3 4 5 6 
#
# 1 0.012491 -0.001839 -0.003117 0.000000 0.005808 0.000000
# 2 -0.001839 0.009173 -0.001553 0.000000 0.002825 0.000000
# 3 -0.003117 -0.001553 0.010293 0.000000 -0.001775 0.000000
# 4 0.000000 0.000000 0.000000 0.034999 0.000000 0.003749
# 5 0.005808 0.002825 -0.001775 0.000000 0.031598 0.000000
# 6 0.000000 0.000000 0.000000 0.003749 0.000000 0.060085
#
#
# Mechanical properties :
#
#
# Convention : Reuss Voigt Hill
#
# Bulk Modulus (GPa) = 52.79978 57.49318 55.14648
# Shear Modulus (GPa) = 28.09454 32.88154 30.48804
#
# Velocity S-wave (km/s) = 3.73318 4.03872 3.88895
# Velocity P-wave (km/s) = 6.69134 7.09002 6.89356
#
# Compressibility (1/GPa) = 0.01893947
#
# Stress axis : x y z
#
# Youngs Moduli (GPa) = 80.05496 109.01184 97.15632
#
# Poissons Ratio (x) = 0.20050 0.30283
# Poissons Ratio (y) = 0.14724 0.15086
# Poissons Ratio (z) = 0.24953 0.16927
#
# Static dielectric constant tensor:
#      x y z
#    x 1.657190 0.000000 -0.014430 
#    y 0.000000 1.854950 0.000000 
#    z -0.014430 0.000000 1.681640 
# 
# From -- ./inp_files/140429.got.cif
#   From: 2010.05.17/outbox.cif.g08.bks.cpg/sg12_71_cif.got.tgz:140429.got - 2010.06.03 13:09:07.
