data_PCOD9222706
_publ_section_title
;
Structure prediction by ZEFSAII (Michael W. Deem and Ramdas Pophale) SiO2 
 PCOD9222706
Probable space group: C 2/M
;
_chemical_formula_sum "Si O2"
_cell_formula_units_Z 32
_cell_length_a 15.569359
_cell_length_b 19.790799
_cell_length_c 9.016174
_cell_angle_alpha 90.000000
_cell_angle_beta 35.451631
_cell_angle_gamma 90.000000
_cell_volume 1611.372417
_symmetry_space_group_name_H-M "C 2/M"
_symmetry_group_IT_number 12
_symmetry_cell_setting 'monoclinic'
loop_
_space_group_symop_operation_xyz
x,y,z
-x,y,-z
-x,-y,-z
x,-y,z
1/2+x,1/2+y,z
1/2-x,1/2+y,-z
1/2-x,1/2-y,-z
1/2+x,1/2-y,z
loop_
_atom_site_type_symbol
_atom_site_label
_atom_site_fract_x
_atom_site_fract_y
_atom_site_fract_z
Si Si1 0.265260 0.921798 0.913605
Si Si2 0.340160 0.301822 0.771591
Si Si3 0.841318 0.301485 0.270755
Si Si4 0.590132 0.078783 0.603436
O O1 0.304682 0.907572 0.686643
O O2 0.421840 0.913194 0.780502
O O3 0.221438 0.000000 0.987917
O O4 0.150150 0.870273 0.146457
O O5 0.500000 0.274523 0.500000
O O6 0.250502 0.315492 0.748025
O O7 0.250000 0.250000 0.000000
O O8 0.750000 0.250000 0.500000
O O9 0.874986 0.369176 0.316217
O O10 0.000000 0.271694 0.000000
O O11 0.608026 0.000000 0.620746
#
# Coordination Sequence:
#
# PCOD9222706 Si02
#       4
#     8   8   8   8
#     4   9  19  39  65  92 124 162 203 251 314 373
#     4  12  26  41  62  90 128 168 205 256 313 370
#     4  12  24  40  62  92 124 160 212 259 304 364
#     4   9  19  38  66  94 122 160 206 255 307 371
#
# _framework density 19.858846
#
# number of rings (size 3 to 8) (size 9 to 14) (size 15 to 20)
#    0.000    1.500    2.500    4.500    3.500    2.000 
#    0.000    0.000    0.000    3.750    0.000    0.000 
#    0.000    0.000    0.000    0.000    0.000    0.000 
#
# Total GULP energy -89462.321219 kJ/mol
# GULP energy per Si atom -5591.395076 kJ/mol
# Density = 1.981365 g / cm^3
# Si number density = 19.858846 Si / 1000 Ang^3
#
#
#
# Elastic Constant Matrix: (Units=GPa)
#
#
# Indices 1 2 3 4 5 6 
#
# 1 79.2492 34.2490 28.4512 0.0004 15.7455 -0.0003
# 2 34.2490 79.5837 61.2459 0.0002 24.1082 -0.0002
# 3 28.4512 61.2459 140.1408 0.0004 6.0435 -0.0001
# 4 0.0004 0.0002 0.0004 29.6134 -0.0001 -5.4441
# 5 15.7455 24.1082 6.0435 -0.0001 28.2655 -0.0001
# 6 -0.0003 -0.0002 -0.0001 -5.4441 -0.0001 8.2581
#
#
#
# Elastic Compliance Matrix: (Units=1/GPa)
#
#
# Indices 1 2 3 4 5 6 
#
# 1 0.015922 -0.004679 -0.000986 0.000000 -0.004668 0.000000
# 2 -0.004679 0.028876 -0.010820 0.000000 -0.019709 0.000000
# 3 -0.000986 -0.010820 0.011751 0.000000 0.007265 0.000000
# 4 0.000000 0.000000 0.000000 0.038425 0.000000 0.025332
# 5 -0.004668 -0.019709 0.007265 0.000000 0.053236 0.000000
# 6 0.000000 0.000000 0.000000 0.025332 0.000000 0.137793
#
#
# Mechanical properties :
#
#
# Convention : Reuss Voigt Hill
#
# Bulk Modulus (GPa) = 42.41056 60.76288 51.58672
# Shear Modulus (GPa) = 15.29825 24.89588 20.09707
#
# Velocity S-wave (km/s) = 2.77853 3.54452 3.18464
# Velocity P-wave (km/s) = 5.62992 6.88588 6.28933
#
# Compressibility (1/GPa) = 0.02357903
#
# Stress axis : x y z
#
# Youngs Moduli (GPa) = 62.80587 34.63038 85.09727
#
# Poissons Ratio (x) = 0.16204 0.08393
# Poissons Ratio (y) = 0.29387 0.92075
# Poissons Ratio (z) = 0.06194 0.37470
#
# Static dielectric constant tensor:
#      x y z
#    x 1.697710 0.000000 -0.006580 
#    y 0.000000 1.698130 0.000000 
#    z -0.006580 0.000000 1.714880 
# 
# From -- ./inp_files/46709.got.cif
#   From: 2010.05.17/outbox.cif.g08.bks.cpg/sg12_24_cif.got.tgz:46709.got - 2010.06.03 13:09:07.
