data_PCOD9222497
_publ_section_title
;
Structure prediction by ZEFSAII (Michael W. Deem and Ramdas Pophale) SiO2 
 PCOD9222497
Probable space group: C 2/M
;
_chemical_formula_sum "Si O2"
_cell_formula_units_Z 40
_cell_length_a 16.392995
_cell_length_b 9.882110
_cell_length_c 14.743019
_cell_angle_alpha 90.000000
_cell_angle_beta 120.348690
_cell_angle_gamma 90.000000
_cell_volume 2061.049146
_symmetry_space_group_name_H-M "C 2/M"
_symmetry_group_IT_number 12
_symmetry_cell_setting 'monoclinic'
loop_
_space_group_symop_operation_xyz
x,y,z
-x,y,-z
-x,-y,-z
x,-y,z
1/2+x,1/2+y,z
1/2-x,1/2+y,-z
1/2-x,1/2-y,-z
1/2+x,1/2-y,z
loop_
_atom_site_type_symbol
_atom_site_label
_atom_site_fract_x
_atom_site_fract_y
_atom_site_fract_z
Si Si1 0.096691 0.000000 0.108623
Si Si2 0.195858 0.500000 0.827328
Si Si3 0.375337 0.273849 0.722552
Si Si4 0.336797 0.775899 0.339660
Si Si5 0.827685 0.000000 0.557386
Si Si6 0.891659 0.500000 0.505847
Si Si7 0.600689 0.500000 0.600320
Si Si8 0.488775 0.000000 0.749596
O O1 0.100254 0.871399 0.178874
O O2 0.189950 0.000000 0.095019
O O3 0.000000 0.000000 0.000000
O O4 0.180530 0.369982 0.755519
O O5 0.101129 0.500000 0.835959
O O6 0.265025 0.240475 0.675093
O O7 0.374969 0.368493 0.632042
O O8 0.437778 0.138635 0.753155
O O9 0.384771 0.637458 0.338584
O O10 0.393243 0.866167 0.444350
O O11 0.716182 0.000000 0.517463
O O12 0.836374 0.000000 0.455211
O O13 0.966980 0.500000 0.628619
O O14 0.500000 0.500000 0.500000
#
# Coordination Sequence:
#
# PCOD9222497 Si02
#       8
#     4   4   8   8   4   4   4   4
#     4   9  19  44  66  75  94 134 168 203 271 354
#     4   9  22  35  54  77 106 136 170 219 269 310
#     4   9  19  34  58  76  99 136 172 218 259 311
#     4   9  19  35  44  71 106 145 192 208 244 296
#     4   9  18  34  44  72 102 142 195 208 239 294
#     4   9  18  30  54  62  99 154 181 215 241 293
#     4  12  23  25  42  70 110 149 186 213 236 274
#     4  12  20  29  52  82 109 131 173 216 264 286
#
# _framework density 19.407592000000001
#
# number of rings (size 3 to 8) (size 9 to 14) (size 15 to 20)
#    0.000    2.400    0.000    5.400    5.600    4.000 
#    0.000    1.500    0.000    0.000    0.000    0.000 
#    0.000    0.000    0.000    0.000    0.000    0.000 
#
# Total GULP energy -111521.444495 kJ/mol
# GULP energy per Si atom -5576.072225 kJ/mol
# Density = 1.936342 g / cm^3
# Si number density = 19.407592 Si / 1000 Ang^3
#
#
#
# Elastic Constant Matrix: (Units=GPa)
#
#
# Indices 1 2 3 4 5 6 
#
# 1 80.6835 34.7221 12.9292 0.0000 28.0935 0.0000
# 2 34.7221 138.2431 21.7107 0.0000 20.8394 0.0000
# 3 12.9292 21.7107 70.8950 0.0000 27.8176 0.0000
# 4 0.0000 0.0000 0.0000 7.1331 0.0000 11.9121
# 5 28.0935 20.8394 27.8176 0.0000 27.6236 0.0000
# 6 0.0000 0.0000 0.0000 11.9121 0.0000 -36.2819
#
#
#
# Elastic Compliance Matrix: (Units=1/GPa)
#
#
# Indices 1 2 3 4 5 6 
#
# 1 0.022194 -0.002498 0.007993 0.000000 -0.028736 0.000000
# 2 -0.002498 0.008444 -0.001038 0.000000 -0.002785 0.000000
# 3 0.007993 -0.001038 0.026201 0.000000 -0.033731 0.000000
# 4 0.000000 0.000000 0.000000 0.090546 0.000000 0.029728
# 5 -0.028736 -0.002785 -0.033731 0.000000 0.101494 0.000000
# 6 0.000000 0.000000 0.000000 0.029728 0.000000 -0.017802
#
#
# Mechanical properties :
#
#
# Convention : Reuss Voigt Hill
#
# Bulk Modulus (GPa) = 15.20843 47.61617 31.41230
# Shear Modulus (GPa) = 20.48509 14.39228 17.43868
#
# Velocity S-wave (km/s) = 3.25240 2.72615 3.00083
# Velocity P-wave (km/s) = 4.68588 5.87344 5.31294
#
# Compressibility (1/GPa) = 0.06575302
#
# Stress axis : x y z
#
# Youngs Moduli (GPa) = 45.05740 118.43075 38.16713
#
# Poissons Ratio (x) = 0.29582 -0.30506
# Poissons Ratio (y) = 0.11255 0.03960
# Poissons Ratio (z) = -0.36013 0.12288
#
# Static dielectric constant tensor:
#      x y z
#    x 1.730430 0.000000 0.013440 
#    y 0.000000 1.697250 0.000000 
#    z 0.013440 0.000000 1.636830 
# 
# From -- ./inp_files/211425.got.cif
#   From: 2010.05.17/outbox.cif.g08.bks.cpg/sg12_106_cif.got.tgz:211425.got - 2010.06.03 13:09:07.
