data_PCOD9222086
_publ_section_title
;
Structure prediction by ZEFSAII (Michael W. Deem and Ramdas Pophale) SiO2 
 PCOD9222086
Probable space group: C 2/M
;
_chemical_formula_sum "Si O2"
_cell_formula_units_Z 54
_cell_length_a 7.746702
_cell_length_b 12.495999
_cell_length_c 23.957546
_cell_angle_alpha 90.000000
_cell_angle_beta 71.232441
_cell_angle_gamma 90.000000
_cell_volume 2195.851139
_symmetry_space_group_name_H-M "C 2/M"
_symmetry_group_IT_number 12
_symmetry_cell_setting 'monoclinic'
loop_
_space_group_symop_operation_xyz
x,y,z
-x,y,-z
-x,-y,-z
x,-y,z
1/2+x,1/2+y,z
1/2-x,1/2+y,-z
1/2-x,1/2-y,-z
1/2+x,1/2-y,z
loop_
_atom_site_type_symbol
_atom_site_label
_atom_site_fract_x
_atom_site_fract_y
_atom_site_fract_z
Si Si1 0.106643 0.179402 0.236042
Si Si2 0.862510 0.695437 0.879846
Si Si3 0.211916 0.614729 0.295288
Si Si4 0.500000 0.000000 0.500000
Si Si5 0.383509 0.000000 0.167208
Si Si6 0.601731 0.153980 0.587786
Si Si7 0.968729 0.118553 0.937054
Si Si8 0.999158 0.115991 0.567472
O O1 0.927054 0.126397 0.280945
O O2 0.074008 0.230799 0.178369
O O3 0.157926 0.281733 0.266583
O O4 0.262788 0.092843 0.212076
O O5 0.665619 0.643499 0.889559
O O6 0.996737 0.596522 0.875321
O O7 0.847190 0.781994 0.930880
O O8 0.177114 0.500000 0.269507
O O9 0.082570 0.618938 0.362177
O O10 0.405714 0.906954 0.470011
O O11 0.783029 0.123699 0.603181
O O12 0.599815 0.281298 0.580316
O O13 0.902728 0.000000 0.925253
O O14 0.000000 0.115699 0.000000
O O15 0.000000 0.121773 0.500000
O O16 0.073944 0.000000 0.577390
#
# Coordination Sequence:
#
# PCOD9222086 Si02
#       8
#     8   8   8   2   4   8   8   8
#     4  12  26  44  69  99 132 179 232 282 345 411
#     4  12  24  44  70  98 136 186 230 286 341 403
#     4  12  26  45  68  97 136 174 219 283 347 402
#     4  12  24  42  78  96 134 176 226 270 334 422
#     4  12  24  43  67 100 134 168 240 275 337 405
#     4  12  25  46  68 100 136 174 220 277 336 410
#     4  11  25  43  68 103 143 185 234 284 338 398
#     4  11  24  43  66  96 127 169 217 261 322 395
#
# _framework density 24.591830999999999
#
# number of rings (size 3 to 8) (size 9 to 14) (size 15 to 20)
#    0.000    0.296    6.667    1.778    2.074    1.185 
#    1.333    0.370    0.000    0.000    0.000    0.000 
#    0.000    0.000    0.000    0.000    0.000    0.000 
#
# Total GULP energy -150483.533009 kJ/mol
# GULP energy per Si atom -5573.464186 kJ/mol
# Density = 2.453586 g / cm^3
# Si number density = 24.591831 Si / 1000 Ang^3
#
#
#
# Elastic Constant Matrix: (Units=GPa)
#
#
# Indices 1 2 3 4 5 6 
#
# 1 37.8644 28.3404 14.8996 0.0000 -10.3679 0.0000
# 2 28.3404 265.2001 30.2457 0.0000 10.1979 0.0000
# 3 14.8996 30.2457 35.2897 0.0000 -15.9543 0.0000
# 4 0.0000 0.0000 0.0000 17.8868 0.0000 -2.9444
# 5 -10.3679 10.1979 -15.9543 0.0000 30.2089 0.0000
# 6 0.0000 0.0000 0.0000 -2.9444 0.0000 32.1771
#
#
#
# Elastic Compliance Matrix: (Units=1/GPa)
#
#
# Indices 1 2 3 4 5 6 
#
# 1 0.034181 -0.003082 -0.007903 0.000000 0.008598 0.000000
# 2 -0.003082 0.004940 -0.005471 0.000000 -0.005615 0.000000
# 3 -0.007903 -0.005471 0.047254 0.000000 0.024091 0.000000
# 4 0.000000 0.000000 0.000000 0.056762 0.000000 0.005194
# 5 0.008598 -0.005615 0.024091 0.000000 0.050672 0.000000
# 6 0.000000 0.000000 0.000000 0.005194 0.000000 0.031553
#
#
# Mechanical properties :
#
#
# Convention : Reuss Voigt Hill
#
# Bulk Modulus (GPa) = 18.70462 53.92507 36.31484
# Shear Modulus (GPa) = 18.10965 33.71246 25.91105
#
# Velocity S-wave (km/s) = 2.71663 3.70656 3.24951
# Velocity P-wave (km/s) = 4.17883 6.34773 5.37384
#
# Compressibility (1/GPa) = 0.05346274
#
# Stress axis : x y z
#
# Youngs Moduli (GPa) = 29.25613 202.43020 21.16218
#
# Poissons Ratio (x) = 0.62389 0.16724
# Poissons Ratio (y) = 0.09017 0.11578
# Poissons Ratio (z) = 0.23121 1.10752
#
# Static dielectric constant tensor:
#      x y z
#    x 2.028090 0.000000 0.026280 
#    y 0.000000 1.919950 0.000000 
#    z 0.026280 0.000000 2.025380 
# 
# From -- ./inp_files/355790.got.cif
#   From: 2010.05.17/outbox.cif.g08.bks.cpg/sg12_178_cif.got.tgz:355790.got - 2010.06.03 13:09:07.
