data_PCOD9222822
_publ_section_title
;
Structure prediction by ZEFSAII (Michael W. Deem and Ramdas Pophale) SiO2 
 PCOD9222822
Probable space group: C 2/M
;
_chemical_formula_sum "Si O2"
_cell_formula_units_Z 56
_cell_length_a 20.050499
_cell_length_b 7.388728
_cell_length_c 22.988391
_cell_angle_alpha 90.000000
_cell_angle_beta 56.041713
_cell_angle_gamma 90.000000
_cell_volume 2824.819819
_symmetry_space_group_name_H-M "C 2/M"
_symmetry_group_IT_number 12
_symmetry_cell_setting 'monoclinic'
loop_
_space_group_symop_operation_xyz
x,y,z
-x,y,-z
-x,-y,-z
x,-y,z
1/2+x,1/2+y,z
1/2-x,1/2+y,-z
1/2-x,1/2-y,-z
1/2+x,1/2-y,z
loop_
_atom_site_type_symbol
_atom_site_label
_atom_site_fract_x
_atom_site_fract_y
_atom_site_fract_z
Si Si1 0.969578 0.720318 0.078618
Si Si2 0.676219 0.283231 0.491382
Si Si3 0.291406 0.779208 0.199238
Si Si4 0.246324 0.789891 0.097950
Si Si5 0.001785 0.790771 0.428404
Si Si6 0.678414 0.277881 0.356492
Si Si7 0.372062 0.781517 0.940686
O O1 0.967008 0.500000 0.077414
O O2 0.882259 0.779561 0.141566
O O3 0.038147 0.775250 0.090103
O O4 0.000000 0.778455 0.000000
O O5 0.668605 0.500000 0.492236
O O6 0.750000 0.250000 0.500000
O O7 0.584818 0.215794 0.550588
O O8 0.691730 0.221522 0.417129
O O9 0.244268 0.719718 0.164059
O O10 0.248570 0.719114 0.278865
O O11 0.291576 0.000000 0.202586
O O12 0.164553 0.776607 0.102325
O O13 0.268919 0.000000 0.093024
O O14 0.314035 0.713128 0.021160
O O15 0.091303 0.715725 0.374101
O O16 0.000000 0.789353 0.500000
O O17 0.003916 0.000000 0.407845
O O18 0.675632 0.500000 0.358499
O O19 0.368895 0.000000 0.943299
#
# Coordination Sequence:
#
# PCOD9222822 Si02
#       7
#     8   8   8   8   8   8   8
#     4   9  14  23  39  59  81 108 143 177 209 248
#     4   9  16  27  45  67  89 112 138 170 208 250
#     4   9  15  24  41  63  83 105 140 184 216 238
#     4   9  16  26  41  60  80 103 133 171 209 244
#     4   7  11  22  40  59  78 104 138 169 196 234
#     4   8  14  25  42  63  83 106 142 181 208 237
#     4   9  16  26  41  59  80 105 134 169 207 248
#
# _framework density 19.824273000000002
#
# number of rings (size 3 to 8) (size 9 to 14) (size 15 to 20)
#    0.000    3.429    1.429    1.714    0.000    0.000 
#    0.000    1.429    0.000    6.000    0.000    0.000 
#    0.000    0.000    0.000    0.000    0.000    0.000 
#
# Total GULP energy -155873.452900 kJ/mol
# GULP energy per Si atom -5566.909032 kJ/mol
# Density = 1.977915 g / cm^3
# Si number density = 19.824273 Si / 1000 Ang^3
#
#
#
# Elastic Constant Matrix: (Units=GPa)
#
#
# Indices 1 2 3 4 5 6 
#
# 1 176.7492 -3.9563 86.8526 -0.0015 -5.2492 -0.0012
# 2 -3.9563 63.9548 3.0263 -0.0042 -0.7385 -0.0036
# 3 86.8526 3.0263 124.8925 -0.0001 -12.9716 -0.0002
# 4 -0.0015 -0.0042 -0.0001 -4.6818 0.0000 6.6813
# 5 -5.2492 -0.7385 -12.9716 0.0000 26.5482 -0.0008
# 6 -0.0012 -0.0036 -0.0002 6.6813 -0.0008 15.4602
#
#
#
# Elastic Compliance Matrix: (Units=1/GPa)
#
#
# Indices 1 2 3 4 5 6 
#
# 1 0.008679 0.000815 -0.006189 -0.000001 -0.001285 0.000001
# 2 0.000815 0.015732 -0.000933 -0.000006 0.000143 0.000006
# 3 -0.006189 -0.000933 0.012856 0.000001 0.005032 -0.000001
# 4 -0.000001 -0.000006 0.000001 -0.132114 0.000002 0.057094
# 5 -0.001285 0.000143 0.005032 0.000002 0.039876 0.000001
# 6 0.000001 0.000006 -0.000001 0.057094 0.000001 0.040008
#
#
# Mechanical properties :
#
#
# Convention : Reuss Voigt Hill
#
# Bulk Modulus (GPa) = 40.56258 59.71574 50.13916
# Shear Modulus (GPa) = 852.07403 26.11024 439.09213
#
# Velocity S-wave (km/s) = 20.75444 3.63310 14.89876
# Velocity P-wave (km/s) = 24.38922 6.91283 17.92514
#
# Compressibility (1/GPa) = 0.02465326
#
# Stress axis : x y z
#
# Youngs Moduli (GPa) = 115.22264 63.56366 77.78578
#
# Poissons Ratio (x) = -0.05180 0.48139
# Poissons Ratio (y) = -0.09389 0.07258
# Poissons Ratio (z) = 0.71307 0.05931
#
# Static dielectric constant tensor:
#      x y z
#    x 1.719350 0.000000 -0.021950 
#    y 0.000000 1.782010 0.000000 
#    z -0.021950 0.000000 1.682930 
# 
# From -- ./inp_files/319048.got.cif
#   From: 2010.05.17/outbox.cif.g08.bks.cpg/sg12_160_cif.got.tgz:319048.got - 2010.06.03 13:09:07.
