data_PCOD9222761
_publ_section_title
;
Structure prediction by ZEFSAII (Michael W. Deem and Ramdas Pophale) SiO2 
 PCOD9222761
Probable space group: C 2/M
;
_chemical_formula_sum "Si O2"
_cell_formula_units_Z 36
_cell_length_a 10.086502
_cell_length_b 14.589918
_cell_length_c 13.562034
_cell_angle_alpha 90.000000
_cell_angle_beta 125.667896
_cell_angle_gamma 90.000000
_cell_volume 1621.413247
_symmetry_space_group_name_H-M "C 2/M"
_symmetry_group_IT_number 12
_symmetry_cell_setting 'monoclinic'
loop_
_space_group_symop_operation_xyz
x,y,z
-x,y,-z
-x,-y,-z
x,-y,z
1/2+x,1/2+y,z
1/2-x,1/2+y,-z
1/2-x,1/2-y,-z
1/2+x,1/2-y,z
loop_
_atom_site_type_symbol
_atom_site_label
_atom_site_fract_x
_atom_site_fract_y
_atom_site_fract_z
Si Si1 0.529476 0.671377 0.272050
Si Si2 0.323627 0.000000 0.637561
Si Si3 0.729134 0.500000 0.386894
Si Si4 0.858919 0.830092 0.003403
Si Si5 0.668735 0.307494 0.631254
Si Si6 0.302193 0.000000 0.182192
O O1 0.620253 0.587917 0.362194
O O2 0.385062 0.705795 0.279046
O O3 0.672628 0.745463 0.319979
O O4 0.452898 0.631452 0.139371
O O5 0.224888 0.910321 0.629442
O O6 0.354450 0.000000 0.531969
O O7 0.505985 0.000000 0.758967
O O8 0.776489 0.500000 0.290978
O O9 0.775229 0.909812 0.903109
O O10 0.750000 0.750000 0.000000
O O11 0.000000 0.784922 0.000000
O O12 0.500000 0.283273 0.500000
#
# Coordination Sequence:
#
# PCOD9222761 Si02
#       6
#     8   4   4   8   8   4
#     4  12  26  45  75 107 146 192 240 297 365 430
#     4  12  27  48  73 107 149 190 246 300 363 432
#     4  12  25  46  74 102 148 185 241 295 364 418
#     4  12  25  48  74 105 148 191 242 300 357 431
#     4  12  26  47  72 110 151 190 239 300 365 432
#     4  12  27  48  75 109 143 195 247 297 364 430
#
# _framework density 22.202853000000001
#
# number of rings (size 3 to 8) (size 9 to 14) (size 15 to 20)
#    0.000    0.000    4.444    5.667    3.111    0.000 
#    0.000    1.667    0.000    0.000    0.000    0.000 
#    0.000    0.000    0.000    0.000    0.000    0.000 
#
# Total GULP energy -100615.136617 kJ/mol
# GULP energy per Si atom -5589.729812 kJ/mol
# Density = 2.215232 g / cm^3
# Si number density = 22.202853 Si / 1000 Ang^3
#
#
#
# Elastic Constant Matrix: (Units=GPa)
#
#
# Indices 1 2 3 4 5 6 
#
# 1 184.3955 64.4969 53.6843 0.0000 -0.0581 0.0000
# 2 64.4969 126.1919 24.9845 0.0000 15.8942 0.0000
# 3 53.6843 24.9845 119.6243 0.0000 6.2759 0.0000
# 4 0.0000 0.0000 0.0000 19.2045 0.0000 -4.7319
# 5 -0.0581 15.8942 6.2759 0.0000 33.3336 0.0000
# 6 0.0000 0.0000 0.0000 -4.7319 0.0000 41.0882
#
#
#
# Elastic Compliance Matrix: (Units=1/GPa)
#
#
# Indices 1 2 3 4 5 6 
#
# 1 0.007459 -0.003553 -0.002722 0.000000 0.002220 0.000000
# 2 -0.003553 0.010424 -0.000325 0.000000 -0.004915 0.000000
# 3 -0.002722 -0.000325 0.009737 0.000000 -0.001683 0.000000
# 4 0.000000 0.000000 0.000000 0.053592 0.000000 0.006172
# 5 0.002220 -0.004915 -0.001683 0.000000 0.032664 0.000000
# 6 0.000000 0.000000 0.000000 0.006172 0.000000 0.025049
#
#
# Mechanical properties :
#
#
# Convention : Reuss Voigt Hill
#
# Bulk Modulus (GPa) = 69.34392 79.61589 74.47991
# Shear Modulus (GPa) = 31.86126 37.86166 34.86146
#
# Velocity S-wave (km/s) = 3.79226 4.13396 3.96679
# Velocity P-wave (km/s) = 7.10456 7.66306 7.38909
#
# Compressibility (1/GPa) = 0.01442087
#
# Stress axis : x y z
#
# Youngs Moduli (GPa) = 134.06668 95.93459 102.70006
#
# Poissons Ratio (x) = 0.34085 0.27953
# Poissons Ratio (y) = 0.47634 0.03335
# Poissons Ratio (z) = 0.36490 0.03115
#
# Static dielectric constant tensor:
#      x y z
#    x 1.815950 0.000000 -0.034850 
#    y 0.000000 3.213200 0.000000 
#    z -0.034850 0.000000 1.903300 
# 
# From -- ./inp_files/195774.got.cif
#   From: 2010.05.17/outbox.cif.g08.bks.cpg/sg12_98_cif.got.tgz:195774.got - 2010.06.03 13:09:07.
