data_PCOD9222187
_publ_section_title
;
Structure prediction by ZEFSAII (Michael W. Deem and Ramdas Pophale) SiO2 
 PCOD9222187
Probable space group: C 2/M
;
_chemical_formula_sum "Si O2"
_cell_formula_units_Z 44
_cell_length_a 9.852891
_cell_length_b 29.398516
_cell_length_c 7.737915
_cell_angle_alpha 90.000000
_cell_angle_beta 58.491177
_cell_angle_gamma 90.000000
_cell_volume 1910.899464
_symmetry_space_group_name_H-M "C 2/M"
_symmetry_group_IT_number 12
_symmetry_cell_setting 'monoclinic'
loop_
_space_group_symop_operation_xyz
x,y,z
-x,y,-z
-x,-y,-z
x,-y,z
1/2+x,1/2+y,z
1/2-x,1/2+y,-z
1/2-x,1/2-y,-z
1/2+x,1/2-y,z
loop_
_atom_site_type_symbol
_atom_site_label
_atom_site_fract_x
_atom_site_fract_y
_atom_site_fract_z
Si Si1 0.152619 0.050935 0.637437
Si Si2 0.582854 0.723234 0.625669
Si Si3 0.500000 0.879960 0.000000
Si Si4 0.779128 0.948922 0.815867
Si Si5 0.455928 0.814805 0.736399
Si Si6 0.836083 0.860812 0.193625
O O1 0.206032 0.052314 0.402477
O O2 0.233020 0.092555 0.684151
O O3 0.960080 0.057571 0.761867
O O4 0.184412 0.000000 0.684677
O O5 0.500000 0.713292 0.500000
O O6 0.750000 0.750000 0.500000
O O7 0.472849 0.762580 0.782453
O O8 0.618533 0.676429 0.693852
O O9 0.647633 0.912154 0.953468
O O10 0.548603 0.847450 0.806725
O O11 0.729264 0.000000 0.900057
O O12 0.500000 0.817585 0.500000
O O13 0.278291 0.833838 0.858616
O O14 0.000000 0.873767 0.000000
#
# Coordination Sequence:
#
# PCOD9222187 Si02
#       6
#     8   8   4   8   8   8
#     4   9  20  40  64  91 132 178 219 270 334 402
#     4  11  24  45  69  92 131 182 222 273 336 401
#     4  12  23  38  72  94 134 178 215 282 354 378
#     4   9  19  37  62  97 129 169 229 273 323 409
#     4  11  25  46  63  98 137 175 225 278 330 417
#     4  12  25  41  65 101 136 167 231 284 334 403
#
# _framework density 23.025807
#
# number of rings (size 3 to 8) (size 9 to 14) (size 15 to 20)
#    0.000    1.455    3.636    3.545    3.818    2.545 
#    0.000    1.818    0.000    4.909    0.000    0.000 
#    0.000    0.000    0.000    0.000    0.000    0.000 
#
# Total GULP energy -122928.161187 kJ/mol
# GULP energy per Si atom -5587.643690 kJ/mol
# Density = 2.297340 g / cm^3
# Si number density = 23.025807 Si / 1000 Ang^3
#
#
#
# Elastic Constant Matrix: (Units=GPa)
#
#
# Indices 1 2 3 4 5 6 
#
# 1 58.4741 31.4456 -4.9991 0.0000 12.7080 0.0000
# 2 31.4456 179.3523 29.2254 0.0000 17.1505 0.0000
# 3 -4.9991 29.2254 38.8389 0.0000 4.6459 0.0000
# 4 0.0000 0.0000 0.0000 26.6022 0.0000 -11.5711
# 5 12.7080 17.1505 4.6459 0.0000 17.2786 0.0000
# 6 0.0000 0.0000 0.0000 -11.5711 0.0000 7.5038
#
#
#
# Elastic Compliance Matrix: (Units=1/GPa)
#
#
# Indices 1 2 3 4 5 6 
#
# 1 0.023153 -0.003855 0.007708 0.000000 -0.015275 0.000000
# 2 -0.003855 0.007481 -0.005762 0.000000 -0.003041 0.000000
# 3 0.007708 -0.005762 0.032102 0.000000 -0.008582 0.000000
# 4 0.000000 0.000000 0.000000 0.114163 0.000000 0.176042
# 5 -0.015275 -0.003041 -0.008582 0.000000 0.074436 0.000000
# 6 0.000000 0.000000 0.000000 0.176042 0.000000 0.404727
#
#
# Mechanical properties :
#
#
# Convention : Reuss Voigt Hill
#
# Bulk Modulus (GPa) = 16.97247 43.11212 30.04229
# Shear Modulus (GPa) = 7.35815 25.00984 16.18400
#
# Velocity S-wave (km/s) = 1.78957 3.29928 2.65403
# Velocity P-wave (km/s) = 3.41425 5.76868 4.73998
#
# Compressibility (1/GPa) = 0.05891895
#
# Stress axis : x y z
#
# Youngs Moduli (GPa) = 43.19050 133.66870 31.15106
#
# Poissons Ratio (x) = 0.51526 -0.24011
# Poissons Ratio (y) = 0.16649 0.17949
# Poissons Ratio (z) = -0.33291 0.77017
#
# Static dielectric constant tensor:
#      x y z
#    x 1.910640 0.000000 0.018140 
#    y 0.000000 1.858870 0.000000 
#    z 0.018140 0.000000 1.916260 
# 
# From -- ./inp_files/42094.got.cif
#   From: 2010.05.17/outbox.cif.g08.bks.cpg/sg12_22_cif.got.tgz:42094.got - 2010.06.03 13:09:07.
