data_PCOD9222157
_publ_section_title
;
Structure prediction by ZEFSAII (Michael W. Deem and Ramdas Pophale) SiO2 
 PCOD9222157
Probable space group: C 2/M
;
_chemical_formula_sum "Si O2"
_cell_formula_units_Z 34
_cell_length_a 9.456533
_cell_length_b 23.612933
_cell_length_c 12.026141
_cell_angle_alpha 90.000000
_cell_angle_beta 141.640459
_cell_angle_gamma 90.000000
_cell_volume 1666.540604
_symmetry_space_group_name_H-M "C 2/M"
_symmetry_group_IT_number 12
_symmetry_cell_setting 'monoclinic'
loop_
_space_group_symop_operation_xyz
x,y,z
-x,y,-z
-x,-y,-z
x,-y,z
1/2+x,1/2+y,z
1/2-x,1/2+y,-z
1/2-x,1/2-y,-z
1/2+x,1/2-y,z
loop_
_atom_site_type_symbol
_atom_site_label
_atom_site_fract_x
_atom_site_fract_y
_atom_site_fract_z
Si Si1 0.543515 0.376316 0.207156
Si Si2 0.334230 0.690505 0.503056
Si Si3 0.029103 0.500000 0.286138
Si Si4 0.500000 0.000000 0.000000
Si Si5 0.130159 0.624142 0.783544
Si Si6 0.960663 0.000000 0.699529
O O1 0.540138 0.343136 0.320445
O O2 0.749891 0.355174 0.255930
O O3 0.577617 0.442507 0.255040
O O4 0.312698 0.368830 0.994712
O O5 0.500000 0.696362 0.500000
O O6 0.250000 0.750000 0.500000
O O7 0.106000 0.654802 0.335483
O O8 0.917259 0.557648 0.260431
O O9 0.993348 0.500000 0.132635
O O10 0.287397 0.500000 0.489348
O O11 0.778988 0.000000 0.176746
#
# Coordination Sequence:
#
# PCOD9222157 Si02
#       6
#     8   8   4   2   8   4
#     4  11  24  44  71 102 140 181 225 276 340 409
#     4  12  28  47  72  99 133 177 231 287 342 400
#     4  12  24  38  68 103 143 187 223 274 340 404
#     4  12  26  40  58 102 164 172 240 268 336 408
#     4  11  24  44  71 102 140 181 225 276 340 409
#     4  12  24  38  68 103 143 187 223 274 340 404
#
# _framework density 20.401544000000001
#
# number of rings (size 3 to 8) (size 9 to 14) (size 15 to 20)
#    0.000    0.471    4.706    3.176    3.294    4.706 
#    0.000    0.000    0.000    0.000    0.000    0.000 
#    0.000    0.000    0.000    0.000    0.000    0.000 
#
# Total GULP energy -94831.249525 kJ/mol
# GULP energy per Si atom -5578.308796 kJ/mol
# Density = 2.035511 g / cm^3
# Si number density = 20.401544 Si / 1000 Ang^3
#
#
#
# Elastic Constant Matrix: (Units=GPa)
#
#
# Indices 1 2 3 4 5 6 
#
# 1 158.6812 62.6993 42.5158 0.0000 5.6597 0.0000
# 2 62.6993 106.9404 28.4063 0.0000 -3.4067 0.0000
# 3 42.5158 28.4063 117.4433 0.0000 5.9550 0.0000
# 4 0.0000 0.0000 0.0000 -16.0119 0.0000 -38.6006
# 5 5.6597 -3.4067 5.9550 0.0000 36.5752 0.0000
# 6 0.0000 0.0000 0.0000 -38.6006 0.0000 -244.8623
#
#
#
# Elastic Compliance Matrix: (Units=1/GPa)
#
#
# Indices 1 2 3 4 5 6 
#
# 1 0.008709 -0.004633 -0.001958 0.000000 -0.001460 0.000000
# 2 -0.004633 0.012522 -0.001459 0.000000 0.002121 0.000000
# 3 -0.001958 -0.001459 0.009648 0.000000 -0.001404 0.000000
# 4 0.000000 0.000000 0.000000 -0.100737 0.000000 0.015880
# 5 -0.001460 0.002121 -0.001404 0.000000 0.027993 0.000000
# 6 0.000000 0.000000 0.000000 0.015880 0.000000 -0.006587
#
#
# Mechanical properties :
#
#
# Convention : Reuss Voigt Hill
#
# Bulk Modulus (GPa) = 67.66361 72.25640 69.96000
# Shear Modulus (GPa) = -182.30915 -28.23023 -105.26969
#
# Velocity S-wave (km/s) = -9.46332 -3.72389 -7.19103
# Velocity P-wave (km/s) = 9.28267 4.12362 5.88064
#
# Compressibility (1/GPa) = 0.01477899
#
# Stress axis : x y z
#
# Youngs Moduli (GPa) = 114.82160 79.85779 103.65048
#
# Poissons Ratio (x) = 0.36994 0.20298
# Poissons Ratio (y) = 0.53192 0.15126
# Poissons Ratio (z) = 0.22485 0.11654
#
# Static dielectric constant tensor:
#      x y z
#    x 1.708000 0.000000 0.004470 
#    y 0.000000 1.725840 0.000000 
#    z 0.004470 0.000000 1.706430 
# 
# From -- ./inp_files/124030.got.cif
#   From: 2010.05.17/outbox.cif.g08.bks.cpg/sg12_63_cif.got.tgz:124030.got - 2010.06.03 13:09:07.
