data_PCOD9222598
_publ_section_title
;
Structure prediction by ZEFSAII (Michael W. Deem and Ramdas Pophale) SiO2 
 PCOD9222598
Probable space group: C 2/M
;
_chemical_formula_sum "Si O2"
_cell_formula_units_Z 36
_cell_length_a 33.388528
_cell_length_b 10.799332
_cell_length_c 5.163719
_cell_angle_alpha 90.000000
_cell_angle_beta 72.975418
_cell_angle_gamma 90.000000
_cell_volume 1780.311806
_symmetry_space_group_name_H-M "C 2/M"
_symmetry_group_IT_number 12
_symmetry_cell_setting 'monoclinic'
loop_
_space_group_symop_operation_xyz
x,y,z
-x,y,-z
-x,-y,-z
x,-y,z
1/2+x,1/2+y,z
1/2-x,1/2+y,-z
1/2-x,1/2-y,-z
1/2+x,1/2-y,z
loop_
_atom_site_type_symbol
_atom_site_label
_atom_site_fract_x
_atom_site_fract_y
_atom_site_fract_z
Si Si1 0.136728 0.642004 0.036787
Si Si2 0.279070 0.742962 0.195071
Si Si3 0.907965 0.730012 0.383722
Si Si4 0.336532 0.500000 0.117265
Si Si5 0.395167 0.500000 0.506134
Si Si6 0.470853 0.000000 0.305415
O O1 0.122489 0.500000 0.057350
O O2 0.127632 0.697327 0.336534
O O3 0.185584 0.651355 0.879954
O O4 0.110883 0.715279 0.867377
O O5 0.250000 0.750000 0.500000
O O6 0.306877 0.618788 0.144674
O O7 0.250000 0.750000 0.000000
O O8 0.942657 0.624120 0.355017
O O9 0.920127 0.871914 0.416785
O O10 0.359115 0.500000 0.352941
O O11 0.371842 0.500000 0.826817
O O12 0.500000 0.000000 0.500000
O O13 0.500000 0.000000 0.000000
#
# Coordination Sequence:
#
# PCOD9222598 Si02
#       6
#     8   8   8   4   4   4
#     4  12  23  42  66  95 126 172 236 278 315 394
#     4  12  26  40  57  90 131 176 219 284 345 386
#     4  12  23  44  71 100 130 174 223 267 331 402
#     4  12  24  42  61  87 130 174 228 278 332 386
#     4  12  22  44  68  99 127 172 228 273 320 395
#     4  12  26  46  71 106 141 172 214 275 346 411
#
# _framework density 20.221174999999999
#
# number of rings (size 3 to 8) (size 9 to 14) (size 15 to 20)
#    0.000    0.000    6.667    4.000    3.111    0.000 
#    0.000    1.111    0.000    0.000    0.000    0.000 
#    0.000    0.000    0.000    0.000    0.000    0.000 
#
# Total GULP energy -100716.714057 kJ/mol
# GULP energy per Si atom -5595.373003 kJ/mol
# Density = 2.017515 g / cm^3
# Si number density = 20.221175 Si / 1000 Ang^3
#
#
#
# Elastic Constant Matrix: (Units=GPa)
#
#
# Indices 1 2 3 4 5 6 
#
# 1 84.6300 13.5710 17.8242 0.0000 5.5981 0.0000
# 2 13.5710 153.9414 11.0261 0.0000 -16.8588 0.0000
# 3 17.8242 11.0261 106.5958 0.0000 7.6310 0.0000
# 4 0.0000 0.0000 0.0000 29.7788 0.0000 -7.0072
# 5 5.5981 -16.8588 7.6310 0.0000 33.8600 0.0000
# 6 0.0000 0.0000 0.0000 -7.0072 0.0000 30.9985
#
#
#
# Elastic Compliance Matrix: (Units=1/GPa)
#
#
# Indices 1 2 3 4 5 6 
#
# 1 0.012544 -0.001226 -0.001808 0.000000 -0.002277 0.000000
# 2 -0.001226 0.007091 -0.000809 0.000000 0.003915 0.000000
# 3 -0.001808 -0.000809 0.009935 0.000000 -0.002343 0.000000
# 4 0.000000 0.000000 0.000000 0.035467 0.000000 0.008017
# 5 -0.002277 0.003915 -0.002343 0.000000 0.032387 0.000000
# 6 0.000000 0.000000 0.000000 0.008017 0.000000 0.034072
#
#
# Mechanical properties :
#
#
# Convention : Reuss Voigt Hill
#
# Bulk Modulus (GPa) = 45.69300 47.77884 46.73592
# Shear Modulus (GPa) = 34.13531 39.11054 36.62292
#
# Velocity S-wave (km/s) = 4.11310 4.40265 4.26034
# Velocity P-wave (km/s) = 6.72328 7.03732 6.88209
#
# Compressibility (1/GPa) = 0.02188519
#
# Stress axis : x y z
#
# Youngs Moduli (GPa) = 79.71922 141.02868 100.65534
#
# Poissons Ratio (x) = 0.17286 0.18196
# Poissons Ratio (y) = 0.09771 0.08141
# Poissons Ratio (z) = 0.14411 0.11406
#
# Static dielectric constant tensor:
#      x y z
#    x 1.670110 0.000000 -0.005130 
#    y 0.000000 1.788160 0.000000 
#    z -0.005130 0.000000 1.687070 
# 
# From -- ./inp_files/30582.got.cif
#   From: 2010.05.17/outbox.cif.g08.bks.cpg/sg12_16_cif.got.tgz:30582.got - 2010.06.03 13:09:07.
