data_PCOD9222921
_publ_section_title
;
Structure prediction by ZEFSAII (Michael W. Deem and Ramdas Pophale) SiO2 
 PCOD9222921
Probable space group: C 2/M
;
_chemical_formula_sum "Si O2"
_cell_formula_units_Z 56
_cell_length_a 32.369660
_cell_length_b 7.342879
_cell_length_c 18.780446
_cell_angle_alpha 90.000000
_cell_angle_beta 37.841333
_cell_angle_gamma 90.000000
_cell_volume 2738.474065
_symmetry_space_group_name_H-M "C 2/M"
_symmetry_group_IT_number 12
_symmetry_cell_setting 'monoclinic'
loop_
_space_group_symop_operation_xyz
x,y,z
-x,y,-z
-x,-y,-z
x,-y,z
1/2+x,1/2+y,z
1/2-x,1/2+y,-z
1/2-x,1/2-y,-z
1/2+x,1/2-y,z
loop_
_atom_site_type_symbol
_atom_site_label
_atom_site_fract_x
_atom_site_fract_y
_atom_site_fract_z
Si Si1 0.930086 0.222717 0.557268
Si Si2 0.539099 0.279455 0.153459
Si Si3 0.330744 0.282552 0.393386
Si Si4 0.455762 0.278662 0.128915
Si Si5 0.327685 0.708671 0.811835
Si Si6 0.821834 0.778900 0.980615
Si Si7 0.916577 0.221633 0.413610
O O1 0.873016 0.287954 0.688910
O O2 0.913867 0.283191 0.498933
O O3 0.000000 0.274879 0.500000
O O4 0.930564 0.000000 0.552954
O O5 0.540681 0.500000 0.151295
O O6 0.502746 0.225985 0.131081
O O7 0.614810 0.217728 0.060363
O O8 0.490245 0.226663 0.284149
O O9 0.338544 0.500000 0.382982
O O10 0.250000 0.250000 0.500000
O O11 0.380204 0.220646 0.260030
O O12 0.363320 0.218495 0.424803
O O13 0.451817 0.500000 0.128255
O O14 0.500000 0.218456 0.000000
O O15 0.350534 0.500000 0.788987
O O16 0.331239 0.786458 0.886428
O O17 0.250062 0.713601 0.895612
O O18 0.819158 0.000000 0.983506
O O19 0.912557 0.000000 0.419726
#
# Coordination Sequence:
#
# PCOD9222921 Si02
#       7
#     8   8   8   8   8   8   8
#     4   9  15  24  41  64  86 109 142 182 215 246
#     4   8  13  23  41  61  80 106 140 175 210 247
#     4   9  17  30  48  68  91 121 149 182 229 274
#     4   8  14  26  44  66  88 109 144 189 222 252
#     4   9  17  27  40  60  86 111 137 171 208 249
#     4   9  16  27  42  60  83 111 140 170 208 250
#     4   8  14  25  42  64  87 110 142 181 218 254
#
# _framework density 20.449344
#
# number of rings (size 3 to 8) (size 9 to 14) (size 15 to 20)
#    0.000    3.429    0.000    2.571    0.000    3.429 
#    2.571    0.000    0.000    4.286    0.000    0.000 
#    0.000    0.000    0.000    0.000    0.000    0.000 
#
# Total GULP energy -155883.339296 kJ/mol
# GULP energy per Si atom -5567.262118 kJ/mol
# Density = 2.040280 g / cm^3
# Si number density = 20.449344 Si / 1000 Ang^3
#
#
#
# Elastic Constant Matrix: (Units=GPa)
#
#
# Indices 1 2 3 4 5 6 
#
# 1 90.0635 -3.5655 90.2503 0.0277 -11.2695 -0.0033
# 2 -3.5655 74.7710 0.0179 0.0175 6.7149 -0.0164
# 3 90.2503 0.0179 199.1902 0.0566 10.2612 -0.0021
# 4 0.0277 0.0175 0.0566 21.7180 -0.0246 -3.5512
# 5 -11.2695 6.7149 10.2612 -0.0246 28.5774 -0.0002
# 6 -0.0033 -0.0164 -0.0021 -3.5512 -0.0002 6.5993
#
#
#
# Elastic Compliance Matrix: (Units=1/GPa)
#
#
# Indices 1 2 3 4 5 6 
#
# 1 0.024915 -0.000081 -0.012018 0.000019 0.014159 0.000019
# 2 -0.000081 0.013668 0.000206 -0.000011 -0.003318 0.000028
# 3 -0.012018 0.000206 0.010914 -0.000026 -0.008707 -0.000016
# 4 0.000019 -0.000011 -0.000026 0.050487 0.000063 0.027168
# 5 0.014159 -0.003318 -0.008707 0.000063 0.044482 0.000031
# 6 0.000019 0.000028 -0.000016 0.027168 0.000031 0.166151
#
#
# Mechanical properties :
#
#
# Convention : Reuss Voigt Hill
#
# Bulk Modulus (GPa) = 38.89206 59.71445 49.30325
# Shear Modulus (GPa) = 14.57842 29.86707 22.22275
#
# Velocity S-wave (km/s) = 2.67292 3.82585 3.30012
# Velocity P-wave (km/s) = 5.34659 6.98432 6.21960
#
# Compressibility (1/GPa) = 0.02571219
#
# Stress axis : x y z
#
# Youngs Moduli (GPa) = 40.13708 73.16240 91.62578
#
# Poissons Ratio (x) = 0.00590 1.10115
# Poissons Ratio (y) = 0.00324 -0.01889
# Poissons Ratio (z) = 0.48236 -0.01509
#
# Static dielectric constant tensor:
#      x y z
#    x 1.706110 -0.000010 0.007440 
#    y -0.000010 1.837430 -0.000030 
#    z 0.007440 -0.000030 1.736770 
# 
# From -- ./inp_files/282612.got.cif
#   From: 2010.05.17/outbox.cif.g08.bks.cpg/sg12_142_cif.got.tgz:282612.got - 2010.06.03 13:09:07.
