data_PCOD9222781
_publ_section_title
;
Structure prediction by ZEFSAII (Michael W. Deem and Ramdas Pophale) SiO2 
 PCOD9222781
Probable space group: C 2/M
;
_chemical_formula_sum "Si O2"
_cell_formula_units_Z 18
_cell_length_a 7.081970
_cell_length_b 23.595093
_cell_length_c 7.234870
_cell_angle_alpha 90.000000
_cell_angle_beta 140.076165
_cell_angle_gamma 90.000000
_cell_volume 775.863017
_symmetry_space_group_name_H-M "C 2/M"
_symmetry_group_IT_number 12
_symmetry_cell_setting 'monoclinic'
loop_
_space_group_symop_operation_xyz
x,y,z
-x,y,-z
-x,-y,-z
x,-y,z
1/2+x,1/2+y,z
1/2-x,1/2+y,-z
1/2-x,1/2-y,-z
1/2+x,1/2-y,z
loop_
_atom_site_type_symbol
_atom_site_label
_atom_site_fract_x
_atom_site_fract_y
_atom_site_fract_z
Si Si1 0.319129 0.802443 0.684037
Si Si2 0.000000 0.500000 0.000000
Si Si3 0.336959 0.910615 0.197713
O O1 0.250000 0.750000 0.500000
O O2 0.512133 0.850580 0.733404
O O3 0.000000 0.827174 0.500000
O O4 0.500000 0.783199 0.000000
O O5 0.118746 0.450756 0.944612
O O6 0.500000 0.934792 0.500000
O O7 0.000000 0.903267 0.000000
#
# Coordination Sequence:
#
# PCOD9222781 Si02
#       3
#     8   2   8
#     4  12  26  49  78 115 163 207 261 327 394 473
#     4  12  28  54  84 108 166 196 278 316 398 454
#     4  12  28  51  81 118 155 206 265 323 395 466
#
# _framework density 23.19997
#
# number of rings (size 3 to 8) (size 9 to 14) (size 15 to 20)
#    0.000    0.000    2.222    6.667    0.000    5.333 
#    0.000    0.000    0.000    0.000    0.000    0.000 
#    0.000    0.000    0.000    0.000    0.000    0.000 
#
# Total GULP energy -50232.317733 kJ/mol
# GULP energy per Si atom -5581.368637 kJ/mol
# Density = 2.314717 g / cm^3
# Si number density = 23.199970 Si / 1000 Ang^3
#
#
#
# Elastic Constant Matrix: (Units=GPa)
#
#
# Indices 1 2 3 4 5 6 
#
# 1 251.7749 120.3018 105.0662 0.0000 25.1888 0.0000
# 2 120.3018 207.8443 59.6582 0.0000 5.1024 0.0000
# 3 105.0662 59.6582 163.3050 0.0000 24.6184 0.0000
# 4 0.0000 0.0000 0.0000 2.0312 0.0000 22.1542
# 5 25.1888 5.1024 24.6184 0.0000 44.6562 0.0000
# 6 0.0000 0.0000 0.0000 22.1542 0.0000 46.8114
#
#
#
# Elastic Compliance Matrix: (Units=1/GPa)
#
#
# Indices 1 2 3 4 5 6 
#
# 1 0.006891 -0.003073 -0.003030 0.000000 -0.001866 0.000000
# 2 -0.003073 0.006756 -0.000693 0.000000 0.001344 0.000000
# 3 -0.003030 -0.000693 0.008787 0.000000 -0.003056 0.000000
# 4 0.000000 0.000000 0.000000 -0.118293 0.000000 0.055984
# 5 -0.001866 0.001344 -0.003056 0.000000 0.024977 0.000000
# 6 0.000000 0.000000 0.000000 0.055984 0.000000 -0.005133
#
#
# Mechanical properties :
#
#
# Convention : Reuss Voigt Hill
#
# Bulk Modulus (GPa) = 113.10524 132.55294 122.82909
# Shear Modulus (GPa) = -84.06901 41.22630 -21.42135
#
# Velocity S-wave (km/s) = -6.02622 4.22002 -3.04194
# Velocity P-wave (km/s) = 0.66158 9.00021 6.38128
#
# Compressibility (1/GPa) = 0.00884132
#
# Stress axis : x y z
#
# Youngs Moduli (GPa) = 145.11327 148.01265 113.80819
#
# Poissons Ratio (x) = 0.45488 0.34480
# Poissons Ratio (y) = 0.44597 0.07892
# Poissons Ratio (z) = 0.43964 0.10264
#
# Static dielectric constant tensor:
#      x y z
#    x 1.828200 0.000000 -0.068220 
#    y 0.000000 2.044920 0.000000 
#    z -0.068220 0.000000 1.826220 
# 
# From -- ./inp_files/37404.got.cif
#   From: 2010.05.17/outbox.cif.g08.bks.cpg/sg12_19_cif.got.tgz:37404.got - 2010.06.03 13:09:07.
