data_PCOD9222034
_publ_section_title
;
Structure prediction by ZEFSAII (Michael W. Deem and Ramdas Pophale) SiO2 
 PCOD9222034
Probable space group: C 2/M
;
_chemical_formula_sum "Si O2"
_cell_formula_units_Z 52
_cell_length_a 15.929681
_cell_length_b 7.387255
_cell_length_c 17.011021
_cell_angle_alpha 90.000000
_cell_angle_beta 97.791468
_cell_angle_gamma 90.000000
_cell_volume 1983.318846
_symmetry_space_group_name_H-M "C 2/M"
_symmetry_group_IT_number 12
_symmetry_cell_setting 'monoclinic'
loop_
_space_group_symop_operation_xyz
x,y,z
-x,y,-z
-x,-y,-z
x,-y,z
1/2+x,1/2+y,z
1/2-x,1/2+y,-z
1/2-x,1/2-y,-z
1/2+x,1/2-y,z
loop_
_atom_site_type_symbol
_atom_site_label
_atom_site_fract_x
_atom_site_fract_y
_atom_site_fract_z
Si Si1 0.148829 0.784628 0.988782
Si Si2 0.579462 0.780652 0.590684
Si Si3 0.659094 0.785677 0.445668
Si Si4 0.603765 0.000000 0.849291
Si Si5 0.127495 0.220213 0.164210
Si Si6 0.749230 0.789227 0.695882
Si Si7 0.474218 0.290441 0.255987
O O1 0.109305 0.659126 0.917819
O O2 0.119283 0.729903 0.072689
O O3 0.132333 0.000000 0.975760
O O4 0.250000 0.750000 0.000000
O O5 0.590601 0.719387 0.501776
O O6 0.666031 0.711231 0.644333
O O7 0.511598 0.730575 0.648808
O O8 0.578781 0.000000 0.586065
O O9 0.750000 0.750000 0.500000
O O10 0.675954 0.716452 0.360393
O O11 0.646753 0.000000 0.436708
O O12 0.599564 0.841719 0.780465
O O13 0.212279 0.286292 0.218643
O O14 0.049961 0.277369 0.209187
O O15 0.130734 0.000000 0.165453
O O16 0.734189 0.000000 0.705348
O O17 0.459485 0.500000 0.237354
#
# Coordination Sequence:
#
# PCOD9222034 Si02
#       7
#     8   8   8   4   8   8   8
#     4  11  24  44  69  97 130 162 201 263 319 372
#     4   9  18  34  59  88 125 165 206 259 307 368
#     4   9  17  31  52  85 124 157 202 253 308 364
#     4  12  26  45  68  92 131 161 213 255 319 371
#     4   9  22  42  63  90 129 161 207 260 312 369
#     4   9  18  35  62  87 121 163 202 258 315 361
#     4  11  24  42  65  93 124 171 212 255 310 378
#
# _framework density 26.218679000000002
#
# number of rings (size 3 to 8) (size 9 to 14) (size 15 to 20)
#    0.000    2.154    1.538    1.846    2.154    4.923 
#    2.769    3.077    0.000    4.615    0.000    0.000 
#    0.000    0.000    0.000    0.000    0.000    0.000 
#
# Total GULP energy -144944.663768 kJ/mol
# GULP energy per Si atom -5574.794760 kJ/mol
# Density = 2.615900 g / cm^3
# Si number density = 26.218679 Si / 1000 Ang^3
#
#
#
# Elastic Constant Matrix: (Units=GPa)
#
#
# Indices 1 2 3 4 5 6 
#
# 1 64.9801 5.2795 39.5470 0.0000 -20.8557 0.0000
# 2 5.2795 160.4807 38.9134 0.0000 9.8000 0.0000
# 3 39.5470 38.9134 219.4428 0.0000 9.2232 0.0000
# 4 0.0000 0.0000 0.0000 34.9186 0.0000 -23.6863
# 5 -20.8557 9.8000 9.2232 0.0000 49.3576 0.0000
# 6 0.0000 0.0000 0.0000 -23.6863 0.0000 -28.8790
#
#
#
# Elastic Compliance Matrix: (Units=1/GPa)
#
#
# Indices 1 2 3 4 5 6 
#
# 1 0.021065 -0.000280 -0.004156 0.000000 0.009733 0.000000
# 2 -0.000280 0.006573 -0.001064 0.000000 -0.001225 0.000000
# 3 -0.004156 -0.001064 0.005603 0.000000 -0.002592 0.000000
# 4 0.000000 0.000000 0.000000 0.018401 0.000000 -0.015092
# 5 0.009733 -0.001225 -0.002592 0.000000 0.025100 0.000000
# 6 0.000000 0.000000 0.000000 -0.015092 0.000000 -0.022249
#
#
# Mechanical properties :
#
#
# Convention : Reuss Voigt Hill
#
# Bulk Modulus (GPa) = 44.95703 68.04261 56.49982
# Shear Modulus (GPa) = 68.58080 35.15703 51.86892
#
# Velocity S-wave (km/s) = 5.11996 3.66582 4.45266
# Velocity P-wave (km/s) = 7.22054 6.62767 6.93045
#
# Compressibility (1/GPa) = 0.02224346
#
# Stress axis : x y z
#
# Youngs Moduli (GPa) = 47.47191 152.13304 178.46006
#
# Poissons Ratio (x) = 0.04255 0.74163
# Poissons Ratio (y) = 0.01328 0.18984
# Poissons Ratio (z) = 0.19728 0.16183
#
# Static dielectric constant tensor:
#      x y z
#    x 2.246400 0.000000 -0.074170 
#    y 0.000000 1.992830 0.000000 
#    z -0.074170 0.000000 2.059880 
# 
# From -- ./inp_files/313259.got.cif
#   From: 2010.05.17/outbox.cif.g08.bks.cpg/sg12_157_cif.got.tgz:313259.got - 2010.06.03 13:09:07.
