data_PCOD9222244
_publ_section_title
;
Structure prediction by ZEFSAII (Michael W. Deem and Ramdas Pophale) SiO2 
 PCOD9222244
Probable space group: C 2/M
;
_chemical_formula_sum "Si O2"
_cell_formula_units_Z 42
_cell_length_a 16.741712
_cell_length_b 22.701329
_cell_length_c 5.021121
_cell_angle_alpha 90.000000
_cell_angle_beta 93.174494
_cell_angle_gamma 90.000000
_cell_volume 1905.394496
_symmetry_space_group_name_H-M "C 2/M"
_symmetry_group_IT_number 12
_symmetry_cell_setting 'monoclinic'
loop_
_space_group_symop_operation_xyz
x,y,z
-x,y,-z
-x,-y,-z
x,-y,z
1/2+x,1/2+y,z
1/2-x,1/2+y,-z
1/2-x,1/2-y,-z
1/2+x,1/2-y,z
loop_
_atom_site_type_symbol
_atom_site_label
_atom_site_fract_x
_atom_site_fract_y
_atom_site_fract_z
Si Si1 0.320099 0.173893 0.382612
Si Si2 0.581303 0.911810 0.853356
Si Si3 0.266914 0.933104 0.756689
Si Si4 0.000000 0.500000 0.500000
Si Si5 0.668591 0.659401 0.020109
Si Si6 0.906485 0.784095 0.519325
O O1 0.397484 0.153388 0.229720
O O2 0.286791 0.117580 0.541839
O O3 0.352938 0.226071 0.570383
O O4 0.250568 0.186354 0.158170
O O5 0.565695 0.949614 0.589396
O O6 0.500000 0.920748 0.000000
O O7 0.655346 0.934159 0.038358
O O8 0.195151 0.905053 0.920002
O O9 0.251558 0.000000 0.659546
O O10 0.632356 0.692870 0.761437
O O11 0.607453 0.667806 0.252366
O O12 0.000000 0.771630 0.500000
#
# Coordination Sequence:
#
# PCOD9222244 Si02
#       6
#     8   8   8   2   8   8
#     4  11  26  42  73 100 145 185 239 284 352 420
#     4  11  25  37  59  94 145 196 234 281 338 409
#     4  11  25  45  70 103 138 189 241 286 348 422
#     4  12  22  40  52  86 156 196 240 284 324 406
#     4  11  25  50  73 102 145 185 234 296 350 420
#     4  12  27  46  74 108 140 184 236 294 359 421
#
# _framework density 22.042679
#
# number of rings (size 3 to 8) (size 9 to 14) (size 15 to 20)
#    0.000    0.762    2.857    3.143   13.333    0.762 
#    0.000    0.000    0.000    3.429    0.000    0.000 
#    0.000    0.000    0.000    0.000    0.000    0.000 
#
# Total GULP energy -117058.271781 kJ/mol
# GULP energy per Si atom -5574.203418 kJ/mol
# Density = 2.199251 g / cm^3
# Si number density = 22.042679 Si / 1000 Ang^3
#
#
#
# Elastic Constant Matrix: (Units=GPa)
#
#
# Indices 1 2 3 4 5 6 
#
# 1 79.8428 61.6431 27.2292 0.0000 1.3354 0.0000
# 2 61.6431 110.4135 50.1308 0.0000 8.0706 0.0000
# 3 27.2292 50.1308 105.6635 0.0000 5.5165 0.0000
# 4 0.0000 0.0000 0.0000 106.9048 0.0000 -44.5872
# 5 1.3354 8.0706 5.5165 0.0000 28.8879 0.0000
# 6 0.0000 0.0000 0.0000 -44.5872 0.0000 36.2835
#
#
#
# Elastic Compliance Matrix: (Units=1/GPa)
#
#
# Indices 1 2 3 4 5 6 
#
# 1 0.022188 -0.012636 0.000148 0.000000 0.002476 0.000000
# 2 -0.012636 0.018879 -0.005511 0.000000 -0.003638 0.000000
# 3 0.000148 -0.005511 0.012081 0.000000 -0.000774 0.000000
# 4 0.000000 0.000000 0.000000 0.019189 0.000000 0.023580
# 5 0.002476 -0.003638 -0.000774 0.000000 0.035666 0.000000
# 6 0.000000 0.000000 0.000000 0.023580 0.000000 0.056538
#
#
# Mechanical properties :
#
#
# Convention : Reuss Voigt Hill
#
# Bulk Modulus (GPa) = 58.30654 63.76956 61.03805
# Shear Modulus (GPa) = 24.24174 44.87635 34.55905
#
# Velocity S-wave (km/s) = 3.31987 4.51697 3.96387
# Velocity P-wave (km/s) = 6.41907 7.49646 6.97859
#
# Compressibility (1/GPa) = 0.01715073
#
# Stress axis : x y z
#
# Youngs Moduli (GPa) = 45.06908 52.96826 82.77472
#
# Poissons Ratio (x) = 0.66928 -0.01222
# Poissons Ratio (y) = 0.56947 0.45617
# Poissons Ratio (z) = -0.00666 0.29191
#
# Static dielectric constant tensor:
#      x y z
#    x 1.811580 0.000000 -0.082160 
#    y 0.000000 1.878310 0.000000 
#    z -0.082160 0.000000 1.892140 
# 
# From -- ./inp_files/11652.got.cif
#   From: 2010.05.17/outbox.cif.g08.bks.cpg/sg12_6_cif.got.tgz:11652.got - 2010.06.03 13:09:07.
