data_PCOD9222892
_publ_section_title
;
Structure prediction by ZEFSAII (Michael W. Deem and Ramdas Pophale) SiO2 
 PCOD9222892
Probable space group: C 2/M
;
_chemical_formula_sum "Si O2"
_cell_formula_units_Z 64
_cell_length_a 21.636167
_cell_length_b 7.341943
_cell_length_c 17.981719
_cell_angle_alpha 90.000000
_cell_angle_beta 56.662901
_cell_angle_gamma 90.000000
_cell_volume 2386.403537
_symmetry_space_group_name_H-M "C 2/M"
_symmetry_group_IT_number 12
_symmetry_cell_setting 'monoclinic'
loop_
_space_group_symop_operation_xyz
x,y,z
-x,y,-z
-x,-y,-z
x,-y,z
1/2+x,1/2+y,z
1/2-x,1/2+y,-z
1/2-x,1/2-y,-z
1/2+x,1/2-y,z
loop_
_atom_site_type_symbol
_atom_site_label
_atom_site_fract_x
_atom_site_fract_y
_atom_site_fract_z
Si Si1 0.028158 0.283473 0.253662
Si Si2 0.185039 0.291314 0.369352
Si Si3 0.351137 0.723821 0.275112
Si Si4 0.492045 0.294142 0.111168
Si Si5 0.692658 0.219184 0.118927
Si Si6 0.847856 0.208651 0.025790
Si Si7 0.661635 0.284631 0.550296
Si Si8 0.540171 0.776295 0.399189
O O1 0.018906 0.500000 0.249041
O O2 0.009154 0.196275 0.188253
O O3 0.115440 0.249023 0.209547
O O4 0.997308 0.219916 0.352962
O O5 0.195408 0.500000 0.338526
O O6 0.267497 0.213923 0.316426
O O7 0.149750 0.294557 0.475909
O O8 0.123579 0.210518 0.357017
O O9 0.352320 0.500000 0.274445
O O10 0.409546 0.786148 0.173332
O O11 0.369928 0.780727 0.348348
O O12 0.485325 0.500000 0.088181
O O13 0.567950 0.213998 0.025516
O O14 0.674255 0.290007 0.047737
O O15 0.700090 0.000000 0.107777
O O16 0.769104 0.286469 0.105840
O O17 0.854148 0.000000 0.047693
O O18 0.650786 0.500000 0.553715
O O19 0.750000 0.250000 0.500000
O O20 0.500000 0.720129 0.500000
O O21 0.541524 0.000000 0.395357
#
# Coordination Sequence:
#
# PCOD9222892 Si02
#       8
#     8   8   8   8   8   8   8   8
#     4   9  17  28  41  59  81 105 134 168 201 235
#     4   9  17  30  45  58  75 103 137 172 204 236
#     4   8  15  26  40  58  78 100 127 159 196 239
#     4   9  16  26  40  59  84 107 128 157 196 246
#     4   8  13  22  36  54  77 101 127 158 192 232
#     4   8  13  21  35  55  77 103 127 150 189 238
#     4   9  16  27  42  60  80 101 130 166 202 239
#     4   9  18  30  43  59  79 105 140 175 204 238
#
# _framework density 26.818598999999999
#
# number of rings (size 3 to 8) (size 9 to 14) (size 15 to 20)
#    0.000    3.375    0.000    1.125    1.750    0.000 
#    0.000    3.125    0.000    0.750    0.000    0.875 
#    0.000    7.000    0.000    0.000    0.000  121.625 
#
# Total GULP energy -178454.728839 kJ/mol
# GULP energy per Si atom -5576.710276 kJ/mol
# Density = 2.675756 g / cm^3
# Si number density = 26.818599 Si / 1000 Ang^3
#
#
#
# Elastic Constant Matrix: (Units=GPa)
#
#
# Indices 1 2 3 4 5 6 
#
# 1 108.5435 10.0530 29.1770 0.0001 -9.6539 0.0005
# 2 10.0530 105.2590 12.4725 -0.0007 -3.2411 -0.0010
# 3 29.1770 12.4725 85.6916 -0.0005 -15.3075 -0.0005
# 4 0.0001 -0.0007 -0.0005 -2.6049 -0.0002 -7.2661
# 5 -9.6539 -3.2411 -15.3075 -0.0002 59.4476 0.0000
# 6 0.0005 -0.0010 -0.0005 -7.2661 0.0000 -6.7594
#
#
#
# Elastic Compliance Matrix: (Units=1/GPa)
#
#
# Indices 1 2 3 4 5 6 
#
# 1 0.010210 -0.000565 -0.003253 0.000001 0.000790 0.000000
# 2 -0.000565 0.009700 -0.001196 -0.000001 0.000129 -0.000001
# 3 -0.003253 -0.001196 0.013465 0.000000 0.002874 -0.000001
# 4 0.000001 -0.000001 0.000000 0.192092 0.000001 -0.206491
# 5 0.000790 0.000129 0.002874 0.000001 0.017697 -0.000001
# 6 0.000000 -0.000001 -0.000001 -0.206491 -0.000001 0.074028
#
#
# Mechanical properties :
#
#
# Convention : Reuss Voigt Hill
#
# Bulk Modulus (GPa) = 42.83490 44.76655 43.80073
# Shear Modulus (GPa) = 14.92526 26.53608 20.73067
#
# Velocity S-wave (km/s) = 2.36164 3.14899 2.78330
# Velocity P-wave (km/s) = 4.84182 5.47267 5.16688
#
# Compressibility (1/GPa) = 0.02334545
#
# Stress axis : x y z
#
# Youngs Moduli (GPa) = 97.94407 103.09172 74.26749
#
# Poissons Ratio (x) = 0.05828 0.24159
# Poissons Ratio (y) = 0.05537 0.08885
# Poissons Ratio (z) = 0.31861 0.12333
#
# Static dielectric constant tensor:
#      x y z
#    x 2.143250 0.000000 -0.106750 
#    y 0.000000 2.044170 0.000000 
#    z -0.106750 0.000000 2.242620 
# 
# From -- ./inp_files/348507.got.cif
#   From: 2010.05.17/outbox.cif.g08.bks.cpg/sg12_175_cif.got.tgz:348507.got - 2010.06.03 13:09:07.
