data_PCOD9222704
_publ_section_title
;
Structure prediction by ZEFSAII (Michael W. Deem and Ramdas Pophale) SiO2 
 PCOD9222704
Probable space group: C 2/M
;
_chemical_formula_sum "Si O2"
_cell_formula_units_Z 48
_cell_length_a 21.160543
_cell_length_b 16.158339
_cell_length_c 17.879536
_cell_angle_alpha 90.000000
_cell_angle_beta 161.679080
_cell_angle_gamma 90.000000
_cell_volume 1921.667130
_symmetry_space_group_name_H-M "C 2/M"
_symmetry_group_IT_number 12
_symmetry_cell_setting 'monoclinic'
loop_
_space_group_symop_operation_xyz
x,y,z
-x,y,-z
-x,-y,-z
x,-y,z
1/2+x,1/2+y,z
1/2-x,1/2+y,-z
1/2-x,1/2-y,-z
1/2+x,1/2-y,z
loop_
_atom_site_type_symbol
_atom_site_label
_atom_site_fract_x
_atom_site_fract_y
_atom_site_fract_z
Si Si1 0.548917 0.875085 0.355055
Si Si2 0.824301 0.168207 0.157588
Si Si3 0.846874 0.347641 0.260316
Si Si4 0.170799 0.000000 0.736038
Si Si5 0.254025 0.637451 0.437762
Si Si6 0.567594 0.293043 0.157242
Si Si7 0.673376 0.000000 0.229598
O O1 0.402920 0.908926 0.255569
O O2 0.683712 0.904098 0.436057
O O3 0.721282 0.839572 0.603293
O O4 0.377232 0.825021 0.117162
O O5 0.863180 0.250380 0.250607
O O6 0.011084 0.155788 0.310480
O O7 0.800394 0.085905 0.183617
O O8 0.000000 0.359667 0.500000
O O9 0.614781 0.351142 0.023098
O O10 0.904721 0.000000 0.441319
O O11 0.403003 0.000000 0.944670
O O12 0.123871 0.719887 0.277448
O O13 0.208341 0.581509 0.315868
O O14 0.500000 0.260064 0.000000
#
# Coordination Sequence:
#
# PCOD9222704 Si02
#       7
#     8   8   8   4   8   8   4
#     4  12  25  40  62  89 132 170 211 271 319 388
#     4  12  24  40  64  94 130 177 213 255 320 376
#     4  12  24  40  63  91 130 169 213 268 324 381
#     4  12  24  44  66  94 138 178 215 252 300 385
#     4  12  24  40  63  92 131 174 215 262 312 388
#     4  12  24  40  60  93 128 166 216 265 328 382
#     4  12  26  42  64  96 136 178 221 255 307 375
#
# _framework density 24.978311999999999
#
# number of rings (size 3 to 8) (size 9 to 14) (size 15 to 20)
#    0.000    0.000    6.667    4.000    2.333    0.000 
#    0.000    0.000    0.000    0.000    0.000    4.667 
#    0.000    0.000    0.000    0.000    0.000    0.000 
#
# Total GULP energy -133761.203697 kJ/mol
# GULP energy per Si atom -5573.383487 kJ/mol
# Density = 2.492146 g / cm^3
# Si number density = 24.978312 Si / 1000 Ang^3
#
#
#
# Elastic Constant Matrix: (Units=GPa)
#
#
# Indices 1 2 3 4 5 6 
#
# 1 181.0031 20.2538 44.0772 0.0144 17.0475 0.0066
# 2 20.2538 68.6412 16.2722 0.0336 1.4260 0.0232
# 3 44.0772 16.2722 191.0650 0.0165 20.0424 0.0138
# 4 0.0144 0.0336 0.0165 5.1868 0.0188 -1.5881
# 5 17.0475 1.4260 20.0424 0.0188 46.7287 0.0066
# 6 0.0066 0.0232 0.0138 -1.5881 0.0066 14.7235
#
#
#
# Elastic Compliance Matrix: (Units=1/GPa)
#
#
# Indices 1 2 3 4 5 6 
#
# 1 0.006124 -0.001510 -0.001104 0.000003 -0.001714 0.000002
# 2 -0.001510 0.015241 -0.001004 -0.000103 0.000516 -0.000034
# 3 -0.001104 -0.001004 0.005789 -0.000002 -0.002049 -0.000003
# 4 0.000003 -0.000103 -0.000002 0.199382 -0.000080 0.021505
# 5 -0.001714 0.000516 -0.002049 -0.000080 0.022889 -0.000017
# 6 0.000002 -0.000034 -0.000003 0.021505 -0.000017 0.070238
#
#
# Mechanical properties :
#
#
# Convention : Reuss Voigt Hill
#
# Bulk Modulus (GPa) = 50.20423 66.87953 58.54188
# Shear Modulus (GPa) = 14.99074 37.33487 26.16280
#
# Velocity S-wave (km/s) = 2.45245 3.87032 3.23990
# Velocity P-wave (km/s) = 5.30680 6.84147 6.12241
#
# Compressibility (1/GPa) = 0.01991864
#
# Stress axis : x y z
#
# Youngs Moduli (GPa) = 163.28946 65.61131 172.73907
#
# Poissons Ratio (x) = 0.09905 0.19077
# Poissons Ratio (y) = 0.24650 0.17342
# Poissons Ratio (z) = 0.18033 0.06587
#
# Static dielectric constant tensor:
#      x y z
#    x 2.079720 -0.000170 0.171710 
#    y -0.000170 4.776260 0.000020 
#    z 0.171710 0.000020 2.055240 
# 
# From -- ./inp_files/285957.got.cif
#   From: 2010.05.17/outbox.cif.g08.bks.cpg/sg12_143_cif.got.tgz:285957.got - 2010.06.03 13:09:07.
