data_PCOD9222673
_publ_section_title
;
Structure prediction by ZEFSAII (Michael W. Deem and Ramdas Pophale) SiO2 
 PCOD9222673
Probable space group: C 2/M
;
_chemical_formula_sum "Si O2"
_cell_formula_units_Z 36
_cell_length_a 8.648544
_cell_length_b 15.329463
_cell_length_c 25.271060
_cell_angle_alpha 90.000000
_cell_angle_beta 30.764745
_cell_angle_gamma 90.000000
_cell_volume 1713.764432
_symmetry_space_group_name_H-M "C 2/M"
_symmetry_group_IT_number 12
_symmetry_cell_setting 'monoclinic'
loop_
_space_group_symop_operation_xyz
x,y,z
-x,y,-z
-x,-y,-z
x,-y,z
1/2+x,1/2+y,z
1/2-x,1/2+y,-z
1/2-x,1/2-y,-z
1/2+x,1/2-y,z
loop_
_atom_site_type_symbol
_atom_site_label
_atom_site_fract_x
_atom_site_fract_y
_atom_site_fract_z
Si Si1 0.182270 0.172322 0.563745
Si Si2 0.233175 0.000000 0.800726
Si Si3 0.409519 0.500000 0.586290
Si Si4 0.728971 0.825615 0.796472
Si Si5 0.640482 0.000000 0.115428
Si Si6 0.347241 0.334920 0.881521
O O1 0.500000 0.153423 0.500000
O O2 0.250000 0.250000 0.500000
O O3 0.038574 0.086845 0.577513
O O4 0.948119 0.190691 0.681517
O O5 0.358874 0.000000 0.822440
O O6 0.034575 0.916661 0.846695
O O7 0.551806 0.000000 0.679689
O O8 0.500000 0.500000 0.500000
O O9 0.544369 0.915857 0.848540
O O10 0.481499 0.750121 0.869163
O O11 0.890549 0.825200 0.805681
O O12 0.000000 0.000000 0.000000
O O13 0.000000 0.345938 0.000000
#
# Coordination Sequence:
#
# PCOD9222673 Si02
#       6
#     8   4   4   8   4   8
#     4  12  27  48  74 105 142 186 238 291 358 420
#     4  12  26  46  70 103 146 182 238 288 355 424
#     4  12  29  47  74 104 138 186 235 296 354 421
#     4  12  25  45  72 104 142 184 238 291 354 420
#     4  12  23  45  74 104 142 184 232 292 355 424
#     4  12  26  45  71 105 143 188 234 290 354 424
#
# _framework density 21.006388000000001
#
# number of rings (size 3 to 8) (size 9 to 14) (size 15 to 20)
#    0.000    0.000    2.222    7.333    9.333    0.000 
#    0.000    0.000    0.000    0.000    0.000    0.000 
#    0.000    0.000    0.000    0.000    0.000    0.000 
#
# Total GULP energy -100573.524642 kJ/mol
# GULP energy per Si atom -5587.418036 kJ/mol
# Density = 2.095858 g / cm^3
# Si number density = 21.006388 Si / 1000 Ang^3
#
#
#
# Elastic Constant Matrix: (Units=GPa)
#
#
# Indices 1 2 3 4 5 6 
#
# 1 -18.6490 6.0122 -109.2907 -0.1371 -21.9396 0.0501
# 2 6.0122 166.1309 -9.7284 -0.0665 -34.4687 -0.0032
# 3 -109.2907 -9.7284 42.9973 -0.0642 -29.2740 -0.0926
# 4 -0.1371 -0.0665 -0.0642 31.9512 0.0117 -10.3943
# 5 -21.9396 -34.4687 -29.2740 0.0117 52.0909 0.0223
# 6 0.0501 -0.0032 -0.0926 -10.3943 0.0223 67.0226
#
#
#
# Elastic Compliance Matrix: (Units=1/GPa)
#
#
# Indices 1 2 3 4 5 6 
#
# 1 -0.001306 -0.001662 -0.007807 -0.000026 -0.006037 -0.000012
# 2 -0.001662 0.006859 -0.000098 0.000006 0.003783 0.000001
# 3 -0.007807 -0.000098 0.001797 -0.000028 -0.002343 0.000005
# 4 -0.000026 0.000006 -0.000028 0.032961 -0.000032 0.005112
# 5 -0.006037 0.003783 -0.002343 -0.000032 0.017841 -0.000010
# 6 -0.000012 0.000001 0.000005 0.005112 -0.000010 0.015713
#
#
# Mechanical properties :
#
#
# Convention : Reuss Voigt Hill
#
# Bulk Modulus (GPa) = -84.85176 -3.94827 -44.40002
# Shear Modulus (GPa) = 56.13537 50.44534 53.29035
#
# Velocity S-wave (km/s) = 5.17504 4.90575 5.04219
# Velocity P-wave (km/s) = 2.18472 5.49590 3.56595
#
# Compressibility (1/GPa) = -0.01178526
#
# Stress axis : x y z
#
# Youngs Moduli (GPa) = -765.61824 145.80196 556.46009
#
# Poissons Ratio (x) = 0.24239 4.34401
# Poissons Ratio (y) = -1.27283 0.05476
# Poissons Ratio (z) = -5.97680 0.01435
#
# Static dielectric constant tensor:
#      x y z
#    x 1.704550 0.000010 0.022800 
#    y 0.000010 1.694370 0.000000 
#    z 0.022800 0.000000 1.693390 
# 
# From -- ./inp_files/356278.got.cif
#   From: 2010.05.17/outbox.cif.g08.bks.cpg/sg12_179_cif.got.tgz:356278.got - 2010.06.03 13:09:07.
