data_PCOD9222360
_publ_section_title
;
Structure prediction by ZEFSAII (Michael W. Deem and Ramdas Pophale) SiO2 
 PCOD9222360
Probable space group: C 2/M
;
_chemical_formula_sum "Si O2"
_cell_formula_units_Z 32
_cell_length_a 15.976795
_cell_length_b 13.972089
_cell_length_c 11.763235
_cell_angle_alpha 90.000000
_cell_angle_beta 152.915500
_cell_angle_gamma 90.000000
_cell_volume 1195.581832
_symmetry_space_group_name_H-M "C 2/M"
_symmetry_group_IT_number 12
_symmetry_cell_setting 'monoclinic'
loop_
_space_group_symop_operation_xyz
x,y,z
-x,y,-z
-x,-y,-z
x,-y,z
1/2+x,1/2+y,z
1/2-x,1/2+y,-z
1/2-x,1/2-y,-z
1/2+x,1/2-y,z
loop_
_atom_site_type_symbol
_atom_site_label
_atom_site_fract_x
_atom_site_fract_y
_atom_site_fract_z
Si Si1 0.053833 0.109818 0.433532
Si Si2 0.928951 0.393551 0.554557
Si Si3 0.915529 0.335969 0.789144
Si Si4 0.800578 0.833615 0.924590
O O1 0.209859 0.184768 0.583156
O O2 0.000000 0.124966 0.500000
O O3 0.125200 0.000000 0.515131
O O4 0.897087 0.115102 0.148087
O O5 0.008355 0.500000 0.631047
O O6 0.887276 0.387403 0.636260
O O7 0.753236 0.383215 0.260047
O O8 0.093017 0.319316 0.722177
O O9 0.000000 0.389359 0.000000
O O10 0.061344 0.251807 0.941044
#
# Coordination Sequence:
#
# PCOD9222360 Si02
#       4
#     8   8   8   8
#     4  11  25  47  77 110 150 200 255 317 382 448
#     4  11  25  49  81 113 150 199 255 314 376 455
#     4  12  28  46  72 112 156 200 249 312 382 453
#     4  11  25  46  77 109 155 197 250 309 386 451
#
# _framework density 26.765208999999999
#
# number of rings (size 3 to 8) (size 9 to 14) (size 15 to 20)
#    0.000    0.750    0.000    6.750    7.000    4.000 
#    0.000    2.500    0.000    0.000    0.000    0.000 
#    0.000    0.000    0.000    0.000    0.000    0.000 
#
# Total GULP energy -89509.958626 kJ/mol
# GULP energy per Si atom -5594.372414 kJ/mol
# Density = 2.670429 g / cm^3
# Si number density = 26.765209 Si / 1000 Ang^3
#
#
#
# Elastic Constant Matrix: (Units=GPa)
#
#
# Indices 1 2 3 4 5 6 
#
# 1 240.5292 59.7938 102.0909 0.0000 -41.6599 0.0000
# 2 59.7938 113.7785 55.6273 0.0000 -2.2463 0.0000
# 3 102.0909 55.6273 226.1266 0.0000 -37.7030 0.0000
# 4 0.0000 0.0000 0.0000 29.1157 0.0000 10.3632
# 5 -41.6599 -2.2463 -37.7030 0.0000 77.0539 0.0000
# 6 0.0000 0.0000 0.0000 10.3632 0.0000 -1.8593
#
#
#
# Elastic Compliance Matrix: (Units=1/GPa)
#
#
# Indices 1 2 3 4 5 6 
#
# 1 0.005814 -0.002172 -0.001717 0.000000 0.002240 0.000000
# 2 -0.002172 0.010872 -0.002000 0.000000 -0.001836 0.000000
# 3 -0.001717 -0.002000 0.006016 0.000000 0.001957 0.000000
# 4 0.000000 0.000000 0.000000 0.011511 0.000000 0.064156
# 5 0.002240 -0.001836 0.001957 0.000000 0.015093 0.000000
# 6 0.000000 0.000000 0.000000 0.064156 0.000000 -0.180250
#
#
# Mechanical properties :
#
#
# Convention : Reuss Voigt Hill
#
# Bulk Modulus (GPa) = 91.54293 112.82869 102.18581
# Shear Modulus (GPa) = -43.28064 45.05690 0.88813
#
# Velocity S-wave (km/s) = -4.02562 4.10739 0.57666
# Velocity P-wave (km/s) = 3.55935 8.04616 6.22132
#
# Compressibility (1/GPa) = 0.01092384
#
# Stress axis : x y z
#
# Youngs Moduli (GPa) = 171.99241 91.97987 166.22574
#
# Poissons Ratio (x) = 0.19975 0.28545
# Poissons Ratio (y) = 0.37352 0.33247
# Poissons Ratio (z) = 0.29536 0.18397
#
# Static dielectric constant tensor:
#      x y z
#    x 2.076640 0.000000 0.018030 
#    y 0.000000 2.140960 0.000000 
#    z 0.018030 0.000000 2.082940 
# 
# From -- ./inp_files/146280.got.cif
#   From: 2010.05.17/outbox.cif.g08.bks.cpg/sg12_74_cif.got.tgz:146280.got - 2010.06.03 13:09:07.
