data_PCOD9222718
_publ_section_title
;
Structure prediction by ZEFSAII (Michael W. Deem and Ramdas Pophale) SiO2 
 PCOD9222718
Probable space group: C 2/M
;
_chemical_formula_sum "Si O2"
_cell_formula_units_Z 38
_cell_length_a 19.822488
_cell_length_b 17.955935
_cell_length_c 4.934586
_cell_angle_alpha 90.000000
_cell_angle_beta 84.028017
_cell_angle_gamma 90.000000
_cell_volume 1746.841606
_symmetry_space_group_name_H-M "C 2/M"
_symmetry_group_IT_number 12
_symmetry_cell_setting 'monoclinic'
loop_
_space_group_symop_operation_xyz
x,y,z
-x,y,-z
-x,-y,-z
x,-y,z
1/2+x,1/2+y,z
1/2-x,1/2+y,-z
1/2-x,1/2-y,-z
1/2+x,1/2-y,z
loop_
_atom_site_type_symbol
_atom_site_label
_atom_site_fract_x
_atom_site_fract_y
_atom_site_fract_z
Si Si1 0.257894 0.585771 0.001804
Si Si2 0.343256 0.626687 0.448805
Si Si3 0.608445 0.133523 0.889898
Si Si4 0.500000 0.000000 0.000000
Si Si5 0.050617 0.000000 0.728828
Si Si6 0.921794 0.727423 0.596712
O O1 0.253790 0.500000 0.097920
O O2 0.308643 0.590815 0.726881
O O3 0.184949 0.612535 0.931646
O O4 0.287343 0.634071 0.236464
O O5 0.400726 0.571766 0.306866
O O6 0.375891 0.703586 0.530068
O O7 0.599583 0.157693 0.582593
O O8 0.587114 0.202621 0.089963
O O9 0.558828 0.065195 0.969417
O O10 0.000000 0.000000 0.500000
O O11 0.000000 0.000000 0.000000
O O12 0.000000 0.744284 0.500000
#
# Coordination Sequence:
#
# PCOD9222718 Si02
#       6
#     8   8   8   2   4   8
#     4  12  24  46  70 104 138 186 241 292 345 417
#     4  12  26  45  72  97 150 184 234 293 346 416
#     4  12  27  45  77 103 139 185 234 289 360 416
#     4  12  24  50  74 106 132 184 224 290 340 426
#     4  12  24  42  69 104 132 193 246 281 344 408
#     4  12  26  47  68 107 143 183 230 295 356 418
#
# _framework density 21.753547999999999
#
# number of rings (size 3 to 8) (size 9 to 14) (size 15 to 20)
#    0.000    0.000    5.263    4.421    0.000    8.421 
#    0.000    0.000    0.000    0.000    0.000    0.000 
#    0.000    0.000    0.000    0.000    0.000    0.000 
#
# Total GULP energy -106203.003843 kJ/mol
# GULP energy per Si atom -5589.631781 kJ/mol
# Density = 2.170404 g / cm^3
# Si number density = 21.753548 Si / 1000 Ang^3
#
#
#
# Elastic Constant Matrix: (Units=GPa)
#
#
# Indices 1 2 3 4 5 6 
#
# 1 108.1207 32.4372 -9.1378 0.0000 9.0216 0.0000
# 2 32.4372 80.8775 -8.4873 0.0000 -4.8763 0.0000
# 3 -9.1378 -8.4873 64.4972 0.0000 1.1326 0.0000
# 4 0.0000 0.0000 0.0000 -10.5010 0.0000 -0.6539
# 5 9.0216 -4.8763 1.1326 0.0000 39.2861 0.0000
# 6 0.0000 0.0000 0.0000 -0.6539 0.0000 26.6585
#
#
#
# Elastic Compliance Matrix: (Units=1/GPa)
#
#
# Indices 1 2 3 4 5 6 
#
# 1 0.010932 -0.004465 0.001016 0.000000 -0.003094 0.000000
# 2 -0.004465 0.014451 0.001220 0.000000 0.002784 0.000000
# 3 0.001016 0.001220 0.015818 0.000000 -0.000538 0.000000
# 4 0.000000 0.000000 0.000000 -0.095084 0.000000 -0.002332
# 5 -0.003094 0.002784 -0.000538 0.000000 0.026526 0.000000
# 6 0.000000 0.000000 0.000000 -0.002332 0.000000 0.037454
#
#
# Mechanical properties :
#
#
# Convention : Reuss Voigt Hill
#
# Bulk Modulus (GPa) = 27.21507 31.45774 29.33641
# Shear Modulus (GPa) = 186.54442 27.00093 106.77268
#
# Velocity S-wave (km/s) = 9.27037 3.52692 7.01352
# Velocity P-wave (km/s) = 11.27493 5.57475 8.89387
#
# Compressibility (1/GPa) = 0.03674435
#
# Stress axis : x y z
#
# Youngs Moduli (GPa) = 91.47187 69.20020 63.21728
#
# Poissons Ratio (x) = 0.30895 -0.06421
# Poissons Ratio (y) = 0.40838 -0.07714
# Poissons Ratio (z) = -0.09291 -0.08444
#
# Static dielectric constant tensor:
#      x y z
#    x 1.759860 0.000000 0.000600 
#    y 0.000000 1.740150 0.000000 
#    z 0.000600 0.000000 1.759770 
# 
# From -- ./inp_files/15259.got.cif
#   From: 2010.05.17/outbox.cif.g08.bks.cpg/sg12_8_cif.got.tgz:15259.got - 2010.06.03 13:09:07.
