data_PCOD9222994
_publ_section_title
;
Structure prediction by ZEFSAII (Michael W. Deem and Ramdas Pophale) SiO2 
 PCOD9222994
Probable space group: C 2/M
;
_chemical_formula_sum "Si O2"
_cell_formula_units_Z 48
_cell_length_a 11.617660
_cell_length_b 18.182989
_cell_length_c 13.086434
_cell_angle_alpha 90.000000
_cell_angle_beta 49.129013
_cell_angle_gamma 90.000000
_cell_volume 2090.418629
_symmetry_space_group_name_H-M "C 2/M"
_symmetry_group_IT_number 12
_symmetry_cell_setting 'monoclinic'
loop_
_space_group_symop_operation_xyz
x,y,z
-x,y,-z
-x,-y,-z
x,-y,z
1/2+x,1/2+y,z
1/2-x,1/2+y,-z
1/2-x,1/2-y,-z
1/2+x,1/2-y,z
loop_
_atom_site_type_symbol
_atom_site_label
_atom_site_fract_x
_atom_site_fract_y
_atom_site_fract_z
Si Si1 0.198476 0.194389 0.677099
Si Si2 0.588758 0.671592 0.045033
Si Si3 0.742320 0.916045 0.883275
Si Si4 0.087986 0.817815 0.540346
Si Si5 0.939316 0.585311 0.199522
Si Si6 0.388708 0.812708 0.749209
O O1 0.159952 0.146175 0.599093
O O2 0.286323 0.265504 0.584505
O O3 0.307767 0.155021 0.694895
O O4 0.047413 0.219734 0.827686
O O5 0.638632 0.622471 0.111511
O O6 0.500000 0.634773 0.000000
O O7 0.744695 0.704146 0.907679
O O8 0.693639 0.886510 0.799849
O O9 0.789145 0.000000 0.839847
O O10 0.588764 0.915807 0.040350
O O11 0.000000 0.858363 0.500000
O O12 0.971664 0.759709 0.660325
O O13 0.906347 0.500000 0.245814
O O14 0.993974 0.632960 0.263758
#
# Coordination Sequence:
#
# PCOD9222994 Si02
#       6
#     8   8   8   8   8   8
#     4   9  18  33  48  68  98 124 161 198 238 290
#     4   9  17  29  47  73 102 125 153 200 246 279
#     4   8  14  26  44  70 102 131 158 190 232 290
#     4   9  18  34  52  66  90 130 170 195 232 289
#     4   8  14  27  48  72  98 128 162 195 231 283
#     4   9  17  31  52  73  97 123 160 201 238 281
#
# _framework density 22.961907
#
# number of rings (size 3 to 8) (size 9 to 14) (size 15 to 20)
#    0.000    3.333    0.000    1.000    0.000    1.000 
#    9.000    2.500    7.333    5.500    0.000    2.333 
#    0.000    0.000    0.000    0.000    0.000    0.000 
#
# Total GULP energy -133716.393173 kJ/mol
# GULP energy per Si atom -5571.516382 kJ/mol
# Density = 2.290964 g / cm^3
# Si number density = 22.961907 Si / 1000 Ang^3
#
#
#
# Elastic Constant Matrix: (Units=GPa)
#
#
# Indices 1 2 3 4 5 6 
#
# 1 197.5770 54.9946 69.5243 0.0000 58.0478 0.0000
# 2 54.9946 39.8219 28.7288 0.0000 15.3010 0.0000
# 3 69.5243 28.7288 101.2309 0.0000 8.3294 0.0000
# 4 0.0000 0.0000 0.0000 10.0022 0.0000 6.2623
# 5 58.0478 15.3010 8.3294 0.0000 65.9377 0.0000
# 6 0.0000 0.0000 0.0000 6.2623 0.0000 24.7617
#
#
#
# Elastic Compliance Matrix: (Units=1/GPa)
#
#
# Indices 1 2 3 4 5 6 
#
# 1 0.011550 -0.009877 -0.004528 0.000000 -0.007304 0.000000
# 2 -0.009877 0.042807 -0.005318 0.000000 -0.000566 0.000000
# 3 -0.004528 -0.005318 0.014216 0.000000 0.003425 0.000000
# 4 0.000000 0.000000 0.000000 0.118787 0.000000 -0.030042
# 5 -0.007304 -0.000566 0.003425 0.000000 0.021294 0.000000
# 6 0.000000 0.000000 0.000000 -0.030042 0.000000 0.047983
#
#
# Mechanical properties :
#
#
# Convention : Reuss Voigt Hill
#
# Bulk Modulus (GPa) = 34.33472 71.68060 53.00766
# Shear Modulus (GPa) = 16.35097 32.49912 24.42505
#
# Velocity S-wave (km/s) = 2.67140 3.76619 3.26501
# Velocity P-wave (km/s) = 4.94980 7.08500 6.11137
#
# Compressibility (1/GPa) = 0.02912504
#
# Stress axis : x y z
#
# Youngs Moduli (GPa) = 86.58086 23.36082 70.34427
#
# Poissons Ratio (x) = 0.23074 0.31853
# Poissons Ratio (y) = 0.85519 0.37410
# Poissons Ratio (z) = 0.39206 0.12423
#
# Static dielectric constant tensor:
#      x y z
#    x 2.016750 0.000000 0.020610 
#    y 0.000000 1.820470 0.000000 
#    z 0.020610 0.000000 1.901310 
# 
# From -- ./inp_files/134728.got.cif
#   From: 2010.05.17/outbox.cif.g08.bks.cpg/sg12_68_cif.got.tgz:134728.got - 2010.06.03 13:09:07.
