data_PCOD9222530
_publ_section_title
;
Structure prediction by ZEFSAII (Michael W. Deem and Ramdas Pophale) SiO2 
 PCOD9222530
Probable space group: C 2/M
;
_chemical_formula_sum "Si O2"
_cell_formula_units_Z 34
_cell_length_a 13.465688
_cell_length_b 19.150476
_cell_length_c 10.583720
_cell_angle_alpha 90.000000
_cell_angle_beta 32.936343
_cell_angle_gamma 90.000000
_cell_volume 1483.922841
_symmetry_space_group_name_H-M "C 2/M"
_symmetry_group_IT_number 12
_symmetry_cell_setting 'monoclinic'
loop_
_space_group_symop_operation_xyz
x,y,z
-x,y,-z
-x,-y,-z
x,-y,z
1/2+x,1/2+y,z
1/2-x,1/2+y,-z
1/2-x,1/2-y,-z
1/2+x,1/2-y,z
loop_
_atom_site_type_symbol
_atom_site_label
_atom_site_fract_x
_atom_site_fract_y
_atom_site_fract_z
Si Si1 0.882957 0.891022 0.904280
Si Si2 0.752712 0.330877 0.528989
Si Si3 0.783906 0.727338 0.758408
Si Si4 0.500000 0.500000 0.000000
Si Si5 0.102456 0.376987 0.010994
O O1 0.760790 0.916577 0.917825
O O2 0.084852 0.869768 0.644359
O O3 0.918962 0.940649 0.985423
O O4 0.779734 0.818998 0.055021
O O5 0.750000 0.250000 0.500000
O O6 0.724019 0.323781 0.708527
O O7 0.941238 0.363415 0.284215
O O8 0.686120 0.802490 0.871651
O O9 0.000000 0.737065 0.500000
O O10 0.000000 0.409598 0.000000
#
# Coordination Sequence:
#
# PCOD9222530 Si02
#       5
#     8   8   8   2   8
#     4  12  25  45  68 101 139 187 243 282 345 416
#     4  12  21  39  66 105 147 182 226 293 365 414
#     4  12  21  38  67 109 147 178 228 294 364 417
#     4  12  28  52  76  94 142 200 246 282 326 432
#     4  12  25  39  66 109 147 180 226 295 369 424
#
# _framework density 22.912241999999999
#
# number of rings (size 3 to 8) (size 9 to 14) (size 15 to 20)
#    0.000    0.000    9.412    2.118    0.000    0.000 
#    0.000    5.882    0.000    1.412    0.000    0.000 
#    0.000    0.000    0.000    0.000    0.000    0.000 
#
# Total GULP energy -94639.682391 kJ/mol
# GULP energy per Si atom -5567.040141 kJ/mol
# Density = 2.286009 g / cm^3
# Si number density = 22.912242 Si / 1000 Ang^3
#
#
#
# Elastic Constant Matrix: (Units=GPa)
#
#
# Indices 1 2 3 4 5 6 
#
# 1 208.4038 41.4475 29.4359 -0.0048 -34.5278 0.0080
# 2 41.4475 87.8760 24.8385 -0.0079 -12.4845 0.0066
# 3 29.4359 24.8385 116.1588 -0.0153 -36.0788 0.0137
# 4 -0.0048 -0.0079 -0.0153 -21.3200 0.0132 1.3781
# 5 -34.5278 -12.4845 -36.0788 0.0132 44.6980 -0.0055
# 6 0.0080 0.0066 0.0137 1.3781 -0.0055 28.2734
#
#
#
# Elastic Compliance Matrix: (Units=1/GPa)
#
#
# Indices 1 2 3 4 5 6 
#
# 1 0.005898 -0.002271 0.000279 0.000002 0.004147 -0.000001
# 2 -0.002271 0.013087 -0.002179 -0.000003 0.000142 -0.000001
# 3 0.000279 -0.002179 0.011854 -0.000002 0.009175 -0.000003
# 4 0.000002 -0.000003 -0.000002 -0.046757 0.000013 0.002279
# 5 0.004147 0.000142 0.009175 0.000013 0.033021 0.000000
# 6 -0.000001 -0.000001 -0.000003 0.002279 0.000000 0.035258
#
#
# Mechanical properties :
#
#
# Convention : Reuss Voigt Hill
#
# Bulk Modulus (GPa) = 44.45140 67.09803 55.77471
# Shear Modulus (GPa) = 73.31229 31.44473 52.37851
#
# Velocity S-wave (km/s) = 5.66273 3.70861 4.78645
# Velocity P-wave (km/s) = 7.88658 6.90556 7.41232
#
# Compressibility (1/GPa) = 0.02249648
#
# Stress axis : x y z
#
# Youngs Moduli (GPa) = 169.55721 76.41146 84.36099
#
# Poissons Ratio (x) = 0.17357 -0.02355
# Poissons Ratio (y) = 0.38515 0.18380
# Poissons Ratio (z) = -0.04733 0.16648
#
# Static dielectric constant tensor:
#      x y z
#    x 2.103950 -0.000010 0.067840 
#    y -0.000010 1.786080 0.000000 
#    z 0.067840 0.000000 1.860150 
# 
# From -- ./inp_files/147425.got.cif
#   From: 2010.05.17/outbox.cif.g08.bks.cpg/sg12_74_cif.got.tgz:147425.got - 2010.06.03 13:09:07.
