data_PCOD9222072
_publ_section_title
;
Structure prediction by ZEFSAII (Michael W. Deem and Ramdas Pophale) SiO2 
 PCOD9222072
Probable space group: C 2/M
;
_chemical_formula_sum "Si O2"
_cell_formula_units_Z 44
_cell_length_a 8.373734
_cell_length_b 28.232286
_cell_length_c 12.101602
_cell_angle_alpha 90.000000
_cell_angle_beta 135.154095
_cell_angle_gamma 90.000000
_cell_volume 2017.538852
_symmetry_space_group_name_H-M "C 2/M"
_symmetry_group_IT_number 12
_symmetry_cell_setting 'monoclinic'
loop_
_space_group_symop_operation_xyz
x,y,z
-x,y,-z
-x,-y,-z
x,-y,z
1/2+x,1/2+y,z
1/2-x,1/2+y,-z
1/2-x,1/2-y,-z
1/2+x,1/2-y,z
loop_
_atom_site_type_symbol
_atom_site_label
_atom_site_fract_x
_atom_site_fract_y
_atom_site_fract_z
Si Si1 0.405666 0.691685 0.330940
Si Si2 0.830407 0.914983 0.244385
Si Si3 0.829689 0.500000 0.249604
Si Si4 0.505940 0.255887 0.167883
Si Si5 0.500000 0.335081 0.000000
Si Si6 0.673830 0.084012 0.919229
Si Si7 0.158403 0.000000 0.416942
O O1 0.500000 0.694580 0.500000
O O2 0.424471 0.638349 0.296034
O O3 0.517460 0.728111 0.299965
O O4 0.146069 0.709205 0.209588
O O5 0.597487 0.914006 0.199566
O O6 0.765729 0.928041 0.086501
O O7 0.010369 0.953718 0.371207
O O8 0.771707 0.545483 0.147227
O O9 0.712260 0.500000 0.311464
O O10 0.099846 0.500000 0.404783
O O11 0.594626 0.300497 0.140865
O O12 0.250000 0.250000 0.000000
O O13 0.701206 0.367794 0.053617
#
# Coordination Sequence:
#
# PCOD9222072 Si02
#       7
#     8   8   4   8   4   8   4
#     4  12  27  45  70 109 145 191 238 303 368 431
#     4  11  25  44  72 102 142 186 241 295 356 435
#     4  11  26  45  72 102 143 188 230 299 362 439
#     4  12  24  46  73 102 143 193 244 299 357 429
#     4  12  22  41  72 102 140 179 244 302 346 416
#     4  11  24  42  71 105 132 188 246 291 351 426
#     4  11  26  49  66 105 152 182 228 293 381 428
#
# _framework density 21.808748999999999
#
# number of rings (size 3 to 8) (size 9 to 14) (size 15 to 20)
#    0.000    0.545    3.636    3.818    5.091    3.273 
#    0.000    0.000    0.000    0.000    0.000    0.000 
#    0.000    0.000    0.000    0.000    0.000    0.000 
#
# Total GULP energy -123159.147372 kJ/mol
# GULP energy per Si atom -5598.143062 kJ/mol
# Density = 2.175911 g / cm^3
# Si number density = 21.808749 Si / 1000 Ang^3
#
#
#
# Elastic Constant Matrix: (Units=GPa)
#
#
# Indices 1 2 3 4 5 6 
#
# 1 93.3729 38.4088 39.0851 0.0000 5.3673 0.0000
# 2 38.4088 133.2864 35.2742 0.0000 10.4533 0.0000
# 3 39.0851 35.2742 93.3903 0.0000 -12.3422 0.0000
# 4 0.0000 0.0000 0.0000 4.0620 0.0000 -6.8547
# 5 5.3673 10.4533 -12.3422 0.0000 46.3776 0.0000
# 6 0.0000 0.0000 0.0000 -6.8547 0.0000 47.8096
#
#
#
# Elastic Compliance Matrix: (Units=1/GPa)
#
#
# Indices 1 2 3 4 5 6 
#
# 1 0.014080 -0.002463 -0.005291 0.000000 -0.002482 0.000000
# 2 -0.002463 0.009137 -0.002752 0.000000 -0.002507 0.000000
# 3 -0.005291 -0.002752 0.014639 0.000000 0.005128 0.000000
# 4 0.000000 0.000000 0.000000 0.324761 0.000000 0.046562
# 5 -0.002482 -0.002507 0.005128 0.000000 0.023779 0.000000
# 6 0.000000 0.000000 0.000000 0.046562 0.000000 0.027592
#
#
# Mechanical properties :
#
#
# Convention : Reuss Voigt Hill
#
# Bulk Modulus (GPa) = 59.36054 60.62064 59.99059
# Shear Modulus (GPa) = 11.34780 33.46861 22.40820
#
# Velocity S-wave (km/s) = 2.28355 3.92170 3.20892
# Velocity P-wave (km/s) = 5.85069 6.95436 6.42626
#
# Compressibility (1/GPa) = 0.01684621
#
# Stress axis : x y z
#
# Youngs Moduli (GPa) = 71.02259 109.44333 68.31019
#
# Poissons Ratio (x) = 0.26951 0.36140
# Poissons Ratio (y) = 0.17490 0.18798
# Poissons Ratio (z) = 0.37575 0.30117
#
# Static dielectric constant tensor:
#      x y z
#    x 1.838140 0.000000 -0.011090 
#    y 0.000000 1.771430 0.000000 
#    z -0.011090 0.000000 1.766600 
# 
# From -- ./inp_files/124498.got.cif
#   From: 2010.05.17/outbox.cif.g08.bks.cpg/sg12_63_cif.got.tgz:124498.got - 2010.06.03 13:09:07.
