data_PCOD9222531
_publ_section_title
;
Structure prediction by ZEFSAII (Michael W. Deem and Ramdas Pophale) SiO2 
 PCOD9222531
Probable space group: C 2/M
;
_chemical_formula_sum "Si O2"
_cell_formula_units_Z 34
_cell_length_a 14.177747
_cell_length_b 18.556697
_cell_length_c 11.077382
_cell_angle_alpha 90.000000
_cell_angle_beta 28.795776
_cell_angle_gamma 90.000000
_cell_volume 1403.821282
_symmetry_space_group_name_H-M "C 2/M"
_symmetry_group_IT_number 12
_symmetry_cell_setting 'monoclinic'
loop_
_space_group_symop_operation_xyz
x,y,z
-x,y,-z
-x,-y,-z
x,-y,z
1/2+x,1/2+y,z
1/2-x,1/2+y,-z
1/2-x,1/2-y,-z
1/2+x,1/2-y,z
loop_
_atom_site_type_symbol
_atom_site_label
_atom_site_fract_x
_atom_site_fract_y
_atom_site_fract_z
Si Si1 0.000000 0.000000 0.000000
Si Si2 0.790138 0.755793 0.259461
Si Si3 0.058263 0.113329 0.564074
Si Si4 0.225817 0.611007 0.455508
Si Si5 0.709065 0.829649 0.102575
O O1 0.846951 0.061708 0.227069
O O2 0.634527 0.693633 0.447475
O O3 0.816763 0.808551 0.342285
O O4 0.732974 0.810124 0.215926
O O5 0.000000 0.720741 0.000000
O O6 0.227165 0.083293 0.462375
O O7 0.000000 0.081049 0.500000
O O8 0.869272 0.118554 0.862196
O O9 0.998339 0.630601 0.687951
O O10 0.750000 0.750000 0.000000
#
# Coordination Sequence:
#
# PCOD9222531 Si02
#       5
#     2   8   8   8   8
#     4  12  28  56  76  98 148 206 266 292 344 448
#     4  12  21  38  68 107 149 185 235 309 384 441
#     4  12  24  39  66 108 150 182 239 312 387 443
#     4  12  25  44  70 100 144 196 251 300 354 443
#     4  12  22  39  64 110 147 187 233 300 392 433
#
# _framework density 24.219608000000001
#
# number of rings (size 3 to 8) (size 9 to 14) (size 15 to 20)
#    0.000    0.000    8.235    2.824    0.000    0.000 
#    0.000   10.000    0.000    1.412    0.000    0.000 
#    0.000    0.000    0.000    0.000    0.000    0.000 
#
# Total GULP energy -94678.855598 kJ/mol
# GULP energy per Si atom -5569.344447 kJ/mol
# Density = 2.416448 g / cm^3
# Si number density = 24.219608 Si / 1000 Ang^3
#
#
#
# Elastic Constant Matrix: (Units=GPa)
#
#
# Indices 1 2 3 4 5 6 
#
# 1 180.3602 32.7028 65.6410 -0.0017 -2.5993 -0.0021
# 2 32.7028 123.3530 35.7574 -0.0150 0.4850 0.0188
# 3 65.6410 35.7574 174.7470 -0.0146 -30.5574 0.0263
# 4 -0.0017 -0.0150 -0.0146 34.4123 0.0140 5.8529
# 5 -2.5993 0.4850 -30.5574 0.0140 35.8733 -0.0169
# 6 -0.0021 0.0188 0.0263 5.8529 -0.0169 -31.1341
#
#
#
# Elastic Compliance Matrix: (Units=1/GPa)
#
#
# Indices 1 2 3 4 5 6 
#
# 1 0.006644 -0.001004 -0.002590 0.000000 -0.001711 -0.000002
# 2 -0.001004 0.008882 -0.001732 0.000003 -0.001668 0.000005
# 3 -0.002590 -0.001732 0.008250 -0.000001 0.006863 0.000002
# 4 0.000000 0.000003 -0.000001 0.028159 -0.000009 0.005294
# 5 -0.001711 -0.001668 0.006863 -0.000009 0.033621 -0.000015
# 6 -0.000002 0.000005 0.000002 0.005294 -0.000015 -0.031124
#
#
# Mechanical properties :
#
#
# Convention : Reuss Voigt Hill
#
# Bulk Modulus (GPa) = 76.19274 82.96251 79.57762
# Shear Modulus (GPa) = 71.98668 30.78757 51.38712
#
# Velocity S-wave (km/s) = 5.45775 3.56923 4.61121
# Velocity P-wave (km/s) = 8.44058 7.16342 7.82809
#
# Compressibility (1/GPa) = 0.01312461
#
# Stress axis : x y z
#
# Youngs Moduli (GPa) = 150.50450 112.59201 121.21536
#
# Poissons Ratio (x) = 0.11306 0.31389
# Poissons Ratio (y) = 0.15113 0.20993
# Poissons Ratio (z) = 0.38974 0.19500
#
# Static dielectric constant tensor:
#      x y z
#    x 2.072540 -0.000020 0.027080 
#    y -0.000020 1.852940 0.000010 
#    z 0.027080 0.000010 2.069500 
# 
# From -- ./inp_files/148513.got.cif
#   From: 2010.05.17/outbox.cif.g08.bks.cpg/sg12_75_cif.got.tgz:148513.got - 2010.06.03 13:09:07.
