data_PCOD9222004
_publ_section_title
;
Structure prediction by ZEFSAII (Michael W. Deem and Ramdas Pophale) SiO2 
 PCOD9222004
Probable space group: C 2/M
;
_chemical_formula_sum "Si O2"
_cell_formula_units_Z 40
_cell_length_a 27.107021
_cell_length_b 7.812152
_cell_length_c 18.799474
_cell_angle_alpha 90.000000
_cell_angle_beta 150.308523
_cell_angle_gamma 90.000000
_cell_volume 1971.933773
_symmetry_space_group_name_H-M "C 2/M"
_symmetry_group_IT_number 12
_symmetry_cell_setting 'monoclinic'
loop_
_space_group_symop_operation_xyz
x,y,z
-x,y,-z
-x,-y,-z
x,-y,z
1/2+x,1/2+y,z
1/2-x,1/2+y,-z
1/2-x,1/2-y,-z
1/2+x,1/2-y,z
loop_
_atom_site_type_symbol
_atom_site_label
_atom_site_fract_x
_atom_site_fract_y
_atom_site_fract_z
Si Si1 0.441410 0.301406 0.063706
Si Si2 0.212339 0.695537 0.234449
Si Si3 0.841330 0.500000 0.334188
Si Si4 0.136658 0.203672 0.877810
Si Si5 0.332541 0.203689 0.661375
Si Si6 0.050840 0.500000 0.677361
O O1 0.422239 0.500000 0.024422
O O2 0.386613 0.258150 0.068820
O O3 0.558937 0.276934 0.219636
O O4 0.393658 0.199554 0.938677
O O5 0.250349 0.500000 0.281387
O O6 0.281175 0.829571 0.279319
O O7 0.200207 0.756420 0.300373
O O8 0.868367 0.500000 0.284984
O O9 0.943328 0.500000 0.506587
O O10 0.068302 0.329943 0.745765
O O11 0.119641 0.000000 0.844859
O O12 0.250000 0.250000 0.000000
O O13 0.250000 0.250000 0.500000
O O14 0.343110 0.000000 0.676200
#
# Coordination Sequence:
#
# PCOD9222004 Si02
#       6
#     8   8   4   8   8   4
#     4  11  24  41  67 100 132 176 225 273 333 396
#     4  11  25  44  69  97 135 175 223 275 333 401
#     4  11  26  46  69  96 137 177 226 275 335 402
#     4  11  24  41  67 101 136 171 225 279 328 394
#     4  11  26  42  65  99 134 176 223 272 336 400
#     4  11  26  44  68 100 132 181 225 275 341 390
#
# _framework density 20.284656999999999
#
# number of rings (size 3 to 8) (size 9 to 14) (size 15 to 20)
#    0.000    1.000    2.000    3.000    8.400    5.600 
#    0.000    2.000    0.000    0.000    0.000    0.000 
#    0.000    0.000    0.000    0.000    0.000    0.000 
#
# Total GULP energy -111879.390093 kJ/mol
# GULP energy per Si atom -5593.969505 kJ/mol
# Density = 2.023849 g / cm^3
# Si number density = 20.284657 Si / 1000 Ang^3
#
#
#
# Elastic Constant Matrix: (Units=GPa)
#
#
# Indices 1 2 3 4 5 6 
#
# 1 96.5191 42.3427 49.4436 0.0000 -10.7391 0.0000
# 2 42.3427 78.5004 27.1740 0.0000 -13.0919 0.0000
# 3 49.4436 27.1740 109.1903 0.0000 -16.5397 0.0000
# 4 0.0000 0.0000 0.0000 33.2446 0.0000 -4.3051
# 5 -10.7391 -13.0919 -16.5397 0.0000 35.5907 0.0000
# 6 0.0000 0.0000 0.0000 -4.3051 0.0000 31.4987
#
#
#
# Elastic Compliance Matrix: (Units=1/GPa)
#
#
# Indices 1 2 3 4 5 6 
#
# 1 0.016248 -0.006836 -0.005696 0.000000 -0.000259 0.000000
# 2 -0.006836 0.017305 -0.000602 0.000000 0.004023 0.000000
# 3 -0.005696 -0.000602 0.012471 0.000000 0.003856 0.000000
# 4 0.000000 0.000000 0.000000 0.030622 0.000000 0.004185
# 5 -0.000259 0.004023 0.003856 0.000000 0.031291 0.000000
# 6 0.000000 0.000000 0.000000 0.004185 0.000000 0.032319
#
#
# Mechanical properties :
#
#
# Convention : Reuss Voigt Hill
#
# Bulk Modulus (GPa) = 50.61143 58.01448 54.31295
# Shear Modulus (GPa) = 28.88336 31.08343 29.98340
#
# Velocity S-wave (km/s) = 3.77756 3.91879 3.84882
# Velocity P-wave (km/s) = 6.63561 7.00986 6.82530
#
# Compressibility (1/GPa) = 0.01975838
#
# Stress axis : x y z
#
# Youngs Moduli (GPa) = 61.54458 57.78559 80.18456
#
# Poissons Ratio (x) = 0.39501 0.45670
# Poissons Ratio (y) = 0.42071 0.04826
# Poissons Ratio (z) = 0.35053 0.03478
#
# Static dielectric constant tensor:
#      x y z
#    x 1.709420 0.000000 -0.002670 
#    y 0.000000 1.696800 0.000000 
#    z -0.002670 0.000000 1.780740 
# 
# From -- ./inp_files/292329.got.cif
#   From: 2010.05.17/outbox.cif.g08.bks.cpg/sg12_147_cif.got.tgz:292329.got - 2010.06.03 13:09:07.
