data_PCOD9222570
_publ_section_title
;
Structure prediction by ZEFSAII (Michael W. Deem and Ramdas Pophale) SiO2 
 PCOD9222570
Probable space group: C 2/M
;
_chemical_formula_sum "Si O2"
_cell_formula_units_Z 52
_cell_length_a 15.107739
_cell_length_b 21.809423
_cell_length_c 17.089650
_cell_angle_alpha 90.000000
_cell_angle_beta 151.237590
_cell_angle_gamma 90.000000
_cell_volume 2709.462654
_symmetry_space_group_name_H-M "C 2/M"
_symmetry_group_IT_number 12
_symmetry_cell_setting 'monoclinic'
loop_
_space_group_symop_operation_xyz
x,y,z
-x,y,-z
-x,-y,-z
x,-y,z
1/2+x,1/2+y,z
1/2-x,1/2+y,-z
1/2-x,1/2-y,-z
1/2+x,1/2-y,z
loop_
_atom_site_type_symbol
_atom_site_label
_atom_site_fract_x
_atom_site_fract_y
_atom_site_fract_z
Si Si1 0.641750 0.690369 0.449489
Si Si2 0.382546 0.305915 0.118802
Si Si3 0.150146 0.195060 0.186678
Si Si4 0.206797 0.432833 0.742030
Si Si5 0.734431 0.933328 0.942368
Si Si6 0.000000 0.228528 0.500000
Si Si7 0.141213 0.569033 0.428916
O O1 0.750000 0.750000 0.500000
O O2 0.444678 0.694019 0.255705
O O3 0.609899 0.692268 0.517610
O O4 0.733705 0.627624 0.489180
O O5 0.552438 0.292750 0.192938
O O6 0.303694 0.372404 0.036214
O O7 0.250000 0.250000 0.000000
O O8 0.208302 0.124124 0.234340
O O9 0.342692 0.231608 0.333688
O O10 0.000000 0.205313 0.000000
O O11 0.233610 0.500000 0.727909
O O12 0.704626 0.432551 0.101717
O O13 0.989990 0.424192 0.595792
O O14 0.786374 0.000000 0.016000
O O15 0.513316 0.930850 0.759768
O O16 0.222883 0.500000 0.494764
#
# Coordination Sequence:
#
# PCOD9222570 Si02
#       7
#     8   8   8   8   8   4   8
#     4  12  23  41  62  87 125 164 208 267 318 370
#     4  12  24  37  60  90 122 169 214 257 310 375
#     4  12  22  38  61  88 129 168 205 256 308 383
#     4   8  17  33  58  92 127 163 200 242 309 388
#     4   8  17  35  60  89 121 158 204 247 305 382
#     4  12  28  42  60  94 124 164 220 264 328 364
#     4   8  17  37  63  86 120 165 201 250 316 375
#
# _framework density 19.191998000000002
#
# number of rings (size 3 to 8) (size 9 to 14) (size 15 to 20)
#    0.923    0.923    3.077    2.769    0.000    1.538 
#    0.000    0.769    0.000    0.000    0.000    2.154 
#    0.000    0.000    0.000    0.000    0.000    0.000 
#
# Total GULP energy -144867.827197 kJ/mol
# GULP energy per Si atom -5571.839508 kJ/mol
# Density = 1.914832 g / cm^3
# Si number density = 19.191998 Si / 1000 Ang^3
#
#
#
# Elastic Constant Matrix: (Units=GPa)
#
#
# Indices 1 2 3 4 5 6 
#
# 1 67.2080 34.0622 6.8272 -0.0002 5.1841 -0.0002
# 2 34.0622 127.2899 36.5830 0.0002 19.8283 -0.0001
# 3 6.8272 36.5830 72.7732 -0.0015 -1.3651 -0.0008
# 4 -0.0002 0.0002 -0.0015 35.1788 -0.0008 7.0532
# 5 5.1841 19.8283 -1.3651 -0.0008 23.5973 -0.0004
# 6 -0.0002 -0.0001 -0.0008 7.0532 -0.0004 24.8315
#
#
#
# Elastic Compliance Matrix: (Units=1/GPa)
#
#
# Indices 1 2 3 4 5 6 
#
# 1 0.017259 -0.004930 0.000867 0.000000 0.000401 0.000000
# 2 -0.004930 0.012392 -0.005948 -0.000001 -0.009674 0.000000
# 3 0.000867 -0.005948 0.016759 0.000001 0.005777 0.000000
# 4 0.000000 -0.000001 0.000001 0.030143 0.000001 -0.008562
# 5 0.000401 -0.009674 0.005777 0.000001 0.050752 0.000000
# 6 0.000000 0.000000 0.000000 -0.008562 0.000000 0.042703
#
#
# Mechanical properties :
#
#
# Convention : Reuss Voigt Hill
#
# Bulk Modulus (GPa) = 37.89884 46.91286 42.40585
# Shear Modulus (GPa) = 25.14764 29.37478 27.26121
#
# Velocity S-wave (km/s) = 3.62376 3.91650 3.77297
# Velocity P-wave (km/s) = 6.10728 6.70440 6.41280
#
# Compressibility (1/GPa) = 0.02638603
#
# Stress axis : x y z
#
# Youngs Moduli (GPa) = 57.94151 80.69913 59.67101
#
# Poissons Ratio (x) = 0.39784 -0.05172
# Poissons Ratio (y) = 0.28565 0.35494
# Poissons Ratio (z) = -0.05022 0.48002
#
# Static dielectric constant tensor:
#      x y z
#    x 1.667570 0.000000 -0.003440 
#    y 0.000000 1.674830 0.000000 
#    z -0.003440 0.000000 1.775840 
# 
# From -- ./inp_files/272226.got.cif
#   From: 2010.05.17/outbox.cif.g08.bks.cpg/sg12_137_cif.got.tgz:272226.got - 2010.06.03 13:09:07.
