data_PCOD9222634
_publ_section_title
;
Structure prediction by ZEFSAII (Michael W. Deem and Ramdas Pophale) SiO2 
 PCOD9222634
Probable space group: C 2/M
;
_chemical_formula_sum "Si O2"
_cell_formula_units_Z 32
_cell_length_a 9.039683
_cell_length_b 19.878853
_cell_length_c 11.976236
_cell_angle_alpha 90.000000
_cell_angle_beta 135.265669
_cell_angle_gamma 90.000000
_cell_volume 1514.700499
_symmetry_space_group_name_H-M "C 2/M"
_symmetry_group_IT_number 12
_symmetry_cell_setting 'monoclinic'
loop_
_space_group_symop_operation_xyz
x,y,z
-x,y,-z
-x,-y,-z
x,-y,z
1/2+x,1/2+y,z
1/2-x,1/2+y,-z
1/2-x,1/2-y,-z
1/2+x,1/2-y,z
loop_
_atom_site_type_symbol
_atom_site_label
_atom_site_fract_x
_atom_site_fract_y
_atom_site_fract_z
Si Si1 0.658020 0.424588 0.354656
Si Si2 0.467551 0.292410 0.608783
Si Si3 0.761140 0.798423 0.900516
Si Si4 0.926798 0.425769 0.272296
O O1 0.563835 0.500000 0.314660
O O2 0.527722 0.357623 0.309059
O O3 0.765420 0.420701 0.290538
O O4 0.846632 0.420087 0.547144
O O5 0.500000 0.315480 0.500000
O O6 0.250000 0.250000 0.500000
O O7 0.651931 0.241495 0.740594
O O8 0.627937 0.866516 0.840809
O O9 0.750000 0.750000 0.000000
O O10 0.000000 0.814435 0.000000
O O11 0.906545 0.500000 0.211989
#
# Coordination Sequence:
#
# PCOD9222634 Si02
#       4
#     8   8   8   8
#     4   9  18  35  63  94 117 149 206 261 298 348
#     4  12  23  39  64  88 120 163 208 252 299 357
#     4  12  25  39  58  90 128 159 199 251 306 361
#     4   9  18  36  63  90 118 155 202 252 302 360
#
# _framework density 21.126287999999999
#
# number of rings (size 3 to 8) (size 9 to 14) (size 15 to 20)
#    0.000    1.500    2.500    6.000    0.000    1.000 
#    0.000    1.250    0.000    1.500    0.000    0.000 
#    0.000    0.000    0.000    0.000    0.000    0.000 
#
# Total GULP energy -89424.330857 kJ/mol
# GULP energy per Si atom -5589.020679 kJ/mol
# Density = 2.107820 g / cm^3
# Si number density = 21.126288 Si / 1000 Ang^3
#
#
#
# Elastic Constant Matrix: (Units=GPa)
#
#
# Indices 1 2 3 4 5 6 
#
# 1 11.2717 -4.8300 -8.6298 0.0000 -0.4015 0.0000
# 2 -4.8300 156.6920 21.6825 0.0000 2.5767 0.0000
# 3 -8.6298 21.6825 54.4250 0.0000 5.6791 0.0000
# 4 0.0000 0.0000 0.0000 38.0095 0.0000 -5.7543
# 5 -0.4015 2.5767 5.6791 0.0000 25.9580 0.0000
# 6 0.0000 0.0000 0.0000 -5.7543 0.0000 29.5352
#
#
#
# Elastic Compliance Matrix: (Units=1/GPa)
#
#
# Indices 1 2 3 4 5 6 
#
# 1 0.101211 0.000956 0.015877 0.000000 -0.002003 0.000000
# 2 0.000956 0.006764 -0.002532 0.000000 -0.000103 0.000000
# 3 0.015877 -0.002532 0.022359 0.000000 -0.004395 0.000000
# 4 0.000000 0.000000 0.000000 0.027109 0.000000 0.005282
# 5 -0.002003 -0.000103 -0.004395 0.000000 0.039464 0.000000
# 6 0.000000 0.000000 0.000000 0.005282 0.000000 0.034887
#
#
# Mechanical properties :
#
#
# Convention : Reuss Voigt Hill
#
# Bulk Modulus (GPa) = 6.29193 26.53713 16.41453
# Shear Modulus (GPa) = 19.51820 32.97829 26.24825
#
# Velocity S-wave (km/s) = 3.04284 3.95524 3.52866
# Velocity P-wave (km/s) = 3.91534 5.78334 4.93847
#
# Compressibility (1/GPa) = 0.15893376
#
# Stress axis : x y z
#
# Youngs Moduli (GPa) = 9.88033 147.85236 44.72515
#
# Poissons Ratio (x) = -0.14131 -0.71009
# Poissons Ratio (y) = -0.00944 0.11326
# Poissons Ratio (z) = -0.15687 0.37440
#
# Static dielectric constant tensor:
#      x y z
#    x 1.748390 0.000000 0.010810 
#    y 0.000000 1.790460 0.000000 
#    z 0.010810 0.000000 1.768550 
# 
# From -- ./inp_files/37545.got.cif
#   From: 2010.05.17/outbox.cif.g08.bks.cpg/sg12_19_cif.got.tgz:37545.got - 2010.06.03 13:09:07.
