data_PCOD9222503
_publ_section_title
;
Structure prediction by ZEFSAII (Michael W. Deem and Ramdas Pophale) SiO2 
 PCOD9222503
Probable space group: C 2/M
;
_chemical_formula_sum "Si O2"
_cell_formula_units_Z 36
_cell_length_a 28.527261
_cell_length_b 7.469069
_cell_length_c 7.681991
_cell_angle_alpha 90.000000
_cell_angle_beta 122.925342
_cell_angle_gamma 90.000000
_cell_volume 1373.911371
_symmetry_space_group_name_H-M "C 2/M"
_symmetry_group_IT_number 12
_symmetry_cell_setting 'monoclinic'
loop_
_space_group_symop_operation_xyz
x,y,z
-x,y,-z
-x,-y,-z
x,-y,z
1/2+x,1/2+y,z
1/2-x,1/2+y,-z
1/2-x,1/2-y,-z
1/2+x,1/2-y,z
loop_
_atom_site_type_symbol
_atom_site_label
_atom_site_fract_x
_atom_site_fract_y
_atom_site_fract_z
Si Si1 0.185369 0.197927 0.400406
Si Si2 0.595175 0.000000 0.194515
Si Si3 0.808379 0.701455 0.202594
Si Si4 0.584119 0.290260 0.764879
Si Si5 0.022685 0.785242 0.268345
O O1 0.250000 0.250000 0.500000
O O2 0.142506 0.343299 0.243931
O O3 0.177788 0.190673 0.595566
O O4 0.175184 0.000000 0.306850
O O5 0.555198 0.157860 0.204745
O O6 0.806949 0.500000 0.267100
O O7 0.855314 0.714879 0.150142
O O8 0.750000 0.750000 0.000000
O O9 0.588606 0.500000 0.809373
O O10 0.553980 0.270660 0.516734
O O11 0.540336 0.215669 0.816365
O O12 0.022380 0.000000 0.225072
#
# Coordination Sequence:
#
# PCOD9222503 Si02
#       5
#     8   4   8   8   8
#     4  12  23  40  58  83 118 156 198 241 284 346
#     4  12  20  33  56  82 113 152 193 237 293 339
#     4  12  23  37  57  86 119 157 193 238 291 349
#     4   9  17  31  48  76 112 146 184 233 289 341
#     4   9  18  30  50  77 113 147 182 236 291 339
#
# _framework density 26.202563999999999
#
# number of rings (size 3 to 8) (size 9 to 14) (size 15 to 20)
#    0.000    1.333    4.444    4.000    1.556    0.889 
#    0.000    0.000    0.000    0.000    0.000    3.111 
#    0.000    7.111    0.000    0.000    0.000    0.000 
#
# Total GULP energy -100414.229383 kJ/mol
# GULP energy per Si atom -5578.568299 kJ/mol
# Density = 2.614293 g / cm^3
# Si number density = 26.202564 Si / 1000 Ang^3
#
#
#
# Elastic Constant Matrix: (Units=GPa)
#
#
# Indices 1 2 3 4 5 6 
#
# 1 223.7734 61.2821 54.2307 0.0000 30.5646 0.0000
# 2 61.2821 166.8259 -0.5557 0.0000 3.7283 0.0000
# 3 54.2307 -0.5557 93.6131 0.0000 -5.6943 0.0000
# 4 0.0000 0.0000 0.0000 -46.7585 0.0000 31.2645
# 5 30.5646 3.7283 -5.6943 0.0000 55.3949 0.0000
# 6 0.0000 0.0000 0.0000 31.2645 0.0000 45.1367
#
#
#
# Elastic Compliance Matrix: (Units=1/GPa)
#
#
# Indices 1 2 3 4 5 6 
#
# 1 0.006649 -0.002368 -0.004105 0.000000 -0.003931 0.000000
# 2 -0.002368 0.006847 0.001473 0.000000 0.000997 0.000000
# 3 -0.004105 0.001473 0.013284 0.000000 0.003531 0.000000
# 4 0.000000 0.000000 0.000000 -0.014617 0.000000 0.010125
# 5 -0.003931 0.000997 0.003531 0.000000 0.020517 0.000000
# 6 0.000000 0.000000 0.000000 0.010125 0.000000 0.015142
#
#
# Mechanical properties :
#
#
# Convention : Reuss Voigt Hill
#
# Bulk Modulus (GPa) = 59.59576 79.34740 69.47158
# Shear Modulus (GPa) = 78.84426 35.37164 57.10795
#
# Velocity S-wave (km/s) = 5.49141 3.67813 4.67355
# Velocity P-wave (km/s) = 7.93732 6.95602 7.46282
#
# Compressibility (1/GPa) = 0.01677972
#
# Stress axis : x y z
#
# Youngs Moduli (GPa) = 150.39302 146.05178 75.27871
#
# Poissons Ratio (x) = 0.34590 0.30903
# Poissons Ratio (y) = 0.35618 -0.11091
# Poissons Ratio (z) = 0.61739 -0.21518
#
# Static dielectric constant tensor:
#      x y z
#    x 2.020480 0.000000 -0.024810 
#    y 0.000000 2.124330 0.000000 
#    z -0.024810 0.000000 2.188790 
# 
# From -- ./inp_files/101309.got.cif
#   From: 2010.05.17/outbox.cif.g08.bks.cpg/sg12_51_cif.got.tgz:101309.got - 2010.06.03 13:09:07.
