data_PCOD9222936
_publ_section_title
;
Structure prediction by ZEFSAII (Michael W. Deem and Ramdas Pophale) SiO2 
 PCOD9222936
Probable space group: C 2/M
;
_chemical_formula_sum "Si O2"
_cell_formula_units_Z 48
_cell_length_a 20.275521
_cell_length_b 15.176795
_cell_length_c 17.645879
_cell_angle_alpha 90.000000
_cell_angle_beta 157.930069
_cell_angle_gamma 90.000000
_cell_volume 2040.236289
_symmetry_space_group_name_H-M "C 2/M"
_symmetry_group_IT_number 12
_symmetry_cell_setting 'monoclinic'
loop_
_space_group_symop_operation_xyz
x,y,z
-x,y,-z
-x,-y,-z
x,-y,z
1/2+x,1/2+y,z
1/2-x,1/2+y,-z
1/2-x,1/2-y,-z
1/2+x,1/2-y,z
loop_
_atom_site_type_symbol
_atom_site_label
_atom_site_fract_x
_atom_site_fract_y
_atom_site_fract_z
Si Si1 0.124225 0.897372 0.251570
Si Si2 0.103540 0.279922 0.748361
Si Si3 0.486399 0.762229 0.779579
Si Si4 0.236914 0.397509 0.761058
Si Si5 0.923669 0.093373 0.334457
Si Si6 0.992302 0.400552 0.078202
O O1 0.240897 0.869017 0.302943
O O2 0.117071 0.828267 0.313204
O O3 0.162312 0.000000 0.311683
O O4 0.929203 0.895536 0.005815
O O5 0.002382 0.310224 0.715562
O O6 0.115918 0.340035 0.687463
O O7 0.024291 0.183362 0.649066
O O8 0.309498 0.264377 0.987731
O O9 0.424882 0.831395 0.777040
O O10 0.186916 0.500000 0.707657
O O11 0.712803 0.094704 0.117764
O O12 0.000000 0.094181 0.500000
O O13 0.973990 0.000000 0.351143
O O14 0.065128 0.500000 0.158180
O O15 0.000000 0.368870 0.000000
#
# Coordination Sequence:
#
# PCOD9222936 Si02
#       6
#     8   8   8   8   8   8
#     4   8  14  23  37  59  86 118 149 181 231 283
#     4   9  17  27  41  67  92 121 156 191 242 285
#     4   9  17  25  41  66  97 122 144 196 249 282
#     4   8  14  24  39  59  84 115 151 187 225 278
#     4   9  18  32  49  68  94 129 164 197 235 285
#     4   9  18  30  47  72  96 124 161 198 239 287
#
# _framework density 23.526689000000001
#
# number of rings (size 3 to 8) (size 9 to 14) (size 15 to 20)
#    0.000    3.333    0.000    1.000    7.000    1.333 
#    0.000    6.667    0.000    1.500    0.000    0.000 
#    0.000    0.000    0.000    0.000    0.000    0.000 
#
# Total GULP energy -133945.616879 kJ/mol
# GULP energy per Si atom -5581.067370 kJ/mol
# Density = 2.347314 g / cm^3
# Si number density = 23.526689 Si / 1000 Ang^3
#
#
#
# Elastic Constant Matrix: (Units=GPa)
#
#
# Indices 1 2 3 4 5 6 
#
# 1 172.6472 90.9165 -2.2056 0.0007 3.9871 -0.0005
# 2 90.9165 106.9844 -9.9652 0.0020 8.2749 -0.0006
# 3 -2.2056 -9.9652 67.5860 0.0022 17.3182 0.0001
# 4 0.0007 0.0020 0.0022 -5.8241 0.0013 25.3065
# 5 3.9871 8.2749 17.3182 0.0013 17.2752 0.0000
# 6 -0.0005 -0.0006 0.0001 25.3065 0.0000 83.3592
#
#
#
# Elastic Compliance Matrix: (Units=1/GPa)
#
#
# Indices 1 2 3 4 5 6 
#
# 1 0.010767 -0.009691 -0.002194 -0.000001 0.004356 0.000000
# 2 -0.009691 0.019098 0.005747 0.000002 -0.012673 -0.000001
# 3 -0.002194 0.005747 0.021729 0.000002 -0.024030 -0.000001
# 4 -0.000001 0.000002 0.000002 -0.074037 0.000003 0.022476
# 5 0.004356 -0.012673 -0.024030 0.000003 0.087041 -0.000001
# 6 0.000000 -0.000001 -0.000001 0.022476 -0.000001 0.005173
#
#
# Mechanical properties :
#
#
# Convention : Reuss Voigt Hill
#
# Bulk Modulus (GPa) = 25.43356 56.07881 40.75618
# Shear Modulus (GPa) = 52.54719 36.86018 44.70368
#
# Velocity S-wave (km/s) = 4.73113 3.96250 4.36377
# Velocity P-wave (km/s) = 6.37800 6.69501 6.53843
#
# Compressibility (1/GPa) = 0.03931813
#
# Stress axis : x y z
#
# Youngs Moduli (GPa) = 92.87720 52.36071 46.02143
#
# Poissons Ratio (x) = 0.50743 0.10096
# Poissons Ratio (y) = 0.90009 -0.26448
# Poissons Ratio (z) = 0.20375 -0.30091
#
# Static dielectric constant tensor:
#      x y z
#    x 1.944670 0.000000 -0.150210 
#    y 0.000000 1.892050 0.000000 
#    z -0.150210 0.000000 2.220410 
# 
# From -- ./inp_files/321858.got.cif
#   From: 2010.05.17/outbox.cif.g08.bks.cpg/sg12_161_cif.got.tgz:321858.got - 2010.06.03 13:09:07.
