data_PCOD9222235
_publ_section_title
;
Structure prediction by ZEFSAII (Michael W. Deem and Ramdas Pophale) SiO2 
 PCOD9222235
Probable space group: C 2/M
;
_chemical_formula_sum "Si O2"
_cell_formula_units_Z 36
_cell_length_a 15.144634
_cell_length_b 19.041562
_cell_length_c 5.164416
_cell_angle_alpha 90.000000
_cell_angle_beta 99.422311
_cell_angle_gamma 90.000000
_cell_volume 1469.208382
_symmetry_space_group_name_H-M "C 2/M"
_symmetry_group_IT_number 12
_symmetry_cell_setting 'monoclinic'
loop_
_space_group_symop_operation_xyz
x,y,z
-x,y,-z
-x,-y,-z
x,-y,z
1/2+x,1/2+y,z
1/2-x,1/2+y,-z
1/2-x,1/2-y,-z
1/2+x,1/2-y,z
loop_
_atom_site_type_symbol
_atom_site_label
_atom_site_fract_x
_atom_site_fract_y
_atom_site_fract_z
Si Si1 0.336621 0.623178 0.371194
Si Si2 0.402515 0.000000 0.084506
Si Si3 0.399805 0.229130 0.551872
Si Si4 0.089064 0.000000 0.878600
Si Si5 0.253844 0.000000 0.358928
Si Si6 0.672164 0.844090 0.983856
O O1 0.376468 0.688762 0.539096
O O2 0.274867 0.570125 0.505922
O O3 0.275351 0.655857 0.115954
O O4 0.408756 0.570569 0.287227
O O5 0.361134 0.000000 0.361187
O O6 0.361034 0.075688 0.996882
O O7 0.500000 0.000000 0.000000
O O8 0.500000 0.218651 0.500000
O O9 0.381612 0.199544 0.826842
O O10 0.342218 0.187291 0.307772
O O11 0.184459 0.000000 0.080589
O O12 0.000000 0.000000 0.000000
#
# Coordination Sequence:
#
# PCOD9222235 Si02
#       6
#     8   4   8   4   4   8
#     4  11  26  46  74 108 153 203 247 313 382 449
#     4  12  24  47  78 104 146 192 250 316 373 444
#     4  12  28  46  74 111 152 198 256 311 381 455
#     4  11  26  44  78 113 153 197 261 310 372 458
#     4  11  24  48  74 113 151 195 257 306 386 454
#     4  12  26  49  72 110 145 202 253 313 381 453
#
# _framework density 24.502991000000002
#
# number of rings (size 3 to 8) (size 9 to 14) (size 15 to 20)
#    0.000    0.444    2.222    5.333    6.222    1.778 
#    0.000    5.556    0.000    0.000    0.000    0.000 
#    0.000    0.000    0.000    0.000    0.000    0.000 
#
# Total GULP energy -100753.734353 kJ/mol
# GULP energy per Si atom -5597.429686 kJ/mol
# Density = 2.444722 g / cm^3
# Si number density = 24.502991 Si / 1000 Ang^3
#
#
#
# Elastic Constant Matrix: (Units=GPa)
#
#
# Indices 1 2 3 4 5 6 
#
# 1 114.1278 14.8975 -7.9251 0.0000 -36.3862 0.0000
# 2 14.8975 152.9432 14.7293 0.0000 -19.6911 0.0000
# 3 -7.9251 14.7293 60.8184 0.0000 -11.5171 0.0000
# 4 0.0000 0.0000 0.0000 38.0312 0.0000 2.3258
# 5 -36.3862 -19.6911 -11.5171 0.0000 41.5579 0.0000
# 6 0.0000 0.0000 0.0000 2.3258 0.0000 9.8008
#
#
#
# Elastic Compliance Matrix: (Units=1/GPa)
#
#
# Indices 1 2 3 4 5 6 
#
# 1 0.013048 -0.000051 0.004086 0.000000 0.012533 0.000000
# 2 -0.000051 0.007036 -0.001148 0.000000 0.002971 0.000000
# 3 0.004086 -0.001148 0.018815 0.000000 0.008248 0.000000
# 4 0.000000 0.000000 0.000000 0.026681 0.000000 -0.006332
# 5 0.012533 0.002971 0.008248 0.000000 0.038729 0.000000
# 6 0.000000 0.000000 0.000000 -0.006332 0.000000 0.103535
#
#
# Mechanical properties :
#
#
# Convention : Reuss Voigt Hill
#
# Bulk Modulus (GPa) = 22.38488 41.25473 31.81981
# Shear Modulus (GPa) = 23.04545 38.29049 30.66797
#
# Velocity S-wave (km/s) = 3.07011 3.95737 3.54164
# Velocity P-wave (km/s) = 4.66078 6.14445 5.45330
#
# Compressibility (1/GPa) = 0.04467300
#
# Stress axis : x y z
#
# Youngs Moduli (GPa) = 76.63958 142.11714 53.14992
#
# Poissons Ratio (x) = 0.00724 -0.21716
# Poissons Ratio (y) = 0.00390 0.06102
# Poissons Ratio (z) = -0.31314 0.16316
#
# Static dielectric constant tensor:
#      x y z
#    x 1.949740 0.000000 -0.003330 
#    y 0.000000 1.895100 0.000000 
#    z -0.003330 0.000000 1.997710 
# 
# From -- ./inp_files/15375.got.cif
#   From: 2010.05.17/outbox.cif.g08.bks.cpg/sg12_8_cif.got.tgz:15375.got - 2010.06.03 13:09:07.
