data_PCOD9222629
_publ_section_title
;
Structure prediction by ZEFSAII (Michael W. Deem and Ramdas Pophale) SiO2 
 PCOD9222629
Probable space group: C 2/M
;
_chemical_formula_sum "Si O2"
_cell_formula_units_Z 28
_cell_length_a 19.624204
_cell_length_b 9.286779
_cell_length_c 14.464728
_cell_angle_alpha 90.000000
_cell_angle_beta 29.277144
_cell_angle_gamma 90.000000
_cell_volume 1289.160411
_symmetry_space_group_name_H-M "C 2/M"
_symmetry_group_IT_number 12
_symmetry_cell_setting 'monoclinic'
loop_
_space_group_symop_operation_xyz
x,y,z
-x,y,-z
-x,-y,-z
x,-y,z
1/2+x,1/2+y,z
1/2-x,1/2+y,-z
1/2-x,1/2-y,-z
1/2+x,1/2-y,z
loop_
_atom_site_type_symbol
_atom_site_label
_atom_site_fract_x
_atom_site_fract_y
_atom_site_fract_z
Si Si1 0.000000 0.777818 0.500000
Si Si2 0.890965 0.159348 0.827379
Si Si3 0.271429 0.172145 0.255184
Si Si4 0.037078 0.667824 0.803829
O O1 0.936639 0.848521 0.667026
O O2 0.854147 0.724243 0.627845
O O3 0.009123 0.234654 0.748765
O O4 0.864463 0.000000 0.894703
O O5 0.750000 0.250000 0.000000
O O6 0.335524 0.206005 0.279469
O O7 0.228831 0.000000 0.306447
O O8 0.398144 0.180431 0.032251
O O9 0.049947 0.500000 0.762588
#
# Coordination Sequence:
#
# PCOD9222629 Si02
#       4
#     4   8   8   8
#     4  12  23  38  65  94 119 162 217 248 291 374
#     4  12  24  40  64  92 124 162 204 255 306 361
#     4   9  17  34  62  91 119 160 206 245 293 368
#     4   9  19  38  63  89 122 162 202 247 304 362
#
# _framework density 21.719562
#
# number of rings (size 3 to 8) (size 9 to 14) (size 15 to 20)
#    0.000    1.714    2.857    5.143    0.000    1.143 
#    0.000    5.714    0.000    0.000    0.000    0.000 
#    0.000    0.000    0.000    0.000    0.000    0.000 
#
# Total GULP energy -78005.217058 kJ/mol
# GULP energy per Si atom -5571.801218 kJ/mol
# Density = 2.167013 g / cm^3
# Si number density = 21.719562 Si / 1000 Ang^3
#
#
#
# Elastic Constant Matrix: (Units=GPa)
#
#
# Indices 1 2 3 4 5 6 
#
# 1 199.1098 62.7772 39.6244 0.0000 -12.2409 0.0000
# 2 62.7772 72.3696 16.3616 0.0000 1.2230 0.0000
# 3 39.6244 16.3616 81.8070 0.0000 -12.3721 0.0000
# 4 0.0000 0.0000 0.0000 -0.1168 0.0000 -5.3734
# 5 -12.2409 1.2230 -12.3721 0.0000 48.2011 0.0000
# 6 0.0000 0.0000 0.0000 -5.3734 0.0000 4.9639
#
#
#
# Elastic Compliance Matrix: (Units=1/GPa)
#
#
# Indices 1 2 3 4 5 6 
#
# 1 0.007432 -0.005979 -0.002180 0.000000 0.001480 0.000000
# 2 -0.005979 0.019345 -0.001328 0.000000 -0.002350 0.000000
# 3 -0.002180 -0.001328 0.014011 0.000000 0.003076 0.000000
# 4 0.000000 0.000000 0.000000 -0.168533 0.000000 -0.182437
# 5 0.001480 -0.002350 0.003076 0.000000 0.021971 0.000000
# 6 0.000000 0.000000 0.000000 -0.182437 0.000000 0.003967
#
#
# Mechanical properties :
#
#
# Convention : Reuss Voigt Hill
#
# Bulk Modulus (GPa) = 45.84601 65.64589 55.74595
# Shear Modulus (GPa) = -66.17236 26.24450 -19.96393
#
# Velocity S-wave (km/s) = -5.52565 3.47988 -3.03507
# Velocity P-wave (km/s) = 4.42227 6.81440 3.66603
#
# Compressibility (1/GPa) = 0.02181215
#
# Stress axis : x y z
#
# Youngs Moduli (GPa) = 134.54501 51.69348 71.37314
#
# Poissons Ratio (x) = 0.30909 0.15562
# Poissons Ratio (y) = 0.80449 0.09480
# Poissons Ratio (z) = 0.29336 0.06866
#
# Static dielectric constant tensor:
#      x y z
#    x 1.808980 0.000000 -0.041940 
#    y 0.000000 1.762150 0.000000 
#    z -0.041940 0.000000 1.821100 
# 
# From -- ./inp_files/211514.got.cif
#   From: 2010.05.17/outbox.cif.g08.bks.cpg/sg12_106_cif.got.tgz:211514.got - 2010.06.03 13:09:07.
