data_PCOD9222286
_publ_section_title
;
Structure prediction by ZEFSAII (Michael W. Deem and Ramdas Pophale) SiO2 
 PCOD9222286
Probable space group: C 2/M
;
_chemical_formula_sum "Si O2"
_cell_formula_units_Z 48
_cell_length_a 13.661050
_cell_length_b 19.300996
_cell_length_c 8.432075
_cell_angle_alpha 90.000000
_cell_angle_beta 90.528760
_cell_angle_gamma 90.000000
_cell_volume 2223.206320
_symmetry_space_group_name_H-M "C 2/M"
_symmetry_group_IT_number 12
_symmetry_cell_setting 'monoclinic'
loop_
_space_group_symop_operation_xyz
x,y,z
-x,y,-z
-x,-y,-z
x,-y,z
1/2+x,1/2+y,z
1/2-x,1/2+y,-z
1/2-x,1/2-y,-z
1/2+x,1/2-y,z
loop_
_atom_site_type_symbol
_atom_site_label
_atom_site_fract_x
_atom_site_fract_y
_atom_site_fract_z
Si Si1 0.923420 0.419821 0.643991
Si Si2 0.407017 0.659403 0.670873
Si Si3 0.557352 0.419279 0.844093
Si Si4 0.011523 0.707421 0.815483
Si Si5 0.219292 0.852622 0.644342
Si Si6 0.262335 0.218020 0.173970
O O1 0.928395 0.500000 0.694895
O O2 0.811293 0.400421 0.600401
O O3 0.000000 0.410863 0.500000
O O4 0.955708 0.363348 0.774297
O O5 0.478896 0.596047 0.704954
O O6 0.470036 0.728924 0.710307
O O7 0.355625 0.656739 0.500850
O O8 0.317456 0.659834 0.794535
O O9 0.577767 0.500000 0.863993
O O10 0.656435 0.381444 0.792018
O O11 0.500000 0.393581 0.000000
O O12 0.126763 0.696874 0.791578
O O13 0.000000 0.725664 0.000000
O O14 0.259906 0.778648 0.700059
O O15 0.250000 0.250000 0.000000
#
# Coordination Sequence:
#
# PCOD9222286 Si02
#       6
#     8   8   8   8   8   8
#     4  11  26  46  68  97 139 182 227 280 336 405
#     4  12  24  40  66 102 135 175 224 282 336 405
#     4  11  25  44  67  97 136 180 226 280 343 410
#     4  12  24  42  68 100 136 177 229 284 337 405
#     4  12  24  42  70  99 136 177 225 281 339 405
#     4  12  23  40  65 100 136 173 223 281 339 400
#
# _framework density 21.590440000000001
#
# number of rings (size 3 to 8) (size 9 to 14) (size 15 to 20)
#    0.000    0.333    5.000    4.000    2.333    2.333 
#    0.000    0.833    0.000    0.000    0.000    0.000 
#    0.000    0.000    0.000    0.000    0.000    0.000 
#
# Total GULP energy -134243.346335 kJ/mol
# GULP energy per Si atom -5593.472764 kJ/mol
# Density = 2.154130 g / cm^3
# Si number density = 21.590440 Si / 1000 Ang^3
#
#
#
# Elastic Constant Matrix: (Units=GPa)
#
#
# Indices 1 2 3 4 5 6 
#
# 1 152.2609 18.6184 19.2715 0.0000 -6.5269 0.0000
# 2 18.6184 73.2257 20.0390 0.0000 5.0079 0.0000
# 3 19.2715 20.0390 95.7984 0.0000 4.5104 0.0000
# 4 0.0000 0.0000 0.0000 20.3373 0.0000 -3.4328
# 5 -6.5269 5.0079 4.5104 0.0000 41.7850 0.0000
# 6 0.0000 0.0000 0.0000 -3.4328 0.0000 32.6812
#
#
#
# Elastic Compliance Matrix: (Units=1/GPa)
#
#
# Indices 1 2 3 4 5 6 
#
# 1 0.006962 -0.001553 -0.001141 0.000000 0.001397 0.000000
# 2 -0.001553 0.014916 -0.002726 0.000000 -0.001736 0.000000
# 3 -0.001141 -0.002726 0.011289 0.000000 -0.001070 0.000000
# 4 0.000000 0.000000 0.000000 0.050058 0.000000 0.005258
# 5 0.001397 -0.001736 -0.001070 0.000000 0.024474 0.000000
# 6 0.000000 0.000000 0.000000 0.005258 0.000000 0.031151
#
#
# Mechanical properties :
#
#
# Convention : Reuss Voigt Hill
#
# Bulk Modulus (GPa) = 44.79165 48.57143 46.68154
# Shear Modulus (GPa) = 31.82023 36.51779 34.16901
#
# Velocity S-wave (km/s) = 3.84319 4.11711 3.98251
# Velocity P-wave (km/s) = 6.36275 6.71910 6.54335
#
# Compressibility (1/GPa) = 0.02232559
#
# Stress axis : x y z
#
# Youngs Moduli (GPa) = 143.63779 67.04184 88.58360
#
# Poissons Ratio (x) = 0.10414 0.10111
# Poissons Ratio (y) = 0.22312 0.24147
# Poissons Ratio (z) = 0.16394 0.18275
#
# Static dielectric constant tensor:
#      x y z
#    x 1.806460 0.000000 -0.031730 
#    y 0.000000 1.738400 0.000000 
#    z -0.031730 0.000000 1.807810 
# 
# From -- ./inp_files/50792.got.cif
#   From: 2010.05.17/outbox.cif.g08.bks.cpg/sg12_26_cif.got.tgz:50792.got - 2010.06.03 13:09:07.
