data_PCOD9222461
_publ_section_title
;
Structure prediction by ZEFSAII (Michael W. Deem and Ramdas Pophale) SiO2 
 PCOD9222461
Probable space group: C 2/M
;
_chemical_formula_sum "Si O2"
_cell_formula_units_Z 20
_cell_length_a 4.979544
_cell_length_b 29.430581
_cell_length_c 5.811506
_cell_angle_alpha 90.000000
_cell_angle_beta 96.151771
_cell_angle_gamma 90.000000
_cell_volume 846.776889
_symmetry_space_group_name_H-M "C 2/M"
_symmetry_group_IT_number 12
_symmetry_cell_setting 'monoclinic'
loop_
_space_group_symop_operation_xyz
x,y,z
-x,y,-z
-x,-y,-z
x,-y,z
1/2+x,1/2+y,z
1/2-x,1/2+y,-z
1/2-x,1/2-y,-z
1/2+x,1/2-y,z
loop_
_atom_site_type_symbol
_atom_site_label
_atom_site_fract_x
_atom_site_fract_y
_atom_site_fract_z
Si Si1 0.231433 0.000000 0.830503
Si Si2 0.500000 0.216690 0.500000
Si Si3 0.000000 0.076801 0.500000
Si Si4 0.720570 0.140775 0.845506
O O1 0.188761 0.956223 0.666844
O O2 0.500000 0.000000 0.000000
O O3 0.000000 0.000000 0.000000
O O4 0.250000 0.250000 0.500000
O O5 0.568619 0.183484 0.718160
O O6 0.820949 0.107554 0.652741
O O7 0.500000 0.120109 0.000000
O O8 0.000000 0.153542 0.000000
#
# Coordination Sequence:
#
# PCOD9222461 Si02
#       4
#     4   4   4   8
#     4  11  28  49  75 108 149 195 242 303 367 430
#     4  12  27  48  73 109 150 189 243 304 363 436
#     4  11  27  50  77 110 150 192 249 304 359 437
#     4  12  27  47  77 110 146 195 246 301 366 435
#
# _framework density 23.618970000000001
#
# number of rings (size 3 to 8) (size 9 to 14) (size 15 to 20)
#    0.000    0.400    0.000    7.200    0.000   24.000 
#    0.000    3.000    0.000    0.000    0.000    0.000 
#    0.000    0.000    0.000    0.000    0.000    0.000 
#
# Total GULP energy -56119.822732 kJ/mol
# GULP energy per Si atom -5611.982273 kJ/mol
# Density = 2.356521 g / cm^3
# Si number density = 23.618970 Si / 1000 Ang^3
#
#
#
# Elastic Constant Matrix: (Units=GPa)
#
#
# Indices 1 2 3 4 5 6 
#
# 1 229.0830 83.4322 108.4622 0.0000 8.5371 0.0000
# 2 83.4322 164.6764 98.6830 0.0000 0.0528 0.0000
# 3 108.4622 98.6830 181.1943 0.0000 10.5481 0.0000
# 4 0.0000 0.0000 0.0000 28.5495 0.0000 20.3270
# 5 8.5371 0.0528 10.5481 0.0000 70.4648 0.0000
# 6 0.0000 0.0000 0.0000 20.3270 0.0000 26.7617
#
#
#
# Elastic Compliance Matrix: (Units=1/GPa)
#
#
# Indices 1 2 3 4 5 6 
#
# 1 0.006304 -0.001400 -0.002992 0.000000 -0.000315 0.000000
# 2 -0.001400 0.009364 -0.004308 0.000000 0.000808 0.000000
# 3 -0.002992 -0.004308 0.009720 0.000000 -0.001089 0.000000
# 4 0.000000 0.000000 0.000000 0.076278 0.000000 -0.057937
# 5 -0.000315 0.000808 -0.001089 0.000000 0.014392 0.000000
# 6 0.000000 0.000000 0.000000 -0.057937 0.000000 0.081373
#
#
# Mechanical properties :
#
#
# Convention : Reuss Voigt Hill
#
# Bulk Modulus (GPa) = 125.23473 128.45649 126.84561
# Shear Modulus (GPa) = 22.98908 44.11363 33.55135
#
# Velocity S-wave (km/s) = 3.12321 4.32640 3.77308
# Velocity P-wave (km/s) = 8.13289 8.91415 8.53247
#
# Compressibility (1/GPa) = 0.00798501
#
# Stress axis : x y z
#
# Youngs Moduli (GPa) = 158.63484 106.79661 102.88078
#
# Poissons Ratio (x) = 0.14957 0.30786
# Poissons Ratio (y) = 0.22217 0.44325
# Poissons Ratio (z) = 0.47469 0.46012
#
# Static dielectric constant tensor:
#      x y z
#    x 1.835910 0.000000 -0.007570 
#    y 0.000000 1.893780 0.000000 
#    z -0.007570 0.000000 1.912790 
# 
# From -- ./inp_files/970.got.cif
#   From: 2010.05.17/outbox.cif.g08.bks.cpg/sg12_1_cif.got.tgz:970.got - 2010.06.03 13:09:07.
