data_PCOD9222890
_publ_section_title
;
Structure prediction by ZEFSAII (Michael W. Deem and Ramdas Pophale) SiO2 
 PCOD9222890
Probable space group: C 2/M
;
_chemical_formula_sum "Si O2"
_cell_formula_units_Z 48
_cell_length_a 15.572101
_cell_length_b 14.997544
_cell_length_c 14.599065
_cell_angle_alpha 90.000000
_cell_angle_beta 31.574032
_cell_angle_gamma 90.000000
_cell_volume 1785.220613
_symmetry_space_group_name_H-M "C 2/M"
_symmetry_group_IT_number 12
_symmetry_cell_setting 'monoclinic'
loop_
_space_group_symop_operation_xyz
x,y,z
-x,y,-z
-x,-y,-z
x,-y,z
1/2+x,1/2+y,z
1/2-x,1/2+y,-z
1/2-x,1/2-y,-z
1/2+x,1/2-y,z
loop_
_atom_site_type_symbol
_atom_site_label
_atom_site_fract_x
_atom_site_fract_y
_atom_site_fract_z
Si Si1 0.186783 0.796078 0.868897
Si Si2 0.413317 0.106776 0.308018
Si Si3 0.440194 0.397686 0.850219
Si Si4 0.153426 0.598802 0.929327
Si Si5 0.074328 0.107463 0.531019
Si Si6 0.314108 0.103449 0.587398
O O1 0.305952 0.847016 0.691104
O O2 0.170663 0.836817 0.984747
O O3 0.225223 0.692695 0.835164
O O4 0.000000 0.805548 0.000000
O O5 0.574207 0.114502 0.101033
O O6 0.256327 0.143081 0.393371
O O7 0.415182 0.143093 0.409669
O O8 0.387453 0.000000 0.342680
O O9 0.384218 0.500000 0.910786
O O10 0.463151 0.375607 0.722459
O O11 0.626910 0.394651 0.718693
O O12 0.233299 0.500000 0.851285
O O13 0.000000 0.589811 0.000000
O O14 0.000000 0.131956 0.500000
O O15 0.097027 0.000000 0.505933
O O16 0.356507 0.000000 0.564173
#
# Coordination Sequence:
#
# PCOD9222890 Si02
#       6
#     8   8   8   8   8   8
#     4   9  15  23  35  55  77 106 134 156 192 237
#     4   8  14  25  40  58  80 104 133 168 198 230
#     4   8  13  21  34  55  82 105 125 154 193 241
#     4   9  17  28  39  53  79 113 143 166 187 221
#     4   8  13  22  37  57  80 105 130 158 200 247
#     4   8  13  22  37  56  77 101 128 159 198 240
#
# _framework density 26.887433000000001
#
# number of rings (size 3 to 8) (size 9 to 14) (size 15 to 20)
#    0.000    3.667    0.000    2.500    0.000    2.000 
#    0.000   13.333    0.000    0.000    0.000   19.833 
#    0.000    0.667    0.000    2.000    0.000   17.500 
#
# Total GULP energy -134344.838525 kJ/mol
# GULP energy per Si atom -5597.701605 kJ/mol
# Density = 2.682624 g / cm^3
# Si number density = 26.887433 Si / 1000 Ang^3
#
#
#
# Elastic Constant Matrix: (Units=GPa)
#
#
# Indices 1 2 3 4 5 6 
#
# 1 150.2528 29.7592 42.5944 -0.0003 37.7763 0.0005
# 2 29.7592 115.9600 74.1864 0.0001 34.4245 -0.0001
# 3 42.5944 74.1864 189.5562 -0.0010 60.4424 0.0003
# 4 -0.0003 0.0001 -0.0010 -78.4578 0.0007 -5.2741
# 5 37.7763 34.4245 60.4424 0.0007 48.8312 0.0000
# 6 0.0005 -0.0001 0.0003 -5.2741 0.0000 7.3490
#
#
#
# Elastic Compliance Matrix: (Units=1/GPa)
#
#
# Indices 1 2 3 4 5 6 
#
# 1 0.008288 -0.000427 0.000418 0.000000 -0.006628 -0.000001
# 2 -0.000427 0.012070 -0.003337 0.000000 -0.004048 0.000000
# 3 0.000418 -0.003337 0.009649 0.000000 -0.009914 -0.000001
# 4 0.000000 0.000000 0.000000 -0.012159 0.000000 -0.008726
# 5 -0.006628 -0.004048 -0.009914 0.000000 0.040732 0.000001
# 6 -0.000001 0.000000 -0.000001 -0.008726 0.000001 0.129810
#
#
# Mechanical properties :
#
#
# Convention : Reuss Voigt Hill
#
# Bulk Modulus (GPa) = 42.89016 83.20544 63.04780
# Shear Modulus (GPa) = 24.64842 16.15976 20.40409
#
# Velocity S-wave (km/s) = 3.03103 2.45422 2.75775
# Velocity P-wave (km/s) = 5.31375 6.24852 5.80000
#
# Compressibility (1/GPa) = 0.02331537
#
# Stress axis : x y z
#
# Youngs Moduli (GPa) = 120.65746 82.85099 103.64034
#
# Poissons Ratio (x) = 0.03536 -0.04335
# Poissons Ratio (y) = 0.05149 0.34585
# Poissons Ratio (z) = -0.05047 0.27648
#
# Static dielectric constant tensor:
#      x y z
#    x 2.173760 0.000000 -0.029080 
#    y 0.000000 1.987250 0.000000 
#    z -0.029080 0.000000 2.098670 
# 
# From -- ./inp_files/225118.got.cif
#   From: 2010.05.17/outbox.cif.g08.bks.cpg/sg12_113_cif.got.tgz:225118.got - 2010.06.03 13:09:07.
