data_PCOD9222475
_publ_section_title
;
Structure prediction by ZEFSAII (Michael W. Deem and Ramdas Pophale) SiO2 
 PCOD9222475
Probable space group: C 2/M
;
_chemical_formula_sum "Si O2"
_cell_formula_units_Z 32
_cell_length_a 5.061768
_cell_length_b 19.582953
_cell_length_c 12.940491
_cell_angle_alpha 90.000000
_cell_angle_beta 92.753974
_cell_angle_gamma 90.000000
_cell_volume 1281.236484
_symmetry_space_group_name_H-M "C 2/M"
_symmetry_group_IT_number 12
_symmetry_cell_setting 'monoclinic'
loop_
_space_group_symop_operation_xyz
x,y,z
-x,y,-z
-x,-y,-z
x,-y,z
1/2+x,1/2+y,z
1/2-x,1/2+y,-z
1/2-x,1/2-y,-z
1/2+x,1/2-y,z
loop_
_atom_site_type_symbol
_atom_site_label
_atom_site_fract_x
_atom_site_fract_y
_atom_site_fract_z
Si Si1 0.679041 0.080237 0.106313
Si Si2 0.341417 0.870944 0.299946
Si Si3 0.547436 0.704513 0.140976
Si Si4 0.733343 0.500000 0.424570
Si Si5 0.500000 0.202616 0.500000
O O1 0.511258 0.105688 0.203193
O O2 0.926010 0.132131 0.103218
O O3 0.752686 0.000000 0.119178
O O4 0.500000 0.085949 0.000000
O O5 0.127743 0.814596 0.259908
O O6 0.510842 0.841818 0.396532
O O7 0.208926 0.936064 0.348265
O O8 0.320665 0.759694 0.112900
O O9 0.500000 0.500000 0.500000
O O10 0.000000 0.500000 0.500000
O O11 0.750000 0.250000 0.500000
#
# Coordination Sequence:
#
# PCOD9222475 Si02
#       5
#     8   8   8   4   4
#     4  11  28  54  85 123 166 220 276 342 417 496
#     4  12  27  50  82 116 165 210 273 337 414 483
#     4  12  27  50  82 117 161 213 274 335 409 485
#     4  12  30  48  77 117 157 213 268 335 410 490
#     4  12  30  47  76 113 162 210 262 328 410 484
#
# _framework density 24.975874000000001
#
# number of rings (size 3 to 8) (size 9 to 14) (size 15 to 20)
#    0.000    0.250    5.000    1.500   10.500    2.000 
#    0.000    2.500    0.000    0.000    0.000    0.000 
#    0.000    0.000    0.000    0.000    0.000    0.000 
#
# Total GULP energy -89586.057292 kJ/mol
# GULP energy per Si atom -5599.128581 kJ/mol
# Density = 2.491903 g / cm^3
# Si number density = 24.975874 Si / 1000 Ang^3
#
#
#
# Elastic Constant Matrix: (Units=GPa)
#
#
# Indices 1 2 3 4 5 6 
#
# 1 141.9735 33.2752 54.1389 0.0000 -8.7490 0.0000
# 2 33.2752 150.3829 60.1535 0.0000 -3.6549 0.0000
# 3 54.1389 60.1535 177.7494 0.0000 -23.5521 0.0000
# 4 0.0000 0.0000 0.0000 47.4367 0.0000 45.9307
# 5 -8.7490 -3.6549 -23.5521 0.0000 52.5281 0.0000
# 6 0.0000 0.0000 0.0000 45.9307 0.0000 -48.3436
#
#
#
# Elastic Compliance Matrix: (Units=1/GPa)
#
#
# Indices 1 2 3 4 5 6 
#
# 1 0.008086 -0.000941 -0.002099 0.000000 0.000340 0.000000
# 2 -0.000941 0.007823 -0.002455 0.000000 -0.000713 0.000000
# 3 -0.002099 -0.002455 0.007471 0.000000 0.002829 0.000000
# 4 0.000000 0.000000 0.000000 0.010980 0.000000 0.010432
# 5 0.000340 -0.000713 0.002829 0.000000 0.020313 0.000000
# 6 0.000000 0.000000 0.000000 0.010432 0.000000 -0.010774
#
#
# Mechanical properties :
#
#
# Convention : Reuss Voigt Hill
#
# Bulk Modulus (GPa) = 80.72131 85.02676 82.87404
# Shear Modulus (GPa) = 84.71885 31.82678 58.27282
#
# Velocity S-wave (km/s) = 5.83043 3.57361 4.83552
# Velocity P-wave (km/s) = 8.81562 7.15158 8.02683
#
# Compressibility (1/GPa) = 0.01238830
#
# Stress axis : x y z
#
# Youngs Moduli (GPa) = 123.67700 127.83326 133.85043
#
# Poissons Ratio (x) = 0.12031 0.28097
# Poissons Ratio (y) = 0.11640 0.32863
# Poissons Ratio (z) = 0.25962 0.31385
#
# Static dielectric constant tensor:
#      x y z
#    x 1.967240 0.000000 -0.016720 
#    y 0.000000 1.540280 0.000000 
#    z -0.016720 0.000000 1.968810 
# 
# From -- ./inp_files/252868.got.cif
#   From: 2010.05.17/outbox.cif.g08.bks.cpg/sg12_127_cif.got.tgz:252868.got - 2010.06.03 13:09:07.
