data_PCOD9222914
_publ_section_title
;
Structure prediction by ZEFSAII (Michael W. Deem and Ramdas Pophale) SiO2 
 PCOD9222914
Probable space group: C 2/M
;
_chemical_formula_sum "Si O2"
_cell_formula_units_Z 64
_cell_length_a 28.817742
_cell_length_b 7.531383
_cell_length_c 17.816969
_cell_angle_alpha 90.000000
_cell_angle_beta 77.037064
_cell_angle_gamma 90.000000
_cell_volume 3768.401815
_symmetry_space_group_name_H-M "C 2/M"
_symmetry_group_IT_number 12
_symmetry_cell_setting 'monoclinic'
loop_
_space_group_symop_operation_xyz
x,y,z
-x,y,-z
-x,-y,-z
x,-y,z
1/2+x,1/2+y,z
1/2-x,1/2+y,-z
1/2-x,1/2-y,-z
1/2+x,1/2-y,z
loop_
_atom_site_type_symbol
_atom_site_label
_atom_site_fract_x
_atom_site_fract_y
_atom_site_fract_z
Si Si1 0.125322 0.713290 0.326734
Si Si2 0.130698 0.794327 0.569487
Si Si3 0.053375 0.210813 0.481057
Si Si4 0.704503 0.214447 0.417585
Si Si5 0.307407 0.282037 0.324321
Si Si6 0.804474 0.710346 0.004268
Si Si7 0.172510 0.718089 0.162919
Si Si8 0.222264 0.793068 0.826404
O O1 0.124824 0.500000 0.325393
O O2 0.079886 0.768377 0.391739
O O3 0.171482 0.766417 0.358948
O O4 0.133992 0.774391 0.238602
O O5 0.088514 0.715366 0.533366
O O6 0.177574 0.787753 0.499673
O O7 0.147923 0.718098 0.642658
O O8 0.118267 0.000000 0.586859
O O9 0.000000 0.284062 0.500000
O O10 0.050024 0.000000 0.495831
O O11 0.758208 0.270945 0.383048
O O12 0.703850 0.000000 0.423066
O O13 0.309197 0.500000 0.324826
O O14 0.301999 0.221955 0.240135
O O15 0.810590 0.500000 0.007341
O O16 0.833813 0.775839 0.921153
O O17 0.750000 0.750000 0.000000
O O18 0.809026 0.781217 0.086784
O O19 0.173501 0.500000 0.161066
O O20 0.224962 0.778593 0.172801
O O21 0.231037 0.000000 0.807197
#
# Coordination Sequence:
#
# PCOD9222914 Si02
#       8
#     8   8   8   8   8   8   8   8
#     4   9  15  25  42  60  74  96 131 160 186 226
#     4   9  17  27  39  55  73  98 133 162 188 231
#     4   9  18  31  42  54  78 105 125 157 205 240
#     4   9  15  24  38  54  75 101 126 156 194 225
#     4   9  15  24  39  55  74 103 134 159 186 228
#     4   9  16  25  37  53  75 105 137 162 188 221
#     4   8  13  23  38  53  73 100 127 154 185 222
#     4   9  15  25  38  52  75 106 134 158 190 225
#
# _framework density 16.983326000000002
#
# number of rings (size 3 to 8) (size 9 to 14) (size 15 to 20)
#    0.000    3.125    1.250    1.500    0.000    0.250 
#    0.000    4.375    0.000    0.000    0.000    0.000 
#    0.000    1.000    0.000   12.500    0.000    1.000 
#
# Total GULP energy -178134.935282 kJ/mol
# GULP energy per Si atom -5566.716728 kJ/mol
# Density = 1.694467 g / cm^3
# Si number density = 16.983326 Si / 1000 Ang^3
#
#
#
# Elastic Constant Matrix: (Units=GPa)
#
#
# Indices 1 2 3 4 5 6 
#
# 1 81.8244 2.5546 72.7414 0.0000 2.1856 0.0000
# 2 2.5546 37.3206 -4.1989 0.0000 0.8899 0.0000
# 3 72.7414 -4.1989 108.6750 0.0000 15.3328 0.0000
# 4 0.0000 0.0000 0.0000 14.7298 0.0000 -3.2661
# 5 2.1856 0.8899 15.3328 0.0000 17.4715 0.0000
# 6 0.0000 0.0000 0.0000 -3.2661 0.0000 -0.0120
#
#
#
# Elastic Compliance Matrix: (Units=1/GPa)
#
#
# Indices 1 2 3 4 5 6 
#
# 1 0.035904 -0.005963 -0.027017 0.000000 0.019522 0.000000
# 2 -0.005963 0.028007 0.005900 0.000000 -0.005858 0.000000
# 3 -0.027017 0.005900 0.030906 0.000000 -0.024043 0.000000
# 4 0.000000 0.000000 0.000000 0.001109 0.000000 -0.301174
# 5 0.019522 -0.005858 -0.024043 0.000000 0.076193 0.000000
# 6 0.000000 0.000000 0.000000 -0.301174 0.000000 -1.358267
#
#
# Mechanical properties :
#
#
# Convention : Reuss Voigt Hill
#
# Bulk Modulus (GPa) = 24.59648 41.11270 32.85459
# Shear Modulus (GPa) = -4.47052 16.88605 6.20776
#
# Velocity S-wave (km/s) = -1.62420 3.15663 1.91393
# Velocity P-wave (km/s) = 3.31614 6.12748 4.92660
#
# Compressibility (1/GPa) = 0.04065623
#
# Stress axis : x y z
#
# Youngs Moduli (GPa) = 27.85208 35.70596 32.35648
#
# Poissons Ratio (x) = 0.21291 0.87417
# Poissons Ratio (y) = 0.16608 -0.19090
# Poissons Ratio (z) = 0.75248 -0.21066
#
# Static dielectric constant tensor:
#      x y z
#    x 1.560640 0.000000 0.027070 
#    y 0.000000 1.655250 0.000000 
#    z 0.027070 0.000000 1.626530 
# 
# From -- ./inp_files/294549.got.cif
#   From: 2010.05.17/outbox.cif.g08.bks.cpg/sg12_148_cif.got.tgz:294549.got - 2010.06.03 13:09:07.
