data_PCOD9222363
_publ_section_title
;
Structure prediction by ZEFSAII (Michael W. Deem and Ramdas Pophale) SiO2 
 PCOD9222363
Probable space group: C 2/M
;
_chemical_formula_sum "Si O2"
_cell_formula_units_Z 44
_cell_length_a 14.393032
_cell_length_b 22.642824
_cell_length_c 17.462414
_cell_angle_alpha 90.000000
_cell_angle_beta 23.066184
_cell_angle_gamma 90.000000
_cell_volume 2229.693308
_symmetry_space_group_name_H-M "C 2/M"
_symmetry_group_IT_number 12
_symmetry_cell_setting 'monoclinic'
loop_
_space_group_symop_operation_xyz
x,y,z
-x,y,-z
-x,-y,-z
x,-y,z
1/2+x,1/2+y,z
1/2-x,1/2+y,-z
1/2-x,1/2-y,-z
1/2+x,1/2-y,z
loop_
_atom_site_type_symbol
_atom_site_label
_atom_site_fract_x
_atom_site_fract_y
_atom_site_fract_z
Si Si1 0.000000 0.845717 0.500000
Si Si2 0.614680 0.624454 0.132544
Si Si3 0.406021 0.930354 0.484496
Si Si4 0.433834 0.066971 0.139610
Si Si5 0.264942 0.344527 0.130398
Si Si6 0.503698 0.275786 0.654538
O O1 0.771112 0.886950 0.685129
O O2 0.964070 0.806124 0.452044
O O3 0.365200 0.590442 0.316298
O O4 0.590442 0.675626 0.214349
O O5 0.676449 0.651241 0.003338
O O6 0.828361 0.581954 0.994644
O O7 0.500000 0.920224 0.500000
O O8 0.563987 0.891072 0.307844
O O9 0.427462 0.000000 0.451725
O O10 0.355200 0.000000 0.214865
O O11 0.500000 0.071863 0.000000
O O12 0.173756 0.279093 0.218338
O O13 0.500000 0.358345 0.000000
O O14 0.750000 0.250000 0.500000
#
# Coordination Sequence:
#
# PCOD9222363 Si02
#       6
#     4   8   8   8   8   8
#     4  12  27  48  72 102 145 182 232 290 354 410
#     4  12  25  48  70 107 139 184 236 286 352 415
#     4  11  25  47  71 103 142 181 236 294 349 419
#     4  11  25  47  72 103 140 185 236 287 345 413
#     4  12  27  44  72 103 138 187 230 288 355 416
#     4  12  27  45  72 103 140 182 233 288 349 416
#
# _framework density 19.733656
#
# number of rings (size 3 to 8) (size 9 to 14) (size 15 to 20)
#    0.000    0.364    5.455    2.455    6.364    1.818 
#    0.000    0.000    0.000    0.000    0.000    0.000 
#    0.000    0.000    0.000    0.000    0.000    0.000 
#
# Total GULP energy -123170.303666 kJ/mol
# GULP energy per Si atom -5598.650167 kJ/mol
# Density = 1.968874 g / cm^3
# Si number density = 19.733656 Si / 1000 Ang^3
#
#
#
# Elastic Constant Matrix: (Units=GPa)
#
#
# Indices 1 2 3 4 5 6 
#
# 1 113.7546 75.1719 77.0187 0.3107 14.0159 -0.1863
# 2 75.1719 130.8837 57.3634 -0.4238 16.7271 0.2144
# 3 77.0187 57.3634 112.2709 -0.5130 -5.7666 0.1335
# 4 0.3107 -0.4238 -0.5130 28.5577 0.0383 -8.6271
# 5 14.0159 16.7271 -5.7666 0.0383 49.8699 0.0840
# 6 -0.1863 0.2144 0.1335 -8.6271 0.0840 13.9872
#
#
#
# Elastic Compliance Matrix: (Units=1/GPa)
#
#
# Indices 1 2 3 4 5 6 
#
# 1 0.021926 -0.006709 -0.011887 -0.000469 -0.005287 0.000251
# 2 -0.006709 0.012718 -0.002029 0.000189 -0.002615 -0.000133
# 3 -0.011887 -0.002029 0.018416 0.000392 0.006151 -0.000098
# 4 -0.000469 0.000189 0.000392 0.043049 0.000036 0.026539
# 5 -0.005287 -0.002615 0.006151 0.000036 0.023126 -0.000206
# 6 0.000251 -0.000133 -0.000098 0.026539 -0.000206 0.087870
#
#
# Mechanical properties :
#
#
# Convention : Reuss Voigt Hill
#
# Bulk Modulus (GPa) = 84.67823 86.22417 85.45120
# Shear Modulus (GPa) = 19.81823 28.30666 24.06244
#
# Velocity S-wave (km/s) = 3.17248 3.79150 3.49572
# Velocity P-wave (km/s) = 7.51154 7.93449 7.72591
#
# Compressibility (1/GPa) = 0.01180941
#
# Stress axis : x y z
#
# Youngs Moduli (GPa) = 45.60770 78.62897 54.30000
#
# Poissons Ratio (x) = 0.52755 0.64548
# Poissons Ratio (y) = 0.30600 0.11016
# Poissons Ratio (z) = 0.54216 0.15951
#
# Static dielectric constant tensor:
#      x y z
#    x 1.704610 0.000040 0.002030 
#    y 0.000040 1.663720 0.000260 
#    z 0.002030 0.000260 1.664720 
# 
# From -- ./inp_files/272771.got.cif
#   From: 2010.05.17/outbox.cif.g08.bks.cpg/sg12_137_cif.got.tgz:272771.got - 2010.06.03 13:09:07.
