data_PCOD9222390
_publ_section_title
;
Structure prediction by ZEFSAII (Michael W. Deem and Ramdas Pophale) SiO2 
 PCOD9222390
Probable space group: C 2/M
;
_chemical_formula_sum "Si O2"
_cell_formula_units_Z 38
_cell_length_a 12.129376
_cell_length_b 16.861921
_cell_length_c 7.295386
_cell_angle_alpha 90.000000
_cell_angle_beta 86.857398
_cell_angle_gamma 90.000000
_cell_volume 1489.841935
_symmetry_space_group_name_H-M "C 2/M"
_symmetry_group_IT_number 12
_symmetry_cell_setting 'monoclinic'
loop_
_space_group_symop_operation_xyz
x,y,z
-x,y,-z
-x,-y,-z
x,-y,z
1/2+x,1/2+y,z
1/2-x,1/2+y,-z
1/2-x,1/2-y,-z
1/2+x,1/2-y,z
loop_
_atom_site_type_symbol
_atom_site_label
_atom_site_fract_x
_atom_site_fract_y
_atom_site_fract_z
Si Si1 0.102338 0.592564 0.736405
Si Si2 0.325927 0.321337 0.771255
Si Si3 0.365745 0.858389 0.684939
Si Si4 0.000000 0.000000 0.000000
Si Si5 0.626811 0.645808 0.830589
Si Si6 0.000000 0.157154 0.500000
O O1 0.114738 0.500000 0.785336
O O2 0.202780 0.645587 0.802069
O O3 0.118225 0.603797 0.515698
O O4 0.022967 0.621021 0.215520
O O5 0.344392 0.236240 0.676286
O O6 0.397133 0.378270 0.628527
O O7 0.369038 0.311369 0.974019
O O8 0.249759 0.884262 0.777269
O O9 0.943746 0.931605 0.130767
O O10 0.569791 0.692520 0.667176
#
# Coordination Sequence:
#
# PCOD9222390 Si02
#       6
#     8   8   8   2   8   4
#     4  11  26  47  79 122 157 209 269 322 399 475
#     4  12  26  48  79 118 153 204 270 322 387 477
#     4  11  25  48  79 111 160 207 260 324 394 467
#     4  12  28  46  72 112 154 194 264 306 394 472
#     4  12  28  47  76 114 154 201 265 319 393 469
#     4  12  24  49  76 108 153 206 246 336 386 458
#
# _framework density 25.506062
#
# number of rings (size 3 to 8) (size 9 to 14) (size 15 to 20)
#    0.000    0.421    4.211    3.789    7.368    1.263 
#    3.789    1.053    0.000    0.000    0.000    0.000 
#    0.000    0.000    0.000    0.000    0.000    0.000 
#
# Total GULP energy -105833.028389 kJ/mol
# GULP energy per Si atom -5570.159389 kJ/mol
# Density = 2.544801 g / cm^3
# Si number density = 25.506062 Si / 1000 Ang^3
#
#
#
# Elastic Constant Matrix: (Units=GPa)
#
#
# Indices 1 2 3 4 5 6 
#
# 1 187.7778 39.8493 49.9815 0.0000 9.8425 0.0000
# 2 39.8493 127.6232 1.2566 0.0000 5.2169 0.0000
# 3 49.9815 1.2566 140.2436 0.0000 19.8617 0.0000
# 4 0.0000 0.0000 0.0000 16.9418 0.0000 -4.9136
# 5 9.8425 5.2169 19.8617 0.0000 34.6973 0.0000
# 6 0.0000 0.0000 0.0000 -4.9136 0.0000 38.0432
#
#
#
# Elastic Compliance Matrix: (Units=1/GPa)
#
#
# Indices 1 2 3 4 5 6 
#
# 1 0.006339 -0.001948 -0.002207 0.000000 -0.000242 0.000000
# 2 -0.001948 0.008484 0.000784 0.000000 -0.001172 0.000000
# 3 -0.002207 0.000784 0.008530 0.000000 -0.004374 0.000000
# 4 0.000000 0.000000 0.000000 0.061323 0.000000 0.007920
# 5 -0.000242 -0.001172 -0.004374 0.000000 0.031569 0.000000
# 6 0.000000 0.000000 0.000000 0.007920 0.000000 0.027309
#
#
# Mechanical properties :
#
#
# Convention : Reuss Voigt Hill
#
# Bulk Modulus (GPa) = 60.20321 70.86884 65.53603
# Shear Modulus (GPa) = 32.08572 42.24027 37.16299
#
# Velocity S-wave (km/s) = 3.55063 4.07392 3.82124
# Velocity P-wave (km/s) = 6.36113 7.06927 6.72453
#
# Compressibility (1/GPa) = 0.01661041
#
# Stress axis : x y z
#
# Youngs Moduli (GPa) = 157.75316 117.87026 117.23807
#
# Poissons Ratio (x) = 0.22957 0.25880
# Poissons Ratio (y) = 0.30725 -0.09193
# Poissons Ratio (z) = 0.34824 -0.09242
#
# Static dielectric constant tensor:
#      x y z
#    x 2.127810 0.000000 0.021710 
#    y 0.000000 2.019640 0.000000 
#    z 0.021710 0.000000 2.029110 
# 
# From -- ./inp_files/15245.got.cif
#   From: 2010.05.17/outbox.cif.g08.bks.cpg/sg12_8_cif.got.tgz:15245.got - 2010.06.03 13:09:07.
