data_PCOD9222368
_publ_section_title
;
Structure prediction by ZEFSAII (Michael W. Deem and Ramdas Pophale) SiO2 
 PCOD9222368
Probable space group: C 2/M
;
_chemical_formula_sum "Si O2"
_cell_formula_units_Z 40
_cell_length_a 17.474734
_cell_length_b 15.175904
_cell_length_c 8.728431
_cell_angle_alpha 90.000000
_cell_angle_beta 122.404466
_cell_angle_gamma 90.000000
_cell_volume 1954.298938
_symmetry_space_group_name_H-M "C 2/M"
_symmetry_group_IT_number 12
_symmetry_cell_setting 'monoclinic'
loop_
_space_group_symop_operation_xyz
x,y,z
-x,y,-z
-x,-y,-z
x,-y,z
1/2+x,1/2+y,z
1/2-x,1/2+y,-z
1/2-x,1/2-y,-z
1/2+x,1/2-y,z
loop_
_atom_site_type_symbol
_atom_site_label
_atom_site_fract_x
_atom_site_fract_y
_atom_site_fract_z
Si Si1 0.394385 0.601727 0.250214
Si Si2 0.279451 0.153244 0.096188
Si Si3 0.088590 0.894737 0.390729
Si Si4 0.405364 0.000000 0.096754
Si Si5 0.379522 0.000000 0.703160
Si Si6 0.759966 0.656539 0.428574
O O1 0.416011 0.500000 0.299819
O O2 0.373345 0.634592 0.400329
O O3 0.486522 0.642429 0.281534
O O4 0.312317 0.603729 0.047308
O O5 0.358912 0.089989 0.113671
O O6 0.293424 0.161345 0.291471
O O7 0.250000 0.250000 0.000000
O O8 0.155113 0.872448 0.325214
O O9 0.087112 0.000000 0.385390
O O10 0.514772 0.000000 0.237155
O O11 0.383750 0.000000 0.892047
O O12 0.323187 0.914478 0.584359
O O13 0.750000 0.750000 0.500000
#
# Coordination Sequence:
#
# PCOD9222368 Si02
#       6
#     8   8   8   4   4   8
#     4   9  18  35  61  90 122 159 198 248 311 375
#     4  12  25  41  65  96 131 173 219 271 327 393
#     4   9  18  35  61  90 122 159 198 248 311 375
#     4  11  25  47  72  97 132 177 225 280 340 403
#     4  11  25  47  72  97 132 177 225 280 340 403
#     4  12  25  41  65  96 131 173 219 271 327 393
#
# _framework density 20.467697999999999
#
# number of rings (size 3 to 8) (size 9 to 14) (size 15 to 20)
#    0.000    1.400    2.000    5.400    0.000    4.000 
#    0.000    2.000    0.000    0.000    0.000    0.000 
#    0.000    0.000    0.000    0.000    0.000    0.000 
#
# Total GULP energy -111336.983375 kJ/mol
# GULP energy per Si atom -5566.849169 kJ/mol
# Density = 2.042111 g / cm^3
# Si number density = 20.467698 Si / 1000 Ang^3
#
#
#
# Elastic Constant Matrix: (Units=GPa)
#
#
# Indices 1 2 3 4 5 6 
#
# 1 128.8668 54.4649 32.8211 0.0000 -8.6013 0.0000
# 2 54.4649 115.0589 22.4955 0.0000 -8.4953 0.0000
# 3 32.8211 22.4955 53.1291 0.0000 -7.9822 0.0000
# 4 0.0000 0.0000 0.0000 11.8394 0.0000 -21.1288
# 5 -8.6013 -8.4953 -7.9822 0.0000 31.0571 0.0000
# 6 0.0000 0.0000 0.0000 -21.1288 0.0000 4.7348
#
#
#
# Elastic Compliance Matrix: (Units=1/GPa)
#
#
# Indices 1 2 3 4 5 6 
#
# 1 0.010764 -0.004108 -0.004817 0.000000 0.000619 0.000000
# 2 -0.004108 0.011123 -0.001961 0.000000 0.001401 0.000000
# 3 -0.004817 -0.001961 0.023245 0.000000 0.004104 0.000000
# 4 0.000000 0.000000 0.000000 -0.012129 0.000000 -0.054125
# 5 0.000619 0.001401 0.004104 0.000000 0.033808 0.000000
# 6 0.000000 0.000000 0.000000 -0.054125 0.000000 -0.030329
#
#
# Mechanical properties :
#
#
# Convention : Reuss Voigt Hill
#
# Bulk Modulus (GPa) = 42.81038 57.40198 50.10618
# Shear Modulus (GPa) = 75.70894 22.01114 48.86004
#
# Velocity S-wave (km/s) = 6.08850 3.28290 4.89118
# Velocity P-wave (km/s) = 8.38975 6.51736 7.51212
#
# Compressibility (1/GPa) = 0.02335882
#
# Stress axis : x y z
#
# Youngs Moduli (GPa) = 92.89853 89.90692 43.01977
#
# Poissons Ratio (x) = 0.36933 0.20725
# Poissons Ratio (y) = 0.38162 0.08438
# Poissons Ratio (z) = 0.44753 0.17634
#
# Static dielectric constant tensor:
#      x y z
#    x 1.829870 0.000000 0.003440 
#    y 0.000000 1.614880 0.000000 
#    z 0.003440 0.000000 1.729170 
# 
# From -- ./inp_files/73367.got.cif
#   From: 2010.05.17/outbox.cif.g08.bks.cpg/sg12_37_cif.got.tgz:73367.got - 2010.06.03 13:09:07.
