data_PCOD9222501
_publ_section_title
;
Structure prediction by ZEFSAII (Michael W. Deem and Ramdas Pophale) SiO2 
 PCOD9222501
Probable space group: C 2/M
;
_chemical_formula_sum "Si O2"
_cell_formula_units_Z 34
_cell_length_a 16.971524
_cell_length_b 12.944317
_cell_length_c 14.650866
_cell_angle_alpha 90.000000
_cell_angle_beta 156.215493
_cell_angle_gamma 90.000000
_cell_volume 1298.043391
_symmetry_space_group_name_H-M "C 2/M"
_symmetry_group_IT_number 12
_symmetry_cell_setting 'monoclinic'
loop_
_space_group_symop_operation_xyz
x,y,z
-x,y,-z
-x,-y,-z
x,-y,z
1/2+x,1/2+y,z
1/2-x,1/2+y,-z
1/2-x,1/2-y,-z
1/2+x,1/2-y,z
loop_
_atom_site_type_symbol
_atom_site_label
_atom_site_fract_x
_atom_site_fract_y
_atom_site_fract_z
Si Si1 0.975381 0.111645 0.827123
Si Si2 0.002587 0.611503 0.306658
Si Si3 0.455051 0.162708 0.854316
Si Si4 0.984460 0.836617 0.335762
Si Si5 0.500000 0.500000 0.500000
O O1 0.738846 0.113376 0.567646
O O2 0.022954 0.217856 0.927491
O O3 0.054619 0.122139 0.807546
O O4 0.030528 0.000000 0.924374
O O5 0.936168 0.500000 0.270761
O O6 0.968220 0.620577 0.161207
O O7 0.932414 0.715643 0.281364
O O8 0.220575 0.155835 0.595990
O O9 0.500000 0.114682 0.000000
O O10 0.911682 0.909311 0.338355
#
# Coordination Sequence:
#
# PCOD9222501 Si02
#       5
#     8   8   8   8   2
#     4   8  13  27  47  68  97 123 153 192 231 277
#     4   8  15  29  48  68  95 124 151 193 235 275
#     4   9  17  27  45  77 102 115 147 199 247 275
#     4   9  18  30  47  72  92 123 162 188 230 271
#     4  12  20  32  52  68  90 124 168 200 208 272
#
# _framework density 26.193269000000001
#
# number of rings (size 3 to 8) (size 9 to 14) (size 15 to 20)
#    0.000    3.294    1.176    2.824    1.647    0.941 
#    0.000    0.588    0.000    5.647    0.000    0.000 
#    0.000    0.000    0.000    0.000    0.000    0.000 
#
# Total GULP energy -94844.590377 kJ/mol
# GULP energy per Si atom -5579.093552 kJ/mol
# Density = 2.613365 g / cm^3
# Si number density = 26.193269 Si / 1000 Ang^3
#
#
#
# Elastic Constant Matrix: (Units=GPa)
#
#
# Indices 1 2 3 4 5 6 
#
# 1 96.9596 27.0803 40.9325 -0.0001 -0.3969 -0.0001
# 2 27.0803 244.1826 15.5805 0.0000 -23.0857 -0.0002
# 3 40.9325 15.5805 80.0201 -0.0001 -6.8641 0.0000
# 4 -0.0001 0.0000 -0.0001 -27.0066 -0.0001 4.4958
# 5 -0.3969 -23.0857 -6.8641 -0.0001 45.3706 -0.0001
# 6 -0.0001 -0.0002 0.0000 4.4958 -0.0001 -2.7077
#
#
#
# Elastic Compliance Matrix: (Units=1/GPa)
#
#
# Indices 1 2 3 4 5 6 
#
# 1 0.013521 -0.001209 -0.006812 0.000000 -0.001528 -0.000001
# 2 -0.001209 0.004445 -0.000055 0.000000 0.002243 -0.000001
# 3 -0.006812 -0.000055 0.016195 0.000000 0.002363 0.000000
# 4 0.000000 0.000000 0.000000 -0.051172 0.000000 -0.084965
# 5 -0.001528 0.002243 0.002363 0.000000 0.023526 -0.000002
# 6 -0.000001 -0.000001 0.000000 -0.084965 -0.000002 -0.510390
#
#
# Mechanical properties :
#
#
# Convention : Reuss Voigt Hill
#
# Bulk Modulus (GPa) = 55.52746 65.37209 60.44978
# Shear Modulus (GPa) = -10.37944 25.63587 7.62822
#
# Velocity S-wave (km/s) = -1.99280 3.13184 1.70839
# Velocity P-wave (km/s) = 3.99377 6.17169 5.19807
#
# Compressibility (1/GPa) = 0.01800911
#
# Stress axis : x y z
#
# Youngs Moduli (GPa) = 73.96048 224.97549 61.74908
#
# Poissons Ratio (x) = 0.27205 0.42062
# Poissons Ratio (y) = 0.08944 0.00337
# Poissons Ratio (z) = 0.50380 0.01226
#
# Static dielectric constant tensor:
#      x y z
#    x 2.069210 0.000000 0.104710 
#    y 0.000000 2.013810 0.000000 
#    z 0.104710 0.000000 2.036440 
# 
# From -- ./inp_files/111409.got.cif
#   From: 2010.05.17/outbox.cif.g08.bks.cpg/sg12_56_cif.got.tgz:111409.got - 2010.06.03 13:09:07.
