data_PCOD9222710
_publ_section_title
;
Structure prediction by ZEFSAII (Michael W. Deem and Ramdas Pophale) SiO2 
 PCOD9222710
Probable space group: C 2/M
;
_chemical_formula_sum "Si O2"
_cell_formula_units_Z 32
_cell_length_a 9.010174
_cell_length_b 20.301716
_cell_length_c 12.351097
_cell_angle_alpha 90.000000
_cell_angle_beta 140.448388
_cell_angle_gamma 90.000000
_cell_volume 1438.653236
_symmetry_space_group_name_H-M "C 2/M"
_symmetry_group_IT_number 12
_symmetry_cell_setting 'monoclinic'
loop_
_space_group_symop_operation_xyz
x,y,z
-x,y,-z
-x,-y,-z
x,-y,z
1/2+x,1/2+y,z
1/2-x,1/2+y,-z
1/2-x,1/2-y,-z
1/2+x,1/2-y,z
loop_
_atom_site_type_symbol
_atom_site_label
_atom_site_fract_x
_atom_site_fract_y
_atom_site_fract_z
Si Si1 0.903769 0.073566 0.227763
Si Si2 0.023053 0.574374 0.182928
Si Si3 0.858902 0.287106 0.168218
Si Si4 0.726667 0.689776 0.327611
O O1 0.770791 0.090276 0.265057
O O2 0.089732 0.123834 0.284826
O O3 0.001876 0.000000 0.292633
O O4 0.684397 0.070915 0.022423
O O5 0.038326 0.500000 0.238991
O O6 0.939524 0.637273 0.201737
O O7 0.704970 0.288551 0.189397
O O8 0.092078 0.245607 0.317506
O O9 0.750000 0.250000 0.000000
O O10 0.000000 0.683249 0.500000
#
# Coordination Sequence:
#
# PCOD9222710 Si02
#       4
#     8   8   8   8
#     4   9  19  38  64  94 127 164 209 258 314 374
#     4   9  19  38  66  95 123 159 211 270 309 358
#     4  12  24  40  66  95 124 166 218 262 307 375
#     4  12  26  42  62  92 134 171 204 261 323 377
#
# _framework density 22.243024999999999
#
# number of rings (size 3 to 8) (size 9 to 14) (size 15 to 20)
#    0.000    1.500    2.500    4.500    3.500    1.500 
#    0.000    2.500    0.000    3.750    0.000    0.000 
#    0.000    0.000    0.000    0.000    0.000    0.000 
#
# Total GULP energy -89228.971076 kJ/mol
# GULP energy per Si atom -5576.810692 kJ/mol
# Density = 2.219240 g / cm^3
# Si number density = 22.243025 Si / 1000 Ang^3
#
#
#
# Elastic Constant Matrix: (Units=GPa)
#
#
# Indices 1 2 3 4 5 6 
#
# 1 107.1289 65.9001 27.9777 0.0000 23.9522 0.0000
# 2 65.9001 122.4133 20.5368 0.0000 22.8988 0.0000
# 3 27.9777 20.5368 100.4674 0.0000 19.2013 0.0000
# 4 0.0000 0.0000 0.0000 -4.8191 0.0000 14.1747
# 5 23.9522 22.8988 19.2013 0.0000 35.0007 0.0000
# 6 0.0000 0.0000 0.0000 14.1747 0.0000 43.5597
#
#
#
# Elastic Compliance Matrix: (Units=1/GPa)
#
#
# Indices 1 2 3 4 5 6 
#
# 1 0.015181 -0.006958 -0.001888 0.000000 -0.004801 0.000000
# 2 -0.006958 0.012559 0.000034 0.000000 -0.003474 0.000000
# 3 -0.001888 0.000034 0.011428 0.000000 -0.005000 0.000000
# 4 0.000000 0.000000 0.000000 -0.106026 0.000000 0.034502
# 5 -0.004801 -0.003474 -0.005000 0.000000 0.036872 0.000000
# 6 0.000000 0.000000 0.000000 0.034502 0.000000 0.011730
#
#
# Mechanical properties :
#
#
# Convention : Reuss Voigt Hill
#
# Bulk Modulus (GPa) = 46.41391 62.09319 54.25355
# Shear Modulus (GPa) = 763.60230 29.12126 396.36178
#
# Velocity S-wave (km/s) = 18.54845 3.62226 13.36349
# Velocity P-wave (km/s) = 21.90065 6.74320 16.20354
#
# Compressibility (1/GPa) = 0.02154527
#
# Stress axis : x y z
#
# Youngs Moduli (GPa) = 65.87146 79.62569 87.50666
#
# Poissons Ratio (x) = 0.55402 0.16518
# Poissons Ratio (y) = 0.45832 -0.00300
# Poissons Ratio (z) = 0.12434 -0.00273
#
# Static dielectric constant tensor:
#      x y z
#    x 1.830720 0.000000 -0.055130 
#    y 0.000000 1.840900 0.000000 
#    z -0.055130 0.000000 1.916420 
# 
# From -- ./inp_files/37514.got.cif
#   From: 2010.05.17/outbox.cif.g08.bks.cpg/sg12_19_cif.got.tgz:37514.got - 2010.06.03 13:09:07.
