data_PCOD9222028
_publ_section_title
;
Structure prediction by ZEFSAII (Michael W. Deem and Ramdas Pophale) SiO2 
 PCOD9222028
Probable space group: C 2/M
;
_chemical_formula_sum "Si O2"
_cell_formula_units_Z 56
_cell_length_a 24.148196
_cell_length_b 13.809081
_cell_length_c 8.657643
_cell_angle_alpha 90.000000
_cell_angle_beta 54.007243
_cell_angle_gamma 90.000000
_cell_volume 2335.859249
_symmetry_space_group_name_H-M "C 2/M"
_symmetry_group_IT_number 12
_symmetry_cell_setting 'monoclinic'
loop_
_space_group_symop_operation_xyz
x,y,z
-x,y,-z
-x,-y,-z
x,-y,z
1/2+x,1/2+y,z
1/2-x,1/2+y,-z
1/2-x,1/2-y,-z
1/2+x,1/2-y,z
loop_
_atom_site_type_symbol
_atom_site_label
_atom_site_fract_x
_atom_site_fract_y
_atom_site_fract_z
Si Si1 0.720359 0.115721 0.805098
Si Si2 0.214121 0.883068 0.632873
Si Si3 0.638623 0.391041 0.270452
Si Si4 0.024842 0.313948 0.795071
Si Si5 0.425346 0.388904 0.278743
Si Si6 0.156576 0.615384 0.410378
Si Si7 0.601713 0.801802 0.181887
O O1 0.748179 0.140569 0.590157
O O2 0.781521 0.130786 0.828327
O O3 0.705960 0.000000 0.829532
O O4 0.653828 0.174306 0.959536
O O5 0.135120 0.857225 0.740077
O O6 0.266086 0.849881 0.680212
O O7 0.211574 0.000000 0.645612
O O8 0.631850 0.500000 0.219725
O O9 0.606337 0.389244 0.495651
O O10 0.603663 0.311040 0.222987
O O11 0.021043 0.197045 0.809072
O O12 0.101233 0.343224 0.622081
O O13 0.972081 0.340573 0.746567
O O14 0.000000 0.353867 0.000000
O O15 0.446183 0.500000 0.214635
O O16 0.155777 0.500000 0.424668
O O17 0.131510 0.646583 0.284214
#
# Coordination Sequence:
#
# PCOD9222028 Si02
#       7
#     8   8   8   8   8   8   8
#     4   9  18  36  62  93 126 159 197 245 305 366
#     4   8  17  38  67  94 120 157 202 248 309 368
#     4   9  19  38  64  92 122 158 202 253 309 364
#     4  12  27  43  59  88 125 168 213 245 299 372
#     4   9  19  41  68  92 122 159 203 256 305 361
#     4  11  24  42  64  93 124 159 205 258 307 356
#     4  12  23  39  61  91 129 163 204 249 301 363
#
# _framework density 23.974046999999999
#
# number of rings (size 3 to 8) (size 9 to 14) (size 15 to 20)
#    0.000    2.000    1.429    3.857    0.000    3.429 
#    5.143    1.429    0.000    0.000    0.000    0.000 
#    0.000    0.000    0.000    0.000    0.000    0.000 
#
# Total GULP energy -156721.515467 kJ/mol
# GULP energy per Si atom -5597.196981 kJ/mol
# Density = 2.391948 g / cm^3
# Si number density = 23.974047 Si / 1000 Ang^3
#
#
#
# Elastic Constant Matrix: (Units=GPa)
#
#
# Indices 1 2 3 4 5 6 
#
# 1 104.9066 9.8335 5.3676 0.0000 23.4366 0.0000
# 2 9.8335 80.9547 0.0459 0.0000 11.8949 0.0000
# 3 5.3676 0.0459 38.0157 0.0000 -0.0050 0.0000
# 4 0.0000 0.0000 0.0000 509.0553 0.0000 -20.1489
# 5 23.4366 11.8949 -0.0050 0.0000 22.9166 0.0000
# 6 0.0000 0.0000 0.0000 -20.1489 0.0000 25.7485
#
#
#
# Elastic Compliance Matrix: (Units=1/GPa)
#
#
# Indices 1 2 3 4 5 6 
#
# 1 0.012484 0.000390 -0.001765 0.000000 -0.012970 0.000000
# 2 0.000390 0.013385 -0.000072 0.000000 -0.007347 0.000000
# 3 -0.001765 -0.000072 0.026554 0.000000 0.001848 0.000000
# 4 0.000000 0.000000 0.000000 0.002027 0.000000 0.001586
# 5 -0.012970 -0.007347 0.001848 0.000000 0.060714 0.000000
# 6 0.000000 0.000000 0.000000 0.001586 0.000000 0.040079
#
#
# Mechanical properties :
#
#
# Convention : Reuss Voigt Hill
#
# Bulk Modulus (GPa) = 20.19012 28.26345 24.22678
# Shear Modulus (GPa) = 28.62939 125.45275 77.04107
#
# Velocity S-wave (km/s) = 3.45944 7.24170 5.67494
# Velocity P-wave (km/s) = 4.93933 9.04089 7.28473
#
# Compressibility (1/GPa) = 0.04952917
#
# Stress axis : x y z
#
# Youngs Moduli (GPa) = 80.10569 74.71237 37.65854
#
# Poissons Ratio (x) = -0.02916 0.06646
# Poissons Ratio (y) = -0.03127 0.00272
# Poissons Ratio (z) = 0.14137 0.00540
#
# Static dielectric constant tensor:
#      x y z
#    x 1.889840 0.000000 0.007350 
#    y 0.000000 1.918900 0.000000 
#    z 0.007350 0.000000 1.912060 
# 
# From -- ./inp_files/96782.got.cif
#   From: 2010.05.17/outbox.cif.g08.bks.cpg/sg12_49_cif.got.tgz:96782.got - 2010.06.03 13:09:07.
