data_PCOD9222640
_publ_section_title
;
Structure prediction by ZEFSAII (Michael W. Deem and Ramdas Pophale) SiO2 
 PCOD9222640
Probable space group: C 2/M
;
_chemical_formula_sum "Si O2"
_cell_formula_units_Z 48
_cell_length_a 14.623636
_cell_length_b 35.405237
_cell_length_c 11.382453
_cell_angle_alpha 90.000000
_cell_angle_beta 29.425096
_cell_angle_gamma 90.000000
_cell_volume 2895.292958
_symmetry_space_group_name_H-M "C 2/M"
_symmetry_group_IT_number 12
_symmetry_cell_setting 'monoclinic'
loop_
_space_group_symop_operation_xyz
x,y,z
-x,y,-z
-x,-y,-z
x,-y,z
1/2+x,1/2+y,z
1/2-x,1/2+y,-z
1/2-x,1/2-y,-z
1/2+x,1/2-y,z
loop_
_atom_site_type_symbol
_atom_site_label
_atom_site_fract_x
_atom_site_fract_y
_atom_site_fract_z
Si Si1 0.251631 0.294242 0.527759
Si Si2 0.114244 0.797986 0.990467
Si Si3 0.722839 0.714398 0.235316
Si Si4 0.896763 0.334077 0.834594
Si Si5 0.540800 0.910747 0.329707
Si Si6 0.785535 0.045094 0.220495
O O1 0.250000 0.250000 0.500000
O O2 0.208580 0.298229 0.712921
O O3 0.100883 0.315802 0.618370
O O4 0.460400 0.305441 0.262550
O O5 0.182794 0.754487 0.904470
O O6 0.291786 0.821381 0.833485
O O7 0.000000 0.807001 0.000000
O O8 0.500000 0.719541 0.500000
O O9 0.782759 0.684423 0.070021
O O10 0.914004 0.379310 0.815141
O O11 0.500000 0.889577 0.500000
O O12 0.353868 0.935804 0.528270
O O13 0.706675 0.938518 0.185175
O O14 0.765839 0.000000 0.245213
O O15 0.000000 0.055156 0.000000
#
# Coordination Sequence:
#
# PCOD9222640 Si02
#       6
#     8   8   8   8   8   8
#     4  12  23  40  55  71  95 139 194 252 288 330
#     4  12  25  35  55  74  97 136 193 244 292 329
#     4  12  23  41  55  70  97 139 199 244 288 336
#     4  12  24  37  53  76 109 144 177 239 286 331
#     4   8  20  31  47  81 117 138 170 208 264 321
#     4   8  15  33  59  81 116 151 171 201 256 338
#
# _framework density 16.578633
#
# number of rings (size 3 to 8) (size 9 to 14) (size 15 to 20)
#    1.000    0.167    5.000    3.000    2.333    2.000 
#    0.000    0.000    0.000    0.000    0.000    0.000 
#    0.000   13.333    0.000    0.000    0.000    0.000 
#
# Total GULP energy -133636.452192 kJ/mol
# GULP energy per Si atom -5568.185508 kJ/mol
# Density = 1.654090 g / cm^3
# Si number density = 16.578633 Si / 1000 Ang^3
#
#
#
# Elastic Constant Matrix: (Units=GPa)
#
#
# Indices 1 2 3 4 5 6 
#
# 1 83.3402 44.3145 40.7671 0.0000 -20.1351 0.0000
# 2 44.3145 82.6253 45.0429 0.0000 -14.9878 0.0000
# 3 40.7671 45.0429 101.0048 0.0000 -24.8341 0.0000
# 4 0.0000 0.0000 0.0000 14.9123 0.0000 11.0754
# 5 -20.1351 -14.9878 -24.8341 0.0000 38.0087 0.0000
# 6 0.0000 0.0000 0.0000 11.0754 0.0000 2.8460
#
#
#
# Elastic Compliance Matrix: (Units=1/GPa)
#
#
# Indices 1 2 3 4 5 6 
#
# 1 0.018624 -0.007471 -0.002959 0.000000 0.004987 0.000000
# 2 -0.007471 0.019111 -0.005513 0.000000 -0.000024 0.000000
# 3 -0.002959 -0.005513 0.015051 0.000000 0.006093 0.000000
# 4 0.000000 0.000000 0.000000 -0.035476 0.000000 0.138056
# 5 0.004987 -0.000024 0.006093 0.000000 0.032923 0.000000
# 6 0.000000 0.000000 0.000000 0.138056 0.000000 -0.185883
#
#
# Mechanical properties :
#
#
# Convention : Reuss Voigt Hill
#
# Bulk Modulus (GPa) = 47.84685 58.57993 53.21339
# Shear Modulus (GPa) = -51.65379 20.27647 -15.68866
#
# Velocity S-wave (km/s) = -5.58789 3.50100 -3.07957
# Velocity P-wave (km/s) = 3.56503 7.19403 4.41840
#
# Compressibility (1/GPa) = 0.02090002
#
# Stress axis : x y z
#
# Youngs Moduli (GPa) = 53.69496 52.32691 66.43906
#
# Poissons Ratio (x) = 0.39092 0.19661
# Poissons Ratio (y) = 0.40114 0.36627
# Poissons Ratio (z) = 0.15890 0.28847
#
# Static dielectric constant tensor:
#      x y z
#    x 1.604420 0.000000 -0.000680 
#    y 0.000000 1.541150 0.000000 
#    z -0.000680 0.000000 1.628650 
# 
# From -- ./inp_files/150192.got.cif
#   From: 2010.05.17/outbox.cif.g08.bks.cpg/sg12_76_cif.got.tgz:150192.got - 2010.06.03 13:09:07.
