data_PCOD9222399
_publ_section_title
;
Structure prediction by ZEFSAII (Michael W. Deem and Ramdas Pophale) SiO2 
 PCOD9222399
Probable space group: C 2/M
;
_chemical_formula_sum "Si O2"
_cell_formula_units_Z 40
_cell_length_a 12.104917
_cell_length_b 12.845939
_cell_length_c 22.546406
_cell_angle_alpha 90.000000
_cell_angle_beta 32.744601
_cell_angle_gamma 90.000000
_cell_volume 1896.348429
_symmetry_space_group_name_H-M "C 2/M"
_symmetry_group_IT_number 12
_symmetry_cell_setting 'monoclinic'
loop_
_space_group_symop_operation_xyz
x,y,z
-x,y,-z
-x,-y,-z
x,-y,z
1/2+x,1/2+y,z
1/2-x,1/2+y,-z
1/2-x,1/2-y,-z
1/2+x,1/2-y,z
loop_
_atom_site_type_symbol
_atom_site_label
_atom_site_fract_x
_atom_site_fract_y
_atom_site_fract_z
Si Si1 0.701052 0.500000 0.501277
Si Si2 0.160744 0.113804 0.175476
Si Si3 0.891792 0.272022 0.244498
Si Si4 0.931307 0.384462 0.934577
Si Si5 0.766288 0.000000 0.656191
Si Si6 0.464450 0.117919 0.585796
O O1 0.457855 0.500000 0.615792
O O2 0.711012 0.500000 0.425526
O O3 0.821793 0.598188 0.475788
O O4 0.340289 0.120145 0.141656
O O5 0.999979 0.206051 0.247306
O O6 0.062296 0.000000 0.225356
O O7 0.279562 0.118269 0.058696
O O8 0.834591 0.388353 0.287739
O O9 0.692223 0.203340 0.318447
O O10 0.056921 0.292701 0.118014
O O11 0.899920 0.500000 0.921553
O O12 0.500000 0.141189 0.500000
O O13 0.373332 0.000000 0.630769
#
# Coordination Sequence:
#
# PCOD9222399 Si02
#       6
#     4   8   8   8   4   8
#     4   9  23  48  56  81 123 153 202 236 307 350
#     4   9  20  37  63  84 119 152 200 238 284 340
#     4  12  22  36  61  91 117 152 198 239 292 350
#     4   9  19  39  57  89 119 156 188 242 290 338
#     4  11  26  38  58  89 121 162 185 246 303 353
#     4   9  22  43  64  85 112 151 206 248 289 344
#
# _framework density 21.093170000000001
#
# number of rings (size 3 to 8) (size 9 to 14) (size 15 to 20)
#    0.600    1.600    1.000    2.400    5.600    2.400 
#    0.000    0.000    0.000    1.200    0.000    0.000 
#    0.000    0.000    0.000    0.000    0.000    0.000 
#
# Total GULP energy -111338.798761 kJ/mol
# GULP energy per Si atom -5566.939938 kJ/mol
# Density = 2.104516 g / cm^3
# Si number density = 21.093170 Si / 1000 Ang^3
#
#
#
# Elastic Constant Matrix: (Units=GPa)
#
#
# Indices 1 2 3 4 5 6 
#
# 1 67.6548 17.9513 4.0460 0.0003 -8.7995 0.0000
# 2 17.9513 119.8605 31.5918 0.0002 -10.4222 0.0000
# 3 4.0460 31.5918 32.4084 0.0007 4.2057 0.0002
# 4 0.0003 0.0002 0.0007 7.0858 -0.0002 -18.3533
# 5 -8.7995 -10.4222 4.2057 -0.0002 35.2968 0.0000
# 6 0.0000 0.0000 0.0002 -18.3533 0.0000 18.1181
#
#
#
# Elastic Compliance Matrix: (Units=1/GPa)
#
#
# Indices 1 2 3 4 5 6 
#
# 1 0.015769 -0.001921 -0.000541 0.000000 0.003428 0.000000
# 2 -0.001921 0.012283 -0.012333 -0.000001 0.004617 -0.000001
# 3 -0.000541 -0.012333 0.044118 0.000003 -0.009033 0.000003
# 4 0.000000 -0.000001 0.000003 -0.086912 -0.000001 -0.088041
# 5 0.003428 0.004617 -0.009033 -0.000001 0.031626 -0.000001
# 6 0.000000 -0.000001 0.000003 -0.088041 -0.000001 -0.033990
#
#
# Mechanical properties :
#
#
# Convention : Reuss Voigt Hill
#
# Bulk Modulus (GPa) = 23.48507 36.34464 29.91486
# Shear Modulus (GPa) = 187.44201 23.18911 105.31556
#
# Velocity S-wave (km/s) = 9.43699 3.31927 7.07369
# Velocity P-wave (km/s) = 11.39739 5.65314 8.99607
#
# Compressibility (1/GPa) = 0.04258023
#
# Stress axis : x y z
#
# Youngs Moduli (GPa) = 63.41597 81.41509 22.66661
#
# Poissons Ratio (x) = 0.15640 0.01226
# Poissons Ratio (y) = 0.12182 0.27954
# Poissons Ratio (z) = 0.03431 1.00406
#
# Static dielectric constant tensor:
#      x y z
#    x 1.747140 0.000000 0.006870 
#    y 0.000000 1.758070 0.000000 
#    z 0.006870 0.000000 1.885420 
# 
# From -- ./inp_files/335059.got.cif
#   From: 2010.05.17/outbox.cif.g08.bks.cpg/sg12_168_cif.got.tgz:335059.got - 2010.06.03 13:09:07.
