data_PCOD9222350
_publ_section_title
;
Structure prediction by ZEFSAII (Michael W. Deem and Ramdas Pophale) SiO2 
 PCOD9222350
Probable space group: C 2/M
;
_chemical_formula_sum "Si O2"
_cell_formula_units_Z 34
_cell_length_a 9.853809
_cell_length_b 16.820327
_cell_length_c 12.094603
_cell_angle_alpha 90.000000
_cell_angle_beta 133.686452
_cell_angle_gamma 90.000000
_cell_volume 1449.595611
_symmetry_space_group_name_H-M "C 2/M"
_symmetry_group_IT_number 12
_symmetry_cell_setting 'monoclinic'
loop_
_space_group_symop_operation_xyz
x,y,z
-x,y,-z
-x,-y,-z
x,-y,z
1/2+x,1/2+y,z
1/2-x,1/2+y,-z
1/2-x,1/2-y,-z
1/2+x,1/2-y,z
loop_
_atom_site_type_symbol
_atom_site_label
_atom_site_fract_x
_atom_site_fract_y
_atom_site_fract_z
Si Si1 0.068438 0.908924 0.784272
Si Si2 0.292137 0.090377 0.133459
Si Si3 0.215509 0.317111 0.649362
Si Si4 0.500000 0.500000 0.500000
Si Si5 0.795045 0.635019 0.710068
O O1 0.227771 0.868789 0.799882
O O2 0.870098 0.866121 0.669108
O O3 0.052218 0.000000 0.731003
O O4 0.139441 0.909281 0.950051
O O5 0.257955 0.154756 0.209036
O O6 0.491908 0.110018 0.190499
O O7 0.295033 0.000000 0.182127
O O8 0.256780 0.224824 0.651981
O O9 0.000000 0.335238 0.500000
O O10 0.661735 0.570467 0.579672
#
# Coordination Sequence:
#
# PCOD9222350 Si02
#       5
#     8   8   8   2   8
#     4  11  25  46  70  99 136 179 224 274 333 400
#     4  11  25  46  70  99 136 179 224 274 333 400
#     4  12  28  42  66 103 138 175 223 278 337 395
#     4  12  24  44  70 106 134 176 214 294 328 404
#     4  12  25  44  74  97 134 174 230 276 336 396
#
# _framework density 23.454818
#
# number of rings (size 3 to 8) (size 9 to 14) (size 15 to 20)
#    0.000    0.471    3.529    3.529    3.294   13.176 
#    0.000    0.000    0.000    0.000    0.000    0.000 
#    0.000    0.000    0.000    0.000    0.000    0.000 
#
# Total GULP energy -95067.978614 kJ/mol
# GULP energy per Si atom -5592.234036 kJ/mol
# Density = 2.340143 g / cm^3
# Si number density = 23.454818 Si / 1000 Ang^3
#
#
#
# Elastic Constant Matrix: (Units=GPa)
#
#
# Indices 1 2 3 4 5 6 
#
# 1 75.8939 68.8905 30.0254 0.0000 18.2155 0.0000
# 2 68.8905 150.1859 50.5917 0.0003 22.0580 0.0000
# 3 30.0254 50.5917 79.5545 0.0005 21.1573 0.0001
# 4 0.0000 0.0003 0.0005 2609.6836 0.0004 235.1893
# 5 18.2155 22.0580 21.1573 0.0004 49.5336 0.0000
# 6 0.0000 0.0000 0.0001 235.1893 0.0000 38.7024
#
#
#
# Elastic Compliance Matrix: (Units=1/GPa)
#
#
# Indices 1 2 3 4 5 6 
#
# 1 0.023505 -0.009657 -0.001777 0.000000 -0.003585 0.000000
# 2 -0.009657 0.012564 -0.004289 0.000000 -0.000212 0.000000
# 3 -0.001777 -0.004289 0.017245 0.000000 -0.004803 0.000000
# 4 0.000000 0.000000 0.000000 0.000847 0.000000 -0.005148
# 5 -0.003585 -0.000212 -0.004803 0.000000 0.023652 0.000000
# 6 0.000000 0.000000 0.000000 -0.005148 0.000000 0.057121
#
#
# Mechanical properties :
#
#
# Convention : Reuss Voigt Hill
#
# Bulk Modulus (GPa) = 45.72611 67.18330 56.45471
# Shear Modulus (GPa) = 28.79026 549.99237 289.39132
#
# Velocity S-wave (km/s) = 3.50734 15.32968 11.11982
# Velocity P-wave (km/s) = 5.99497 18.49427 13.74732
#
# Compressibility (1/GPa) = 0.02186934
#
# Stress axis : x y z
#
# Youngs Moduli (GPa) = 42.54343 79.59309 57.98675
#
# Poissons Ratio (x) = 0.76863 0.10303
# Poissons Ratio (y) = 0.41084 0.24870
# Poissons Ratio (z) = 0.07559 0.34136
#
# Static dielectric constant tensor:
#      x y z
#    x 1.824750 0.000000 0.099610 
#    y 0.000000 1.854950 0.000000 
#    z 0.099610 0.000000 1.655870 
# 
# From -- ./inp_files/88323.got.cif
#   From: 2010.05.17/outbox.cif.g08.bks.cpg/sg12_45_cif.got.tgz:88323.got - 2010.06.03 13:09:07.
