data_PCOD9222750
_publ_section_title
;
Structure prediction by ZEFSAII (Michael W. Deem and Ramdas Pophale) SiO2 
 PCOD9222750
Probable space group: C 2/M
;
_chemical_formula_sum "Si O2"
_cell_formula_units_Z 44
_cell_length_a 9.242772
_cell_length_b 28.140284
_cell_length_c 8.084608
_cell_angle_alpha 90.000000
_cell_angle_beta 56.942288
_cell_angle_gamma 90.000000
_cell_volume 1762.368368
_symmetry_space_group_name_H-M "C 2/M"
_symmetry_group_IT_number 12
_symmetry_cell_setting 'monoclinic'
loop_
_space_group_symop_operation_xyz
x,y,z
-x,y,-z
-x,-y,-z
x,-y,z
1/2+x,1/2+y,z
1/2-x,1/2+y,-z
1/2-x,1/2-y,-z
1/2+x,1/2-y,z
loop_
_atom_site_type_symbol
_atom_site_label
_atom_site_fract_x
_atom_site_fract_y
_atom_site_fract_z
Si Si1 0.200364 0.296580 0.424786
Si Si2 0.500000 0.868526 0.000000
Si Si3 0.451269 0.368939 0.349624
Si Si4 0.728587 0.694012 0.991056
Si Si5 0.954701 0.554628 0.263527
Si Si6 0.216204 0.054271 0.738193
O O1 0.250000 0.250000 0.500000
O O2 0.268916 0.341302 0.483618
O O3 0.296194 0.307141 0.190352
O O4 0.000000 0.294862 0.500000
O O5 0.399423 0.834235 0.938535
O O6 0.608943 0.907159 0.828117
O O7 0.500000 0.387498 0.500000
O O8 0.431807 0.409390 0.222434
O O9 0.586992 0.329560 0.199286
O O10 0.750000 0.750000 0.000000
O O11 0.954430 0.500000 0.206210
O O12 0.837724 0.555038 0.499310
O O13 0.151265 0.567426 0.197638
O O14 0.159936 0.000000 0.797194
#
# Coordination Sequence:
#
# PCOD9222750 Si02
#       6
#     8   4   8   8   8   8
#     4  12  28  48  76 102 139 193 250 312 376 443
#     4  12  25  42  72 102 146 202 245 310 386 450
#     4  12  26  45  72 110 153 195 250 309 379 452
#     4  12  29  47  70 104 149 190 258 310 376 448
#     4   9  19  39  69 108 147 191 251 303 367 455
#     4   9  20  41  71 105 146 196 243 301 372 451
#
# _framework density 24.966404000000001
#
# number of rings (size 3 to 8) (size 9 to 14) (size 15 to 20)
#    0.000    1.091    0.000    6.818   12.727    0.364 
#    0.000    1.818    0.000    4.364    0.000    0.000 
#    0.000    0.000    0.000    0.000    0.000    0.000 
#
# Total GULP energy -123074.155878 kJ/mol
# GULP energy per Si atom -5594.279813 kJ/mol
# Density = 2.490958 g / cm^3
# Si number density = 24.966404 Si / 1000 Ang^3
#
#
#
# Elastic Constant Matrix: (Units=GPa)
#
#
# Indices 1 2 3 4 5 6 
#
# 1 84.4521 41.2508 27.2105 0.0000 9.6953 0.0000
# 2 41.2508 162.9830 16.3268 0.0000 15.5361 0.0000
# 3 27.2105 16.3268 98.9539 0.0000 10.8308 0.0000
# 4 0.0000 0.0000 0.0000 6.0898 0.0000 -0.6711
# 5 9.6953 15.5361 10.8308 0.0000 43.8208 0.0000
# 6 0.0000 0.0000 0.0000 -0.6711 0.0000 40.3349
#
#
#
# Elastic Compliance Matrix: (Units=1/GPa)
#
#
# Indices 1 2 3 4 5 6 
#
# 1 0.014656 -0.003253 -0.003355 0.000000 -0.001260 0.000000
# 2 -0.003253 0.007138 -0.000087 0.000000 -0.001789 0.000000
# 3 -0.003355 -0.000087 0.011263 0.000000 -0.002010 0.000000
# 4 0.000000 0.000000 0.000000 0.164512 0.000000 0.002737
# 5 -0.001260 -0.001789 -0.002010 0.000000 0.024230 0.000000
# 6 0.000000 0.000000 0.000000 0.002737 0.000000 0.024838
#
#
# Mechanical properties :
#
#
# Convention : Reuss Voigt Hill
#
# Bulk Modulus (GPa) = 50.85151 57.32947 54.09049
# Shear Modulus (GPa) = 18.75582 35.48914 27.12248
#
# Velocity S-wave (km/s) = 2.74385 3.77434 3.29957
# Velocity P-wave (km/s) = 5.51820 6.48125 6.01902
#
# Compressibility (1/GPa) = 0.01966510
#
# Stress axis : x y z
#
# Youngs Moduli (GPa) = 68.23241 140.08935 88.78739
#
# Poissons Ratio (x) = 0.45573 0.29792
# Poissons Ratio (y) = 0.22197 0.00776
# Poissons Ratio (z) = 0.22895 0.01224
#
# Static dielectric constant tensor:
#      x y z
#    x 2.155600 0.000000 0.141950 
#    y 0.000000 1.964300 0.000000 
#    z 0.141950 0.000000 2.448610 
# 
# From -- ./inp_files/42096.got.cif
#   From: 2010.05.17/outbox.cif.g08.bks.cpg/sg12_22_cif.got.tgz:42096.got - 2010.06.03 13:09:07.
