data_PCOD9222465
_publ_section_title
;
Structure prediction by ZEFSAII (Michael W. Deem and Ramdas Pophale) SiO2 
 PCOD9222465
Probable space group: C 2/M
;
_chemical_formula_sum "Si O2"
_cell_formula_units_Z 48
_cell_length_a 9.005345
_cell_length_b 24.895151
_cell_length_c 11.816774
_cell_angle_alpha 90.000000
_cell_angle_beta 56.094869
_cell_angle_gamma 90.000000
_cell_volume 2198.732690
_symmetry_space_group_name_H-M "C 2/M"
_symmetry_group_IT_number 12
_symmetry_cell_setting 'monoclinic'
loop_
_space_group_symop_operation_xyz
x,y,z
-x,y,-z
-x,-y,-z
x,-y,z
1/2+x,1/2+y,z
1/2-x,1/2+y,-z
1/2-x,1/2-y,-z
1/2+x,1/2-y,z
loop_
_atom_site_type_symbol
_atom_site_label
_atom_site_fract_x
_atom_site_fract_y
_atom_site_fract_z
Si Si1 0.757325 0.755388 0.634174
Si Si2 0.298504 0.612485 0.085030
Si Si3 0.416980 0.211572 0.912734
Si Si4 0.713369 0.060434 0.899077
Si Si5 0.688853 0.136190 0.368154
Si Si6 0.051240 0.135092 0.360344
O O1 0.750000 0.750000 0.500000
O O2 0.561011 0.761921 0.769309
O O3 0.835791 0.699713 0.649257
O O4 0.862476 0.807664 0.637470
O O5 0.157541 0.656405 0.103555
O O6 0.241694 0.601228 0.237034
O O7 0.500000 0.635457 0.000000
O O8 0.292247 0.567338 0.992029
O O9 0.500000 0.202615 0.000000
O O10 0.250000 0.250000 0.000000
O O11 0.807660 0.103557 0.777363
O O12 0.747178 0.000000 0.843002
O O13 0.500000 0.067763 0.000000
O O14 0.500000 0.118140 0.500000
O O15 0.863457 0.138143 0.373766
O O16 0.000000 0.106706 0.500000
#
# Coordination Sequence:
#
# PCOD9222465 Si02
#       6
#     8   8   8   8   8   8
#     4  12  25  42  65 101 147 199 241 280 341 421
#     4  12  24  44  70 101 139 180 238 293 366 426
#     4  12  26  41  63  97 144 191 243 293 346 420
#     4  11  27  52  81 106 133 182 244 308 371 427
#     4  12  27  43  64 107 150 196 233 281 347 428
#     4  12  26  47  73 104 148 192 242 293 350 424
#
# _framework density 21.830757999999999
#
# number of rings (size 3 to 8) (size 9 to 14) (size 15 to 20)
#    0.000    0.167    3.333    6.500    7.000    0.667 
#    0.000    0.000    0.000    1.000    0.000    0.000 
#    0.000    0.000    0.000    0.000    0.000    0.000 
#
# Total GULP energy -134321.496995 kJ/mol
# GULP energy per Si atom -5596.729041 kJ/mol
# Density = 2.178107 g / cm^3
# Si number density = 21.830758 Si / 1000 Ang^3
#
#
#
# Elastic Constant Matrix: (Units=GPa)
#
#
# Indices 1 2 3 4 5 6 
#
# 1 138.3423 21.9306 73.8646 0.0000 4.3351 0.0000
# 2 21.9306 64.4907 39.1987 0.0000 3.9557 0.0000
# 3 73.8646 39.1987 191.7002 0.0000 -13.0666 0.0000
# 4 0.0000 0.0000 0.0000 14.5134 0.0000 5.2279
# 5 4.3351 3.9557 -13.0666 0.0000 50.2737 0.0000
# 6 0.0000 0.0000 0.0000 5.2279 0.0000 13.1646
#
#
#
# Elastic Compliance Matrix: (Units=1/GPa)
#
#
# Indices 1 2 3 4 5 6 
#
# 1 0.009298 -0.000932 -0.003504 0.000000 -0.001639 0.000000
# 2 -0.000932 0.018084 -0.003492 0.000000 -0.002250 0.000000
# 3 -0.003504 -0.003492 0.007452 0.000000 0.002514 0.000000
# 4 0.000000 0.000000 0.000000 0.080403 0.000000 -0.031930
# 5 -0.001639 -0.002250 0.002514 0.000000 0.020863 0.000000
# 6 0.000000 0.000000 0.000000 -0.031930 0.000000 0.088641
#
#
# Mechanical properties :
#
#
# Convention : Reuss Voigt Hill
#
# Bulk Modulus (GPa) = 52.69145 73.83567 63.26356
# Shear Modulus (GPa) = 20.24926 32.89296 26.57111
#
# Velocity S-wave (km/s) = 3.04888 3.88587 3.49254
# Velocity P-wave (km/s) = 6.04839 7.35041 6.73096
#
# Compressibility (1/GPa) = 0.01897841
#
# Stress axis : x y z
#
# Youngs Moduli (GPa) = 107.54543 55.29895 134.19155
#
# Poissons Ratio (x) = 0.05152 0.47021
# Poissons Ratio (y) = 0.10019 0.46861
# Poissons Ratio (z) = 0.37684 0.19311
#
# Static dielectric constant tensor:
#      x y z
#    x 1.791470 0.000000 0.005540 
#    y 0.000000 1.789040 0.000000 
#    z 0.005540 0.000000 1.826400 
# 
# From -- ./inp_files/123476.got.cif
#   From: 2010.05.17/outbox.cif.g08.bks.cpg/sg12_62_cif.got.tgz:123476.got - 2010.06.03 13:09:07.
