data_PCOD9222171
_publ_section_title
;
Structure prediction by ZEFSAII (Michael W. Deem and Ramdas Pophale) SiO2 
 PCOD9222171
Probable space group: C 2/M
;
_chemical_formula_sum "Si O2"
_cell_formula_units_Z 24
_cell_length_a 11.292209
_cell_length_b 16.690019
_cell_length_c 5.361261
_cell_angle_alpha 90.000000
_cell_angle_beta 78.229407
_cell_angle_gamma 90.000000
_cell_volume 989.174828
_symmetry_space_group_name_H-M "C 2/M"
_symmetry_group_IT_number 12
_symmetry_cell_setting 'monoclinic'
loop_
_space_group_symop_operation_xyz
x,y,z
-x,y,-z
-x,-y,-z
x,-y,z
1/2+x,1/2+y,z
1/2-x,1/2+y,-z
1/2-x,1/2-y,-z
1/2+x,1/2-y,z
loop_
_atom_site_type_symbol
_atom_site_label
_atom_site_fract_x
_atom_site_fract_y
_atom_site_fract_z
Si Si1 0.829478 0.408129 0.005886
Si Si2 0.365763 0.810212 0.482516
Si Si3 0.046494 0.091430 0.223063
O O1 0.872292 0.500000 0.973237
O O2 0.834331 0.367781 0.731500
O O3 0.883525 0.357894 0.213594
O O4 0.688765 0.411254 0.144746
O O5 0.500000 0.780568 0.500000
O O6 0.250000 0.750000 0.500000
O O7 0.000000 0.123425 0.500000
O O8 0.995339 0.000000 0.238487
O O9 0.000000 0.136453 0.000000
#
# Coordination Sequence:
#
# PCOD9222171 Si02
#       3
#     8   8   8
#     4  11  24  44  74 110 143 183 244 310 365 424
#     4  12  28  49  73 104 147 197 242 293 364 441
#     4   9  17  31  55  93 138 177 217 274 345 413
#
# _framework density 24.262649
#
# number of rings (size 3 to 8) (size 9 to 14) (size 15 to 20)
#    0.000    1.333    0.000    5.000    0.000   13.333 
#    0.000    0.000    0.000    1.000    0.000    0.000 
#    0.000    0.000    0.000    0.000    0.000    0.000 
#
# Total GULP energy -67059.232202 kJ/mol
# GULP energy per Si atom -5588.269350 kJ/mol
# Density = 2.420743 g / cm^3
# Si number density = 24.262649 Si / 1000 Ang^3
#
#
#
# Elastic Constant Matrix: (Units=GPa)
#
#
# Indices 1 2 3 4 5 6 
#
# 1 152.0497 52.0679 47.9410 0.0000 13.9489 0.0000
# 2 52.0679 166.3126 93.3196 0.0000 12.4792 0.0000
# 3 47.9410 93.3196 251.6525 0.0000 10.1073 0.0000
# 4 0.0000 0.0000 0.0000 11.9761 0.0000 6.2967
# 5 13.9489 12.4792 10.1073 0.0000 53.9352 0.0000
# 6 0.0000 0.0000 0.0000 6.2967 0.0000 20.2055
#
#
#
# Elastic Compliance Matrix: (Units=1/GPa)
#
#
# Indices 1 2 3 4 5 6 
#
# 1 0.007565 -0.001877 -0.000689 0.000000 -0.001393 0.000000
# 2 -0.001877 0.008141 -0.002625 0.000000 -0.000906 0.000000
# 3 -0.000689 -0.002625 0.005085 0.000000 -0.000167 0.000000
# 4 0.000000 0.000000 0.000000 0.099862 0.000000 -0.031120
# 5 -0.001393 -0.000906 -0.000167 0.000000 0.019142 0.000000
# 6 0.000000 0.000000 0.000000 -0.031120 0.000000 0.059190
#
#
# Mechanical properties :
#
#
# Convention : Reuss Voigt Hill
#
# Bulk Modulus (GPa) = 96.07317 106.29686 101.18501
# Shear Modulus (GPa) = 23.49217 42.33578 32.91398
#
# Velocity S-wave (km/s) = 3.11504 4.18173 3.68716
# Velocity P-wave (km/s) = 7.25404 8.19889 7.74089
#
# Compressibility (1/GPa) = 0.01040873
#
# Stress axis : x y z
#
# Youngs Moduli (GPa) = 132.19388 122.82913 196.65036
#
# Poissons Ratio (x) = 0.23056 0.13551
# Poissons Ratio (y) = 0.24814 0.51622
# Poissons Ratio (z) = 0.09109 0.32243
#
# Static dielectric constant tensor:
#      x y z
#    x 1.961700 0.000000 0.019540 
#    y 0.000000 1.975650 0.000000 
#    z 0.019540 0.000000 1.918940 
# 
# From -- ./inp_files/5474.got.cif
#   From: 2010.05.17/outbox.cif.g08.bks.cpg/sg12_3_cif.got.tgz:5474.got - 2010.06.03 13:09:07.
