data_PCOD9222588
_publ_section_title
;
Structure prediction by ZEFSAII (Michael W. Deem and Ramdas Pophale) SiO2 
 PCOD9222588
Probable space group: C 2/M
;
_chemical_formula_sum "Si O2"
_cell_formula_units_Z 38
_cell_length_a 19.462614
_cell_length_b 18.362238
_cell_length_c 5.096091
_cell_angle_alpha 90.000000
_cell_angle_beta 82.164038
_cell_angle_gamma 90.000000
_cell_volume 1804.220709
_symmetry_space_group_name_H-M "C 2/M"
_symmetry_group_IT_number 12
_symmetry_cell_setting 'monoclinic'
loop_
_space_group_symop_operation_xyz
x,y,z
-x,y,-z
-x,-y,-z
x,-y,z
1/2+x,1/2+y,z
1/2-x,1/2+y,-z
1/2-x,1/2-y,-z
1/2+x,1/2-y,z
loop_
_atom_site_type_symbol
_atom_site_label
_atom_site_fract_x
_atom_site_fract_y
_atom_site_fract_z
Si Si1 0.252234 0.660637 0.977188
Si Si2 0.337956 0.629205 0.423535
Si Si3 0.595307 0.137589 0.036221
Si Si4 0.500000 0.000000 0.000000
Si Si5 0.051558 0.000000 0.719929
Si Si6 0.928662 0.733140 0.440516
O O1 0.306768 0.631797 0.732354
O O2 0.177051 0.631271 0.934867
O O3 0.250000 0.750000 0.000000
O O4 0.276524 0.629068 0.243555
O O5 0.395868 0.568738 0.330005
O O6 0.374642 0.707178 0.380582
O O7 0.562332 0.180930 0.810084
O O8 0.553702 0.063344 0.080065
O O9 0.593973 0.184646 0.302096
O O10 0.000000 0.000000 0.500000
O O11 0.000000 0.000000 0.000000
O O12 0.000000 0.769457 0.500000
#
# Coordination Sequence:
#
# PCOD9222588 Si02
#       6
#     8   8   8   2   4   8
#     4  12  23  45  74 108 137 188 245 306 353 432
#     4  12  25  44  77 104 146 183 242 302 370 435
#     4  12  26  42  70  96 144 187 240 290 359 422
#     4  12  28  50  62 106 148 192 224 302 356 450
#     4  12  28  50  71 112 150 191 238 311 382 442
#     4  12  22  42  68 103 131 191 237 291 348 434
#
# _framework density 21.061724000000002
#
# number of rings (size 3 to 8) (size 9 to 14) (size 15 to 20)
#    0.000    0.000    6.316    3.789    0.000    5.053 
#    0.000    0.000    0.000    0.000    0.000    0.000 
#    0.000    0.000    0.000    0.000    0.000    0.000 
#
# Total GULP energy -105955.004742 kJ/mol
# GULP energy per Si atom -5576.579197 kJ/mol
# Density = 2.101379 g / cm^3
# Si number density = 21.061724 Si / 1000 Ang^3
#
#
#
# Elastic Constant Matrix: (Units=GPa)
#
#
# Indices 1 2 3 4 5 6 
#
# 1 94.7638 17.4552 -7.7887 0.0000 2.7371 0.0000
# 2 17.4552 98.8082 13.2873 0.0000 -13.1212 0.0000
# 3 -7.7887 13.2873 105.6839 0.0000 -9.1302 0.0000
# 4 0.0000 0.0000 0.0000 11.0003 0.0000 3.2169
# 5 2.7371 -13.1212 -9.1302 0.0000 47.7797 0.0000
# 6 0.0000 0.0000 0.0000 3.2169 0.0000 39.8224
#
#
#
# Elastic Compliance Matrix: (Units=1/GPa)
#
#
# Indices 1 2 3 4 5 6 
#
# 1 0.011077 -0.002232 0.001006 0.000000 -0.001055 0.000000
# 2 -0.002232 0.011078 -0.001305 0.000000 0.002921 0.000000
# 3 0.001006 -0.001305 0.009827 0.000000 0.001462 0.000000
# 4 0.000000 0.000000 0.000000 0.093106 0.000000 -0.007521
# 5 -0.001055 0.002921 0.001462 0.000000 0.022071 0.000000
# 6 0.000000 0.000000 0.000000 -0.007521 0.000000 0.025719
#
#
# Mechanical properties :
#
#
# Convention : Reuss Voigt Hill
#
# Bulk Modulus (GPa) = 37.14846 38.35152 37.74999
# Shear Modulus (GPa) = 26.75027 38.14063 32.44545
#
# Velocity S-wave (km/s) = 3.56770 4.26008 3.92917
# Velocity P-wave (km/s) = 5.88621 6.51509 6.20862
#
# Compressibility (1/GPa) = 0.02691901
#
# Stress axis : x y z
#
# Youngs Moduli (GPa) = 90.27822 90.26641 101.76393
#
# Poissons Ratio (x) = 0.20149 -0.10236
# Poissons Ratio (y) = 0.20152 0.13280
# Poissons Ratio (z) = -0.09080 0.11780
#
# Static dielectric constant tensor:
#      x y z
#    x 1.797800 0.000000 -0.065580 
#    y 0.000000 1.726440 0.000000 
#    z -0.065580 0.000000 1.780720 
# 
# From -- ./inp_files/15258.got.cif
#   From: 2010.05.17/outbox.cif.g08.bks.cpg/sg12_8_cif.got.tgz:15258.got - 2010.06.03 13:09:07.
