data_PCOD9222266
_publ_section_title
;
Structure prediction by ZEFSAII (Michael W. Deem and Ramdas Pophale) SiO2 
 PCOD9222266
Probable space group: C 2/M
;
_chemical_formula_sum "Si O2"
_cell_formula_units_Z 52
_cell_length_a 9.294475
_cell_length_b 17.250472
_cell_length_c 18.870048
_cell_angle_alpha 90.000000
_cell_angle_beta 54.774287
_cell_angle_gamma 90.000000
_cell_volume 2471.498616
_symmetry_space_group_name_H-M "C 2/M"
_symmetry_group_IT_number 12
_symmetry_cell_setting 'monoclinic'
loop_
_space_group_symop_operation_xyz
x,y,z
-x,y,-z
-x,-y,-z
x,-y,z
1/2+x,1/2+y,z
1/2-x,1/2+y,-z
1/2-x,1/2-y,-z
1/2+x,1/2-y,z
loop_
_atom_site_type_symbol
_atom_site_label
_atom_site_fract_x
_atom_site_fract_y
_atom_site_fract_z
Si Si1 0.918612 0.869381 0.099715
Si Si2 0.479824 0.909288 0.591002
Si Si3 0.189347 0.000000 0.067047
Si Si4 0.348500 0.000000 0.868092
Si Si5 0.565762 0.652117 0.304916
Si Si6 0.694238 0.711237 0.732723
Si Si7 0.265868 0.000000 0.202028
Si Si8 0.331541 0.333309 0.497555
O O1 0.749921 0.924594 0.134353
O O2 0.865000 0.803288 0.169665
O O3 0.062197 0.925182 0.096467
O O4 0.000000 0.846463 0.000000
O O5 0.500000 0.895258 0.500000
O O6 0.331186 0.855009 0.667684
O O7 0.669199 0.885107 0.569606
O O8 0.441358 0.000000 0.612813
O O9 0.294877 0.000000 0.109419
O O10 0.304719 0.000000 0.963951
O O11 0.556458 0.000000 0.802919
O O12 0.473536 0.702560 0.270027
O O13 0.708326 0.707304 0.301506
O O14 0.654632 0.576013 0.250301
O O15 0.413587 0.630374 0.403301
O O16 0.500000 0.324089 0.500000
O O17 0.250000 0.250000 0.500000
#
# Coordination Sequence:
#
# PCOD9222266 Si02
#       8
#     8   8   4   4   8   8   4   8
#     4   9  20  41  69  97 133 179 225 272 331 404
#     4  11  25  42  70 100 130 176 230 275 329 402
#     4   9  17  41  67  97 126 184 213 279 331 398
#     4   9  21  37  67 100 137 165 232 267 341 394
#     4  12  28  43  69  98 135 179 224 277 337 400
#     4  12  25  45  68  97 138 178 225 275 341 398
#     4  12  25  42  67 102 137 171 224 282 334 391
#     4  12  24  45  65  92 132 176 220 274 334 392
#
# _framework density 21.039866
#
# number of rings (size 3 to 8) (size 9 to 14) (size 15 to 20)
#    0.000    1.077    4.615    2.538    6.462    0.308 
#    0.000    2.308    0.000    0.000    0.000    0.000 
#    0.000    0.000    0.000    0.000    0.000    0.000 
#
# Total GULP energy -145407.356393 kJ/mol
# GULP energy per Si atom -5592.590631 kJ/mol
# Density = 2.099198 g / cm^3
# Si number density = 21.039866 Si / 1000 Ang^3
#
#
#
# Elastic Constant Matrix: (Units=GPa)
#
#
# Indices 1 2 3 4 5 6 
#
# 1 118.5718 7.7001 5.8315 0.0000 -11.4477 0.0000
# 2 7.7001 63.1274 -3.9119 0.0000 -3.4221 0.0000
# 3 5.8315 -3.9119 45.1124 0.0000 5.4396 0.0000
# 4 0.0000 0.0000 0.0000 25.6581 0.0000 3.0565
# 5 -11.4477 -3.4221 5.4396 0.0000 28.7854 0.0000
# 6 0.0000 0.0000 0.0000 3.0565 0.0000 13.3110
#
#
#
# Elastic Compliance Matrix: (Units=1/GPa)
#
#
# Indices 1 2 3 4 5 6 
#
# 1 0.008945 -0.000992 -0.001696 0.000000 0.003760 0.000000
# 2 -0.000992 0.016116 0.001374 0.000000 0.001262 0.000000
# 3 -0.001696 0.001374 0.023093 0.000000 -0.004875 0.000000
# 4 0.000000 0.000000 0.000000 0.040070 0.000000 -0.009201
# 5 0.003760 0.001262 -0.004875 0.000000 0.037306 0.000000
# 6 0.000000 0.000000 0.000000 -0.009201 0.000000 0.077239
#
#
# Mechanical properties :
#
#
# Convention : Reuss Voigt Hill
#
# Bulk Modulus (GPa) = 21.96627 27.33903 24.65265
# Shear Modulus (GPa) = 22.66839 28.03035 25.34937
#
# Velocity S-wave (km/s) = 3.28594 3.65396 3.47483
# Velocity P-wave (km/s) = 4.98593 5.55194 5.27653
#
# Compressibility (1/GPa) = 0.04552434
#
# Stress axis : x y z
#
# Youngs Moduli (GPa) = 111.80028 62.05198 43.30327
#
# Poissons Ratio (x) = 0.06157 0.07343
# Poissons Ratio (y) = 0.11094 -0.05948
# Poissons Ratio (z) = 0.18957 -0.08523
#
# Static dielectric constant tensor:
#      x y z
#    x 1.781520 0.000000 0.015610 
#    y 0.000000 1.719970 0.000000 
#    z 0.015610 0.000000 1.752380 
# 
# From -- ./inp_files/301080.got.cif
#   From: 2010.05.17/outbox.cif.g08.bks.cpg/sg12_151_cif.got.tgz:301080.got - 2010.06.03 13:09:07.
