data_PCOD9222335
_publ_section_title
;
Structure prediction by ZEFSAII (Michael W. Deem and Ramdas Pophale) SiO2 
 PCOD9222335
Probable space group: C 2/M
;
_chemical_formula_sum "Si O2"
_cell_formula_units_Z 40
_cell_length_a 8.659573
_cell_length_b 28.725792
_cell_length_c 11.145226
_cell_angle_alpha 90.000000
_cell_angle_beta 42.590462
_cell_angle_gamma 90.000000
_cell_volume 1876.237576
_symmetry_space_group_name_H-M "C 2/M"
_symmetry_group_IT_number 12
_symmetry_cell_setting 'monoclinic'
loop_
_space_group_symop_operation_xyz
x,y,z
-x,y,-z
-x,-y,-z
x,-y,z
1/2+x,1/2+y,z
1/2-x,1/2+y,-z
1/2-x,1/2-y,-z
1/2+x,1/2-y,z
loop_
_atom_site_type_symbol
_atom_site_label
_atom_site_fract_x
_atom_site_fract_y
_atom_site_fract_z
Si Si1 0.722916 0.054969 0.954006
Si Si2 0.555851 0.785766 0.153973
Si Si3 0.090885 0.383901 0.248028
Si Si4 0.573757 0.712835 0.322935
Si Si5 0.864357 0.879008 0.340314
O O1 0.665950 0.074063 0.119541
O O2 0.767971 0.000000 0.930715
O O3 0.500000 0.063830 0.000000
O O4 0.937124 0.082645 0.776477
O O5 0.625029 0.837813 0.147520
O O6 0.488214 0.761612 0.319087
O O7 0.345464 0.786531 0.184141
O O8 0.750000 0.750000 0.000000
O O9 0.830394 0.386492 0.446453
O O10 0.243054 0.380136 0.280237
O O11 0.500000 0.704274 0.500000
O O12 0.479771 0.670982 0.296808
#
# Coordination Sequence:
#
# PCOD9222335 Si02
#       5
#     8   8   8   8   8
#     4  11  26  47  73 105 140 178 227 287 352 420
#     4  12  25  40  63  97 137 183 234 282 339 403
#     4  11  25  46  71 103 141 181 232 288 345 414
#     4  12  24  41  65  96 137 184 232 282 335 402
#     4  11  25  45  73 101 137 187 231 286 349 406
#
# _framework density 21.319261000000001
#
# number of rings (size 3 to 8) (size 9 to 14) (size 15 to 20)
#    0.000    0.600    2.000    5.400    2.800    4.000 
#    0.000    4.000    0.000    0.000    0.000    0.000 
#    0.000    0.000    0.000    0.000    0.000    0.000 
#
# Total GULP energy -111937.837653 kJ/mol
# GULP energy per Si atom -5596.891883 kJ/mol
# Density = 2.127074 g / cm^3
# Si number density = 21.319261 Si / 1000 Ang^3
#
#
#
# Elastic Constant Matrix: (Units=GPa)
#
#
# Indices 1 2 3 4 5 6 
#
# 1 84.8958 31.5207 28.1936 0.0000 -9.0748 0.0000
# 2 31.5207 92.0519 24.8932 0.0000 -17.0088 0.0000
# 3 28.1936 24.8932 117.7563 0.0000 -15.9816 0.0000
# 4 0.0000 0.0000 0.0000 24.6171 0.0000 2.5358
# 5 -9.0748 -17.0088 -15.9816 0.0000 39.0998 0.0000
# 6 0.0000 0.0000 0.0000 2.5358 0.0000 32.4103
#
#
#
# Elastic Compliance Matrix: (Units=1/GPa)
#
#
# Indices 1 2 3 4 5 6 
#
# 1 0.014170 -0.004094 -0.002459 0.000000 0.000503 0.000000
# 2 -0.004094 0.013414 -0.001262 0.000000 0.004369 0.000000
# 3 -0.002459 -0.001262 0.009736 0.000000 0.002860 0.000000
# 4 0.000000 0.000000 0.000000 0.040952 0.000000 -0.003204
# 5 0.000503 0.004369 0.002860 0.000000 0.028762 0.000000
# 6 0.000000 0.000000 0.000000 -0.003204 0.000000 0.031105
#
#
# Mechanical properties :
#
#
# Convention : Reuss Voigt Hill
#
# Bulk Modulus (GPa) = 46.10754 51.54657 48.82706
# Shear Modulus (GPa) = 31.05614 33.23186 32.14400
#
# Velocity S-wave (km/s) = 3.82084 3.95241 3.88718
# Velocity P-wave (km/s) = 6.41398 6.71265 6.56501
#
# Compressibility (1/GPa) = 0.02168843
#
# Stress axis : x y z
#
# Youngs Moduli (GPa) = 70.57379 74.54864 102.71390
#
# Poissons Ratio (x) = 0.30522 0.25255
# Poissons Ratio (y) = 0.28894 0.12967
# Poissons Ratio (z) = 0.17353 0.09412
#
# Static dielectric constant tensor:
#      x y z
#    x 1.752070 0.000000 0.014270 
#    y 0.000000 1.701840 0.000000 
#    z 0.014270 0.000000 1.960190 
# 
# From -- ./inp_files/125002.got.cif
#   From: 2010.05.17/outbox.cif.g08.bks.cpg/sg12_63_cif.got.tgz:125002.got - 2010.06.03 13:09:07.
