data_PCOD9222092
_publ_section_title
;
Structure prediction by ZEFSAII (Michael W. Deem and Ramdas Pophale) SiO2 
 PCOD9222092
Probable space group: C 2/M
;
_chemical_formula_sum "Si O2"
_cell_formula_units_Z 42
_cell_length_a 11.499031
_cell_length_b 20.701660
_cell_length_c 8.404010
_cell_angle_alpha 90.000000
_cell_angle_beta 109.169626
_cell_angle_gamma 90.000000
_cell_volume 1889.636178
_symmetry_space_group_name_H-M "C 2/M"
_symmetry_group_IT_number 12
_symmetry_cell_setting 'monoclinic'
loop_
_space_group_symop_operation_xyz
x,y,z
-x,y,-z
-x,-y,-z
x,-y,z
1/2+x,1/2+y,z
1/2-x,1/2+y,-z
1/2-x,1/2-y,-z
1/2+x,1/2-y,z
loop_
_atom_site_type_symbol
_atom_site_label
_atom_site_fract_x
_atom_site_fract_y
_atom_site_fract_z
Si Si1 0.384476 0.290612 0.381064
Si Si2 0.000000 0.000000 0.000000
Si Si3 0.111322 0.768051 0.975307
Si Si4 0.339503 0.156218 0.551651
Si Si5 0.040702 0.423962 0.834169
Si Si6 0.198847 0.108332 0.188007
O O1 0.500000 0.330027 0.500000
O O2 0.425653 0.282430 0.220239
O O3 0.372273 0.222241 0.470308
O O4 0.254108 0.324320 0.349202
O O5 0.904137 0.055308 0.887839
O O6 0.250000 0.750000 0.000000
O O7 0.132807 0.825156 0.110243
O O8 0.000000 0.726664 0.000000
O O9 0.454827 0.118743 0.678508
O O10 0.260550 0.114260 0.389757
O O11 0.030360 0.500000 0.785294
O O12 0.182685 0.403117 0.873418
O O13 0.000000 0.418843 0.000000
#
# Coordination Sequence:
#
# PCOD9222092 Si02
#       6
#     8   2   8   8   8   8
#     4  11  24  43  67 103 148 184 238 292 369 440
#     4  12  28  44  76 102 142 196 250 290 362 436
#     4  12  26  44  72 105 145 190 238 298 369 439
#     4  11  25  44  70 107 142 187 237 303 362 436
#     4  11  25  46  72 103 141 188 248 303 360 428
#     4  12  24  48  73 103 142 190 246 299 366 436
#
# _framework density 22.226500999999999
#
# number of rings (size 3 to 8) (size 9 to 14) (size 15 to 20)
#    0.000    0.571    3.810    4.000    4.000    1.524 
#    0.000    0.000    0.000    2.857    0.000    0.000 
#    0.000    0.000    0.000    0.000    0.000    0.000 
#
# Total GULP energy -117016.128529 kJ/mol
# GULP energy per Si atom -5572.196597 kJ/mol
# Density = 2.217591 g / cm^3
# Si number density = 22.226501 Si / 1000 Ang^3
#
#
#
# Elastic Constant Matrix: (Units=GPa)
#
#
# Indices 1 2 3 4 5 6 
#
# 1 160.7752 33.8896 43.8157 0.0000 -3.5526 0.0000
# 2 33.8896 89.6327 7.3754 0.0000 16.4595 0.0000
# 3 43.8157 7.3754 107.0061 0.0000 7.6149 0.0000
# 4 0.0000 0.0000 0.0000 45.8289 0.0000 16.8112
# 5 -3.5526 16.4595 7.6149 0.0000 53.7336 0.0000
# 6 0.0000 0.0000 0.0000 16.8112 0.0000 27.4411
#
#
#
# Elastic Compliance Matrix: (Units=1/GPa)
#
#
# Indices 1 2 3 4 5 6 
#
# 1 0.007741 -0.003016 -0.003095 0.000000 0.001874 0.000000
# 2 -0.003016 0.013031 0.000642 0.000000 -0.004282 0.000000
# 3 -0.003095 0.000642 0.010705 0.000000 -0.001918 0.000000
# 4 0.000000 0.000000 0.000000 0.028145 0.000000 -0.017243
# 5 0.001874 -0.004282 -0.001918 0.000000 0.020318 0.000000
# 6 0.000000 0.000000 0.000000 -0.017243 0.000000 0.047005
#
#
# Mechanical properties :
#
#
# Convention : Reuss Voigt Hill
#
# Bulk Modulus (GPa) = 48.69310 58.61949 53.65630
# Shear Modulus (GPa) = 34.54741 43.55627 39.05184
#
# Velocity S-wave (km/s) = 3.94678 4.43160 4.19620
# Velocity P-wave (km/s) = 6.53641 7.25372 6.90439
#
# Compressibility (1/GPa) = 0.02053679
#
# Stress axis : x y z
#
# Youngs Moduli (GPa) = 129.19021 76.74293 93.41558
#
# Poissons Ratio (x) = 0.23147 0.28912
# Poissons Ratio (y) = 0.38966 -0.05994
# Poissons Ratio (z) = 0.39984 -0.04924
#
# Static dielectric constant tensor:
#      x y z
#    x 2.127350 0.000000 0.091720 
#    y 0.000000 1.813980 0.000000 
#    z 0.091720 0.000000 1.848530 
# 
# From -- ./inp_files/49452.got.cif
#   From: 2010.05.17/outbox.cif.g08.bks.cpg/sg12_25_cif.got.tgz:49452.got - 2010.06.03 13:09:07.
