data_PCOD9222458
_publ_section_title
;
Structure prediction by ZEFSAII (Michael W. Deem and Ramdas Pophale) SiO2 
 PCOD9222458
Probable space group: C 2/M
;
_chemical_formula_sum "Si O2"
_cell_formula_units_Z 28
_cell_length_a 10.075162
_cell_length_b 20.252315
_cell_length_c 8.126746
_cell_angle_alpha 90.000000
_cell_angle_beta 43.644891
_cell_angle_gamma 90.000000
_cell_volume 1144.484710
_symmetry_space_group_name_H-M "C 2/M"
_symmetry_group_IT_number 12
_symmetry_cell_setting 'monoclinic'
loop_
_space_group_symop_operation_xyz
x,y,z
-x,y,-z
-x,-y,-z
x,-y,z
1/2+x,1/2+y,z
1/2-x,1/2+y,-z
1/2-x,1/2-y,-z
1/2+x,1/2-y,z
loop_
_atom_site_type_symbol
_atom_site_label
_atom_site_fract_x
_atom_site_fract_y
_atom_site_fract_z
Si Si1 0.272658 0.927405 0.230261
Si Si2 0.147319 0.877253 0.999115
Si Si3 0.366171 0.701964 0.451388
Si Si4 0.000000 0.310271 0.500000
O O1 0.202555 0.867754 0.405647
O O2 0.229683 0.000000 0.337458
O O3 0.500000 0.921212 0.000000
O O4 0.185184 0.919746 0.126590
O O5 0.346273 0.853251 0.741222
O O6 0.000000 0.907921 0.000000
O O7 0.033397 0.812504 0.167395
O O8 0.500000 0.725184 0.500000
O O9 0.334760 0.787809 0.488227
#
# Coordination Sequence:
#
# PCOD9222458 Si02
#       4
#     8   8   8   4
#     4  11  27  50  74 104 151 201 245 297 365 443
#     4  12  26  44  74 113 144 191 243 307 368 427
#     4  12  24  42  74 110 144 194 249 303 362 435
#     4  12  24  40  70 110 154 178 242 312 366 420
#
# _framework density 24.465159
#
# number of rings (size 3 to 8) (size 9 to 14) (size 15 to 20)
#    0.000    0.286    5.714    2.571    4.000    2.857 
#    0.000    0.714    0.000    0.000    0.000    0.000 
#    0.000    0.000    0.000    0.000    0.000    0.000 
#
# Total GULP energy -78280.822656 kJ/mol
# GULP energy per Si atom -5591.487333 kJ/mol
# Density = 2.440947 g / cm^3
# Si number density = 24.465159 Si / 1000 Ang^3
#
#
#
# Elastic Constant Matrix: (Units=GPa)
#
#
# Indices 1 2 3 4 5 6 
#
# 1 237.1209 71.0052 41.0947 0.0000 -1.5791 0.0000
# 2 71.0052 183.3100 67.2179 0.0000 4.4517 0.0000
# 3 41.0947 67.2179 155.5601 0.0000 -23.3747 0.0000
# 4 0.0000 0.0000 0.0000 -28.1449 0.0000 -16.3432
# 5 -1.5791 4.4517 -23.3747 0.0000 57.2721 0.0000
# 6 0.0000 0.0000 0.0000 -16.3432 0.0000 12.5001
#
#
#
# Elastic Compliance Matrix: (Units=1/GPa)
#
#
# Indices 1 2 3 4 5 6 
#
# 1 0.004810 -0.001664 -0.000546 0.000000 0.000039 0.000000
# 2 -0.001664 0.007228 -0.002956 0.000000 -0.001814 0.000000
# 3 -0.000546 -0.002956 0.008397 0.000000 0.003642 0.000000
# 4 0.000000 0.000000 0.000000 -0.020197 0.000000 -0.026406
# 5 0.000039 -0.001814 0.003642 0.000000 0.019089 0.000000
# 6 0.000000 0.000000 0.000000 -0.026406 0.000000 0.045475
#
#
# Mechanical properties :
#
#
# Convention : Reuss Voigt Hill
#
# Bulk Modulus (GPa) = 98.97796 103.84740 101.41268
# Shear Modulus (GPa) = 63.69239 34.77033 49.23136
#
# Velocity S-wave (km/s) = 5.10788 3.77399 4.49074
# Velocity P-wave (km/s) = 8.67939 7.84410 8.27229
#
# Compressibility (1/GPa) = 0.01010326
#
# Stress axis : x y z
#
# Youngs Moduli (GPa) = 207.88153 138.35269 119.08747
#
# Poissons Ratio (x) = 0.23024 0.06500
# Poissons Ratio (y) = 0.34594 0.35204
# Poissons Ratio (z) = 0.11347 0.40900
#
# Static dielectric constant tensor:
#      x y z
#    x 2.185170 0.000000 -0.018970 
#    y 0.000000 1.875750 0.000000 
#    z -0.018970 0.000000 1.840430 
# 
# From -- ./inp_files/48250.got.cif
#   From: 2010.05.17/outbox.cif.g08.bks.cpg/sg12_25_cif.got.tgz:48250.got - 2010.06.03 13:09:07.
