data_PCOD9222336
_publ_section_title
;
Structure prediction by ZEFSAII (Michael W. Deem and Ramdas Pophale) SiO2 
 PCOD9222336
Probable space group: C 2/M
;
_chemical_formula_sum "Si O2"
_cell_formula_units_Z 32
_cell_length_a 19.196944
_cell_length_b 12.904966
_cell_length_c 5.576626
_cell_angle_alpha 90.000000
_cell_angle_beta 108.498005
_cell_angle_gamma 90.000000
_cell_volume 1310.153330
_symmetry_space_group_name_H-M "C 2/M"
_symmetry_group_IT_number 12
_symmetry_cell_setting 'monoclinic'
loop_
_space_group_symop_operation_xyz
x,y,z
-x,y,-z
-x,-y,-z
x,-y,z
1/2+x,1/2+y,z
1/2-x,1/2+y,-z
1/2-x,1/2-y,-z
1/2+x,1/2-y,z
loop_
_atom_site_type_symbol
_atom_site_label
_atom_site_fract_x
_atom_site_fract_y
_atom_site_fract_z
Si Si1 0.282122 0.500000 0.186772
Si Si2 0.691202 0.000000 0.577421
Si Si3 0.421860 0.826106 0.434749
Si Si4 0.671272 0.699095 0.968843
Si Si5 0.571759 0.380588 0.251994
O O1 0.238056 0.500000 0.385595
O O2 0.329667 0.603574 0.216678
O O3 0.232667 0.500000 0.884129
O O4 0.639444 0.898743 0.516758
O O5 0.500000 0.879955 0.500000
O O6 0.387645 0.788243 0.146549
O O7 0.436219 0.718983 0.589101
O O8 0.750000 0.750000 0.000000
O O9 0.646886 0.645155 0.187531
O O10 0.573106 0.500000 0.340909
O O11 0.500000 0.377944 0.000000
#
# Coordination Sequence:
#
# PCOD9222336 Si02
#       5
#     4   4   8   8   8
#     4  12  28  48  75 113 152 200 255 319 384 447
#     4  12  29  52  76 111 158 202 259 315 380 458
#     4  12  27  47  75 111 149 204 254 318 382 462
#     4  12  25  45  73 105 152 195 254 311 381 453
#     4  11  25  45  73 110 152 194 252 319 386 455
#
# _framework density 24.424623
#
# number of rings (size 3 to 8) (size 9 to 14) (size 15 to 20)
#    0.000    0.250    6.250    1.875    5.250    2.500 
#    0.000    1.875    0.000    0.000    0.000    0.000 
#    0.000    0.000    0.000    0.000    0.000    0.000 
#
# Total GULP energy -89445.517326 kJ/mol
# GULP energy per Si atom -5590.344833 kJ/mol
# Density = 2.436903 g / cm^3
# Si number density = 24.424623 Si / 1000 Ang^3
#
#
#
# Elastic Constant Matrix: (Units=GPa)
#
#
# Indices 1 2 3 4 5 6 
#
# 1 110.8734 12.7090 35.5434 0.0000 -7.8282 0.0000
# 2 12.7090 135.1889 25.0753 0.0000 -1.4945 0.0000
# 3 35.5434 25.0753 88.4648 0.0000 -11.3803 0.0000
# 4 0.0000 0.0000 0.0000 8.0024 0.0000 -10.6670
# 5 -7.8282 -1.4945 -11.3803 0.0000 48.7209 0.0000
# 6 0.0000 0.0000 0.0000 -10.6670 0.0000 42.1718
#
#
#
# Elastic Compliance Matrix: (Units=1/GPa)
#
#
# Indices 1 2 3 4 5 6 
#
# 1 0.010383 -0.000223 -0.004015 0.000000 0.000724 0.000000
# 2 -0.000223 0.007816 -0.002165 0.000000 -0.000302 0.000000
# 3 -0.004015 -0.002165 0.013856 0.000000 0.002525 0.000000
# 4 0.000000 0.000000 0.000000 0.188525 0.000000 0.047686
# 5 0.000724 -0.000302 0.002525 0.000000 0.021222 0.000000
# 6 0.000000 0.000000 0.000000 0.047686 0.000000 0.035774
#
#
# Mechanical properties :
#
#
# Convention : Reuss Voigt Hill
#
# Bulk Modulus (GPa) = 51.95236 53.46472 52.70854
# Shear Modulus (GPa) = 16.84644 37.19232 27.01938
#
# Velocity S-wave (km/s) = 2.62912 3.90646 3.32962
# Velocity P-wave (km/s) = 5.52567 6.50265 6.03397
#
# Compressibility (1/GPa) = 0.01924840
#
# Stress axis : x y z
#
# Youngs Moduli (GPa) = 96.30921 127.93920 72.17305
#
# Poissons Ratio (x) = 0.02857 0.28980
# Poissons Ratio (y) = 0.02151 0.15623
# Poissons Ratio (z) = 0.38672 0.27694
#
# Static dielectric constant tensor:
#      x y z
#    x 1.969160 0.000000 0.083890 
#    y 0.000000 1.892800 0.000000 
#    z 0.083890 0.000000 2.053530 
# 
# From -- ./inp_files/14502.got.cif
#   From: 2010.05.17/outbox.cif.g08.bks.cpg/sg12_8_cif.got.tgz:14502.got - 2010.06.03 13:09:07.
