data_PCOD9222918
_publ_section_title
;
Structure prediction by ZEFSAII (Michael W. Deem and Ramdas Pophale) SiO2 
 PCOD9222918
Probable space group: C 2/M
;
_chemical_formula_sum "Si O2"
_cell_formula_units_Z 48
_cell_length_a 34.530113
_cell_length_b 7.381723
_cell_length_c 10.558027
_cell_angle_alpha 90.000000
_cell_angle_beta 117.618392
_cell_angle_gamma 90.000000
_cell_volume 2384.509747
_symmetry_space_group_name_H-M "C 2/M"
_symmetry_group_IT_number 12
_symmetry_cell_setting 'monoclinic'
loop_
_space_group_symop_operation_xyz
x,y,z
-x,y,-z
-x,-y,-z
x,-y,z
1/2+x,1/2+y,z
1/2-x,1/2+y,-z
1/2-x,1/2-y,-z
1/2+x,1/2-y,z
loop_
_atom_site_type_symbol
_atom_site_label
_atom_site_fract_x
_atom_site_fract_y
_atom_site_fract_z
Si Si1 0.526993 0.779036 0.165067
Si Si2 0.115924 0.279854 0.900910
Si Si3 0.116857 0.720195 0.196201
Si Si4 0.286080 0.783642 0.948416
Si Si5 0.024580 0.278501 0.663354
Si Si6 0.285466 0.216316 0.661469
O O1 0.577012 0.719285 0.223164
O O2 0.502684 0.721036 0.254815
O O3 0.526861 0.000000 0.166260
O O4 0.500000 0.724347 0.000000
O O5 0.116076 0.500000 0.896198
O O6 0.074884 0.219524 0.755559
O O7 0.107900 0.231434 0.035965
O O8 0.164988 0.217916 0.942447
O O9 0.116845 0.500000 0.200678
O O10 0.165893 0.782387 0.301140
O O11 0.275048 0.717327 0.788819
O O12 0.289524 0.000000 0.944348
O O13 0.250000 0.750000 0.000000
O O14 0.024999 0.500000 0.663293
O O15 0.000000 0.219391 0.500000
O O16 0.250000 0.250000 0.500000
O O17 0.288796 0.000000 0.676397
#
# Coordination Sequence:
#
# PCOD9222918 Si02
#       6
#     8   8   8   8   8   8
#     4   9  13  19  34  52  73 106 142 169 201 259
#     4   8  13  24  39  54  79 114 144 174 216 261
#     4   8  13  23  39  57  78 110 147 176 210 261
#     4   9  18  32  49  67  90 122 158 192 226 269
#     4   9  15  21  30  50  81 110 135 169 213 257
#     4   9  18  32  48  67  94 122 150 191 236 272
#
# _framework density 20.129923000000002
#
# number of rings (size 3 to 8) (size 9 to 14) (size 15 to 20)
#    0.000    3.333    1.667    2.000    0.000    0.667 
#    3.000    0.000    0.000    0.000    0.000    0.000 
#    0.000    2.667    0.000    0.167    0.000    0.000 
#
# Total GULP energy -133797.117463 kJ/mol
# GULP energy per Si atom -5574.879894 kJ/mol
# Density = 2.008411 g / cm^3
# Si number density = 20.129923 Si / 1000 Ang^3
#
#
#
# Elastic Constant Matrix: (Units=GPa)
#
#
# Indices 1 2 3 4 5 6 
#
# 1 202.4754 5.2233 122.7686 0.0000 9.1155 0.0000
# 2 5.2233 68.0491 4.6675 0.0000 0.8033 0.0000
# 3 122.7686 4.6675 179.6574 0.0000 23.3334 0.0000
# 4 0.0000 0.0000 0.0000 3.6441 0.0000 0.6753
# 5 9.1155 0.8033 23.3334 0.0000 33.1861 0.0000
# 6 0.0000 0.0000 0.0000 0.6753 0.0000 5.3138
#
#
#
# Elastic Compliance Matrix: (Units=1/GPa)
#
#
# Indices 1 2 3 4 5 6 
#
# 1 0.008549 -0.000262 -0.006087 0.000000 0.001938 0.000000
# 2 -0.000262 0.014730 -0.000184 0.000000 -0.000156 0.000000
# 3 -0.006087 -0.000184 0.010469 0.000000 -0.005684 0.000000
# 4 0.000000 0.000000 0.000000 0.281038 0.000000 -0.035716
# 5 0.001938 -0.000156 -0.005684 0.000000 0.033601 0.000000
# 6 0.000000 0.000000 0.000000 -0.035716 0.000000 0.192728
#
#
# Mechanical properties :
#
#
# Convention : Reuss Voigt Hill
#
# Bulk Modulus (GPa) = 48.34862 79.50008 63.92435
# Shear Modulus (GPa) = 8.91149 29.59695 19.25422
#
# Velocity S-wave (km/s) = 2.10632 3.83860 3.09608
# Velocity P-wave (km/s) = 5.47594 7.69583 6.67876
#
# Compressibility (1/GPa) = 0.02068311
#
# Stress axis : x y z
#
# Youngs Moduli (GPa) = 116.97137 67.88964 95.52333
#
# Poissons Ratio (x) = 0.01776 0.58144
# Poissons Ratio (y) = 0.03060 0.01755
# Poissons Ratio (z) = 0.71199 0.01247
#
# Static dielectric constant tensor:
#      x y z
#    x 1.717380 0.000000 0.013940 
#    y 0.000000 1.849430 0.000000 
#    z 0.013940 0.000000 1.690270 
# 
# From -- ./inp_files/109124.got.cif
#   From: 2010.05.17/outbox.cif.g08.bks.cpg/sg12_55_cif.got.tgz:109124.got - 2010.06.03 13:09:07.
