data_PCOD9222448
_publ_section_title
;
Structure prediction by ZEFSAII (Michael W. Deem and Ramdas Pophale) SiO2 
 PCOD9222448
Probable space group: C 2/M
;
_chemical_formula_sum "Si O2"
_cell_formula_units_Z 44
_cell_length_a 20.449487
_cell_length_b 13.276500
_cell_length_c 20.983193
_cell_angle_alpha 90.000000
_cell_angle_beta 159.551396
_cell_angle_gamma 90.000000
_cell_volume 1990.304366
_symmetry_space_group_name_H-M "C 2/M"
_symmetry_group_IT_number 12
_symmetry_cell_setting 'monoclinic'
loop_
_space_group_symop_operation_xyz
x,y,z
-x,y,-z
-x,-y,-z
x,-y,z
1/2+x,1/2+y,z
1/2-x,1/2+y,-z
1/2-x,1/2-y,-z
1/2+x,1/2-y,z
loop_
_atom_site_type_symbol
_atom_site_label
_atom_site_fract_x
_atom_site_fract_y
_atom_site_fract_z
Si Si1 0.872696 0.000000 0.602273
Si Si2 0.970706 0.184541 0.597285
Si Si3 0.044961 0.000000 0.895381
Si Si4 0.623119 0.114184 0.048834
Si Si5 0.049745 0.714723 0.794883
Si Si6 0.960711 0.500000 0.241958
Si Si7 0.615675 0.283545 0.238406
O O1 0.893072 0.905050 0.572664
O O2 0.676120 0.000000 0.462059
O O3 0.022194 0.000000 0.796712
O O4 0.819598 0.235355 0.412462
O O5 0.160533 0.141599 0.740568
O O6 0.028712 0.270161 0.700956
O O7 0.947358 0.102003 0.833021
O O8 0.271485 0.000000 0.111640
O O9 0.616890 0.000000 0.016062
O O10 0.500000 0.113089 0.000000
O O11 0.533008 0.203635 0.924870
O O12 0.043251 0.598500 0.803850
O O13 0.899897 0.774883 0.698946
O O14 0.250000 0.750000 0.000000
#
# Coordination Sequence:
#
# PCOD9222448 Si02
#       7
#     4   8   4   8   8   4   8
#     4  12  22  32  59  93 135 170 204 246 315 385
#     4  12  23  40  63  97 135 169 210 263 320 392
#     4  12  24  40  59  96 141 172 212 257 306 396
#     4  11  27  47  69  95 124 166 222 279 332 387
#     4  12  21  36  59  93 130 174 207 248 320 385
#     4  12  22  32  54  87 134 173 206 244 301 387
#     4  12  25  40  66  94 133 176 216 264 327 384
#
# _framework density 22.107171000000001
#
# number of rings (size 3 to 8) (size 9 to 14) (size 15 to 20)
#    0.000    0.182    8.182    1.636    2.545    0.727 
#    0.000    2.273    0.000    1.091    0.000    0.000 
#    0.000    0.000    0.000    0.000    0.000    0.000 
#
# Total GULP energy -122765.347719 kJ/mol
# GULP energy per Si atom -5580.243078 kJ/mol
# Density = 2.205685 g / cm^3
# Si number density = 22.107171 Si / 1000 Ang^3
#
#
#
# Elastic Constant Matrix: (Units=GPa)
#
#
# Indices 1 2 3 4 5 6 
#
# 1 46.3049 24.4675 22.4551 0.0009 24.0177 0.0008
# 2 24.4675 182.6247 44.4784 -0.0083 15.5234 -0.0013
# 3 22.4551 44.4784 133.7532 -0.0103 42.8181 -0.0012
# 4 0.0009 -0.0083 -0.0103 34.9071 -0.0001 6.2095
# 5 24.0177 15.5234 42.8181 -0.0001 26.5391 0.0003
# 6 0.0008 -0.0013 -0.0012 6.2095 0.0003 19.7801
#
#
#
# Elastic Compliance Matrix: (Units=1/GPa)
#
#
# Indices 1 2 3 4 5 6 
#
# 1 0.052453 -0.004790 0.014656 0.000002 -0.068313 -0.000001
# 2 -0.004790 0.006400 -0.003130 0.000001 0.005642 0.000000
# 3 0.014656 -0.003130 0.020096 0.000005 -0.043856 0.000000
# 4 0.000002 0.000001 0.000005 0.030342 -0.000010 -0.009525
# 5 -0.068313 0.005642 -0.043856 -0.000010 0.166960 0.000001
# 6 -0.000001 0.000000 0.000000 -0.009525 0.000001 0.053546
#
#
# Mechanical properties :
#
#
# Convention : Reuss Voigt Hill
#
# Bulk Modulus (GPa) = 10.82013 60.60942 35.71478
# Shear Modulus (GPa) = 14.40371 34.33074 24.36722
#
# Velocity S-wave (km/s) = 2.55530 3.94499 3.32359
# Velocity P-wave (km/s) = 3.68932 6.94452 5.56046
#
# Compressibility (1/GPa) = 0.09242033
#
# Stress axis : x y z
#
# Youngs Moduli (GPa) = 19.06471 156.24271 49.76040
#
# Poissons Ratio (x) = 0.74843 -0.72928
# Poissons Ratio (y) = 0.09132 0.15576
# Poissons Ratio (z) = -0.27941 0.48907
#
# Static dielectric constant tensor:
#      x y z
#    x 1.829640 0.000000 0.056850 
#    y 0.000000 1.807700 0.000000 
#    z 0.056850 0.000000 1.879830 
# 
# From -- ./inp_files/349451.got.cif
#   From: 2010.05.17/outbox.cif.g08.bks.cpg/sg12_175_cif.got.tgz:349451.got - 2010.06.03 13:09:07.
