data_PCOD9222287
_publ_section_title
;
Structure prediction by ZEFSAII (Michael W. Deem and Ramdas Pophale) SiO2 
 PCOD9222287
Probable space group: C 2/M
;
_chemical_formula_sum "Si O2"
_cell_formula_units_Z 32
_cell_length_a 8.824227
_cell_length_b 32.631689
_cell_length_c 4.808889
_cell_angle_alpha 90.000000
_cell_angle_beta 108.692146
_cell_angle_gamma 90.000000
_cell_volume 1311.678879
_symmetry_space_group_name_H-M "C 2/M"
_symmetry_group_IT_number 12
_symmetry_cell_setting 'monoclinic'
loop_
_space_group_symop_operation_xyz
x,y,z
-x,y,-z
-x,-y,-z
x,-y,z
1/2+x,1/2+y,z
1/2-x,1/2+y,-z
1/2-x,1/2-y,-z
1/2+x,1/2-y,z
loop_
_atom_site_type_symbol
_atom_site_label
_atom_site_fract_x
_atom_site_fract_y
_atom_site_fract_z
Si Si1 0.661492 0.293165 0.913876
Si Si2 0.831939 0.674374 0.484598
Si Si3 0.851623 0.584281 0.716967
Si Si4 0.309939 0.454082 0.918322
O O1 0.748288 0.328880 0.139309
O O2 0.500000 0.288349 0.000000
O O3 0.750000 0.250000 0.000000
O O4 0.703776 0.304590 0.618748
O O5 0.876532 0.630777 0.638547
O O6 0.000000 0.696776 0.500000
O O7 0.794724 0.559242 0.411546
O O8 0.710310 0.578704 0.850800
O O9 0.000000 0.570420 0.000000
O O10 0.256871 0.500000 0.973057
O O11 0.500000 0.456353 0.000000
#
# Coordination Sequence:
#
# PCOD9222287 Si02
#       4
#     8   8   8   8
#     4  12  26  45  70 102 137 180 232 286 348 417
#     4  12  25  45  69  98 139 181 227 288 352 416
#     4  12  25  43  69 101 137 182 236 293 355 421
#     4  11  25  44  67  98 139 185 234 293 358 423
#
# _framework density 24.396217
#
# number of rings (size 3 to 8) (size 9 to 14) (size 15 to 20)
#    0.000    0.250    0.000   10.500    0.000   11.000 
#    0.000    0.000    0.000    0.000    0.000    0.000 
#    0.000    0.000    0.000    0.000    0.000    0.000 
#
# Total GULP energy -89216.669070 kJ/mol
# GULP energy per Si atom -5576.041817 kJ/mol
# Density = 2.434069 g / cm^3
# Si number density = 24.396217 Si / 1000 Ang^3
#
#
#
# Elastic Constant Matrix: (Units=GPa)
#
#
# Indices 1 2 3 4 5 6 
#
# 1 159.8719 32.5134 24.8022 0.0000 -24.8626 0.0000
# 2 32.5134 72.0142 31.2115 0.0000 -11.8444 0.0000
# 3 24.8022 31.2115 148.2031 0.0000 -26.4199 0.0000
# 4 0.0000 0.0000 0.0000 12.1554 0.0000 -35.8493
# 5 -24.8626 -11.8444 -26.4199 0.0000 38.0721 0.0000
# 6 0.0000 0.0000 0.0000 -35.8493 0.0000 -48.6369
#
#
#
# Elastic Compliance Matrix: (Units=1/GPa)
#
#
# Indices 1 2 3 4 5 6 
#
# 1 0.007427 -0.002709 0.000048 0.000000 0.004040 0.000000
# 2 -0.002709 0.016550 -0.002773 0.000000 0.001456 0.000000
# 3 0.000048 -0.002773 0.008188 0.000000 0.004851 0.000000
# 4 0.000000 0.000000 0.000000 0.025921 0.000000 -0.019106
# 5 0.004040 0.001456 0.004851 0.000000 0.032724 0.000000
# 6 0.000000 0.000000 0.000000 -0.019106 0.000000 -0.006478
#
#
# Mechanical properties :
#
#
# Convention : Reuss Voigt Hill
#
# Bulk Modulus (GPa) = 46.95394 61.90480 54.42937
# Shear Modulus (GPa) = 48.87638 19.75560 34.31599
#
# Velocity S-wave (km/s) = 4.48084 2.84875 3.75455
# Velocity P-wave (km/s) = 6.78666 6.02083 6.41518
#
# Compressibility (1/GPa) = 0.02129747
#
# Stress axis : x y z
#
# Youngs Moduli (GPa) = 134.64504 60.42118 122.12791
#
# Poissons Ratio (x) = 0.16371 -0.00586
# Poissons Ratio (y) = 0.36481 0.33861
# Poissons Ratio (z) = -0.00646 0.16752
#
# Static dielectric constant tensor:
#      x y z
#    x 2.087670 0.000000 0.001910 
#    y 0.000000 1.882540 0.000000 
#    z 0.001910 0.000000 1.960090 
# 
# From -- ./inp_files/3891.got.cif
#   From: 2010.05.17/outbox.cif.g08.bks.cpg/sg12_2_cif.got.tgz:3891.got - 2010.06.03 13:09:07.
