data_PCOD9222555
_publ_section_title
;
Structure prediction by ZEFSAII (Michael W. Deem and Ramdas Pophale) SiO2 
 PCOD9222555
Probable space group: C 2/M
;
_chemical_formula_sum "Si O2"
_cell_formula_units_Z 28
_cell_length_a 10.531779
_cell_length_b 9.341026
_cell_length_c 11.218344
_cell_angle_alpha 90.000000
_cell_angle_beta 74.183734
_cell_angle_gamma 90.000000
_cell_volume 1061.851140
_symmetry_space_group_name_H-M "C 2/M"
_symmetry_group_IT_number 12
_symmetry_cell_setting 'monoclinic'
loop_
_space_group_symop_operation_xyz
x,y,z
-x,y,-z
-x,-y,-z
x,-y,z
1/2+x,1/2+y,z
1/2-x,1/2+y,-z
1/2-x,1/2-y,-z
1/2+x,1/2-y,z
loop_
_atom_site_type_symbol
_atom_site_label
_atom_site_fract_x
_atom_site_fract_y
_atom_site_fract_z
Si Si1 0.225045 0.500000 0.946183
Si Si2 0.278004 0.000000 0.316771
Si Si3 0.723245 0.000000 0.211851
Si Si4 0.998045 0.258567 0.738721
Si Si5 0.000000 0.742298 0.000000
Si Si6 0.601645 0.500000 0.595486
O O1 0.287439 0.500000 0.798685
O O2 0.127133 0.362965 0.969778
O O3 0.288160 0.500000 0.062196
O O4 0.375694 0.136437 0.296314
O O5 0.189835 0.000000 0.456147
O O6 0.628619 0.139538 0.240624
O O7 0.808129 0.000000 0.308711
O O8 0.996131 0.187908 0.871270
O O9 0.016720 0.143151 0.632228
#
# Coordination Sequence:
#
# PCOD9222555 Si02
#       6
#     4   4   4   8   4   4
#     4   7  12  30  58  77 105 156 191 225 287 340
#     4   9  18  36  58  81 119 159 186 232 297 348
#     4   9  20  40  62  84 113 153 200 240 282 346
#     4   9  19  36  58  84 119 152 189 244 291 335
#     4   7  12  29  54  76 108 150 182 230 288 326
#     4  12  22  34  62  92 113 152 197 235 294 352
#
# _framework density 26.369042
#
# number of rings (size 3 to 8) (size 9 to 14) (size 15 to 20)
#    0.000    3.143    0.000    4.286    0.000    2.857 
#    0.000   15.714    0.000   10.286    0.000    0.000 
#    0.000    0.000    0.000    0.000    0.000    0.000 
#
# Total GULP energy -78469.515127 kJ/mol
# GULP energy per Si atom -5604.965366 kJ/mol
# Density = 2.630903 g / cm^3
# Si number density = 26.369042 Si / 1000 Ang^3
#
#
#
# Elastic Constant Matrix: (Units=GPa)
#
#
# Indices 1 2 3 4 5 6 
#
# 1 90.7805 35.3878 79.0652 0.0000 27.3884 0.0000
# 2 35.3878 104.9104 70.1246 0.0000 -10.0293 0.0000
# 3 79.0652 70.1246 286.5887 0.0000 -9.0090 0.0000
# 4 0.0000 0.0000 0.0000 29.4081 0.0000 3.4858
# 5 27.3884 -10.0293 -9.0090 0.0000 56.9392 0.0000
# 6 0.0000 0.0000 0.0000 3.4858 0.0000 30.5769
#
#
#
# Elastic Compliance Matrix: (Units=1/GPa)
#
#
# Indices 1 2 3 4 5 6 
#
# 1 0.020609 -0.004795 -0.004875 0.000000 -0.011529 0.000000
# 2 -0.004795 0.012654 -0.001639 0.000000 0.004276 0.000000
# 3 -0.004875 -0.001639 0.005326 0.000000 0.002899 0.000000
# 4 0.000000 0.000000 0.000000 0.034470 0.000000 -0.003930
# 5 -0.011529 0.004276 0.002899 0.000000 0.024320 0.000000
# 6 0.000000 0.000000 0.000000 -0.003930 0.000000 0.033152
#
#
# Mechanical properties :
#
#
# Convention : Reuss Voigt Hill
#
# Bulk Modulus (GPa) = 62.61360 94.60387 78.60873
# Shear Modulus (GPa) = 31.55114 43.23165 37.39139
#
# Velocity S-wave (km/s) = 3.46283 4.05345 3.76972
# Velocity P-wave (km/s) = 6.30753 7.60671 6.98738
#
# Compressibility (1/GPa) = 0.01597097
#
# Stress axis : x y z
#
# Youngs Moduli (GPa) = 48.52286 79.02808 187.74833
#
# Poissons Ratio (x) = 0.37898 0.91521
# Poissons Ratio (y) = 0.23269 0.30768
# Poissons Ratio (z) = 0.23653 0.12951
#
# Static dielectric constant tensor:
#      x y z
#    x 2.081550 0.000000 -0.006400 
#    y 0.000000 2.042240 0.000000 
#    z -0.006400 0.000000 1.967920 
# 
# From -- ./inp_files/138267.got.cif
#   From: 2010.05.17/outbox.cif.g08.bks.cpg/sg12_70_cif.got.tgz:138267.got - 2010.06.03 13:09:07.
