data_PCOD9222933
_publ_section_title
;
Structure prediction by ZEFSAII (Michael W. Deem and Ramdas Pophale) SiO2 
 PCOD9222933
Probable space group: C 2/M
;
_chemical_formula_sum "Si O2"
_cell_formula_units_Z 40
_cell_length_a 14.632533
_cell_length_b 9.081658
_cell_length_c 17.872356
_cell_angle_alpha 90.000000
_cell_angle_beta 51.081711
_cell_angle_gamma 90.000000
_cell_volume 1847.863437
_symmetry_space_group_name_H-M "C 2/M"
_symmetry_group_IT_number 12
_symmetry_cell_setting 'monoclinic'
loop_
_space_group_symop_operation_xyz
x,y,z
-x,y,-z
-x,-y,-z
x,-y,z
1/2+x,1/2+y,z
1/2-x,1/2+y,-z
1/2-x,1/2-y,-z
1/2+x,1/2-y,z
loop_
_atom_site_type_symbol
_atom_site_label
_atom_site_fract_x
_atom_site_fract_y
_atom_site_fract_z
Si Si1 0.043813 0.177737 0.804756
Si Si2 0.747908 0.323134 0.204939
Si Si3 0.188076 0.164663 0.598674
Si Si4 0.608620 0.170768 0.004329
Si Si5 0.597891 0.832523 0.394708
O O1 0.145789 0.252968 0.801927
O O2 0.075430 0.222650 0.703163
O O3 0.051082 0.000000 0.803896
O O4 0.926979 0.231597 0.906673
O O5 0.750091 0.500000 0.209364
O O6 0.779085 0.284589 0.103277
O O7 0.633150 0.258891 0.303888
O O8 0.250000 0.250000 0.500000
O O9 0.287797 0.156683 0.611484
O O10 0.160369 0.000000 0.586361
O O11 0.619618 0.000000 0.021044
O O12 0.500000 0.177324 0.000000
O O13 0.500000 0.766682 0.500000
O O14 0.561678 0.000000 0.393007
#
# Coordination Sequence:
#
# PCOD9222933 Si02
#       5
#     8   8   8   8   8
#     4   9  16  25  38  58  83 111 144 177 212 255
#     4   9  16  25  38  59  86 112 140 174 214 259
#     4   9  18  30  44  64  88 115 145 177 214 255
#     4   8  14  23  35  55  83 111 137 170 214 259
#     4   9  18  32  47  64  88 116 147 181 215 255
#
# _framework density 21.646621
#
# number of rings (size 3 to 8) (size 9 to 14) (size 15 to 20)
#    0.000    3.200    0.000    3.600    0.000    8.800 
#    0.000    0.000    0.000    0.000    0.000    1.400 
#    0.000    0.000    0.000    0.000    0.000    0.000 
#
# Total GULP energy -111397.085546 kJ/mol
# GULP energy per Si atom -5569.854277 kJ/mol
# Density = 2.159735 g / cm^3
# Si number density = 21.646621 Si / 1000 Ang^3
#
#
#
# Elastic Constant Matrix: (Units=GPa)
#
#
# Indices 1 2 3 4 5 6 
#
# 1 50.7582 5.0788 9.7945 0.0000 4.4153 0.0000
# 2 5.0788 66.6355 102.0762 0.0000 9.2763 0.0000
# 3 9.7945 102.0762 300.7326 0.0000 9.5110 0.0000
# 4 0.0000 0.0000 0.0000 45.9003 0.0000 0.6390
# 5 4.4153 9.2763 9.5110 0.0000 12.2171 0.0000
# 6 0.0000 0.0000 0.0000 0.6390 0.0000 -1.1434
#
#
#
# Elastic Compliance Matrix: (Units=1/GPa)
#
#
# Indices 1 2 3 4 5 6 
#
# 1 0.020399 0.000232 -0.000517 0.000000 -0.007146 0.000000
# 2 0.000232 0.034582 -0.011188 0.000000 -0.017632 0.000000
# 3 -0.000517 -0.011188 0.007038 0.000000 0.003203 0.000000
# 4 0.000000 0.000000 0.000000 0.021618 0.000000 0.012082
# 5 -0.007146 -0.017632 0.003203 0.000000 0.095330 0.000000
# 6 0.000000 0.000000 0.000000 0.012082 0.000000 -0.867852
#
#
# Mechanical properties :
#
#
# Convention : Reuss Voigt Hill
#
# Bulk Modulus (GPa) = 25.59228 72.44725 49.01977
# Shear Modulus (GPa) = -7.65798 31.47327 11.90764
#
# Velocity S-wave (km/s) = -1.88292 3.81722 2.34795
# Velocity P-wave (km/s) = 2.66856 7.27798 5.48134
#
# Compressibility (1/GPa) = 0.03907429
#
# Stress axis : x y z
#
# Youngs Moduli (GPa) = 49.02091 28.91642 142.08005
#
# Poissons Ratio (x) = -0.00672 0.07349
# Poissons Ratio (y) = -0.01139 1.58960
# Poissons Ratio (z) = 0.02536 0.32352
#
# Static dielectric constant tensor:
#      x y z
#    x 2.040220 0.000000 -0.129940 
#    y 0.000000 1.746420 0.000000 
#    z -0.129940 0.000000 1.904420 
# 
# From -- ./inp_files/171381.got.cif
#   From: 2010.05.17/outbox.cif.g08.bks.cpg/sg12_86_cif.got.tgz:171381.got - 2010.06.03 13:09:07.
