data_PCOD9222228
_publ_section_title
;
Structure prediction by ZEFSAII (Michael W. Deem and Ramdas Pophale) SiO2 
 PCOD9222228
Probable space group: C 2/M
;
_chemical_formula_sum "Si O2"
_cell_formula_units_Z 34
_cell_length_a 14.698569
_cell_length_b 7.312502
_cell_length_c 17.804146
_cell_angle_alpha 90.000000
_cell_angle_beta 130.720177
_cell_angle_gamma 90.000000
_cell_volume 1450.363199
_symmetry_space_group_name_H-M "C 2/M"
_symmetry_group_IT_number 12
_symmetry_cell_setting 'monoclinic'
loop_
_space_group_symop_operation_xyz
x,y,z
-x,y,-z
-x,-y,-z
x,-y,z
1/2+x,1/2+y,z
1/2-x,1/2+y,-z
1/2-x,1/2-y,-z
1/2+x,1/2-y,z
loop_
_atom_site_type_symbol
_atom_site_label
_atom_site_fract_x
_atom_site_fract_y
_atom_site_fract_z
Si Si1 0.500000 0.500000 0.000000
Si Si2 0.224390 0.721671 0.371728
Si Si3 0.947795 0.209440 0.585989
Si Si4 0.714387 0.722201 0.755855
Si Si5 0.661999 0.783955 0.022742
O O1 0.544469 0.660603 0.963838
O O2 0.224028 0.500000 0.375861
O O3 0.122170 0.787222 0.372742
O O4 0.352617 0.785697 0.474833
O O5 0.212962 0.775112 0.279341
O O6 0.078838 0.288747 0.669017
O O7 0.967829 0.000000 0.573125
O O8 0.711800 0.500000 0.757786
O O9 0.769308 0.780537 0.864144
O O10 0.635564 0.000000 0.012002
O O11 0.750000 0.750000 0.000000
#
# Coordination Sequence:
#
# PCOD9222228 Si02
#       5
#     2   8   8   8   8
#     4  12  26  48  76 100 134 184 220 292 358 416
#     4   9  17  32  53  82 120 159 204 245 307 380
#     4   9  17  32  54  81 118 162 198 251 309 371
#     4   9  19  36  59  87 119 159 211 259 318 391
#     4  11  24  47  72 101 138 177 230 288 350 416
#
# _framework density 23.442404
#
# number of rings (size 3 to 8) (size 9 to 14) (size 15 to 20)
#    0.000    2.353    1.176    1.059    0.000    4.706 
#    8.471    2.353    0.000    5.647    0.000    0.000 
#    0.000    0.000    0.000    0.000    0.000    0.471 
#
# Total GULP energy -94750.297150 kJ/mol
# GULP energy per Si atom -5573.546891 kJ/mol
# Density = 2.338905 g / cm^3
# Si number density = 23.442404 Si / 1000 Ang^3
#
#
#
# Elastic Constant Matrix: (Units=GPa)
#
#
# Indices 1 2 3 4 5 6 
#
# 1 92.1638 12.3400 66.4769 0.0000 -28.9700 0.0000
# 2 12.3400 147.4356 2.0770 0.0000 0.3661 0.0000
# 3 66.4769 2.0770 88.7122 0.0000 -36.5592 0.0000
# 4 0.0000 0.0000 0.0000 -6.9374 0.0000 -14.8039
# 5 -28.9700 0.3661 -36.5592 0.0000 41.4709 0.0000
# 6 0.0000 0.0000 0.0000 -14.8039 0.0000 21.3552
#
#
#
# Elastic Compliance Matrix: (Units=1/GPa)
#
#
# Indices 1 2 3 4 5 6 
#
# 1 0.024122 -0.001778 -0.017408 0.000000 0.001520 0.000000
# 2 -0.001778 0.006918 0.000994 0.000000 -0.000426 0.000000
# 3 -0.017408 0.000994 0.030279 0.000000 0.014524 0.000000
# 4 0.000000 0.000000 0.000000 -0.058140 0.000000 -0.040304
# 5 0.001520 -0.000426 0.014524 0.000000 0.037983 0.000000
# 6 0.000000 0.000000 0.000000 -0.040304 0.000000 0.018887
#
#
# Mechanical properties :
#
#
# Convention : Reuss Voigt Hill
#
# Bulk Modulus (GPa) = 40.09979 54.45548 47.27763
# Shear Modulus (GPa) = 47.73505 27.67226 37.70365
#
# Velocity S-wave (km/s) = 4.51740 3.43947 4.01478
# Velocity P-wave (km/s) = 6.65973 6.24926 6.45776
#
# Compressibility (1/GPa) = 0.02493779
#
# Stress axis : x y z
#
# Youngs Moduli (GPa) = 41.45518 144.54112 33.02590
#
# Poissons Ratio (x) = 0.25693 0.57492
# Poissons Ratio (y) = 0.07369 -0.03284
# Poissons Ratio (z) = 0.72165 -0.14373
#
# Static dielectric constant tensor:
#      x y z
#    x 1.863720 0.000000 0.056370 
#    y 0.000000 1.902810 0.000000 
#    z 0.056370 0.000000 1.958510 
# 
# From -- ./inp_files/210679.got.cif
#   From: 2010.05.17/outbox.cif.g08.bks.cpg/sg12_106_cif.got.tgz:210679.got - 2010.06.03 13:09:07.
