data_PCOD9222583
_publ_section_title
;
Structure prediction by ZEFSAII (Michael W. Deem and Ramdas Pophale) SiO2 
 PCOD9222583
Probable space group: C 2/M
;
_chemical_formula_sum "Si O2"
_cell_formula_units_Z 36
_cell_length_a 16.123179
_cell_length_b 20.462571
_cell_length_c 11.762031
_cell_angle_alpha 90.000000
_cell_angle_beta 26.514344
_cell_angle_gamma 90.000000
_cell_volume 1732.361939
_symmetry_space_group_name_H-M "C 2/M"
_symmetry_group_IT_number 12
_symmetry_cell_setting 'monoclinic'
loop_
_space_group_symop_operation_xyz
x,y,z
-x,y,-z
-x,-y,-z
x,-y,z
1/2+x,1/2+y,z
1/2-x,1/2+y,-z
1/2-x,1/2-y,-z
1/2+x,1/2-y,z
loop_
_atom_site_type_symbol
_atom_site_label
_atom_site_fract_x
_atom_site_fract_y
_atom_site_fract_z
Si Si1 0.500000 0.618345 0.000000
Si Si2 0.777964 0.662364 0.269502
Si Si3 0.219604 0.674394 0.998328
Si Si4 0.626875 0.800832 0.458329
Si Si5 0.985643 0.074443 0.267412
O O1 0.319016 0.662786 0.200457
O O2 0.458361 0.578740 0.165462
O O3 0.683473 0.728832 0.431020
O O4 0.688272 0.603184 0.448808
O O5 0.731440 0.663885 0.192743
O O6 0.000000 0.664887 0.000000
O O7 0.002042 0.663967 0.290793
O O8 0.250000 0.750000 0.000000
O O9 0.345284 0.623343 0.911424
O O10 0.500000 0.798394 0.500000
O O11 0.024706 0.000000 0.252802
#
# Coordination Sequence:
#
# PCOD9222583 Si02
#       5
#     4   8   8   8   8
#     4  12  25  46  74 104 141 190 246 298 357 422
#     4  12  25  42  71 108 146 187 238 297 361 427
#     4  12  23  43  70 107 142 181 242 297 352 423
#     4  12  22  41  72 109 140 179 238 305 354 411
#     4  12  27  47  71 102 148 196 237 294 361 430
#
# _framework density 20.780877
#
# number of rings (size 3 to 8) (size 9 to 14) (size 15 to 20)
#    0.000    0.000    7.778    2.333    0.000    4.000 
#    0.000    5.556    0.000    0.000    0.000    0.000 
#    0.000    0.000    0.000    0.000    0.000    0.000 
#
# Total GULP energy -100675.641190 kJ/mol
# GULP energy per Si atom -5593.091177 kJ/mol
# Density = 2.073358 g / cm^3
# Si number density = 20.780877 Si / 1000 Ang^3
#
#
#
# Elastic Constant Matrix: (Units=GPa)
#
#
# Indices 1 2 3 4 5 6 
#
# 1 98.7404 45.8187 40.1381 0.0118 12.6086 -0.0062
# 2 45.8187 136.5332 53.8316 0.0184 -9.2327 -0.0087
# 3 40.1381 53.8316 162.1790 0.0447 -5.7284 -0.0209
# 4 0.0118 0.0184 0.0447 14.7322 -0.0227 -1.6183
# 5 12.6086 -9.2327 -5.7284 -0.0227 46.6677 0.0105
# 6 -0.0062 -0.0087 -0.0209 -1.6183 0.0105 14.7359
#
#
#
# Elastic Compliance Matrix: (Units=1/GPa)
#
#
# Indices 1 2 3 4 5 6 
#
# 1 0.013455 -0.003974 -0.002176 -0.000006 -0.004689 0.000003
# 2 -0.003974 0.009684 -0.002134 0.000002 0.002728 -0.000001
# 3 -0.002176 -0.002134 0.007451 -0.000016 0.001080 0.000006
# 4 -0.000006 0.000002 -0.000016 0.068707 0.000032 0.007545
# 5 -0.004689 0.002728 0.001080 0.000032 0.023367 -0.000012
# 6 0.000003 -0.000001 0.000006 0.007545 -0.000012 0.068690
#
#
# Mechanical properties :
#
#
# Convention : Reuss Voigt Hill
#
# Bulk Modulus (GPa) = 71.32634 75.22550 73.27592
# Shear Modulus (GPa) = 23.51846 32.40477 27.96161
#
# Velocity S-wave (km/s) = 3.36778 3.95315 3.67215
# Velocity P-wave (km/s) = 7.03705 7.55741 7.30187
#
# Compressibility (1/GPa) = 0.01402007
#
# Stress axis : x y z
#
# Youngs Moduli (GPa) = 74.32038 103.26363 134.20422
#
# Poissons Ratio (x) = 0.41040 0.29210
# Poissons Ratio (y) = 0.29537 0.28645
# Poissons Ratio (z) = 0.16176 0.22041
#
# Static dielectric constant tensor:
#      x y z
#    x 1.814130 0.000000 0.024990 
#    y 0.000000 1.712260 0.000000 
#    z 0.024990 0.000000 1.783120 
# 
# From -- ./inp_files/147438.got.cif
#   From: 2010.05.17/outbox.cif.g08.bks.cpg/sg12_74_cif.got.tgz:147438.got - 2010.06.03 13:09:07.
