data_PCOD9222635
_publ_section_title
;
Structure prediction by ZEFSAII (Michael W. Deem and Ramdas Pophale) SiO2 
 PCOD9222635
Probable space group: C 2/M
;
_chemical_formula_sum "Si O2"
_cell_formula_units_Z 48
_cell_length_a 14.911111
_cell_length_b 27.023257
_cell_length_c 11.721915
_cell_angle_alpha 90.000000
_cell_angle_beta 152.717471
_cell_angle_gamma 90.000000
_cell_volume 2165.063149
_symmetry_space_group_name_H-M "C 2/M"
_symmetry_group_IT_number 12
_symmetry_cell_setting 'monoclinic'
loop_
_space_group_symop_operation_xyz
x,y,z
-x,y,-z
-x,-y,-z
x,-y,z
1/2+x,1/2+y,z
1/2-x,1/2+y,-z
1/2-x,1/2-y,-z
1/2+x,1/2-y,z
loop_
_atom_site_type_symbol
_atom_site_label
_atom_site_fract_x
_atom_site_fract_y
_atom_site_fract_z
Si Si1 0.878873 0.056704 0.691304
Si Si2 0.783555 0.442967 0.235446
Si Si3 0.877061 0.811024 0.470510
Si Si4 0.243345 0.190616 0.021362
Si Si5 0.387803 0.857288 0.664028
Si Si6 0.766935 0.799219 0.731025
O O1 0.807402 0.055449 0.741560
O O2 0.710456 0.088716 0.441316
O O3 0.885683 0.000000 0.657698
O O4 0.105038 0.076406 0.954023
O O5 0.815996 0.500000 0.232855
O O6 0.000000 0.420606 0.500000
O O7 0.676401 0.833097 0.289455
O O8 0.834439 0.753299 0.404965
O O9 0.000000 0.828665 0.500000
O O10 0.022024 0.820985 0.739390
O O11 0.388418 0.157638 0.108578
O O12 0.289469 0.183049 0.206181
O O13 0.250000 0.250000 0.000000
O O14 0.288972 0.833462 0.438152
O O15 0.000000 0.792794 0.000000
#
# Coordination Sequence:
#
# PCOD9222635 Si02
#       6
#     8   8   8   8   8   8
#     4   9  20  36  54  84 124 160 206 259 307 369
#     4   8  15  30  55  81 116 162 197 244 311 367
#     4  12  25  41  61  88 126 162 209 257 311 370
#     4  12  23  42  61  90 126 165 204 252 309 377
#     4  12  25  38  62  93 123 168 211 253 311 371
#     4  12  23  39  64  90 129 164 201 251 311 376
#
# _framework density 22.170255000000001
#
# number of rings (size 3 to 8) (size 9 to 14) (size 15 to 20)
#    0.000    1.167    5.000    3.000    2.333    2.667 
#    0.000    0.000    0.000    0.500    0.000    1.167 
#    0.000    0.000    0.000    0.000    0.000    0.000 
#
# Total GULP energy -133926.845766 kJ/mol
# GULP energy per Si atom -5580.285240 kJ/mol
# Density = 2.211979 g / cm^3
# Si number density = 22.170255 Si / 1000 Ang^3
#
#
#
# Elastic Constant Matrix: (Units=GPa)
#
#
# Indices 1 2 3 4 5 6 
#
# 1 107.7623 19.8200 12.2277 0.0000 16.6809 0.0000
# 2 19.8200 82.9576 24.5405 0.0000 6.4845 0.0000
# 3 12.2277 24.5405 107.2724 0.0000 29.7495 0.0000
# 4 0.0000 0.0000 0.0000 24.8280 0.0000 8.9082
# 5 16.6809 6.4845 29.7495 0.0000 43.8570 0.0000
# 6 0.0000 0.0000 0.0000 8.9082 0.0000 8.6212
#
#
#
# Elastic Compliance Matrix: (Units=1/GPa)
#
#
# Indices 1 2 3 4 5 6 
#
# 1 0.010245 -0.002271 0.000418 0.000000 -0.003844 0.000000
# 2 -0.002271 0.013433 -0.003083 0.000000 0.000969 0.000000
# 3 0.000418 -0.003083 0.012191 0.000000 -0.007972 0.000000
# 4 0.000000 0.000000 0.000000 0.064007 0.000000 -0.066138
# 5 -0.003844 0.000969 -0.007972 0.000000 0.029528 0.000000
# 6 0.000000 0.000000 0.000000 -0.066138 0.000000 0.184332
#
#
# Mechanical properties :
#
#
# Convention : Reuss Voigt Hill
#
# Bulk Modulus (GPa) = 38.46594 45.68542 42.07568
# Shear Modulus (GPa) = 15.04783 31.55485 23.30134
#
# Velocity S-wave (km/s) = 2.60809 3.77675 3.24546
# Velocity P-wave (km/s) = 5.14368 6.29840 5.75010
#
# Compressibility (1/GPa) = 0.02599703
#
# Stress axis : x y z
#
# Youngs Moduli (GPa) = 97.60861 74.44277 82.03008
#
# Poissons Ratio (x) = 0.16905 -0.03427
# Poissons Ratio (y) = 0.22165 0.25289
# Poissons Ratio (z) = -0.04078 0.22950
#
# Static dielectric constant tensor:
#      x y z
#    x 1.818300 0.000000 0.042580 
#    y 0.000000 1.949030 0.000000 
#    z 0.042580 0.000000 1.876720 
# 
# From -- ./inp_files/150335.got.cif
#   From: 2010.05.17/outbox.cif.g08.bks.cpg/sg12_76_cif.got.tgz:150335.got - 2010.06.03 13:09:07.
