data_PCOD9222427
_publ_section_title
;
Structure prediction by ZEFSAII (Michael W. Deem and Ramdas Pophale) SiO2 
 PCOD9222427
Probable space group: C 2/M
;
_chemical_formula_sum "Si O2"
_cell_formula_units_Z 34
_cell_length_a 9.866379
_cell_length_b 14.253480
_cell_length_c 13.956765
_cell_angle_alpha 90.000000
_cell_angle_beta 133.391182
_cell_angle_gamma 90.000000
_cell_volume 1426.286993
_symmetry_space_group_name_H-M "C 2/M"
_symmetry_group_IT_number 12
_symmetry_cell_setting 'monoclinic'
loop_
_space_group_symop_operation_xyz
x,y,z
-x,y,-z
-x,-y,-z
x,-y,z
1/2+x,1/2+y,z
1/2-x,1/2+y,-z
1/2-x,1/2-y,-z
1/2+x,1/2-y,z
loop_
_atom_site_type_symbol
_atom_site_label
_atom_site_fract_x
_atom_site_fract_y
_atom_site_fract_z
Si Si1 0.000000 0.500000 0.000000
Si Si2 0.756884 0.000000 0.305584
Si Si3 0.743591 0.500000 0.464027
Si Si4 0.500000 0.844459 0.500000
Si Si5 0.453555 0.709360 0.119706
Si Si6 0.668799 0.703038 0.729568
Si Si7 0.437026 0.500000 0.145176
O O1 0.935216 0.500000 0.851281
O O2 0.777076 0.500000 0.921107
O O3 0.847761 0.900860 0.320039
O O4 0.766832 0.000000 0.425908
O O5 0.864365 0.409343 0.495086
O O6 0.578706 0.500000 0.304309
O O7 0.611590 0.778961 0.625172
O O8 0.455412 0.714130 0.236427
O O9 0.612665 0.772097 0.147946
O O10 0.468377 0.598259 0.105114
O O11 0.250000 0.750000 0.000000
#
# Coordination Sequence:
#
# PCOD9222427 Si02
#       7
#     2   4   4   4   8   8   4
#     4  12  24  46  72 110 144 188 254 308 368 450
#     4  12  27  45  76 109 152 200 249 320 374 446
#     4  11  26  51  74 110 152 203 248 323 383 448
#     4  11  26  47  74 108 156 191 260 309 386 460
#     4  12  26  47  73 107 151 199 251 308 381 451
#     4  12  26  46  74 110 148 198 250 315 374 451
#     4  12  25  49  77 108 149 197 252 316 366 464
#
# _framework density 23.838118999999999
#
# number of rings (size 3 to 8) (size 9 to 14) (size 15 to 20)
#    0.000    0.235    4.706    3.529    3.294    2.824 
#    0.000    3.529    0.000    0.000    0.000    0.000 
#    0.000    0.000    0.000    0.000    0.000    0.000 
#
# Total GULP energy -94897.314754 kJ/mol
# GULP energy per Si atom -5582.194986 kJ/mol
# Density = 2.378386 g / cm^3
# Si number density = 23.838119 Si / 1000 Ang^3
#
#
#
# Elastic Constant Matrix: (Units=GPa)
#
#
# Indices 1 2 3 4 5 6 
#
# 1 98.1876 24.7787 17.9978 0.0000 -9.3730 0.0000
# 2 24.7787 163.7994 21.7708 0.0000 -10.6232 0.0000
# 3 17.9978 21.7708 140.0628 0.0000 -0.8875 0.0000
# 4 0.0000 0.0000 0.0000 17.4061 0.0000 10.2680
# 5 -9.3730 -10.6232 -0.8875 0.0000 47.2490 0.0000
# 6 0.0000 0.0000 0.0000 10.2680 0.0000 33.8417
#
#
#
# Elastic Compliance Matrix: (Units=1/GPa)
#
#
# Indices 1 2 3 4 5 6 
#
# 1 0.010923 -0.001377 -0.001178 0.000000 0.001835 0.000000
# 2 -0.001377 0.006499 -0.000826 0.000000 0.001173 0.000000
# 3 -0.001178 -0.000826 0.007418 0.000000 -0.000280 0.000000
# 4 0.000000 0.000000 0.000000 0.069976 0.000000 -0.021231
# 5 0.001835 0.001173 -0.000280 0.000000 0.021787 0.000000
# 6 0.000000 0.000000 0.000000 -0.021231 0.000000 0.035991
#
#
# Mechanical properties :
#
#
# Convention : Reuss Voigt Hill
#
# Bulk Modulus (GPa) = 55.31394 59.01604 57.16499
# Shear Modulus (GPa) = 30.23322 42.19954 36.21638
#
# Velocity S-wave (km/s) = 3.56514 4.21200 3.90200
# Velocity P-wave (km/s) = 6.34045 6.96171 6.65833
#
# Compressibility (1/GPa) = 0.01807863
#
# Stress axis : x y z
#
# Youngs Moduli (GPa) = 91.54874 153.86707 134.81426
#
# Poissons Ratio (x) = 0.21184 0.15881
# Poissons Ratio (y) = 0.12604 0.11134
# Poissons Ratio (z) = 0.10784 0.12707
#
# Static dielectric constant tensor:
#      x y z
#    x 2.014840 0.000000 0.092950 
#    y 0.000000 1.858580 0.000000 
#    z 0.092950 0.000000 2.006010 
# 
# From -- ./inp_files/205211.got.cif
#   From: 2010.05.17/outbox.cif.g08.bks.cpg/sg12_103_cif.got.tgz:205211.got - 2010.06.03 13:09:07.
