data_PCOD9222762
_publ_section_title
;
Structure prediction by ZEFSAII (Michael W. Deem and Ramdas Pophale) SiO2 
 PCOD9222762
Probable space group: C 2/M
;
_chemical_formula_sum "Si O2"
_cell_formula_units_Z 40
_cell_length_a 11.393446
_cell_length_b 16.558413
_cell_length_c 17.312122
_cell_angle_alpha 90.000000
_cell_angle_beta 149.401983
_cell_angle_gamma 90.000000
_cell_volume 1662.462333
_symmetry_space_group_name_H-M "C 2/M"
_symmetry_group_IT_number 12
_symmetry_cell_setting 'monoclinic'
loop_
_space_group_symop_operation_xyz
x,y,z
-x,y,-z
-x,-y,-z
x,-y,z
1/2+x,1/2+y,z
1/2-x,1/2+y,-z
1/2-x,1/2-y,-z
1/2+x,1/2-y,z
loop_
_atom_site_type_symbol
_atom_site_label
_atom_site_fract_x
_atom_site_fract_y
_atom_site_fract_z
Si Si1 0.422070 0.317751 0.314491
Si Si2 0.068176 0.674999 0.900942
Si Si3 0.293795 0.910355 0.613390
Si Si4 0.570568 0.862424 0.628253
Si Si5 0.514492 0.407803 0.806966
O O1 0.545510 0.378077 0.444406
O O2 0.488230 0.228716 0.380163
O O3 0.501697 0.347910 0.275619
O O4 0.145137 0.316369 0.161471
O O5 0.933215 0.652845 0.745821
O O6 0.250000 0.750000 0.000000
O O7 0.227626 0.600781 0.015885
O O8 0.441279 0.914214 0.617984
O O9 0.283296 0.000000 0.641858
O O10 0.500000 0.878070 0.500000
O O11 0.842438 0.879147 0.776952
O O12 0.462650 0.500000 0.755499
#
# Coordination Sequence:
#
# PCOD9222762 Si02
#       5
#     8   8   8   8   8
#     4  12  26  47  79 108 147 201 259 309 371 459
#     4  12  26  49  74 109 155 202 251 313 383 458
#     4  12  27  46  77 115 153 196 254 323 384 442
#     4  12  25  46  77 108 151 198 256 307 378 460
#     4  12  27  47  76 112 153 199 251 314 386 449
#
# _framework density 24.060694999999999
#
# number of rings (size 3 to 8) (size 9 to 14) (size 15 to 20)
#    0.000    0.000    4.000    6.000    0.000    6.400 
#    0.000    2.000    0.000    0.000    0.000    0.000 
#    0.000    0.000    0.000    0.000    0.000    0.000 
#
# Total GULP energy -111944.319645 kJ/mol
# GULP energy per Si atom -5597.215982 kJ/mol
# Density = 2.400593 g / cm^3
# Si number density = 24.060695 Si / 1000 Ang^3
#
#
#
# Elastic Constant Matrix: (Units=GPa)
#
#
# Indices 1 2 3 4 5 6 
#
# 1 105.3662 28.7514 18.4853 -0.0006 14.1649 0.0000
# 2 28.7514 153.6022 26.8634 0.0010 8.7332 0.0002
# 3 18.4853 26.8634 124.7416 0.0011 12.8456 0.0006
# 4 -0.0006 0.0010 0.0011 31.4788 -0.0005 -5.3644
# 5 14.1649 8.7332 12.8456 -0.0005 45.9321 0.0000
# 6 0.0000 0.0002 0.0006 -5.3644 0.0000 27.8252
#
#
#
# Elastic Compliance Matrix: (Units=1/GPa)
#
#
# Indices 1 2 3 4 5 6 
#
# 1 0.010458 -0.001645 -0.000922 0.000000 -0.002654 0.000000
# 2 -0.001645 0.007061 -0.001226 0.000000 -0.000492 0.000000
# 3 -0.000922 -0.001226 0.008612 0.000000 -0.001891 0.000000
# 4 0.000000 0.000000 0.000000 0.032847 0.000000 0.006332
# 5 -0.002654 -0.000492 -0.001891 0.000000 0.023212 0.000000
# 6 0.000000 0.000000 0.000000 0.006332 0.000000 0.037159
#
#
# Mechanical properties :
#
#
# Convention : Reuss Voigt Hill
#
# Bulk Modulus (GPa) = 53.92603 59.10116 56.51359
# Shear Modulus (GPa) = 37.56076 41.68788 39.62432
#
# Velocity S-wave (km/s) = 3.95534 4.16698 4.06254
# Velocity P-wave (km/s) = 6.58185 6.91147 6.74867
#
# Compressibility (1/GPa) = 0.01854392
#
# Stress axis : x y z
#
# Youngs Moduli (GPa) = 95.61760 141.62869 116.11738
#
# Poissons Ratio (x) = 0.23304 0.10707
# Poissons Ratio (y) = 0.15733 0.14236
# Poissons Ratio (z) = 0.08817 0.17364
#
# Static dielectric constant tensor:
#      x y z
#    x 1.950630 0.000000 0.012990 
#    y 0.000000 1.915900 0.000000 
#    z 0.012990 0.000000 1.944710 
# 
# From -- ./inp_files/264443.got.cif
#   From: 2010.05.17/outbox.cif.g08.bks.cpg/sg12_133_cif.got.tgz:264443.got - 2010.06.03 13:09:07.
