data_PCOD9222309
_publ_section_title
;
Structure prediction by ZEFSAII (Michael W. Deem and Ramdas Pophale) SiO2 
 PCOD9222309
Probable space group: C 2/M
;
_chemical_formula_sum "Si O2"
_cell_formula_units_Z 32
_cell_length_a 15.479513
_cell_length_b 11.780126
_cell_length_c 10.074878
_cell_angle_alpha 90.000000
_cell_angle_beta 134.568618
_cell_angle_gamma 90.000000
_cell_volume 1308.812246
_symmetry_space_group_name_H-M "C 2/M"
_symmetry_group_IT_number 12
_symmetry_cell_setting 'monoclinic'
loop_
_space_group_symop_operation_xyz
x,y,z
-x,y,-z
-x,-y,-z
x,-y,z
1/2+x,1/2+y,z
1/2-x,1/2+y,-z
1/2-x,1/2-y,-z
1/2+x,1/2-y,z
loop_
_atom_site_type_symbol
_atom_site_label
_atom_site_fract_x
_atom_site_fract_y
_atom_site_fract_z
Si Si1 0.146963 0.500000 0.638616
Si Si2 0.590297 0.500000 0.969491
Si Si3 0.113835 0.277522 0.456884
Si Si4 0.181562 0.634471 0.246352
Si Si5 0.885586 0.752014 0.096622
O O1 0.260577 0.500000 0.861933
O O2 0.174758 0.387316 0.585106
O O3 0.000000 0.500000 0.500000
O O4 0.500000 0.500000 0.000000
O O5 0.566901 0.379423 0.876087
O O6 0.133143 0.292341 0.318945
O O7 0.176028 0.168756 0.589849
O O8 0.969698 0.292017 0.306404
O O9 0.162536 0.500000 0.241804
O O10 0.121139 0.678559 0.045758
O O11 0.750000 0.750000 0.000000
#
# Coordination Sequence:
#
# PCOD9222309 Si02
#       5
#     4   4   8   8   8
#     4  12  24  46  74 104 143 185 238 296 356 428
#     4  12  26  48  75 101 146 196 246 291 352 448
#     4  11  25  44  72 101 135 184 231 286 355 429
#     4  11  25  45  70 102 138 178 235 290 352 425
#     4  12  28  45  69 103 143 184 236 298 362 421
#
# _framework density 24.449646999999999
#
# number of rings (size 3 to 8) (size 9 to 14) (size 15 to 20)
#    0.000    0.500    3.750    3.750    8.750    1.000 
#    0.000    1.250    0.000    0.000    0.000    0.000 
#    0.000    0.000    0.000    0.000    0.000    0.000 
#
# Total GULP energy -89382.579810 kJ/mol
# GULP energy per Si atom -5586.411238 kJ/mol
# Density = 2.439400 g / cm^3
# Si number density = 24.449647 Si / 1000 Ang^3
#
#
#
# Elastic Constant Matrix: (Units=GPa)
#
#
# Indices 1 2 3 4 5 6 
#
# 1 49.8741 5.1975 -18.6083 0.0000 6.8554 0.0000
# 2 5.1975 161.3042 35.2956 0.0000 -16.0023 0.0000
# 3 -18.6083 35.2956 137.7208 0.0000 11.1167 0.0000
# 4 0.0000 0.0000 0.0000 43.5073 0.0000 -0.9483
# 5 6.8554 -16.0023 11.1167 0.0000 37.6489 0.0000
# 6 0.0000 0.0000 0.0000 -0.9483 0.0000 26.0784
#
#
#
# Elastic Compliance Matrix: (Units=1/GPa)
#
#
# Indices 1 2 3 4 5 6 
#
# 1 0.022709 -0.002270 0.004161 0.000000 -0.006329 0.000000
# 2 -0.002270 0.007240 -0.002504 0.000000 0.004230 0.000000
# 3 0.004161 -0.002504 0.008822 0.000000 -0.004427 0.000000
# 4 0.000000 0.000000 0.000000 0.023003 0.000000 0.000836
# 5 -0.006329 0.004230 -0.004427 0.000000 0.030819 0.000000
# 6 0.000000 0.000000 0.000000 0.000836 0.000000 0.038376
#
#
# Mechanical properties :
#
#
# Convention : Reuss Voigt Hill
#
# Bulk Modulus (GPa) = 26.63373 43.62987 35.13180
# Shear Modulus (GPa) = 34.55176 43.24788 38.89982
#
# Velocity S-wave (km/s) = 3.76331 4.21034 3.99308
# Velocity P-wave (km/s) = 5.45896 6.44356 5.97159
#
# Compressibility (1/GPa) = 0.03754637
#
# Stress axis : x y z
#
# Youngs Moduli (GPa) = 44.03456 138.11995 113.34954
#
# Poissons Ratio (x) = 0.31354 -0.47165
# Poissons Ratio (y) = 0.09996 0.28379
# Poissons Ratio (z) = -0.18323 0.34581
#
# Static dielectric constant tensor:
#      x y z
#    x 2.184790 0.000000 0.176640 
#    y 0.000000 1.913100 0.000000 
#    z 0.176640 0.000000 2.023070 
# 
# From -- ./inp_files/153192.got.cif
#   From: 2010.05.17/outbox.cif.g08.bks.cpg/sg12_77_cif.got.tgz:153192.got - 2010.06.03 13:09:07.
