data_PCOD9222380
_publ_section_title
;
Structure prediction by ZEFSAII (Michael W. Deem and Ramdas Pophale) SiO2 
 PCOD9222380
Probable space group: C 2/M
;
_chemical_formula_sum "Si O2"
_cell_formula_units_Z 16
_cell_length_a 4.887761
_cell_length_b 14.033190
_cell_length_c 8.208360
_cell_angle_alpha 90.000000
_cell_angle_beta 95.496449
_cell_angle_gamma 90.000000
_cell_volume 560.429943
_symmetry_space_group_name_H-M "C 2/M"
_symmetry_group_IT_number 12
_symmetry_cell_setting 'monoclinic'
loop_
_space_group_symop_operation_xyz
x,y,z
-x,y,-z
-x,-y,-z
x,-y,z
1/2+x,1/2+y,z
1/2-x,1/2+y,-z
1/2-x,1/2-y,-z
1/2+x,1/2-y,z
loop_
_atom_site_type_symbol
_atom_site_label
_atom_site_fract_x
_atom_site_fract_y
_atom_site_fract_z
Si Si1 0.830695 0.660691 0.122557
Si Si2 0.659271 0.610403 0.672718
O O1 0.566776 0.618057 0.195673
O O2 0.068068 0.672246 0.274133
O O3 0.750000 0.750000 0.000000
O O4 0.000000 0.599235 0.000000
O O5 0.500000 0.637202 0.500000
O O6 0.747734 0.500000 0.659757
#
# Coordination Sequence:
#
# PCOD9222380 Si02
#       2
#     8   8
#     4  12  25  46  71 106 152 194 245 299 366 447
#     4  11  25  47  76 109 146 191 245 307 372 438
#
# _framework density 28.549510999999999
#
# number of rings (size 3 to 8) (size 9 to 14) (size 15 to 20)
#    0.000    0.500    0.000    9.000    0.000   10.000 
#    0.000   25.000    0.000    0.000    0.000    0.000 
#    0.000    8.000    0.000    0.000    0.000    0.000 
#
# Total GULP energy -44716.650123 kJ/mol
# GULP energy per Si atom -5589.581265 kJ/mol
# Density = 2.848453 g / cm^3
# Si number density = 28.549511 Si / 1000 Ang^3
#
#
#
# Elastic Constant Matrix: (Units=GPa)
#
#
# Indices 1 2 3 4 5 6 
#
# 1 240.4661 29.2698 49.1477 0.0000 35.2524 0.0000
# 2 29.2698 151.7426 52.5261 0.0000 28.1470 0.0000
# 3 49.1477 52.5261 140.8741 0.0000 32.0291 0.0000
# 4 0.0000 0.0000 0.0000 33.5930 0.0000 -7.3633
# 5 35.2524 28.1470 32.0291 0.0000 85.5828 0.0000
# 6 0.0000 0.0000 0.0000 -7.3633 0.0000 16.3954
#
#
#
# Elastic Compliance Matrix: (Units=1/GPa)
#
#
# Indices 1 2 3 4 5 6 
#
# 1 0.004637 -0.000215 -0.001224 0.000000 -0.001382 0.000000
# 2 -0.000215 0.007774 -0.002473 0.000000 -0.001543 0.000000
# 3 -0.001224 -0.002473 0.008906 0.000000 -0.002016 0.000000
# 4 0.000000 0.000000 0.000000 0.033018 0.000000 0.014829
# 5 -0.001382 -0.001543 -0.002016 0.000000 0.013515 0.000000
# 6 0.000000 0.000000 0.000000 0.014829 0.000000 0.067652
#
#
# Mechanical properties :
#
#
# Convention : Reuss Voigt Hill
#
# Bulk Modulus (GPa) = 74.10473 88.33000 81.21736
# Shear Modulus (GPa) = 33.82417 53.92354 43.87385
#
# Velocity S-wave (km/s) = 3.44576 4.35072 3.92441
# Velocity P-wave (km/s) = 6.46869 7.49965 7.00317
#
# Compressibility (1/GPa) = 0.01349442
#
# Stress axis : x y z
#
# Youngs Moduli (GPa) = 215.63945 128.63952 112.28706
#
# Poissons Ratio (x) = 0.02761 0.13741
# Poissons Ratio (y) = 0.04628 0.27767
# Poissons Ratio (z) = 0.26388 0.31810
#
# Static dielectric constant tensor:
#      x y z
#    x 2.549360 0.000000 0.017580 
#    y 0.000000 2.324030 0.000000 
#    z 0.017580 0.000000 2.319280 
# 
# From -- ./inp_files/32855.got.cif
#   From: 2010.05.17/outbox.cif.g08.bks.cpg/sg12_17_cif.got.tgz:32855.got - 2010.06.03 13:09:07.
