data_PCOD9222722
_publ_section_title
;
Structure prediction by ZEFSAII (Michael W. Deem and Ramdas Pophale) SiO2 
 PCOD9222722
Probable space group: C 2/M
;
_chemical_formula_sum "Si O2"
_cell_formula_units_Z 30
_cell_length_a 26.854703
_cell_length_b 9.836509
_cell_length_c 5.140010
_cell_angle_alpha 90.000000
_cell_angle_beta 111.324910
_cell_angle_gamma 90.000000
_cell_volume 1264.805235
_symmetry_space_group_name_H-M "C 2/M"
_symmetry_group_IT_number 12
_symmetry_cell_setting 'monoclinic'
loop_
_space_group_symop_operation_xyz
x,y,z
-x,y,-z
-x,-y,-z
x,-y,z
1/2+x,1/2+y,z
1/2-x,1/2+y,-z
1/2-x,1/2-y,-z
1/2+x,1/2-y,z
loop_
_atom_site_type_symbol
_atom_site_label
_atom_site_fract_x
_atom_site_fract_y
_atom_site_fract_z
Si Si1 0.919673 0.800625 0.121202
Si Si2 0.462263 0.000000 0.178717
Si Si3 0.812481 0.500000 0.353552
Si Si4 0.500000 0.500000 0.000000
Si Si5 0.354714 0.296105 0.496152
Si Si6 0.760433 0.000000 0.284254
O O1 0.929133 0.639096 0.122562
O O2 0.898872 0.837446 0.367578
O O3 0.874599 0.834311 0.820276
O O4 0.971352 0.881703 0.127505
O O5 0.500000 0.000000 0.500000
O O6 0.500000 0.000000 0.000000
O O7 0.846471 0.635562 0.456691
O O8 0.766783 0.500000 0.486478
O O9 0.784917 0.500000 0.019974
O O10 0.299225 0.370551 0.330650
#
# Coordination Sequence:
#
# PCOD9222722 Si02
#       6
#     8   4   4   2   8   4
#     4  12  26  45  70 100 142 183 236 285 348 409
#     4  12  24  46  68 100 130 187 242 285 335 404
#     4  12  24  44  72  99 135 182 230 279 349 415
#     4  12  28  46  72 102 140 190 232 284 362 408
#     4  12  25  45  68 103 139 180 229 291 341 409
#     4  12  24  43  70 103 139 178 226 281 351 415
#
# _framework density 23.719066000000002
#
# number of rings (size 3 to 8) (size 9 to 14) (size 15 to 20)
#    0.000    0.000    1.333    9.600    0.000    1.067 
#    0.000    0.000    0.000    0.000    0.000    0.000 
#    0.000    0.000    0.000    0.000    0.000    0.000 
#
# Total GULP energy -83932.436333 kJ/mol
# GULP energy per Si atom -5595.495756 kJ/mol
# Density = 2.366508 g / cm^3
# Si number density = 23.719066 Si / 1000 Ang^3
#
#
#
# Elastic Constant Matrix: (Units=GPa)
#
#
# Indices 1 2 3 4 5 6 
#
# 1 93.4972 22.6231 -15.4750 0.0000 -26.5769 0.0000
# 2 22.6231 167.4171 -4.1640 0.0000 -7.4515 0.0000
# 3 -15.4750 -4.1640 89.5314 0.0000 14.7247 0.0000
# 4 0.0000 0.0000 0.0000 -7.9535 0.0000 -23.8338
# 5 -26.5769 -7.4515 14.7247 0.0000 34.4540 0.0000
# 6 0.0000 0.0000 0.0000 -23.8338 0.0000 38.0899
#
#
#
# Elastic Compliance Matrix: (Units=1/GPa)
#
#
# Indices 1 2 3 4 5 6 
#
# 1 0.014068 -0.001428 0.000679 0.000000 0.010252 0.000000
# 2 -0.001428 0.006176 0.000002 0.000000 0.000234 0.000000
# 3 0.000679 0.000002 0.012047 0.000000 -0.004625 0.000000
# 4 0.000000 0.000000 0.000000 -0.043731 0.000000 -0.027364
# 5 0.010252 0.000234 -0.004625 0.000000 0.038960 0.000000
# 6 0.000000 0.000000 0.000000 -0.027364 0.000000 0.009131
#
#
# Mechanical properties :
#
#
# Convention : Reuss Voigt Hill
#
# Bulk Modulus (GPa) = 32.46975 39.60155 36.03565
# Shear Modulus (GPa) = 103.28310 36.08219 69.68264
#
# Velocity S-wave (km/s) = 6.60597 3.90453 5.42606
# Velocity P-wave (km/s) = 8.47963 6.08765 7.38118
#
# Compressibility (1/GPa) = 0.03079790
#
# Stress axis : x y z
#
# Youngs Moduli (GPa) = 71.08520 161.90431 83.00623
#
# Poissons Ratio (x) = 0.23116 -0.05636
# Poissons Ratio (y) = 0.10149 -0.00017
# Poissons Ratio (z) = -0.04826 -0.00033
#
# Static dielectric constant tensor:
#      x y z
#    x 1.846540 0.000000 0.022750 
#    y 0.000000 1.942240 0.000000 
#    z 0.022750 0.000000 1.853820 
# 
# From -- ./inp_files/30305.got.cif
#   From: 2010.05.17/outbox.cif.g08.bks.cpg/sg12_16_cif.got.tgz:30305.got - 2010.06.03 13:09:07.
