data_PCOD9222815
_publ_section_title
;
Structure prediction by ZEFSAII (Michael W. Deem and Ramdas Pophale) SiO2 
 PCOD9222815
Probable space group: C 2/M
;
_chemical_formula_sum "Si O2"
_cell_formula_units_Z 64
_cell_length_a 23.939597
_cell_length_b 7.403378
_cell_length_c 15.908093
_cell_angle_alpha 90.000000
_cell_angle_beta 118.832639
_cell_angle_gamma 90.000000
_cell_volume 2469.931461
_symmetry_space_group_name_H-M "C 2/M"
_symmetry_group_IT_number 12
_symmetry_cell_setting 'monoclinic'
loop_
_space_group_symop_operation_xyz
x,y,z
-x,y,-z
-x,-y,-z
x,-y,z
1/2+x,1/2+y,z
1/2-x,1/2+y,-z
1/2-x,1/2-y,-z
1/2+x,1/2-y,z
loop_
_atom_site_type_symbol
_atom_site_label
_atom_site_fract_x
_atom_site_fract_y
_atom_site_fract_z
Si Si1 0.723268 0.722272 0.325305
Si Si2 0.528122 0.214353 0.188080
Si Si3 0.383440 0.282641 0.888025
Si Si4 0.362532 0.294462 0.597822
Si Si5 0.922736 0.296192 0.221465
Si Si6 0.315681 0.204904 0.261230
Si Si7 0.204461 0.802392 0.043430
Si Si8 0.029232 0.220586 0.431834
O O1 0.724971 0.500000 0.327922
O O2 0.667643 0.778050 0.219942
O O3 0.698120 0.786527 0.397553
O O4 0.789076 0.782785 0.329354
O O5 0.549811 0.241915 0.108226
O O6 0.581927 0.296692 0.289286
O O7 0.458612 0.283407 0.166455
O O8 0.527968 0.000000 0.203533
O O9 0.379425 0.500000 0.890068
O O10 0.356748 0.208979 0.957453
O O11 0.345825 0.500000 0.564990
O O12 0.400138 0.217109 0.544984
O O13 0.899411 0.500000 0.183248
O O14 0.867572 0.206800 0.237530
O O15 0.980831 0.298921 0.328964
O O16 0.253661 0.190570 0.157001
O O17 0.338871 0.000000 0.295830
O O18 0.181949 0.000000 0.001240
O O19 0.250000 0.750000 0.000000
O O20 0.000000 0.270160 0.500000
O O21 0.028782 0.000000 0.426246
#
# Coordination Sequence:
#
# PCOD9222815 Si02
#       8
#     8   8   8   8   8   8   8   8
#     4   7  10  19  38  59  74  95 133 171 197 230
#     4   9  15  22  36  60  83 101 129 171 209 238
#     4   8  14  25  40  58  80 107 137 167 201 243
#     4   8  13  23  39  57  77 103 136 170 203 243
#     4   9  17  28  43  63  85 109 138 171 207 248
#     4   8  14  26  43  62  84 109 136 168 207 250
#     4   9  17  29  46  66  87 111 140 173 208 247
#     4   9  17  28  42  61  85 112 140 171 209 250
#
# _framework density 25.911649000000001
#
# number of rings (size 3 to 8) (size 9 to 14) (size 15 to 20)
#    0.000    3.625    0.000    2.625    0.000    1.250 
#    0.000    0.625    0.000    4.500    0.000    5.250 
#    0.000    0.000    0.000    0.000    0.000    0.000 
#
# Total GULP energy -178184.382372 kJ/mol
# GULP energy per Si atom -5568.261949 kJ/mol
# Density = 2.585267 g / cm^3
# Si number density = 25.911649 Si / 1000 Ang^3
#
#
#
# Elastic Constant Matrix: (Units=GPa)
#
#
# Indices 1 2 3 4 5 6 
#
# 1 281.5150 14.4729 60.5264 0.0000 -102.4358 0.0000
# 2 14.4729 96.9919 0.0165 0.0000 -12.5547 0.0000
# 3 60.5264 0.0165 80.6756 0.0000 -17.0095 0.0000
# 4 0.0000 0.0000 0.0000 -0.7928 0.0000 -0.0692
# 5 -102.4358 -12.5547 -17.0095 0.0000 68.2311 0.0000
# 6 0.0000 0.0000 0.0000 -0.0692 0.0000 -3.7308
#
#
#
# Elastic Compliance Matrix: (Units=1/GPa)
#
#
# Indices 1 2 3 4 5 6 
#
# 1 0.008959 0.000280 -0.004090 0.000000 0.012482 0.000000
# 2 0.000280 0.010585 0.000303 0.000000 0.002443 0.000000
# 3 -0.004090 0.000303 0.014968 0.000000 -0.002353 0.000000
# 4 0.000000 0.000000 0.000000 -1.263461 0.000000 0.023438
# 5 0.012482 0.002443 -0.002353 0.000000 0.033259 0.000000
# 6 0.000000 0.000000 0.000000 0.023438 0.000000 -0.268474
#
#
# Mechanical properties :
#
#
# Convention : Reuss Voigt Hill
#
# Bulk Modulus (GPa) = 36.36771 67.69047 52.02909
# Shear Modulus (GPa) = -3.45307 38.35262 17.44977
#
# Velocity S-wave (km/s) = -1.15565 3.85142 2.59787
# Velocity P-wave (km/s) = 3.50500 6.77925 5.39644
#
# Compressibility (1/GPa) = 0.02749692
#
# Stress axis : x y z
#
# Youngs Moduli (GPa) = 111.61809 94.47709 66.81122
#
# Poissons Ratio (x) = -0.02641 0.27325
# Poissons Ratio (y) = -0.03120 -0.02025
# Poissons Ratio (z) = 0.45650 -0.02864
#
# Static dielectric constant tensor:
#      x y z
#    x 2.177500 0.000000 -0.066800 
#    y 0.000000 1.963240 0.000000 
#    z -0.066800 0.000000 2.070260 
# 
# From -- ./inp_files/323397.got.cif
#   From: 2010.05.17/outbox.cif.g08.bks.cpg/sg12_162_cif.got.tgz:323397.got - 2010.06.03 13:09:07.
