data_PCOD9222790
_publ_section_title
;
Structure prediction by ZEFSAII (Michael W. Deem and Ramdas Pophale) SiO2 
 PCOD9222790
Probable space group: C 2/M
;
_chemical_formula_sum "Si O2"
_cell_formula_units_Z 20
_cell_length_a 7.982924
_cell_length_b 21.359105
_cell_length_c 5.006704
_cell_angle_alpha 90.000000
_cell_angle_beta 102.868292
_cell_angle_gamma 90.000000
_cell_volume 832.243034
_symmetry_space_group_name_H-M "C 2/M"
_symmetry_group_IT_number 12
_symmetry_cell_setting 'monoclinic'
loop_
_space_group_symop_operation_xyz
x,y,z
-x,y,-z
-x,-y,-z
x,-y,z
1/2+x,1/2+y,z
1/2-x,1/2+y,-z
1/2-x,1/2-y,-z
1/2+x,1/2-y,z
loop_
_atom_site_type_symbol
_atom_site_label
_atom_site_fract_x
_atom_site_fract_y
_atom_site_fract_z
Si Si1 0.000000 0.779762 0.500000
Si Si2 0.373895 0.500000 0.700834
Si Si3 0.500000 0.810151 0.000000
Si Si4 0.304706 0.126388 0.534622
O O1 0.154562 0.822519 0.443296
O O2 0.954097 0.736095 0.229498
O O3 0.500000 0.500000 0.500000
O O4 0.262655 0.562033 0.611317
O O5 0.500000 0.500000 0.000000
O O6 0.345010 0.856885 0.861505
O O7 0.500000 0.130359 0.500000
#
# Coordination Sequence:
#
# PCOD9222790 Si02
#       4
#     4   4   4   8
#     4  12  28  49  78 119 166 200 252 312 398 458
#     4  12  31  55  80 111 153 209 263 326 387 451
#     4  12  28  49  80 121 158 206 252 320 386 470
#     4  12  29  50  83 114 158 205 261 319 383 464
#
# _framework density 24.031444
#
# number of rings (size 3 to 8) (size 9 to 14) (size 15 to 20)
#    0.000    0.000    4.000    3.000   14.000    0.800 
#    0.000    0.000    0.000    0.000    0.000    0.000 
#    0.000    0.000    0.000    0.000    0.000    0.000 
#
# Total GULP energy -55709.496808 kJ/mol
# GULP energy per Si atom -5570.949681 kJ/mol
# Density = 2.397675 g / cm^3
# Si number density = 24.031444 Si / 1000 Ang^3
#
#
#
# Elastic Constant Matrix: (Units=GPa)
#
#
# Indices 1 2 3 4 5 6 
#
# 1 190.5485 95.6039 67.2536 0.0000 2.2486 0.0000
# 2 95.6039 229.4356 121.5345 0.0000 29.4411 0.0000
# 3 67.2536 121.5345 172.9719 0.0000 19.6959 0.0000
# 4 0.0000 0.0000 0.0000 37.9917 0.0000 21.0418
# 5 2.2486 29.4411 19.6959 0.0000 53.9630 0.0000
# 6 0.0000 0.0000 0.0000 21.0418 0.0000 36.1967
#
#
#
# Elastic Compliance Matrix: (Units=1/GPa)
#
#
# Indices 1 2 3 4 5 6 
#
# 1 0.006854 -0.002459 -0.001103 0.000000 0.001459 0.000000
# 2 -0.002459 0.008059 -0.004400 0.000000 -0.002688 0.000000
# 3 -0.001103 -0.004400 0.009415 0.000000 -0.000990 0.000000
# 4 0.000000 0.000000 0.000000 0.038820 0.000000 -0.022567
# 5 0.001459 -0.002688 -0.000990 0.000000 0.020298 0.000000
# 6 0.000000 0.000000 0.000000 -0.022567 0.000000 0.040745
#
#
# Mechanical properties :
#
#
# Convention : Reuss Voigt Hill
#
# Bulk Modulus (GPa) = 119.00912 129.08223 124.04567
# Shear Modulus (GPa) = 34.98531 46.20120 40.59325
#
# Velocity S-wave (km/s) = 3.81965 4.38942 4.11441
# Velocity P-wave (km/s) = 8.31160 8.91739 8.61982
#
# Compressibility (1/GPa) = 0.00840272
#
# Stress axis : x y z
#
# Youngs Moduli (GPa) = 145.90458 124.08745 106.21574
#
# Poissons Ratio (x) = 0.30508 0.11721
# Poissons Ratio (y) = 0.35871 0.46738
# Poissons Ratio (z) = 0.16100 0.54603
#
# Static dielectric constant tensor:
#      x y z
#    x 1.958360 0.000000 -0.058000 
#    y 0.000000 1.193970 0.000000 
#    z -0.058000 0.000000 2.126540 
# 
# From -- ./inp_files/2127.got.cif
#   From: 2010.05.17/outbox.cif.g08.bks.cpg/sg12_2_cif.got.tgz:2127.got - 2010.06.03 13:09:07.
