data_PCOD9222851
_publ_section_title
;
Structure prediction by ZEFSAII (Michael W. Deem and Ramdas Pophale) SiO2 
 PCOD9222851
Probable space group: C 2/M
;
_chemical_formula_sum "Si O2"
_cell_formula_units_Z 64
_cell_length_a 24.582177
_cell_length_b 7.421983
_cell_length_c 22.551146
_cell_angle_alpha 90.000000
_cell_angle_beta 128.763509
_cell_angle_gamma 90.000000
_cell_volume 3208.167177
_symmetry_space_group_name_H-M "C 2/M"
_symmetry_group_IT_number 12
_symmetry_cell_setting 'monoclinic'
loop_
_space_group_symop_operation_xyz
x,y,z
-x,y,-z
-x,-y,-z
x,-y,z
1/2+x,1/2+y,z
1/2-x,1/2+y,-z
1/2-x,1/2-y,-z
1/2+x,1/2-y,z
loop_
_atom_site_type_symbol
_atom_site_label
_atom_site_fract_x
_atom_site_fract_y
_atom_site_fract_z
Si Si1 0.068149 0.280611 0.240621
Si Si2 0.413329 0.780573 0.089164
Si Si3 0.826515 0.720725 0.786836
Si Si4 0.820309 0.787075 0.272572
Si Si5 0.579026 0.219691 0.038276
Si Si6 0.017345 0.716446 0.327281
Si Si7 0.135819 0.716208 0.822377
Si Si8 0.469834 0.287569 0.418365
O O1 0.068795 0.500000 0.240511
O O2 0.130996 0.219966 0.242033
O O3 0.992940 0.230493 0.161210
O O4 0.068381 0.222766 0.309553
O O5 0.362417 0.721433 0.108088
O O6 0.411794 0.000000 0.087657
O O7 0.399546 0.719936 0.012949
O O8 0.826115 0.500000 0.785889
O O9 0.747438 0.784038 0.740249
O O10 0.869802 0.775744 0.874505
O O11 0.813318 0.767633 0.196359
O O12 0.894703 0.711850 0.345792
O O13 0.822261 0.000000 0.284685
O O14 0.578908 0.000000 0.037543
O O15 0.500000 0.274460 0.000000
O O16 0.017409 0.500000 0.326600
O O17 0.940370 0.776614 0.253224
O O18 0.022693 0.770684 0.399058
O O19 0.136029 0.500000 0.824077
O O20 0.500000 0.211527 0.500000
O O21 0.459063 0.500000 0.420536
#
# Coordination Sequence:
#
# PCOD9222851 Si02
#       8
#     8   8   8   8   8   8   8   8
#     4   8  12  20  35  56  80 103 128 159 197 235
#     4   8  12  19  33  54  78 103 132 164 196 232
#     4   9  15  22  35  56  82 108 130 161 202 236
#     4   9  17  28  41  59  81 103 132 165 196 233
#     4   9  13  18  31  54  83 107 128 160 202 237
#     4   8  14  24  41  64  83  99 126 163 197 232
#     4   8  14  25  40  56  78 107 134 161 194 232
#     4   9  17  29  44  60  79 105 134 162 193 231
#
# _framework density 19.949086000000001
#
# number of rings (size 3 to 8) (size 9 to 14) (size 15 to 20)
#    0.000    3.500    1.250    1.500    0.000    0.250 
#    0.000    0.625    0.000    1.500    0.000    0.000 
#    0.000    1.000    0.000    0.000    0.000    0.000 
#
# Total GULP energy -178214.984392 kJ/mol
# GULP energy per Si atom -5569.218262 kJ/mol
# Density = 1.990368 g / cm^3
# Si number density = 19.949086 Si / 1000 Ang^3
#
#
#
# Elastic Constant Matrix: (Units=GPa)
#
#
# Indices 1 2 3 4 5 6 
#
# 1 144.6968 1.1157 66.1281 0.0000 -28.2592 0.0000
# 2 1.1157 61.1413 3.0920 0.0000 1.5564 0.0005
# 3 66.1281 3.0920 95.6038 0.0000 -33.6392 0.0000
# 4 0.0000 0.0000 0.0000 18.6502 0.0000 -14.0596
# 5 -28.2592 1.5564 -33.6392 0.0000 30.9123 0.0000
# 6 0.0000 0.0005 0.0000 -14.0596 0.0000 6.2328
#
#
#
# Elastic Compliance Matrix: (Units=1/GPa)
#
#
# Indices 1 2 3 4 5 6 
#
# 1 0.010241 0.000056 -0.006145 0.000000 0.002672 0.000000
# 2 0.000056 0.016482 -0.001370 0.000001 -0.002270 0.000002
# 3 -0.006145 -0.001370 0.020746 0.000000 0.017027 0.000000
# 4 0.000000 0.000001 0.000000 -0.076543 0.000000 -0.172661
# 5 0.002672 -0.002270 0.017027 0.000000 0.053436 0.000000
# 6 0.000000 0.000002 0.000000 -0.172661 0.000000 -0.229036
#
#
# Mechanical properties :
#
#
# Convention : Reuss Voigt Hill
#
# Bulk Modulus (GPa) = 30.72301 49.12370 39.92336
# Shear Modulus (GPa) = -27.94764 26.56616 -0.69074
#
# Velocity S-wave (km/s) = -3.74699 3.65320 -0.58907
# Velocity P-wave (km/s) = 1.81265 6.51709 4.42644
#
# Compressibility (1/GPa) = 0.03254889
#
# Stress axis : x y z
#
# Youngs Moduli (GPa) = 97.64896 60.67359 48.20231
#
# Poissons Ratio (x) = -0.00339 0.29621
# Poissons Ratio (y) = -0.00546 0.06606
# Poissons Ratio (z) = 0.60007 0.08315
#
# Static dielectric constant tensor:
#      x y z
#    x 1.730360 0.000000 -0.028510 
#    y 0.000000 1.767260 0.000000 
#    z -0.028510 0.000000 1.697040 
# 
# From -- ./inp_files/320732.got.cif
#   From: 2010.05.17/outbox.cif.g08.bks.cpg/sg12_161_cif.got.tgz:320732.got - 2010.06.03 13:09:07.
