data_PCOD9222164
_publ_section_title
;
Structure prediction by ZEFSAII (Michael W. Deem and Ramdas Pophale) SiO2 
 PCOD9222164
Probable space group: C 2/M
;
_chemical_formula_sum "Si O2"
_cell_formula_units_Z 24
_cell_length_a 8.131264
_cell_length_b 24.974320
_cell_length_c 8.976366
_cell_angle_alpha 90.000000
_cell_angle_beta 149.786292
_cell_angle_gamma 90.000000
_cell_volume 917.309666
_symmetry_space_group_name_H-M "C 2/M"
_symmetry_group_IT_number 12
_symmetry_cell_setting 'monoclinic'
loop_
_space_group_symop_operation_xyz
x,y,z
-x,y,-z
-x,-y,-z
x,-y,z
1/2+x,1/2+y,z
1/2-x,1/2+y,-z
1/2-x,1/2-y,-z
1/2+x,1/2-y,z
loop_
_atom_site_type_symbol
_atom_site_label
_atom_site_fract_x
_atom_site_fract_y
_atom_site_fract_z
Si Si1 0.754798 0.559012 0.064507
Si Si2 0.352562 0.782362 0.231057
Si Si3 0.354935 0.375934 0.549778
O O1 0.749520 0.500000 0.989776
O O2 0.665696 0.609202 0.891850
O O3 0.500000 0.558963 0.000000
O O4 0.122123 0.572897 0.399011
O O5 0.500000 0.754988 0.500000
O O6 0.636139 0.825028 0.419850
O O7 0.250000 0.750000 0.000000
O O8 0.000000 0.806268 0.000000
O O9 0.500000 0.372589 0.500000
#
# Coordination Sequence:
#
# PCOD9222164 Si02
#       3
#     8   8   8
#     4  11  24  44  72 105 144 192 242 294 361 439
#     4  12  28  51  78 108 147 194 250 309 374 445
#     4  12  26  46  72 106 146 188 239 300 368 437
#
# _framework density 26.163464999999999
#
# number of rings (size 3 to 8) (size 9 to 14) (size 15 to 20)
#    0.000    0.333    0.000    9.000    0.000   13.333 
#    0.000    3.333    0.000    0.000    0.000    0.000 
#    0.000    0.000    0.000    0.000    0.000    0.000 
#
# Total GULP energy -67126.750144 kJ/mol
# GULP energy per Si atom -5593.895845 kJ/mol
# Density = 2.610392 g / cm^3
# Si number density = 26.163465 Si / 1000 Ang^3
#
#
#
# Elastic Constant Matrix: (Units=GPa)
#
#
# Indices 1 2 3 4 5 6 
#
# 1 138.2929 38.4521 18.9098 0.0000 -0.9058 0.0000
# 2 38.4521 122.2044 27.4726 0.0000 -21.9040 0.0000
# 3 18.9098 27.4726 136.4683 0.0000 -28.9738 0.0000
# 4 0.0000 0.0000 0.0000 38.2388 0.0000 -2.8046
# 5 -0.9058 -21.9040 -28.9738 0.0000 61.1194 0.0000
# 6 0.0000 0.0000 0.0000 -2.8046 0.0000 12.1750
#
#
#
# Elastic Compliance Matrix: (Units=1/GPa)
#
#
# Indices 1 2 3 4 5 6 
#
# 1 0.008051 -0.002556 -0.000856 0.000000 -0.001203 0.000000
# 2 -0.002556 0.009742 -0.000972 0.000000 0.002993 0.000000
# 3 -0.000856 -0.000972 0.008412 0.000000 0.003627 0.000000
# 4 0.000000 0.000000 0.000000 0.026601 0.000000 0.006128
# 5 -0.001203 0.002993 0.003627 0.000000 0.019136 0.000000
# 6 0.000000 0.000000 0.000000 0.006128 0.000000 0.083547
#
#
# Mechanical properties :
#
#
# Convention : Reuss Voigt Hill
#
# Bulk Modulus (GPa) = 57.35014 62.95940 60.15477
# Shear Modulus (GPa) = 29.39967 43.11537 36.25752
#
# Velocity S-wave (km/s) = 3.35579 4.06387 3.72668
# Velocity P-wave (km/s) = 6.08133 6.79236 6.44665
#
# Compressibility (1/GPa) = 0.01743675
#
# Stress axis : x y z
#
# Youngs Moduli (GPa) = 124.20756 102.64555 118.87819
#
# Poissons Ratio (x) = 0.26240 0.10180
# Poissons Ratio (y) = 0.31752 0.11550
# Poissons Ratio (z) = 0.10636 0.09973
#
# Static dielectric constant tensor:
#      x y z
#    x 1.984880 0.000000 -0.079450 
#    y 0.000000 2.059620 0.000000 
#    z -0.079450 0.000000 1.989410 
# 
# From -- ./inp_files/41236.got.cif
#   From: 2010.05.17/outbox.cif.g08.bks.cpg/sg12_21_cif.got.tgz:41236.got - 2010.06.03 13:09:07.
