data_PCOD9222159
_publ_section_title
;
Structure prediction by ZEFSAII (Michael W. Deem and Ramdas Pophale) SiO2 
 PCOD9222159
Probable space group: C 2/M
;
_chemical_formula_sum "Si O2"
_cell_formula_units_Z 40
_cell_length_a 21.496038
_cell_length_b 12.297097
_cell_length_c 7.889213
_cell_angle_alpha 90.000000
_cell_angle_beta 117.412457
_cell_angle_gamma 90.000000
_cell_volume 1851.264237
_symmetry_space_group_name_H-M "C 2/M"
_symmetry_group_IT_number 12
_symmetry_cell_setting 'monoclinic'
loop_
_space_group_symop_operation_xyz
x,y,z
-x,y,-z
-x,-y,-z
x,-y,z
1/2+x,1/2+y,z
1/2-x,1/2+y,-z
1/2-x,1/2-y,-z
1/2+x,1/2-y,z
loop_
_atom_site_type_symbol
_atom_site_label
_atom_site_fract_x
_atom_site_fract_y
_atom_site_fract_z
Si Si1 0.116965 0.878503 0.128399
Si Si2 0.644910 0.000000 0.847611
Si Si3 0.500000 0.256333 0.500000
Si Si4 0.044445 0.331833 0.896173
Si Si5 0.367836 0.624282 0.456112
Si Si6 0.768944 0.305040 0.202821
O O1 0.106845 0.874808 0.317946
O O2 0.198064 0.851519 0.194061
O O3 0.100386 0.000000 0.046587
O O4 0.071309 0.787031 0.982617
O O5 0.609238 0.093634 0.926385
O O6 0.678583 0.096326 0.769255
O O7 0.499508 0.181511 0.332288
O O8 0.568803 0.331007 0.578778
O O9 0.000000 0.372847 0.000000
O O10 0.347994 0.500000 0.386186
O O11 0.304968 0.709399 0.355639
O O12 0.750000 0.250000 0.000000
#
# Coordination Sequence:
#
# PCOD9222159 Si02
#       6
#     8   4   4   8   8   8
#     4  11  24  44  71 103 140 181 232 296 351 412
#     4  12  25  45  72 103 134 194 229 284 355 417
#     4  12  23  45  70 102 138 185 235 286 350 414
#     4  12  26  47  72 103 146 185 236 289 348 419
#     4  11  25  43  69 101 138 185 235 290 352 414
#     4  12  24  43  69  99 140 179 238 285 349 416
#
# _framework density 21.606856000000001
#
# number of rings (size 3 to 8) (size 9 to 14) (size 15 to 20)
#    0.000    0.400    7.000    1.200    1.400    4.000 
#    0.000    1.000    0.000    0.000    0.000    0.000 
#    0.000    0.000    0.000    0.000    0.000    0.000 
#
# Total GULP energy -111373.154494 kJ/mol
# GULP energy per Si atom -5568.657725 kJ/mol
# Density = 2.155768 g / cm^3
# Si number density = 21.606856 Si / 1000 Ang^3
#
#
#
# Elastic Constant Matrix: (Units=GPa)
#
#
# Indices 1 2 3 4 5 6 
#
# 1 97.7161 -0.2823 -3.8654 0.0000 -23.6951 0.0000
# 2 -0.2823 142.0075 31.0740 0.0000 -2.7938 0.0000
# 3 -3.8654 31.0740 71.0821 0.0000 -15.3820 0.0000
# 4 0.0000 0.0000 0.0000 12.5236 0.0000 -19.1511
# 5 -23.6951 -2.7938 -15.3820 0.0000 27.5756 0.0000
# 6 0.0000 0.0000 0.0000 -19.1511 0.0000 8.5747
#
#
#
# Elastic Compliance Matrix: (Units=1/GPa)
#
#
# Indices 1 2 3 4 5 6 
#
# 1 0.013801 -0.000581 0.004047 0.000000 0.014057 0.000000
# 2 -0.000581 0.007850 -0.003866 0.000000 -0.001861 0.000000
# 3 0.004047 -0.003866 0.018931 0.000000 0.013645 0.000000
# 4 0.000000 0.000000 0.000000 -0.033059 0.000000 -0.073835
# 5 0.014057 -0.001861 0.013645 0.000000 0.055766 0.000000
# 6 0.000000 0.000000 0.000000 -0.073835 0.000000 -0.048283
#
#
# Mechanical properties :
#
#
# Convention : Reuss Voigt Hill
#
# Bulk Modulus (GPa) = 25.13814 40.51759 32.82786
# Shear Modulus (GPa) = 172.00922 28.66007 100.33464
#
# Velocity S-wave (km/s) = 8.93205 3.64598 6.82182
# Velocity P-wave (km/s) = 10.86438 6.04294 8.79068
#
# Compressibility (1/GPa) = 0.03978020
#
# Stress axis : x y z
#
# Youngs Moduli (GPa) = 72.45963 127.38727 52.82289
#
# Poissons Ratio (x) = 0.07407 -0.21375
# Poissons Ratio (y) = 0.04213 0.20421
# Poissons Ratio (z) = -0.29321 0.49248
#
# Static dielectric constant tensor:
#      x y z
#    x 1.790880 0.000000 0.017790 
#    y 0.000000 1.764500 0.000000 
#    z 0.017790 0.000000 1.812770 
# 
# From -- ./inp_files/94671.got.cif
#   From: 2010.05.17/outbox.cif.g08.bks.cpg/sg12_48_cif.got.tgz:94671.got - 2010.06.03 13:09:07.
