data_PCOD9222976
_publ_section_title
;
Structure prediction by ZEFSAII (Michael W. Deem and Ramdas Pophale) SiO2 
 PCOD9222976
Probable space group: C 2/M
;
_chemical_formula_sum "Si O2"
_cell_formula_units_Z 48
_cell_length_a 23.679697
_cell_length_b 7.525958
_cell_length_c 20.702638
_cell_angle_alpha 90.000000
_cell_angle_beta 43.287302
_cell_angle_gamma 90.000000
_cell_volume 2529.708981
_symmetry_space_group_name_H-M "C 2/M"
_symmetry_group_IT_number 12
_symmetry_cell_setting 'monoclinic'
loop_
_space_group_symop_operation_xyz
x,y,z
-x,y,-z
-x,-y,-z
x,-y,z
1/2+x,1/2+y,z
1/2-x,1/2+y,-z
1/2-x,1/2-y,-z
1/2+x,1/2-y,z
loop_
_atom_site_type_symbol
_atom_site_label
_atom_site_fract_x
_atom_site_fract_y
_atom_site_fract_z
Si Si1 0.132142 0.714016 0.643549
Si Si2 0.300487 0.789496 0.023651
Si Si3 0.146398 0.293306 0.226919
Si Si4 0.191123 0.288750 0.454930
Si Si5 0.905129 0.717505 0.590213
Si Si6 0.550837 0.781808 0.178638
O O1 0.128472 0.500000 0.643374
O O2 0.151129 0.781029 0.554973
O O3 0.211262 0.759959 0.620539
O O4 0.043697 0.775300 0.742491
O O5 0.242788 0.716448 0.128154
O O6 0.303922 0.000000 0.030408
O O7 0.250000 0.750000 0.000000
O O8 0.391913 0.724754 0.929177
O O9 0.122779 0.500000 0.249235
O O10 0.125527 0.218348 0.314350
O O11 0.094349 0.220752 0.209337
O O12 0.176558 0.500000 0.467630
O O13 0.149824 0.219535 0.424180
O O14 0.900932 0.500000 0.594108
O O15 0.000000 0.765484 0.500000
O O16 0.553222 0.000000 0.176566
#
# Coordination Sequence:
#
# PCOD9222976 Si02
#       6
#     8   8   8   8   8   8
#     4   9  16  28  45  62  84 113 142 174 212 252
#     4   9  16  27  43  64  89 114 143 179 218 257
#     4   9  16  27  44  66  90 114 142 178 219 258
#     4   9  17  28  43  65  88 109 139 177 213 251
#     4   9  16  27  46  68  88 114 147 178 210 256
#     4   8  14  25  43  64  83 108 143 176 206 250
#
# _framework density 18.974515
#
# number of rings (size 3 to 8) (size 9 to 14) (size 15 to 20)
#    0.000    3.167    0.000    2.500    0.000    4.000 
#    0.000    5.000    0.000    7.000    0.000    7.000 
#    0.000    0.000    0.000    0.000    0.000    0.000 
#
# Total GULP energy -133708.384406 kJ/mol
# GULP energy per Si atom -5571.182684 kJ/mol
# Density = 1.893133 g / cm^3
# Si number density = 18.974515 Si / 1000 Ang^3
#
#
#
# Elastic Constant Matrix: (Units=GPa)
#
#
# Indices 1 2 3 4 5 6 
#
# 1 103.4944 -3.7132 78.0707 0.0011 -2.4261 0.0048
# 2 -3.7132 43.0434 -10.8140 0.0071 5.8558 0.0136
# 3 78.0707 -10.8140 163.6057 0.0004 -7.5965 0.0081
# 4 0.0011 0.0071 0.0004 9.0235 0.0000 -10.6171
# 5 -2.4261 5.8558 -7.5965 0.0000 26.5955 -0.0030
# 6 0.0048 0.0136 0.0081 -10.6171 -0.0030 7.9267
#
#
#
# Elastic Compliance Matrix: (Units=1/GPa)
#
#
# Indices 1 2 3 4 5 6 
#
# 1 0.015117 -0.000441 -0.007271 0.000005 -0.000601 0.000005
# 2 -0.000441 0.024263 0.001585 0.000125 -0.004930 0.000122
# 3 -0.007271 0.001585 0.009769 0.000017 0.001778 0.000015
# 4 0.000005 0.000125 0.000017 -0.192415 -0.000051 -0.257722
# 5 -0.000601 -0.004930 0.001778 -0.000051 0.039139 -0.000047
# 6 0.000005 0.000122 0.000015 -0.257722 -0.000047 -0.219039
#
#
# Mechanical properties :
#
#
# Convention : Reuss Voigt Hill
#
# Bulk Modulus (GPa) = 27.10272 48.58117 37.84195
# Shear Modulus (GPa) = -16.74401 25.14914 4.20257
#
# Velocity S-wave (km/s) = -2.97382 3.64458 1.48985
# Velocity P-wave (km/s) = 1.58848 6.58556 4.79024
#
# Compressibility (1/GPa) = 0.03689666
#
# Stress axis : x y z
#
# Youngs Moduli (GPa) = 66.15018 41.21473 102.36360
#
# Poissons Ratio (x) = 0.01817 0.74426
# Poissons Ratio (y) = 0.02916 -0.16227
# Poissons Ratio (z) = 0.48096 -0.06533
#
# Static dielectric constant tensor:
#      x y z
#    x 1.630720 0.000000 -0.004480 
#    y 0.000000 1.753280 0.000000 
#    z -0.004480 0.000000 1.683730 
# 
# From -- ./inp_files/164294.got.cif
#   From: 2010.05.17/outbox.cif.g08.bks.cpg/sg12_83_cif.got.tgz:164294.got - 2010.06.03 13:09:07.
