data_PCOD9222693
_publ_section_title
;
Structure prediction by ZEFSAII (Michael W. Deem and Ramdas Pophale) SiO2 
 PCOD9222693
Probable space group: C 2/M
;
_chemical_formula_sum "Si O2"
_cell_formula_units_Z 52
_cell_length_a 15.758913
_cell_length_b 14.124326
_cell_length_c 16.093036
_cell_angle_alpha 90.000000
_cell_angle_beta 60.684500
_cell_angle_gamma 90.000000
_cell_volume 3123.323766
_symmetry_space_group_name_H-M "C 2/M"
_symmetry_group_IT_number 12
_symmetry_cell_setting 'monoclinic'
loop_
_space_group_symop_operation_xyz
x,y,z
-x,y,-z
-x,-y,-z
x,-y,z
1/2+x,1/2+y,z
1/2-x,1/2+y,-z
1/2-x,1/2-y,-z
1/2+x,1/2-y,z
loop_
_atom_site_type_symbol
_atom_site_label
_atom_site_fract_x
_atom_site_fract_y
_atom_site_fract_z
Si Si1 0.695563 0.712197 0.108874
Si Si2 0.452706 0.113187 0.392010
Si Si3 0.615151 0.500000 0.927184
Si Si4 0.155284 0.386813 0.392010
Si Si5 0.486067 0.190149 0.197442
Si Si6 0.042334 0.500000 0.072816
Si Si7 0.275584 0.500000 0.948832
Si Si8 0.183508 0.809851 0.802558
O O1 0.586878 0.753187 0.158748
O O2 0.695695 0.598293 0.108610
O O3 0.754374 0.753187 0.158748
O O4 0.750000 0.750000 0.000000
O O5 0.375426 0.141208 0.500000
O O6 0.559772 0.128865 0.380455
O O7 0.446209 0.165286 0.307937
O O8 0.443760 0.000000 0.383409
O O9 0.646565 0.406997 0.861732
O O10 0.500000 0.500000 0.000000
O O11 0.673366 0.500000 0.985832
O O12 0.172831 0.500000 0.383409
O O13 0.245853 0.334714 0.307937
O O14 0.508297 0.093003 0.138268
O O15 0.408167 0.250000 0.183666
O O16 0.159198 0.500000 0.014168
O O17 0.000000 0.500000 0.000000
#
# Coordination Sequence:
#
# PCOD9222693 Si02
#       8
#     8   8   4   8   8   4   4   8
#     4  12  24  40  59  85 117 157 199 235 290 355
#     4   9  18  36  63  90 115 146 192 251 304 350
#     4  12  24  38  57  82 121 156 202 244 281 340
#     4   9  18  36  63  90 115 146 192 251 304 350
#     4  12  24  37  60  88 117 157 201 240 296 354
#     4  12  24  38  57  82 121 156 202 244 281 340
#     4  12  24  40  60  78 116 166 186 246 286 336
#     4  12  24  37  60  88 117 157 201 240 296 354
#
# _framework density 16.64893
#
# number of rings (size 3 to 8) (size 9 to 14) (size 15 to 20)
#    0.000    0.923    6.154    2.769    0.000    0.615 
#    0.000    0.000    0.000    0.000    0.000    1.077 
#    0.000    0.000    0.000    0.000    0.000    0.000 
#
# Total GULP energy -145278.727005 kJ/mol
# GULP energy per Si atom -5587.643346 kJ/mol
# Density = 1.661104 g / cm^3
# Si number density = 16.648930 Si / 1000 Ang^3
#
#
#
# Elastic Constant Matrix: (Units=GPa)
#
#
# Indices 1 2 3 4 5 6 
#
# 1 149.0866 72.7169 72.1043 0.0000 -0.0004 0.0000
# 2 72.7169 150.6958 69.6387 0.0000 -0.0003 0.0000
# 3 72.1043 69.6387 117.5786 0.0000 -0.0004 0.0000
# 4 0.0000 0.0000 0.0000 29.0158 0.0000 0.0000
# 5 -0.0004 -0.0003 -0.0004 0.0000 23.7345 0.0000
# 6 0.0000 0.0000 0.0000 0.0000 0.0000 28.5381
#
#
#
# Elastic Compliance Matrix: (Units=1/GPa)
#
#
# Indices 1 2 3 4 5 6 
#
# 1 0.010348 -0.002837 -0.004665 0.000000 0.000000 0.000000
# 2 -0.002837 0.009915 -0.004132 0.000000 0.000000 0.000000
# 3 -0.004665 -0.004132 0.013813 0.000000 0.000000 0.000000
# 4 0.000000 0.000000 0.000000 0.034464 0.000000 0.000000
# 5 0.000000 0.000000 0.000000 0.000000 0.042133 0.000000
# 6 0.000000 0.000000 0.000000 0.000000 0.000000 0.035041
#
#
# Mechanical properties :
#
#
# Convention : Reuss Voigt Hill
#
# Bulk Modulus (GPa) = 92.54018 94.03121 93.28570
# Shear Modulus (GPa) = 28.97133 29.78441 29.37787
#
# Velocity S-wave (km/s) = 4.17601 4.23421 4.20521
# Velocity P-wave (km/s) = 8.88572 8.97252 8.92923
#
# Compressibility (1/GPa) = 0.01080612
#
# Stress axis : x y z
#
# Youngs Moduli (GPa) = 96.63995 100.86198 72.39458
#
# Poissons Ratio (x) = 0.28618 0.33773
# Poissons Ratio (y) = 0.27420 0.29914
# Poissons Ratio (z) = 0.45084 0.41678
#
# Static dielectric constant tensor:
#      x y z
#    x 1.533320 0.000000 0.000000 
#    y 0.000000 1.547890 0.000000 
#    z 0.000000 0.000000 1.553990 
# 
# From -- ./inp_files/214753.got.cif
#   From: 2010.05.17/outbox.cif.g08.bks.cpg/sg12_108_cif.got.tgz:214753.got - 2010.06.03 13:09:07.
