data_PCOD9222809
_publ_section_title
;
Structure prediction by ZEFSAII (Michael W. Deem and Ramdas Pophale) SiO2 
 PCOD9222809
Probable space group: C 2/M
;
_chemical_formula_sum "Si O2"
_cell_formula_units_Z 56
_cell_length_a 22.380745
_cell_length_b 7.286394
_cell_length_c 24.750373
_cell_angle_alpha 90.000000
_cell_angle_beta 143.967790
_cell_angle_gamma 90.000000
_cell_volume 2374.233704
_symmetry_space_group_name_H-M "C 2/M"
_symmetry_group_IT_number 12
_symmetry_cell_setting 'monoclinic'
loop_
_space_group_symop_operation_xyz
x,y,z
-x,y,-z
-x,-y,-z
x,-y,z
1/2+x,1/2+y,z
1/2-x,1/2+y,-z
1/2-x,1/2-y,-z
1/2+x,1/2-y,z
loop_
_atom_site_type_symbol
_atom_site_label
_atom_site_fract_x
_atom_site_fract_y
_atom_site_fract_z
Si Si1 0.536602 0.281648 0.267690
Si Si2 0.760051 0.718171 0.442947
Si Si3 0.036827 0.776581 0.894425
Si Si4 0.615567 0.715278 0.061191
Si Si5 0.401897 0.223182 0.395419
Si Si6 0.815558 0.775982 0.776352
Si Si7 0.018177 0.719107 0.380327
O O1 0.544185 0.500000 0.266073
O O2 0.652019 0.210098 0.342737
O O3 0.458478 0.217141 0.164536
O O4 0.508466 0.255115 0.309640
O O5 0.761707 0.500000 0.431940
O O6 0.750000 0.750000 0.500000
O O7 0.873971 0.789113 0.516678
O O8 0.922118 0.724116 0.827978
O O9 0.043410 0.000000 0.901285
O O10 0.110196 0.710354 0.996258
O O11 0.641271 0.500000 0.075603
O O12 0.682158 0.786823 0.159391
O O13 0.500000 0.726388 0.000000
O O14 0.500000 0.285383 0.500000
O O15 0.288728 0.282812 0.327987
O O16 0.426748 0.275992 0.351831
O O17 0.400625 0.000000 0.398820
O O18 0.816431 0.000000 0.776912
O O19 0.024471 0.500000 0.389554
#
# Coordination Sequence:
#
# PCOD9222809 Si02
#       7
#     8   8   8   8   8   8   8
#     4   9  16  25  40  60  78 101 132 164 199 233
#     4   8  14  23  35  51  72  98 126 155 188 224
#     4   8  13  20  35  58  80  98 122 160 202 239
#     4   7  10  18  31  50  76 101 121 151 201 244
#     4   9  17  25  36  54  75 103 136 163 189 229
#     4   8  13  21  34  53  78 103 126 159 201 236
#     4   9  17  28  39  54  80 108 132 159 194 235
#
# _framework density 23.586556999999999
#
# number of rings (size 3 to 8) (size 9 to 14) (size 15 to 20)
#    0.000    3.714    0.000    1.714    2.000    0.000 
#    0.000    0.000    0.000    1.286    0.000    1.000 
#    0.000    5.143    0.000    0.000    0.000    0.000 
#
# Total GULP energy -155971.931453 kJ/mol
# GULP energy per Si atom -5570.426123 kJ/mol
# Density = 2.353287 g / cm^3
# Si number density = 23.586557 Si / 1000 Ang^3
#
#
#
# Elastic Constant Matrix: (Units=GPa)
#
#
# Indices 1 2 3 4 5 6 
#
# 1 46.6217 -7.6769 9.0061 0.0000 -15.7467 -0.0001
# 2 -7.6769 97.2538 -3.5233 0.0002 1.6422 0.0002
# 3 9.0061 -3.5233 89.6060 0.0000 -31.0865 0.0000
# 4 0.0000 0.0002 0.0000 -6.0721 0.0000 -1.8351
# 5 -15.7467 1.6422 -31.0865 0.0000 39.3114 0.0000
# 6 -0.0001 0.0002 0.0000 -1.8351 0.0000 3.4725
#
#
#
# Elastic Compliance Matrix: (Units=1/GPa)
#
#
# Indices 1 2 3 4 5 6 
#
# 1 0.025248 0.001856 0.001402 0.000000 0.011144 0.000000
# 2 0.001856 0.010434 0.000455 0.000000 0.000667 0.000000
# 3 0.001402 0.000455 0.015469 0.000000 0.012775 0.000000
# 4 0.000000 0.000000 0.000000 -0.142007 0.000000 -0.075048
# 5 0.011144 0.000667 0.012775 0.000000 0.039976 0.000000
# 6 0.000000 0.000000 0.000000 -0.075048 0.000000 0.248316
#
#
# Mechanical properties :
#
#
# Convention : Reuss Voigt Hill
#
# Bulk Modulus (GPa) = 17.07186 25.45483 21.26334
# Shear Modulus (GPa) = 23.86211 23.05407 23.45809
#
# Velocity S-wave (km/s) = 3.18415 3.12977 3.15708
# Velocity P-wave (km/s) = 4.55764 4.88632 4.72484
#
# Compressibility (1/GPa) = 0.05857592
#
# Stress axis : x y z
#
# Youngs Moduli (GPa) = 39.60703 95.83985 64.64584
#
# Poissons Ratio (x) = -0.17784 -0.09060
# Poissons Ratio (y) = -0.07349 -0.02943
# Poissons Ratio (z) = -0.05551 -0.04364
#
# Static dielectric constant tensor:
#      x y z
#    x 1.900730 0.000000 -0.048260 
#    y 0.000000 1.937270 0.000000 
#    z -0.048260 0.000000 1.923170 
# 
# From -- ./inp_files/346640.got.cif
#   From: 2010.05.17/outbox.cif.g08.bks.cpg/sg12_174_cif.got.tgz:346640.got - 2010.06.03 13:09:07.
