data_PCOD9222327
_publ_section_title
;
Structure prediction by ZEFSAII (Michael W. Deem and Ramdas Pophale) SiO2 
 PCOD9222327
Probable space group: C 2/M
;
_chemical_formula_sum "Si O2"
_cell_formula_units_Z 58
_cell_length_a 17.507512
_cell_length_b 20.412153
_cell_length_c 11.616904
_cell_angle_alpha 90.000000
_cell_angle_beta 139.086271
_cell_angle_gamma 90.000000
_cell_volume 2718.899580
_symmetry_space_group_name_H-M "C 2/M"
_symmetry_group_IT_number 12
_symmetry_cell_setting 'monoclinic'
loop_
_space_group_symop_operation_xyz
x,y,z
-x,y,-z
-x,-y,-z
x,-y,z
1/2+x,1/2+y,z
1/2-x,1/2+y,-z
1/2-x,1/2-y,-z
1/2+x,1/2-y,z
loop_
_atom_site_type_symbol
_atom_site_label
_atom_site_fract_x
_atom_site_fract_y
_atom_site_fract_z
Si Si1 0.500000 0.000000 0.500000
Si Si2 0.042537 0.793672 0.917285
Si Si3 0.252335 0.073345 0.897216
Si Si4 0.124571 0.313636 0.389569
Si Si5 0.585479 0.875628 0.732989
Si Si6 0.012661 0.925606 0.744158
Si Si7 0.712817 0.632469 0.627232
Si Si8 0.299296 0.233022 0.284689
O O1 0.579358 0.941148 0.650563
O O2 0.038832 0.867239 0.863363
O O3 0.957564 0.746977 0.744987
O O4 0.175540 0.768437 0.078558
O O5 0.000000 0.792703 0.000000
O O6 0.114374 0.076409 0.764410
O O7 0.279951 0.090154 0.797918
O O8 0.292029 0.000000 0.968194
O O9 0.314945 0.119906 0.058250
O O10 0.201467 0.338902 0.371790
O O11 0.205904 0.296327 0.591345
O O12 0.035544 0.367430 0.337158
O O13 0.613504 0.812194 0.687929
O O14 0.889163 0.908573 0.547143
O O15 0.012789 0.000000 0.792041
O O16 0.663094 0.693020 0.646313
#
# Coordination Sequence:
#
# PCOD9222327 Si02
#       8
#     2   8   8   8   8   8   8   8
#     4  12  24  52  68  98 140 184 244 292 352 420
#     4  12  24  43  71 105 146 183 231 297 358 419
#     4  11  25  45  70 102 141 185 241 288 348 426
#     4  12  26  46  68 108 147 177 235 294 367 417
#     4  12  26  45  74 102 136 190 239 295 354 419
#     4  11  25  46  71 102 144 191 239 289 348 426
#     4  12  25  45  72 104 144 186 226 298 358 425
#     4  12  24  44  73 104 133 185 237 294 351 417
#
# _framework density 21.332159000000001
#
# number of rings (size 3 to 8) (size 9 to 14) (size 15 to 20)
#    0.000    0.276    6.207    2.897    1.931    3.586 
#    2.483    0.690    0.000    0.000    0.000    0.000 
#    0.000    0.000    0.000    0.000    0.000    0.000 
#
# Total GULP energy -161900.054518 kJ/mol
# GULP energy per Si atom -5582.760501 kJ/mol
# Density = 2.128361 g / cm^3
# Si number density = 21.332159 Si / 1000 Ang^3
#
#
#
# Elastic Constant Matrix: (Units=GPa)
#
#
# Indices 1 2 3 4 5 6 
#
# 1 58.1693 19.9428 26.6836 0.0000 -3.8212 0.0000
# 2 19.9428 85.2329 12.4200 0.0000 -2.5996 0.0000
# 3 26.6836 12.4200 114.1536 0.0000 -3.8227 0.0000
# 4 0.0000 0.0000 0.0000 37.5558 0.0000 -4.9061
# 5 -3.8212 -2.5996 -3.8227 0.0000 30.1741 0.0000
# 6 0.0000 0.0000 0.0000 -4.9061 0.0000 20.9220
#
#
#
# Elastic Compliance Matrix: (Units=1/GPa)
#
#
# Indices 1 2 3 4 5 6 
#
# 1 0.020719 -0.004164 -0.004333 0.000000 0.001716 0.000000
# 2 -0.004164 0.012781 -0.000400 0.000000 0.000523 0.000000
# 3 -0.004333 -0.000400 0.009839 0.000000 0.000663 0.000000
# 4 0.000000 0.000000 0.000000 0.027468 0.000000 0.006441
# 5 0.001716 0.000523 0.000663 0.000000 0.033487 0.000000
# 6 0.000000 0.000000 0.000000 0.006441 0.000000 0.049307
#
#
# Mechanical properties :
#
#
# Convention : Reuss Voigt Hill
#
# Bulk Modulus (GPa) = 39.14534 41.73874 40.44204
# Shear Modulus (GPa) = 27.79170 30.96434 29.37802
#
# Velocity S-wave (km/s) = 3.61336 3.81403 3.71505
# Velocity P-wave (km/s) = 5.98320 6.24535 6.11568
#
# Compressibility (1/GPa) = 0.02554582
#
# Stress axis : x y z
#
# Youngs Moduli (GPa) = 48.26484 78.24059 101.64078
#
# Poissons Ratio (x) = 0.32581 0.44037
# Poissons Ratio (y) = 0.20098 0.04063
# Poissons Ratio (z) = 0.20911 0.03127
#
# Static dielectric constant tensor:
#      x y z
#    x 1.763110 0.000000 -0.000690 
#    y 0.000000 1.764170 0.000000 
#    z -0.000690 0.000000 1.789740 
# 
# From -- ./inp_files/159791.got.cif
#   From: 2010.05.17/outbox.cif.g08.bks.cpg/sg12_80_cif.got.tgz:159791.got - 2010.06.03 13:09:07.
