data_PCOD9222108
_publ_section_title
;
Structure prediction by ZEFSAII (Michael W. Deem and Ramdas Pophale) SiO2 
 PCOD9222108
Probable space group: C 2/M
;
_chemical_formula_sum "Si O2"
_cell_formula_units_Z 64
_cell_length_a 9.138487
_cell_length_b 18.820484
_cell_length_c 29.579421
_cell_angle_alpha 90.000000
_cell_angle_beta 141.496742
_cell_angle_gamma 90.000000
_cell_volume 3167.199107
_symmetry_space_group_name_H-M "C 2/M"
_symmetry_group_IT_number 12
_symmetry_cell_setting 'monoclinic'
loop_
_space_group_symop_operation_xyz
x,y,z
-x,y,-z
-x,-y,-z
x,-y,z
1/2+x,1/2+y,z
1/2-x,1/2+y,-z
1/2-x,1/2-y,-z
1/2+x,1/2-y,z
loop_
_atom_site_type_symbol
_atom_site_label
_atom_site_fract_x
_atom_site_fract_y
_atom_site_fract_z
Si Si1 0.806838 0.327017 0.492665
Si Si2 0.488060 0.311610 0.122535
Si Si3 0.037745 0.583241 0.628345
Si Si4 0.961511 0.693043 0.293150
Si Si5 0.879078 0.167283 0.328762
Si Si6 0.096235 0.334673 0.100525
Si Si7 0.899714 0.081939 0.247045
Si Si8 0.612019 0.584402 0.978184
O O1 0.750000 0.250000 0.500000
O O2 0.570324 0.355312 0.411937
O O3 0.000000 0.319870 0.500000
O O4 0.904876 0.378488 0.555092
O O5 0.701530 0.311083 0.209618
O O6 0.247740 0.320337 0.092329
O O7 0.497252 0.238509 0.096975
O O8 0.517171 0.374825 0.093604
O O9 0.978989 0.500000 0.617366
O O10 0.988135 0.627095 0.661812
O O11 0.318584 0.589295 0.688172
O O12 0.983276 0.765234 0.326944
O O13 0.145763 0.692928 0.297169
O O14 0.828837 0.107370 0.279778
O O15 0.271396 0.368922 0.179673
O O16 0.878716 0.387369 0.041096
O O17 0.837604 0.000000 0.223944
O O18 0.602089 0.500000 0.969784
O O19 0.500000 0.601790 0.000000
#
# Coordination Sequence:
#
# PCOD9222108 Si02
#       8
#     8   8   8   8   8   8   8   8
#     4  12  24  40  68  97 129 178 225 280 339 403
#     4  12  25  42  73 102 135 176 230 275 337 400
#     4  11  25  45  66  98 139 178 226 282 341 403
#     4  12  24  43  69 101 135 178 223 287 332 400
#     4  12  24  41  69  99 133 173 231 275 338 398
#     4  12  24  44  71 103 134 181 221 280 333 399
#     4  11  24  43  68  99 135 176 223 277 339 401
#     4  11  27  48  69 101 142 180 223 276 336 399
#
# _framework density 20.207127
#
# number of rings (size 3 to 8) (size 9 to 14) (size 15 to 20)
#    0.000    0.375    5.000    4.125    1.750    3.250 
#    0.000    0.625    0.000    0.000    0.000    0.000 
#    0.000    0.000    0.000    0.000    0.000    0.000 
#
# Total GULP energy -179172.251947 kJ/mol
# GULP energy per Si atom -5599.132873 kJ/mol
# Density = 2.016113 g / cm^3
# Si number density = 20.207127 Si / 1000 Ang^3
#
#
#
# Elastic Constant Matrix: (Units=GPa)
#
#
# Indices 1 2 3 4 5 6 
#
# 1 90.7531 29.2707 -15.2503 0.0001 -4.0571 0.0001
# 2 29.2707 107.9499 17.0959 0.0002 -14.3492 0.0001
# 3 -15.2503 17.0959 70.6360 0.0005 -10.4454 0.0003
# 4 0.0001 0.0002 0.0005 35.0662 0.0002 -3.1863
# 5 -4.0571 -14.3492 -10.4454 0.0002 33.6918 0.0001
# 6 0.0001 0.0001 0.0003 -3.1863 0.0001 28.7807
#
#
#
# Elastic Compliance Matrix: (Units=1/GPa)
#
#
# Indices 1 2 3 4 5 6 
#
# 1 0.013024 -0.004012 0.003943 0.000000 0.001082 0.000000
# 2 -0.004012 0.011290 -0.003101 0.000000 0.003364 0.000000
# 3 0.003943 -0.003101 0.016385 0.000000 0.004234 0.000000
# 4 0.000000 0.000000 0.000000 0.028807 0.000000 0.003189
# 5 0.001082 0.003364 0.004234 0.000000 0.032556 0.000000
# 6 0.000000 0.000000 0.000000 0.003189 0.000000 0.035099
#
#
# Mechanical properties :
#
#
# Convention : Reuss Voigt Hill
#
# Bulk Modulus (GPa) = 29.10548 36.84129 32.97339
# Shear Modulus (GPa) = 32.26763 35.38924 33.82843
#
# Velocity S-wave (km/s) = 4.00039 4.18942 4.09600
# Velocity P-wave (km/s) = 5.98100 6.45547 6.22276
#
# Compressibility (1/GPa) = 0.03435779
#
# Stress axis : x y z
#
# Youngs Moduli (GPa) = 76.78221 88.57659 61.03138
#
# Poissons Ratio (x) = 0.35537 -0.24064
# Poissons Ratio (y) = 0.30805 0.18927
# Poissons Ratio (z) = -0.30274 0.27470
#
# Static dielectric constant tensor:
#      x y z
#    x 1.692820 0.000000 0.004090 
#    y 0.000000 1.680360 0.000000 
#    z 0.004090 0.000000 1.716200 
# 
# From -- ./inp_files/372991.got.cif
#   From: 2010.05.17/outbox.cif.g08.bks.cpg/sg12_187_cif.got.tgz:372991.got - 2010.06.03 13:09:07.
