data_PCOD9222655
_publ_section_title
;
Structure prediction by ZEFSAII (Michael W. Deem and Ramdas Pophale) SiO2 
 PCOD9222655
Probable space group: C 2/M
;
_chemical_formula_sum "Si O2"
_cell_formula_units_Z 56
_cell_length_a 8.919273
_cell_length_b 27.736281
_cell_length_c 18.341143
_cell_angle_alpha 90.000000
_cell_angle_beta 137.785259
_cell_angle_gamma 90.000000
_cell_volume 3048.708751
_symmetry_space_group_name_H-M "C 2/M"
_symmetry_group_IT_number 12
_symmetry_cell_setting 'monoclinic'
loop_
_space_group_symop_operation_xyz
x,y,z
-x,y,-z
-x,-y,-z
x,-y,z
1/2+x,1/2+y,z
1/2-x,1/2+y,-z
1/2-x,1/2-y,-z
1/2+x,1/2-y,z
loop_
_atom_site_type_symbol
_atom_site_label
_atom_site_fract_x
_atom_site_fract_y
_atom_site_fract_z
Si Si1 0.712360 0.946170 0.469966
Si Si2 0.260394 0.782757 0.618754
Si Si3 0.261393 0.446920 0.314037
Si Si4 0.477933 0.684143 0.765608
Si Si5 0.168518 0.197279 0.992768
Si Si6 0.137832 0.652058 0.205021
Si Si7 0.008443 0.655346 0.583720
O O1 0.699708 0.943344 0.377353
O O2 0.603599 0.896874 0.457119
O O3 0.969846 0.943927 0.587541
O O4 0.627244 0.000000 0.460149
O O5 0.381060 0.734419 0.694926
O O6 0.282584 0.820157 0.693443
O O7 0.396908 0.807402 0.600792
O O8 0.000000 0.779160 0.500000
O O9 0.196019 0.500000 0.264153
O O10 0.158936 0.404066 0.230944
O O11 0.546049 0.683684 0.874317
O O12 0.688841 0.668057 0.794563
O O13 0.269248 0.648581 0.689961
O O14 0.250000 0.250000 0.000000
O O15 0.388011 0.167114 0.093179
O O16 0.000000 0.198271 0.000000
O O17 0.000000 0.676484 0.500000
#
# Coordination Sequence:
#
# PCOD9222655 Si02
#       7
#     8   8   8   8   8   8   8
#     4   9  18  35  60  91 127 166 206 256 312 373
#     4  12  24  39  59  86 127 170 208 250 307 372
#     4   9  18  35  63  94 122 162 213 255 310 374
#     4  12  26  41  60  90 125 164 210 258 309 372
#     4  12  26  45  66  92 120 160 214 261 311 368
#     4  12  23  41  68  88 124 167 207 262 310 369
#     4  12  24  38  57  91 131 165 210 257 310 373
#
# _framework density 18.368431999999999
#
# number of rings (size 3 to 8) (size 9 to 14) (size 15 to 20)
#    0.000    0.857    2.857    6.857    0.000    2.000 
#    0.000    0.714    0.000    3.000    0.000    0.000 
#    0.000    0.000    0.000    0.000    0.000    0.000 
#
# Total GULP energy -156282.771227 kJ/mol
# GULP energy per Si atom -5581.527544 kJ/mol
# Density = 1.832662 g / cm^3
# Si number density = 18.368432 Si / 1000 Ang^3
#
#
#
# Elastic Constant Matrix: (Units=GPa)
#
#
# Indices 1 2 3 4 5 6 
#
# 1 148.1237 48.2202 59.6949 0.0000 -7.2728 0.0000
# 2 48.2202 128.6073 44.7733 0.0000 -3.2670 0.0000
# 3 59.6949 44.7733 132.0894 0.0000 -8.1393 0.0000
# 4 0.0000 0.0000 0.0000 23.9652 0.0000 8.1276
# 5 -7.2728 -3.2670 -8.1393 0.0000 32.1253 0.0000
# 6 0.0000 0.0000 0.0000 8.1276 0.0000 -3.8191
#
#
#
# Elastic Compliance Matrix: (Units=1/GPa)
#
#
# Indices 1 2 3 4 5 6 
#
# 1 0.008783 -0.002163 -0.003177 0.000000 0.000964 0.000000
# 2 -0.002163 0.009349 -0.002198 0.000000 -0.000096 0.000000
# 3 -0.003177 -0.002198 0.009847 0.000000 0.001552 0.000000
# 4 0.000000 0.000000 0.000000 0.024235 0.000000 0.051577
# 5 0.000964 -0.000096 0.001552 0.000000 0.031730 0.000000
# 6 0.000000 0.000000 0.000000 0.051577 0.000000 -0.152079
#
#
# Mechanical properties :
#
#
# Convention : Reuss Voigt Hill
#
# Bulk Modulus (GPa) = 77.49022 79.35526 78.42274
# Shear Modulus (GPa) = -102.54323 27.52974 -37.50674
#
# Velocity S-wave (km/s) = -7.47977 3.87557 -4.52366
# Velocity P-wave (km/s) = 5.68487 7.95755 3.93731
#
# Compressibility (1/GPa) = 0.01290485
#
# Stress axis : x y z
#
# Youngs Moduli (GPa) = 113.86054 106.96255 101.55562
#
# Poissons Ratio (x) = 0.23131 0.32262
# Poissons Ratio (y) = 0.24623 0.22317
# Poissons Ratio (z) = 0.36171 0.23506
#
# Static dielectric constant tensor:
#      x y z
#    x 1.648340 0.000000 -0.000300 
#    y 0.000000 1.709330 0.000000 
#    z -0.000300 0.000000 1.507390 
# 
# From -- ./inp_files/124330.got.cif
#   From: 2010.05.17/outbox.cif.g08.bks.cpg/sg12_63_cif.got.tgz:124330.got - 2010.06.03 13:09:07.
