data_PCOD9222308
_publ_section_title
;
Structure prediction by ZEFSAII (Michael W. Deem and Ramdas Pophale) SiO2 
 PCOD9222308
Probable space group: C 2/M
;
_chemical_formula_sum "Si O2"
_cell_formula_units_Z 40
_cell_length_a 27.769663
_cell_length_b 9.012235
_cell_length_c 7.612234
_cell_angle_alpha 90.000000
_cell_angle_beta 115.703600
_cell_angle_gamma 90.000000
_cell_volume 1716.579921
_symmetry_space_group_name_H-M "C 2/M"
_symmetry_group_IT_number 12
_symmetry_cell_setting 'monoclinic'
loop_
_space_group_symop_operation_xyz
x,y,z
-x,y,-z
-x,-y,-z
x,-y,z
1/2+x,1/2+y,z
1/2-x,1/2+y,-z
1/2-x,1/2-y,-z
1/2+x,1/2-y,z
loop_
_atom_site_type_symbol
_atom_site_label
_atom_site_fract_x
_atom_site_fract_y
_atom_site_fract_z
Si Si1 0.496691 0.657685 0.205881
Si Si2 0.597374 0.165219 0.354237
Si Si3 0.670157 0.322402 0.734835
Si Si4 0.622187 0.257212 0.004698
Si Si5 0.261896 0.331624 0.700599
O O1 0.516870 0.500000 0.309788
O O2 0.537275 0.788465 0.314913
O O3 0.434145 0.671834 0.142616
O O4 0.500000 0.650511 0.000000
O O5 0.675053 0.337953 0.162398
O O6 0.609781 0.000000 0.433502
O O7 0.604606 0.168416 0.152932
O O8 0.667759 0.500000 0.770661
O O9 0.645988 0.218772 0.851055
O O10 0.635926 0.283832 0.507088
O O11 0.729826 0.269183 0.787338
O O12 0.741249 0.000000 0.665897
O O13 0.250000 0.250000 0.500000
#
# Coordination Sequence:
#
# PCOD9222308 Si02
#       5
#     8   8   8   8   8
#     4   9  19  39  68  98 132 178 228 277 330 400
#     4  11  25  45  69 101 141 182 223 279 343 403
#     4  12  26  44  71 103 136 179 230 281 335 402
#     4  11  25  44  71  99 137 180 231 277 338 402
#     4  12  25  44  70 100 137 179 226 279 340 405
#
# _framework density 23.302147999999999
#
# number of rings (size 3 to 8) (size 9 to 14) (size 15 to 20)
#    0.000    1.000    2.000    4.200    0.000   10.000 
#    0.000    3.000    0.000    0.000    0.000    0.000 
#    0.000    0.000    0.000    0.000    0.000    0.000 
#
# Total GULP energy -111418.322792 kJ/mol
# GULP energy per Si atom -5570.916140 kJ/mol
# Density = 2.324911 g / cm^3
# Si number density = 23.302148 Si / 1000 Ang^3
#
#
#
# Elastic Constant Matrix: (Units=GPa)
#
#
# Indices 1 2 3 4 5 6 
#
# 1 170.9123 37.9564 18.2089 0.0000 -0.8669 0.0000
# 2 37.9564 104.7190 17.0012 0.0000 14.3680 0.0000
# 3 18.2089 17.0012 92.4329 0.0000 -15.0270 0.0000
# 4 0.0000 0.0000 0.0000 -6.4259 0.0000 -6.7812
# 5 -0.8669 14.3680 -15.0270 0.0000 34.8520 0.0000
# 6 0.0000 0.0000 0.0000 -6.7812 0.0000 -8.0171
#
#
#
# Elastic Compliance Matrix: (Units=1/GPa)
#
#
# Indices 1 2 3 4 5 6 
#
# 1 0.006449 -0.002335 -0.000708 0.000000 0.000818 0.000000
# 2 -0.002335 0.011652 -0.002660 0.000000 -0.006009 0.000000
# 3 -0.000708 -0.002660 0.012499 0.000000 0.006468 0.000000
# 4 0.000000 0.000000 0.000000 -1.449130 0.000000 1.225736
# 5 0.000818 -0.006009 0.006468 0.000000 0.033979 0.000000
# 6 0.000000 0.000000 0.000000 1.225736 0.000000 -1.161513
#
#
# Mechanical properties :
#
#
# Convention : Reuss Voigt Hill
#
# Bulk Modulus (GPa) = 52.09918 57.15526 54.62722
# Shear Modulus (GPa) = -1.97764 23.74164 10.88200
#
# Velocity S-wave (km/s) = -0.92225 3.19542 2.16335
# Velocity P-wave (km/s) = 4.61222 6.18025 5.45289
#
# Compressibility (1/GPa) = 0.01919416
#
# Stress axis : x y z
#
# Youngs Moduli (GPa) = 155.06179 85.82314 80.00685
#
# Poissons Ratio (x) = 0.20037 0.05665
# Poissons Ratio (y) = 0.36203 0.21282
# Poissons Ratio (z) = 0.10980 0.22829
#
# Static dielectric constant tensor:
#      x y z
#    x 1.896900 0.000000 -0.004850 
#    y 0.000000 1.862870 0.000000 
#    z -0.004850 0.000000 1.903830 
# 
# From -- ./inp_files/101110.got.cif
#   From: 2010.05.17/outbox.cif.g08.bks.cpg/sg12_51_cif.got.tgz:101110.got - 2010.06.03 13:09:07.
