data_PCOD9222902
_publ_section_title
;
Structure prediction by ZEFSAII (Michael W. Deem and Ramdas Pophale) SiO2 
 PCOD9222902
Probable space group: C 2/M
;
_chemical_formula_sum "Si O2"
_cell_formula_units_Z 56
_cell_length_a 24.877455
_cell_length_b 14.680234
_cell_length_c 7.244309
_cell_angle_alpha 90.000000
_cell_angle_beta 105.187318
_cell_angle_gamma 90.000000
_cell_volume 2553.269965
_symmetry_space_group_name_H-M "C 2/M"
_symmetry_group_IT_number 12
_symmetry_cell_setting 'monoclinic'
loop_
_space_group_symop_operation_xyz
x,y,z
-x,y,-z
-x,-y,-z
x,-y,z
1/2+x,1/2+y,z
1/2-x,1/2+y,-z
1/2-x,1/2-y,-z
1/2+x,1/2-y,z
loop_
_atom_site_type_symbol
_atom_site_label
_atom_site_fract_x
_atom_site_fract_y
_atom_site_fract_z
Si Si1 0.435453 0.297079 0.956991
Si Si2 0.231483 0.275652 0.777006
Si Si3 0.067595 0.598135 0.071841
Si Si4 0.380377 0.896182 0.294097
Si Si5 0.167432 0.895942 0.682494
Si Si6 0.936736 0.221342 0.397282
Si Si7 0.170501 0.100715 0.136658
O O1 0.421067 0.200497 0.847075
O O2 0.428538 0.281378 0.169293
O O3 0.391399 0.372179 0.860249
O O4 0.500000 0.321360 0.000000
O O5 0.178947 0.344432 0.745448
O O6 0.212508 0.180789 0.669966
O O7 0.250000 0.250000 0.000000
O O8 0.285102 0.327295 0.749938
O O9 0.083001 0.500000 0.174272
O O10 0.097327 0.596881 0.897412
O O11 0.000000 0.597870 0.000000
O O12 0.422185 0.826135 0.433065
O O13 0.377699 0.000000 0.360019
O O14 0.108108 0.851910 0.573338
O O15 0.170195 0.898224 0.910932
O O16 0.174936 0.000000 0.628082
O O17 0.000000 0.199344 0.500000
O O18 0.186263 0.000000 0.208042
#
# Coordination Sequence:
#
# PCOD9222902 Si02
#       7
#     8   8   8   8   8   8   8
#     4   9  17  29  43  61  87 115 142 173 211 257
#     4   9  15  24  38  58  84 111 140 174 216 261
#     4   8  13  22  36  53  76 107 138 167 202 243
#     4   9  16  25  38  58  84 113 144 178 216 257
#     4   8  15  26  39  58  84 111 139 174 213 252
#     4   9  17  28  42  62  87 114 144 177 212 250
#     4   9  16  26  40  59  84 111 138 173 216 255
#
# _framework density 21.932661
#
# number of rings (size 3 to 8) (size 9 to 14) (size 15 to 20)
#    0.000    3.286    0.000    3.000    0.000    1.429 
#    0.000    0.714    0.000    0.000    0.000    4.000 
#    0.000    2.286    0.000    3.429    0.000    0.571 
#
# Total GULP energy -155973.262124 kJ/mol
# GULP energy per Si atom -5570.473647 kJ/mol
# Density = 2.188274 g / cm^3
# Si number density = 21.932661 Si / 1000 Ang^3
#
#
#
# Elastic Constant Matrix: (Units=GPa)
#
#
# Indices 1 2 3 4 5 6 
#
# 1 76.1506 60.2411 20.5150 0.0000 23.5383 0.0000
# 2 60.2411 183.4995 16.7387 0.0000 33.1196 0.0000
# 3 20.5150 16.7387 67.1027 0.0000 -6.0167 0.0000
# 4 0.0000 0.0000 0.0000 -10.1224 0.0000 3.7192
# 5 23.5383 33.1196 -6.0167 0.0000 31.7399 0.0000
# 6 0.0000 0.0000 0.0000 3.7192 0.0000 17.5264
#
#
#
# Elastic Compliance Matrix: (Units=1/GPa)
#
#
# Indices 1 2 3 4 5 6 
#
# 1 0.022688 -0.004341 -0.007076 0.000000 -0.013636 0.000000
# 2 -0.004341 0.007928 -0.001122 0.000000 -0.005265 0.000000
# 3 -0.007076 -0.001122 0.018231 0.000000 0.009875 0.000000
# 4 0.000000 0.000000 0.000000 -0.091646 0.000000 0.019448
# 5 -0.013636 -0.005265 0.009875 0.000000 0.048985 0.000000
# 6 0.000000 0.000000 0.000000 0.019448 0.000000 0.052930
#
#
# Mechanical properties :
#
#
# Convention : Reuss Voigt Hill
#
# Bulk Modulus (GPa) = 42.07526 57.97138 50.02332
# Shear Modulus (GPa) = 54.27901 23.11266 38.69584
#
# Velocity S-wave (km/s) = 4.98014 3.24975 4.20492
# Velocity P-wave (km/s) = 7.23149 6.36947 6.81412
#
# Compressibility (1/GPa) = 0.02376693
#
# Stress axis : x y z
#
# Youngs Moduli (GPa) = 44.07709 126.14209 54.85112
#
# Poissons Ratio (x) = 0.54764 0.38812
# Poissons Ratio (y) = 0.19136 0.06156
# Poissons Ratio (z) = 0.31188 0.14157
#
# Static dielectric constant tensor:
#      x y z
#    x 3.393890 0.000000 -1.706960 
#    y 0.000000 1.826920 0.000000 
#    z -1.706960 0.000000 3.559670 
# 
# From -- ./inp_files/166803.got.cif
#   From: 2010.05.17/outbox.cif.g08.bks.cpg/sg12_84_cif.got.tgz:166803.got - 2010.06.03 13:09:07.
