data_PCOD9222888
_publ_section_title
;
Structure prediction by ZEFSAII (Michael W. Deem and Ramdas Pophale) SiO2 
 PCOD9222888
Probable space group: C 2/M
;
_chemical_formula_sum "Si O2"
_cell_formula_units_Z 64
_cell_length_a 15.074157
_cell_length_b 7.804084
_cell_length_c 22.587841
_cell_angle_alpha 90.000000
_cell_angle_beta 75.832591
_cell_angle_gamma 90.000000
_cell_volume 2576.412860
_symmetry_space_group_name_H-M "C 2/M"
_symmetry_group_IT_number 12
_symmetry_cell_setting 'monoclinic'
loop_
_space_group_symop_operation_xyz
x,y,z
-x,y,-z
-x,-y,-z
x,-y,z
1/2+x,1/2+y,z
1/2-x,1/2+y,-z
1/2-x,1/2-y,-z
1/2+x,1/2-y,z
loop_
_atom_site_type_symbol
_atom_site_label
_atom_site_fract_x
_atom_site_fract_y
_atom_site_fract_z
Si Si1 0.951572 0.697740 0.222871
Si Si2 0.633879 0.801997 0.272047
Si Si3 0.841127 0.793756 0.023297
Si Si4 0.358355 0.704121 0.475424
Si Si5 0.428094 0.298716 0.895635
Si Si6 0.752686 0.300530 0.849853
Si Si7 0.845410 0.295009 0.349911
Si Si8 0.640351 0.296432 0.399191
O O1 0.927668 0.500000 0.215193
O O2 0.045586 0.702832 0.244912
O O3 0.978277 0.778295 0.155907
O O4 0.884174 0.778040 0.282368
O O5 0.716764 0.723556 0.218756
O O6 0.603521 0.727388 0.339608
O O7 0.656194 0.000000 0.279289
O O8 0.921937 0.741750 0.965007
O O9 0.847701 0.000000 0.029381
O O10 0.750000 0.750000 0.000000
O O11 0.821313 0.723606 0.092395
O O12 0.369419 0.500000 0.469610
O O13 0.250000 0.750000 0.500000
O O14 0.392260 0.770846 0.406456
O O15 0.398724 0.767928 0.531862
O O16 0.404827 0.500000 0.898002
O O17 0.346692 0.204877 0.873299
O O18 0.730182 0.500000 0.842590
O O19 0.842994 0.500000 0.341648
O O20 0.743387 0.226823 0.375396
O O21 0.646785 0.500000 0.407058
#
# Coordination Sequence:
#
# PCOD9222888 Si02
#       8
#     8   8   8   8   8   8   8   8
#     4   9  18  32  46  62  89 121 148 176 215 261
#     4   9  17  28  44  65  88 117 148 176 212 259
#     4   8  13  21  34  53  79 109 141 178 214 250
#     4   9  17  30  48  69  90 113 143 179 219 257
#     4   9  15  22  36  60  85 110 142 179 219 257
#     4   8  14  25  38  54  81 116 148 176 211 254
#     4   9  18  33  51  68  86 113 149 183 215 254
#     4   9  18  31  47  67  89 112 139 176 220 258
#
# _framework density 24.840738999999999
#
# number of rings (size 3 to 8) (size 9 to 14) (size 15 to 20)
#    0.000    3.250    0.000    2.250    0.000    5.500 
#    0.000    0.625    0.000    3.750    0.000    0.875 
#    0.000    7.000    0.000    0.000    0.000    0.000 
#
# Total GULP energy -178227.500952 kJ/mol
# GULP energy per Si atom -5569.609405 kJ/mol
# Density = 2.478420 g / cm^3
# Si number density = 24.840739 Si / 1000 Ang^3
#
#
#
# Elastic Constant Matrix: (Units=GPa)
#
#
# Indices 1 2 3 4 5 6 
#
# 1 14.1208 14.0020 106.7529 0.0000 8.7226 0.0000
# 2 14.0020 24.2525 -10.8374 0.0000 -7.1110 0.0000
# 3 106.7529 -10.8374 103.1933 0.0000 -38.2022 0.0000
# 4 0.0000 0.0000 0.0000 23.2695 0.0000 -2.2500
# 5 8.7226 -7.1110 -38.2022 0.0000 35.5603 0.0000
# 6 0.0000 0.0000 0.0000 -2.2500 0.0000 0.2715
#
#
#
# Elastic Compliance Matrix: (Units=1/GPa)
#
#
# Indices 1 2 3 4 5 6 
#
# 1 -0.002851 0.008267 0.007785 0.000000 0.010716 0.000000
# 2 0.008267 0.033710 -0.005424 0.000000 -0.001114 0.000000
# 3 0.007785 -0.005424 -0.000068 0.000000 -0.003067 0.000000
# 4 0.000000 0.000000 0.000000 0.216487 0.000000 1.794432
# 5 0.010716 -0.001114 -0.003067 0.000000 0.021975 -0.000001
# 6 0.000000 0.000000 0.000000 1.794432 -0.000001 18.557732
#
#
# Mechanical properties :
#
#
# Convention : Reuss Voigt Hill
#
# Bulk Modulus (GPa) = 19.21385 40.15575 29.68480
# Shear Modulus (GPa) = 0.26563 13.93018 7.09791
#
# Velocity S-wave (km/s) = 0.32736 2.37065 1.69221
# Velocity P-wave (km/s) = 2.80971 4.86761 3.97418
#
# Compressibility (1/GPa) = 0.05204579
#
# Stress axis : x y z
#
# Youngs Moduli (GPa) = -350.71645 29.66494 -14768.14077
#
# Poissons Ratio (x) = -0.24523 114.96614
# Poissons Ratio (y) = 2.89927 -80.10185
# Poissons Ratio (z) = 2.73024 0.16090
#
# Static dielectric constant tensor:
#      x y z
#    x 2.069920 0.000000 0.000070 
#    y 0.000000 1.931000 0.000000 
#    z 0.000070 0.000000 2.084380 
# 
# From -- ./inp_files/348324.got.cif
#   From: 2010.05.17/outbox.cif.g08.bks.cpg/sg12_175_cif.got.tgz:348324.got - 2010.06.03 13:09:07.
