data_PCOD9222604
_publ_section_title
;
Structure prediction by ZEFSAII (Michael W. Deem and Ramdas Pophale) SiO2 
 PCOD9222604
Probable space group: C 2/M
;
_chemical_formula_sum "Si O2"
_cell_formula_units_Z 40
_cell_length_a 16.294410
_cell_length_b 21.552313
_cell_length_c 10.263940
_cell_angle_alpha 90.000000
_cell_angle_beta 146.459137
_cell_angle_gamma 90.000000
_cell_volume 1991.607372
_symmetry_space_group_name_H-M "C 2/M"
_symmetry_group_IT_number 12
_symmetry_cell_setting 'monoclinic'
loop_
_space_group_symop_operation_xyz
x,y,z
-x,y,-z
-x,-y,-z
x,-y,z
1/2+x,1/2+y,z
1/2-x,1/2+y,-z
1/2-x,1/2-y,-z
1/2+x,1/2-y,z
loop_
_atom_site_type_symbol
_atom_site_label
_atom_site_fract_x
_atom_site_fract_y
_atom_site_fract_z
Si Si1 0.000000 0.311406 0.500000
Si Si2 0.378641 0.000000 0.952667
Si Si3 0.476404 0.366016 0.234734
Si Si4 0.656811 0.869937 0.947991
Si Si5 0.943767 0.000000 0.576410
Si Si6 0.261376 0.282005 0.298572
Si Si7 0.500000 0.297338 0.000000
O O1 0.861920 0.267421 0.353866
O O2 0.953669 0.351827 0.314105
O O3 0.374822 0.938284 0.037301
O O4 0.229796 0.000000 0.672309
O O5 0.500000 0.000000 0.000000
O O6 0.325167 0.360670 0.117531
O O7 0.508828 0.438695 0.286031
O O8 0.617691 0.328901 0.480519
O O9 0.454437 0.339073 0.062277
O O10 0.653724 0.820779 0.060785
O O11 0.000000 0.000000 0.500000
O O12 0.143626 0.243793 0.228641
#
# Coordination Sequence:
#
# PCOD9222604 Si02
#       7
#     4   4   8   8   4   8   4
#     4  12  24  41  72 101 140 184 224 270 350 412
#     4  12  28  47  72 106 128 172 238 287 333 398
#     4  12  23  45  72 101 135 184 231 278 334 407
#     4  12  24  46  72  98 139 184 227 278 341 408
#     4  12  22  45  78  96 124 184 236 277 330 411
#     4  12  23  43  71 101 139 184 229 276 333 409
#     4  12  28  39  64 113 146 170 224 288 344 392
#
# _framework density 20.08428
#
# number of rings (size 3 to 8) (size 9 to 14) (size 15 to 20)
#    0.000    0.000    8.000    2.400    1.400    2.400 
#    0.000    0.000    0.000    0.000    0.000    0.000 
#    0.000    0.000    0.000    0.000    0.000    0.000 
#
# Total GULP energy -111783.358091 kJ/mol
# GULP energy per Si atom -5589.167905 kJ/mol
# Density = 2.003857 g / cm^3
# Si number density = 20.084280 Si / 1000 Ang^3
#
#
#
# Elastic Constant Matrix: (Units=GPa)
#
#
# Indices 1 2 3 4 5 6 
#
# 1 95.3106 51.2400 23.8043 0.0000 18.6126 0.0000
# 2 51.2400 141.8434 46.7735 0.0000 -1.2210 0.0000
# 3 23.8043 46.7735 86.3276 0.0000 -10.0614 0.0000
# 4 0.0000 0.0000 0.0000 17.5669 0.0000 29.3381
# 5 18.6126 -1.2210 -10.0614 0.0000 37.6661 0.0000
# 6 0.0000 0.0000 0.0000 29.3381 0.0000 26.1517
#
#
#
# Elastic Compliance Matrix: (Units=1/GPa)
#
#
# Indices 1 2 3 4 5 6 
#
# 1 0.015355 -0.004747 -0.002647 0.000000 -0.008448 0.000000
# 2 -0.004747 0.010087 -0.003969 0.000000 0.001612 0.000000
# 3 -0.002647 -0.003969 0.015070 0.000000 0.005205 0.000000
# 4 0.000000 0.000000 0.000000 -0.065164 0.000000 0.073104
# 5 -0.008448 0.001612 0.005205 0.000000 0.032166 0.000000
# 6 0.000000 0.000000 0.000000 0.073104 0.000000 -0.043773
#
#
# Mechanical properties :
#
#
# Convention : Reuss Voigt Hill
#
# Bulk Modulus (GPa) = 56.21678 63.01300 59.61489
# Shear Modulus (GPa) = -657.55203 29.72122 -313.91541
#
# Velocity S-wave (km/s) = -18.11373 3.85102 -12.51553
# Velocity P-wave (km/s) = 20.23425 7.15655 13.38299
#
# Compressibility (1/GPa) = 0.01778828
#
# Stress axis : x y z
#
# Youngs Moduli (GPa) = 65.12621 99.13446 66.35486
#
# Poissons Ratio (x) = 0.47057 0.17563
# Poissons Ratio (y) = 0.30914 0.26334
# Poissons Ratio (z) = 0.17238 0.39343
#
# Static dielectric constant tensor:
#      x y z
#    x 1.687250 0.000000 -0.017180 
#    y 0.000000 1.846860 0.000000 
#    z -0.017180 0.000000 1.687380 
# 
# From -- ./inp_files/158530.got.cif
#   From: 2010.05.17/outbox.cif.g08.bks.cpg/sg12_80_cif.got.tgz:158530.got - 2010.06.03 13:09:07.
