data_PCOD9222299
_publ_section_title
;
Structure prediction by ZEFSAII (Michael W. Deem and Ramdas Pophale) SiO2 
 PCOD9222299
Probable space group: C 2/M
;
_chemical_formula_sum "Si O2"
_cell_formula_units_Z 36
_cell_length_a 21.692806
_cell_length_b 10.696081
_cell_length_c 19.359542
_cell_angle_alpha 90.000000
_cell_angle_beta 19.146699
_cell_angle_gamma 90.000000
_cell_volume 1473.307541
_symmetry_space_group_name_H-M "C 2/M"
_symmetry_group_IT_number 12
_symmetry_cell_setting 'monoclinic'
loop_
_space_group_symop_operation_xyz
x,y,z
-x,y,-z
-x,-y,-z
x,-y,z
1/2+x,1/2+y,z
1/2-x,1/2+y,-z
1/2-x,1/2-y,-z
1/2+x,1/2-y,z
loop_
_atom_site_type_symbol
_atom_site_label
_atom_site_fract_x
_atom_site_fract_y
_atom_site_fract_z
Si Si1 0.523031 0.500000 0.266888
Si Si2 0.712017 0.000000 0.709852
Si Si3 0.437777 0.142510 0.666988
Si Si4 0.612307 0.000000 0.040188
Si Si5 0.028237 0.735637 0.723976
Si Si6 0.219698 0.239622 0.776241
O O1 0.323662 0.500000 0.518308
O O2 0.548803 0.377161 0.192873
O O3 0.667478 0.500000 0.178000
O O4 0.757636 0.124817 0.703038
O O5 0.490367 0.000000 0.924734
O O6 0.476567 0.191126 0.702037
O O7 0.291388 0.226025 0.778633
O O8 0.638825 0.150269 0.415248
O O9 0.372489 0.000000 0.736519
O O10 0.542200 0.872755 0.151364
O O11 0.250000 0.750000 0.500000
O O12 0.000000 0.210715 0.000000
#
# Coordination Sequence:
#
# PCOD9222299 Si02
#       6
#     4   4   8   4   8   8
#     4  12  26  44  76 107 138 191 234 287 361 415
#     4  12  25  46  70 106 141 181 228 297 348 420
#     4  11  25  45  71  98 141 184 229 294 348 414
#     4  12  26  45  77 106 143 184 241 286 356 426
#     4  12  23  49  71 105 144 187 235 293 353 420
#     4  11  25  44  70 102 137 182 236 283 352 414
#
# _framework density 24.434816000000001
#
# number of rings (size 3 to 8) (size 9 to 14) (size 15 to 20)
#    0.000    0.444    5.556    2.333    3.111    4.444 
#    4.000    0.000    0.000    0.000    0.000    0.000 
#    0.000    0.000    0.000    0.000    0.000    0.000 
#
# Total GULP energy -100924.741593 kJ/mol
# GULP energy per Si atom -5606.930088 kJ/mol
# Density = 2.437920 g / cm^3
# Si number density = 24.434816 Si / 1000 Ang^3
#
#
#
# Elastic Constant Matrix: (Units=GPa)
#
#
# Indices 1 2 3 4 5 6 
#
# 1 131.1848 70.5820 19.9628 -0.0023 -26.7908 -0.0006
# 2 70.5820 170.9109 19.2059 -0.0083 -6.0960 0.0002
# 3 19.9628 19.2059 126.6184 -0.0147 -23.0321 -0.0008
# 4 -0.0023 -0.0083 -0.0147 22.1054 0.0029 -13.7906
# 5 -26.7908 -6.0960 -23.0321 0.0029 48.6522 0.0014
# 6 -0.0006 0.0002 -0.0008 -13.7906 0.0014 39.3297
#
#
#
# Elastic Compliance Matrix: (Units=1/GPa)
#
#
# Indices 1 2 3 4 5 6 
#
# 1 0.011128 -0.004389 -0.000081 -0.000002 0.005539 -0.000001
# 2 -0.004389 0.007689 -0.000808 0.000003 -0.001836 0.000001
# 3 -0.000081 -0.000808 0.008761 0.000006 0.004002 0.000002
# 4 -0.000002 0.000003 0.000006 0.057904 -0.000002 0.020304
# 5 0.005539 -0.001836 0.004002 -0.000002 0.025269 -0.000001
# 6 -0.000001 0.000001 0.000002 0.020304 -0.000001 0.032545
#
#
# Mechanical properties :
#
#
# Convention : Reuss Voigt Hill
#
# Bulk Modulus (GPa) = 58.75023 72.02396 65.38709
# Shear Modulus (GPa) = 31.34283 43.28170 37.31227
#
# Velocity S-wave (km/s) = 3.58538 4.21326 3.91194
# Velocity P-wave (km/s) = 6.42151 7.29443 6.87185
#
# Compressibility (1/GPa) = 0.01702121
#
# Stress axis : x y z
#
# Youngs Moduli (GPa) = 89.86553 130.05915 114.14184
#
# Poissons Ratio (x) = 0.57080 0.00926
# Poissons Ratio (y) = 0.39440 0.09226
# Poissons Ratio (z) = 0.00729 0.10513
#
# Static dielectric constant tensor:
#      x y z
#    x 1.913080 0.000000 0.033780 
#    y 0.000000 1.913500 0.000000 
#    z 0.033780 0.000000 1.943090 
# 
# From -- ./inp_files/321478.got.cif
#   From: 2010.05.17/outbox.cif.g08.bks.cpg/sg12_161_cif.got.tgz:321478.got - 2010.06.03 13:09:07.
