data_PCOD9222524
_publ_section_title
;
Structure prediction by ZEFSAII (Michael W. Deem and Ramdas Pophale) SiO2 
 PCOD9222524
Probable space group: C 2/M
;
_chemical_formula_sum "Si O2"
_cell_formula_units_Z 52
_cell_length_a 11.814795
_cell_length_b 25.411825
_cell_length_c 11.363558
_cell_angle_alpha 90.000000
_cell_angle_beta 128.493213
_cell_angle_gamma 90.000000
_cell_volume 2670.309897
_symmetry_space_group_name_H-M "C 2/M"
_symmetry_group_IT_number 12
_symmetry_cell_setting 'monoclinic'
loop_
_space_group_symop_operation_xyz
x,y,z
-x,y,-z
-x,-y,-z
x,-y,z
1/2+x,1/2+y,z
1/2-x,1/2+y,-z
1/2-x,1/2-y,-z
1/2+x,1/2-y,z
loop_
_atom_site_type_symbol
_atom_site_label
_atom_site_fract_x
_atom_site_fract_y
_atom_site_fract_z
Si Si1 0.258349 0.940339 0.324349
Si Si2 0.485525 0.059560 0.685908
Si Si3 0.497199 0.847566 0.858900
Si Si4 0.294192 0.695437 0.970109
Si Si5 0.210824 0.247317 0.286607
Si Si6 0.000000 0.814728 0.500000
Si Si7 0.069956 0.154408 0.292390
O O1 0.359334 0.929331 0.276221
O O2 0.369844 0.939802 0.505664
O O3 0.140817 0.896532 0.279066
O O4 0.200496 0.000000 0.275638
O O5 0.438275 0.102700 0.749605
O O6 0.491530 0.000000 0.737569
O O7 0.657476 0.840415 0.911191
O O8 0.407326 0.793781 0.782036
O O9 0.500000 0.856708 0.000000
O O10 0.310197 0.712336 0.845165
O O11 0.250000 0.750000 0.000000
O O12 0.434599 0.672746 0.125368
O O13 0.364118 0.276298 0.387086
O O14 0.184007 0.203123 0.367316
O O15 0.976520 0.849642 0.601601
#
# Coordination Sequence:
#
# PCOD9222524 Si02
#       7
#     8   8   8   8   8   4   8
#     4   9  20  41  64  86 113 152 197 246 299 343
#     4   9  20  39  62  87 116 149 197 249 291 348
#     4  12  21  36  60  84 117 159 195 236 293 351
#     4  12  22  40  56  83 121 161 199 233 290 352
#     4  12  23  39  58  84 120 160 195 238 293 353
#     4  12  24  36  53  92 125 144 194 246 290 354
#     4  12  23  37  61  86 117 159 195 243 294 350
#
# _framework density 19.473395
#
# number of rings (size 3 to 8) (size 9 to 14) (size 15 to 20)
#    0.000    0.923    4.615    3.692    0.000    2.769 
#    0.000    1.154    0.000    6.462    0.000    0.000 
#    0.000    0.000    0.000    0.000    0.000    0.000 
#
# Total GULP energy -145208.279324 kJ/mol
# GULP energy per Si atom -5584.933820 kJ/mol
# Density = 1.942907 g / cm^3
# Si number density = 19.473395 Si / 1000 Ang^3
#
#
#
# Elastic Constant Matrix: (Units=GPa)
#
#
# Indices 1 2 3 4 5 6 
#
# 1 88.0681 63.1769 31.2588 0.0000 3.9798 0.0000
# 2 63.1769 124.8723 41.1358 0.0000 -7.1486 0.0000
# 3 31.2588 41.1358 54.6303 0.0000 4.8558 0.0000
# 4 0.0000 0.0000 0.0000 26.1162 0.0000 4.7200
# 5 3.9798 -7.1486 4.8558 0.0000 41.7874 0.0000
# 6 0.0000 0.0000 0.0000 4.7200 0.0000 31.9095
#
#
#
# Elastic Compliance Matrix: (Units=1/GPa)
#
#
# Indices 1 2 3 4 5 6 
#
# 1 0.019004 -0.008337 -0.004354 0.000000 -0.002730 0.000000
# 2 -0.008337 0.014637 -0.006613 0.000000 0.004066 0.000000
# 3 -0.004354 -0.006613 0.026109 0.000000 -0.003751 0.000000
# 4 0.000000 0.000000 0.000000 0.039342 0.000000 -0.005819
# 5 -0.002730 0.004066 -0.003751 0.000000 0.025322 0.000000
# 6 0.000000 0.000000 0.000000 -0.005819 0.000000 0.032199
#
#
# Mechanical properties :
#
#
# Convention : Reuss Voigt Hill
#
# Bulk Modulus (GPa) = 47.29636 59.85709 53.57673
# Shear Modulus (GPa) = 24.71964 28.76258 26.74111
#
# Velocity S-wave (km/s) = 3.56674 3.84737 3.70971
# Velocity P-wave (km/s) = 6.42671 7.10922 6.77656
#
# Compressibility (1/GPa) = 0.02114328
#
# Stress axis : x y z
#
# Youngs Moduli (GPa) = 52.62025 68.31868 38.30137
#
# Poissons Ratio (x) = 0.56956 0.16675
# Poissons Ratio (y) = 0.43869 0.25328
# Poissons Ratio (z) = 0.22909 0.45178
#
# Static dielectric constant tensor:
#      x y z
#    x 1.645510 0.000000 -0.016290 
#    y 0.000000 1.675980 0.000000 
#    z -0.016290 0.000000 1.721450 
# 
# From -- ./inp_files/136008.got.cif
#   From: 2010.05.17/outbox.cif.g08.bks.cpg/sg12_69_cif.got.tgz:136008.got - 2010.06.03 13:09:07.
