data_PCOD9222552
_publ_section_title
;
Structure prediction by ZEFSAII (Michael W. Deem and Ramdas Pophale) SiO2 
 PCOD9222552
Probable space group: C 2/M
;
_chemical_formula_sum "Si O2"
_cell_formula_units_Z 36
_cell_length_a 19.960408
_cell_length_b 18.185478
_cell_length_c 7.328135
_cell_angle_alpha 90.000000
_cell_angle_beta 42.754753
_cell_angle_gamma 90.000000
_cell_volume 1805.796794
_symmetry_space_group_name_H-M "C 2/M"
_symmetry_group_IT_number 12
_symmetry_cell_setting 'monoclinic'
loop_
_space_group_symop_operation_xyz
x,y,z
-x,y,-z
-x,-y,-z
x,-y,z
1/2+x,1/2+y,z
1/2-x,1/2+y,-z
1/2-x,1/2-y,-z
1/2+x,1/2-y,z
loop_
_atom_site_type_symbol
_atom_site_label
_atom_site_fract_x
_atom_site_fract_y
_atom_site_fract_z
Si Si1 0.631396 0.000000 0.071831
Si Si2 0.369960 0.000000 0.338298
Si Si3 0.631396 0.500000 0.402585
Si Si4 0.131531 0.377236 0.367468
Si Si5 0.131531 0.122764 0.106407
Si Si6 0.000000 0.750000 0.500000
Si Si7 0.130040 0.000000 0.818139
O O1 0.607466 0.071955 0.238705
O O2 0.407220 0.000000 0.056767
O O3 0.750000 0.000000 0.824257
O O4 0.393806 0.927650 0.408089
O O5 0.250000 0.000000 0.570782
O O6 0.607466 0.571954 0.331430
O O7 0.592780 0.500000 0.685647
O O8 0.070454 0.302862 0.476720
O O9 0.250000 0.364310 0.130507
O O10 0.070454 0.197137 0.241463
O O11 0.106194 0.072350 0.983311
#
# Coordination Sequence:
#
# PCOD9222552 Si02
#       7
#     4   4   4   8   8   4   4
#     4   8  15  33  59  78  95 128 174 218 253 288
#     4   8  15  33  59  78  95 128 174 218 253 288
#     4   8  15  33  59  78  95 128 174 218 253 288
#     4   9  19  35  54  76 102 133 169 209 252 298
#     4   9  19  35  54  76 102 133 169 209 252 298
#     4  12  22  34  50  74 112 144 162 196 254 312
#     4   8  15  33  59  78  95 128 174 218 253 288
#
# _framework density 19.935797999999998
#
# number of rings (size 3 to 8) (size 9 to 14) (size 15 to 20)
#    0.000    3.111    0.000    3.333    0.000    3.556 
#    0.000    8.889    0.000   10.667    0.000    0.000 
#    0.000    0.000    0.000    0.000    0.000    0.000 
#
# Total GULP energy -100539.366509 kJ/mol
# GULP energy per Si atom -5585.520362 kJ/mol
# Density = 1.989042 g / cm^3
# Si number density = 19.935798 Si / 1000 Ang^3
#
#
#
# Elastic Constant Matrix: (Units=GPa)
#
#
# Indices 1 2 3 4 5 6 
#
# 1 115.7870 64.1195 73.8604 0.0000 9.2697 0.0000
# 2 64.1195 149.1637 66.1678 0.0000 -6.7501 0.0000
# 3 73.8604 66.1678 112.8899 0.0000 0.2833 0.0000
# 4 0.0000 0.0000 0.0000 31.4418 0.0000 -26.4953
# 5 9.2697 -6.7501 0.2833 0.0000 49.1851 0.0000
# 6 0.0000 0.0000 0.0000 -26.4953 0.0000 23.4050
#
#
#
# Elastic Compliance Matrix: (Units=1/GPa)
#
#
# Indices 1 2 3 4 5 6 
#
# 1 0.016308 -0.003295 -0.008730 0.000000 -0.003475 0.000000
# 2 -0.003295 0.009806 -0.003597 0.000000 0.001987 0.000000
# 3 -0.008730 -0.003597 0.016675 0.000000 0.001056 0.000000
# 4 0.000000 0.000000 0.000000 0.690512 0.000000 0.781684
# 5 -0.003475 0.001987 0.001056 0.000000 0.021253 0.000000
# 6 0.000000 0.000000 0.000000 0.781684 0.000000 0.927619
#
#
# Mechanical properties :
#
#
# Convention : Reuss Voigt Hill
#
# Bulk Modulus (GPa) = 86.60824 87.34845 86.97835
# Shear Modulus (GPa) = 2.91161 32.38593 17.64877
#
# Velocity S-wave (km/s) = 1.20982 4.03490 2.97859
# Velocity P-wave (km/s) = 6.74459 8.10044 7.45341
#
# Compressibility (1/GPa) = 0.01154625
#
# Stress axis : x y z
#
# Youngs Moduli (GPa) = 61.31834 101.98041 59.96866
#
# Poissons Ratio (x) = 0.33603 0.52353
# Poissons Ratio (y) = 0.20204 0.21568
# Poissons Ratio (z) = 0.53531 0.36678
#
# Static dielectric constant tensor:
#      x y z
#    x 1.734910 0.000000 -0.041320 
#    y 0.000000 1.650610 0.000000 
#    z -0.041320 0.000000 1.747450 
# 
# From -- ./inp_files/86978.got.cif
#   From: 2010.05.17/outbox.cif.g08.bks.cpg/sg12_44_cif.got.tgz:86978.got - 2010.06.03 13:09:07.
