data_PCOD9222801
_publ_section_title
;
Structure prediction by ZEFSAII (Michael W. Deem and Ramdas Pophale) SiO2 
 PCOD9222801
Probable space group: C 2/M
;
_chemical_formula_sum "Si O2"
_cell_formula_units_Z 56
_cell_length_a 31.038125
_cell_length_b 7.282024
_cell_length_c 12.206973
_cell_angle_alpha 90.000000
_cell_angle_beta 90.826295
_cell_angle_gamma 90.000000
_cell_volume 2758.737660
_symmetry_space_group_name_H-M "C 2/M"
_symmetry_group_IT_number 12
_symmetry_cell_setting 'monoclinic'
loop_
_space_group_symop_operation_xyz
x,y,z
-x,y,-z
-x,-y,-z
x,-y,z
1/2+x,1/2+y,z
1/2-x,1/2+y,-z
1/2-x,1/2-y,-z
1/2+x,1/2-y,z
loop_
_atom_site_type_symbol
_atom_site_label
_atom_site_fract_x
_atom_site_fract_y
_atom_site_fract_z
Si Si1 0.417773 0.723529 0.344623
Si Si2 0.646651 0.286641 0.219046
Si Si3 0.509654 0.724076 0.251948
Si Si4 0.376772 0.724530 0.127351
Si Si5 0.799325 0.219097 0.972855
Si Si6 0.909854 0.224522 0.593399
Si Si7 0.437547 0.286998 0.943573
O O1 0.418426 0.500000 0.348193
O O2 0.463878 0.780704 0.297312
O O3 0.382818 0.778832 0.252835
O O4 0.410433 0.785087 0.468178
O O5 0.657062 0.500000 0.239945
O O6 0.630289 0.211096 0.333955
O O7 0.604115 0.282173 0.139416
O O8 0.684532 0.208782 0.144690
O O9 0.509668 0.500000 0.246659
O O10 0.546749 0.776519 0.339916
O O11 0.523999 0.787406 0.130786
O O12 0.377615 0.500000 0.123972
O O13 0.333056 0.784840 0.066211
O O14 0.417728 0.786937 0.055349
O O15 0.805533 0.000000 0.968154
O O16 0.750000 0.250000 0.000000
O O17 0.909288 0.000000 0.594103
O O18 0.448122 0.500000 0.966118
#
# Coordination Sequence:
#
# PCOD9222801 Si02
#       7
#     8   8   8   8   8   8   8
#     4   9  14  17  24  40  64  94 123 150 177 204
#     4   7  11  20  33  47  63  87 117 144 171 208
#     4   8  12  16  23  37  58  89 128 157 170 191
#     4   8  14  22  30  44  66  91 118 146 181 221
#     4   9  16  27  43  59  73  90 116 150 184 220
#     4   8  12  18  27  40  62  93 126 150 167 199
#     4   7  10  17  26  36  56  86 117 146 173 205
#
# _framework density 20.299140999999999
#
# number of rings (size 3 to 8) (size 9 to 14) (size 15 to 20)
#    0.000    4.000    0.000    3.857    0.000    2.286 
#    0.000    2.857    0.000    0.857    0.000    0.000 
#    0.000    0.000    0.000   23.143    0.000   44.286 
#
# Total GULP energy -156010.129602 kJ/mol
# GULP energy per Si atom -5571.790343 kJ/mol
# Density = 2.025294 g / cm^3
# Si number density = 20.299141 Si / 1000 Ang^3
#
#
#
# Elastic Constant Matrix: (Units=GPa)
#
#
# Indices 1 2 3 4 5 6 
#
# 1 124.4977 1.0809 77.3466 0.0000 -25.6002 0.0000
# 2 1.0809 84.1933 3.0969 0.0000 -1.1625 0.0000
# 3 77.3466 3.0969 157.2680 0.0000 -12.5789 0.0000
# 4 0.0000 0.0000 0.0000 -22.4866 0.0000 -0.7971
# 5 -25.6002 -1.1625 -12.5789 0.0000 23.0372 0.0000
# 6 0.0000 0.0000 0.0000 -0.7971 0.0000 -8.2414
#
#
#
# Elastic Compliance Matrix: (Units=1/GPa)
#
#
# Indices 1 2 3 4 5 6 
#
# 1 0.014423 0.000214 -0.006081 0.000000 0.012719 0.000000
# 2 0.000214 0.011895 -0.000285 0.000000 0.000683 0.000000
# 3 -0.006081 -0.000285 0.009216 0.000000 -0.001739 0.000000
# 4 0.000000 0.000000 0.000000 -0.044624 0.000000 0.004316
# 5 0.012719 0.000683 -0.001739 0.000000 0.056626 0.000000
# 6 0.000000 0.000000 0.000000 0.004316 0.000000 -0.121756
#
#
# Mechanical properties :
#
#
# Convention : Reuss Voigt Hill
#
# Bulk Modulus (GPa) = 43.04632 58.77864 50.91248
# Shear Modulus (GPa) = -92.29677 17.42413 -37.43632
#
# Velocity S-wave (km/s) = -6.75034 2.93297 -4.29911
# Velocity P-wave (km/s) = 6.28522 6.36308 0.70172
#
# Compressibility (1/GPa) = 0.02323079
#
# Stress axis : x y z
#
# Youngs Moduli (GPa) = 69.33171 84.07187 108.51209
#
# Poissons Ratio (x) = -0.01800 0.65981
# Poissons Ratio (y) = -0.01484 0.03092
# Poissons Ratio (z) = 0.42158 0.02395
#
# Static dielectric constant tensor:
#      x y z
#    x 1.701070 0.000000 -0.024750 
#    y 0.000000 1.882210 0.000000 
#    z -0.024750 0.000000 1.736080 
# 
# From -- ./inp_files/181609.got.cif
#   From: 2010.05.17/outbox.cif.g08.bks.cpg/sg12_91_cif.got.tgz:181609.got - 2010.06.03 13:09:07.
