data_PCOD9222579
_publ_section_title
;
Structure prediction by ZEFSAII (Michael W. Deem and Ramdas Pophale) SiO2 
 PCOD9222579
Probable space group: C 2/M
;
_chemical_formula_sum "Si O2"
_cell_formula_units_Z 58
_cell_length_a 7.582946
_cell_length_b 14.312006
_cell_length_c 22.523045
_cell_angle_alpha 90.000000
_cell_angle_beta 95.976532
_cell_angle_gamma 90.000000
_cell_volume 2431.076280
_symmetry_space_group_name_H-M "C 2/M"
_symmetry_group_IT_number 12
_symmetry_cell_setting 'monoclinic'
loop_
_space_group_symop_operation_xyz
x,y,z
-x,y,-z
-x,-y,-z
x,-y,z
1/2+x,1/2+y,z
1/2-x,1/2+y,-z
1/2-x,1/2-y,-z
1/2+x,1/2-y,z
loop_
_atom_site_type_symbol
_atom_site_label
_atom_site_fract_x
_atom_site_fract_y
_atom_site_fract_z
Si Si1 0.752750 0.170405 0.450259
Si Si2 0.374371 0.109832 0.877008
Si Si3 0.014536 0.729155 0.638407
Si Si4 0.551711 0.390409 0.154031
Si Si5 0.624499 0.717137 0.047581
Si Si6 0.416866 0.890768 0.742317
Si Si7 0.487097 0.609598 0.713972
Si Si8 0.000000 0.000000 0.500000
O O1 0.750000 0.250000 0.500000
O O2 0.560890 0.158104 0.414192
O O3 0.845676 0.214411 0.395799
O O4 0.856514 0.081674 0.476140
O O5 0.445235 0.184988 0.926201
O O6 0.442264 0.131003 0.812764
O O7 0.158722 0.122904 0.867521
O O8 0.408064 0.000000 0.890895
O O9 0.026337 0.670118 0.699445
O O10 0.912944 0.821795 0.661774
O O11 0.587115 0.500000 0.153090
O O12 0.665064 0.339530 0.108074
O O13 0.579418 0.361572 0.223037
O O14 0.500000 0.655271 0.000000
O O15 0.750000 0.750000 0.000000
O O16 0.203484 0.880820 0.723288
O O17 0.459176 0.000000 0.735748
O O18 0.449767 0.500000 0.702391
#
# Coordination Sequence:
#
# PCOD9222579 Si02
#       8
#     8   8   8   8   8   8   8   2
#     4  12  27  48  71 101 135 188 232 269 334 392
#     4   9  19  38  60  83 122 163 206 258 328 395
#     4  12  22  40  70 100 136 162 222 281 314 402
#     4   9  19  38  60  86 119 161 207 257 316 395
#     4  12  23  36  56  85 116 157 215 265 314 373
#     4   9  19  37  62  94 126 165 205 262 338 400
#     4   9  19  36  65  94 123 163 209 259 333 392
#     4  12  28  52  78  90 148 192 222 288 332 376
#
# _framework density 23.857745000000001
#
# number of rings (size 3 to 8) (size 9 to 14) (size 15 to 20)
#    0.000    1.655    4.138    2.483    1.931    1.103 
#    1.241    0.690    0.000    3.310    0.000    0.000 
#    0.000    0.000    0.000    0.000    0.000    0.000 
#
# Total GULP energy -161462.069691 kJ/mol
# GULP energy per Si atom -5567.657576 kJ/mol
# Density = 2.380344 g / cm^3
# Si number density = 23.857745 Si / 1000 Ang^3
#
#
#
# Elastic Constant Matrix: (Units=GPa)
#
#
# Indices 1 2 3 4 5 6 
#
# 1 16.5337 16.1916 16.3522 0.0000 -13.3519 0.0000
# 2 16.1916 130.9719 74.5926 0.0000 -6.1337 0.0000
# 3 16.3522 74.5926 141.3164 0.0000 -26.1896 0.0000
# 4 0.0000 0.0000 0.0000 11.8362 0.0000 19.4063
# 5 -13.3519 -6.1337 -26.1896 0.0000 50.4959 0.0000
# 6 0.0000 0.0000 0.0000 19.4063 0.0000 -0.7341
#
#
#
# Elastic Compliance Matrix: (Units=1/GPa)
#
#
# Indices 1 2 3 4 5 6 
#
# 1 0.088107 -0.009073 -0.001430 0.000000 0.021453 0.000000
# 2 -0.009073 0.012008 -0.006044 0.000000 -0.004075 0.000000
# 3 -0.001430 -0.006044 0.011313 0.000000 0.004755 0.000000
# 4 0.000000 0.000000 0.000000 0.001905 0.000000 0.050368
# 5 0.021453 -0.004075 0.004755 0.000000 0.027447 0.000000
# 6 0.000000 0.000000 0.000000 0.050368 0.000000 -0.030720
#
#
# Mechanical properties :
#
#
# Convention : Reuss Voigt Hill
#
# Bulk Modulus (GPa) = 12.76583 55.89943 34.33263
# Shear Modulus (GPa) = 29.53927 24.43198 26.98562
#
# Velocity S-wave (km/s) = 3.52254 3.20358 3.36684
# Velocity P-wave (km/s) = 4.68047 6.09632 5.43470
#
# Compressibility (1/GPa) = 0.07833414
#
# Stress axis : x y z
#
# Youngs Moduli (GPa) = 11.34985 83.27680 88.39233
#
# Poissons Ratio (x) = 0.75558 0.12642
# Poissons Ratio (y) = 0.10298 0.53422
# Poissons Ratio (z) = 0.01623 0.50330
#
# Static dielectric constant tensor:
#      x y z
#    x 2.562630 0.000000 0.094060 
#    y 0.000000 1.861910 0.000000 
#    z 0.094060 0.000000 1.851540 
# 
# From -- ./inp_files/332654.got.cif
#   From: 2010.05.17/outbox.cif.g08.bks.cpg/sg12_167_cif.got.tgz:332654.got - 2010.06.03 13:09:07.
