data_PCOD9222354
_publ_section_title
;
Structure prediction by ZEFSAII (Michael W. Deem and Ramdas Pophale) SiO2 
 PCOD9222354
Probable space group: C 2/M
;
_chemical_formula_sum "Si O2"
_cell_formula_units_Z 42
_cell_length_a 13.294210
_cell_length_b 25.176499
_cell_length_c 5.061071
_cell_angle_alpha 90.000000
_cell_angle_beta 86.558942
_cell_angle_gamma 90.000000
_cell_volume 1690.894823
_symmetry_space_group_name_H-M "C 2/M"
_symmetry_group_IT_number 12
_symmetry_cell_setting 'monoclinic'
loop_
_space_group_symop_operation_xyz
x,y,z
-x,y,-z
-x,-y,-z
x,-y,z
1/2+x,1/2+y,z
1/2-x,1/2+y,-z
1/2-x,1/2-y,-z
1/2+x,1/2-y,z
loop_
_atom_site_type_symbol
_atom_site_label
_atom_site_fract_x
_atom_site_fract_y
_atom_site_fract_z
Si Si1 0.500000 0.000000 0.000000
Si Si2 0.892558 0.422206 0.661109
Si Si3 0.880857 0.698796 0.561607
Si Si4 0.884545 0.120523 0.116352
Si Si5 0.621716 0.257116 0.939580
Si Si6 0.192927 0.939704 0.370198
O O1 0.583749 0.953917 0.076753
O O2 0.870575 0.359840 0.679862
O O3 0.802999 0.442312 0.489117
O O4 0.000000 0.431253 0.500000
O O5 0.845202 0.712462 0.274899
O O6 0.840960 0.740570 0.778636
O O7 0.000000 0.705951 0.500000
O O8 0.857558 0.182688 0.149467
O O9 0.816628 0.092231 0.902354
O O10 0.871328 0.091035 0.396505
O O11 0.000000 0.117146 0.000000
O O12 0.500000 0.255024 0.000000
O O13 0.157446 0.000000 0.332263
#
# Coordination Sequence:
#
# PCOD9222354 Si02
#       6
#     2   8   8   8   8   8
#     4  12  26  44  76  94 146 194 246 272 352 408
#     4  11  27  44  70 102 140 188 232 287 347 412
#     4   9  19  35  65  96 134 171 225 275 340 407
#     4  11  25  46  73 100 139 182 232 287 357 417
#     4   9  18  38  64  96 130 175 221 279 343 409
#     4  12  27  45  69 103 140 181 236 292 346 414
#
# _framework density 24.838919000000001
#
# number of rings (size 3 to 8) (size 9 to 14) (size 15 to 20)
#    0.000    1.524    0.952    2.571    9.333    5.333 
#    0.000    5.714    0.000    0.000    0.000    0.000 
#    0.000    0.000    0.000    0.000    0.000    0.000 
#
# Total GULP energy -117250.508136 kJ/mol
# GULP energy per Si atom -5583.357530 kJ/mol
# Density = 2.478238 g / cm^3
# Si number density = 24.838919 Si / 1000 Ang^3
#
#
#
# Elastic Constant Matrix: (Units=GPa)
#
#
# Indices 1 2 3 4 5 6 
#
# 1 83.3819 14.1833 4.3309 0.0000 26.7801 0.0000
# 2 14.1833 143.4034 50.7298 0.0000 -12.5771 0.0000
# 3 4.3309 50.7298 114.2904 0.0000 -6.7226 0.0000
# 4 0.0000 0.0000 0.0000 32.9212 0.0000 -6.9423
# 5 26.7801 -12.5771 -6.7226 0.0000 37.5099 0.0000
# 6 0.0000 0.0000 0.0000 -6.9423 0.0000 58.3845
#
#
#
# Elastic Compliance Matrix: (Units=1/GPa)
#
#
# Indices 1 2 3 4 5 6 
#
# 1 0.016557 -0.002692 -0.000183 0.000000 -0.012756 0.000000
# 2 -0.002692 0.008883 -0.003591 0.000000 0.004257 0.000000
# 3 -0.000183 -0.003591 0.010397 0.000000 0.000790 0.000000
# 4 0.000000 0.000000 0.000000 0.031157 0.000000 0.003705
# 5 -0.012756 0.004257 0.000790 0.000000 0.037336 0.000000
# 6 0.000000 0.000000 0.000000 0.003705 0.000000 0.017568
#
#
# Mechanical properties :
#
#
# Convention : Reuss Voigt Hill
#
# Bulk Modulus (GPa) = 43.65513 53.28486 48.47000
# Shear Modulus (GPa) = 35.09651 43.88523 39.49087
#
# Velocity S-wave (km/s) = 3.76302 4.20788 3.99165
# Velocity P-wave (km/s) = 6.04102 6.71618 6.38753
#
# Compressibility (1/GPa) = 0.02290681
#
# Stress axis : x y z
#
# Youngs Moduli (GPa) = 60.39597 112.57396 96.18380
#
# Poissons Ratio (x) = 0.30301 0.01760
# Poissons Ratio (y) = 0.16256 0.34535
# Poissons Ratio (z) = 0.01105 0.40420
#
# Static dielectric constant tensor:
#      x y z
#    x 2.059630 0.000000 -0.018470 
#    y 0.000000 1.984470 0.000000 
#    z -0.018470 0.000000 1.938900 
# 
# From -- ./inp_files/12201.got.cif
#   From: 2010.05.17/outbox.cif.g08.bks.cpg/sg12_7_cif.got.tgz:12201.got - 2010.06.03 13:09:07.
