data_PCOD9222962
_publ_section_title
;
Structure prediction by ZEFSAII (Michael W. Deem and Ramdas Pophale) SiO2 
 PCOD9222962
Probable space group: C 2/M
;
_chemical_formula_sum "Si O2"
_cell_formula_units_Z 48
_cell_length_a 20.756081
_cell_length_b 7.421779
_cell_length_c 16.496133
_cell_angle_alpha 90.000000
_cell_angle_beta 71.383931
_cell_angle_gamma 90.000000
_cell_volume 2408.223245
_symmetry_space_group_name_H-M "C 2/M"
_symmetry_group_IT_number 12
_symmetry_cell_setting 'monoclinic'
loop_
_space_group_symop_operation_xyz
x,y,z
-x,y,-z
-x,-y,-z
x,-y,z
1/2+x,1/2+y,z
1/2-x,1/2+y,-z
1/2-x,1/2-y,-z
1/2+x,1/2-y,z
loop_
_atom_site_type_symbol
_atom_site_label
_atom_site_fract_x
_atom_site_fract_y
_atom_site_fract_z
Si Si1 0.679144 0.285175 0.071779
Si Si2 0.965527 0.220001 0.931055
Si Si3 0.651263 0.715492 0.596927
Si Si4 0.013960 0.219555 0.735887
Si Si5 0.866421 0.779944 0.735681
Si Si6 0.200650 0.784317 0.403113
O O1 0.671764 0.500000 0.079264
O O2 0.612630 0.220753 0.049626
O O3 0.672959 0.220381 0.167126
O O4 0.750000 0.250000 0.000000
O O5 0.004943 0.273948 0.833264
O O6 0.965920 0.000000 0.932687
O O7 0.000000 0.282051 0.000000
O O8 0.643950 0.500000 0.593220
O O9 0.582734 0.783935 0.666054
O O10 0.719033 0.749275 0.621792
O O11 0.666585 0.785185 0.500029
O O12 0.945100 0.272308 0.716629
O O13 0.015105 0.000000 0.735410
O O14 0.832997 0.716062 0.665860
O O15 0.864911 0.000000 0.734835
O O16 0.191996 0.000000 0.406895
#
# Coordination Sequence:
#
# PCOD9222962 Si02
#       6
#     8   8   8   8   8   8
#     4   9  17  29  45  64  86 112 141 174 210 249
#     4   8  14  25  41  61  84 109 137 171 212 251
#     4   9  17  28  44  66  87 108 139 179 214 244
#     4   8  14  25  41  61  83 106 139 180 209 237
#     4   8  15  28  44  62  85 113 143 173 208 250
#     4   9  17  29  44  62  87 116 140 167 210 259
#
# _framework density 19.931708
#
# number of rings (size 3 to 8) (size 9 to 14) (size 15 to 20)
#    0.000    3.500    0.000    2.000    0.000    2.000 
#    0.000    5.833    0.000    5.500    0.000    4.667 
#    0.000    0.000    0.000    0.000    0.000    0.000 
#
# Total GULP energy -133813.200539 kJ/mol
# GULP energy per Si atom -5575.550022 kJ/mol
# Density = 1.988634 g / cm^3
# Si number density = 19.931708 Si / 1000 Ang^3
#
#
#
# Elastic Constant Matrix: (Units=GPa)
#
#
# Indices 1 2 3 4 5 6 
#
# 1 188.8409 2.4297 170.2275 0.0000 1.8654 0.0000
# 2 2.4297 62.6745 5.5829 0.0000 1.9316 0.0000
# 3 170.2275 5.5829 181.0727 0.0000 2.5711 0.0000
# 4 0.0000 0.0000 0.0000 2.2068 0.0000 -5.9428
# 5 1.8654 1.9316 2.5711 0.0000 44.4155 0.0000
# 6 0.0000 0.0000 0.0000 -5.9428 0.0000 15.6214
#
#
#
# Elastic Compliance Matrix: (Units=1/GPa)
#
#
# Indices 1 2 3 4 5 6 
#
# 1 0.034871 0.001562 -0.032836 0.000000 0.000368 0.000000
# 2 0.001562 0.016089 -0.001955 0.000003 -0.000652 0.000001
# 3 -0.032836 -0.001955 0.036461 -0.000001 -0.000647 0.000000
# 4 0.000000 0.000003 -0.000001-18.490702 0.000000 -7.034401
# 5 0.000368 -0.000652 -0.000647 0.000000 0.022565 0.000000
# 6 0.000000 0.000001 0.000000 -7.034401 0.000000 -2.612076
#
#
# Mechanical properties :
#
#
# Convention : Reuss Voigt Hill
#
# Bulk Modulus (GPa) = 47.70259 87.67425 67.68842
# Shear Modulus (GPa) = -0.23901 29.40526 14.58312
#
# Velocity S-wave (km/s) = -0.34666 3.84513 2.70785
# Velocity P-wave (km/s) = 4.88106 7.98725 6.61895
#
# Compressibility (1/GPa) = 0.02096322
#
# Stress axis : x y z
#
# Youngs Moduli (GPa) = 28.67699 62.15371 27.42627
#
# Poissons Ratio (x) = -0.09707 0.90057
# Poissons Ratio (y) = -0.04479 0.05362
# Poissons Ratio (z) = 0.94164 0.12151
#
# Static dielectric constant tensor:
#      x y z
#    x 1.670180 0.000000 -0.002060 
#    y 0.000000 1.782630 0.000000 
#    z -0.002060 0.000000 1.694160 
# 
# From -- ./inp_files/222383.got.cif
#   From: 2010.05.17/outbox.cif.g08.bks.cpg/sg12_112_cif.got.tgz:222383.got - 2010.06.03 13:09:07.
