data_PCOD9222757
_publ_section_title
;
Structure prediction by ZEFSAII (Michael W. Deem and Ramdas Pophale) SiO2 
 PCOD9222757
Probable space group: C 2/M
;
_chemical_formula_sum "Si O2"
_cell_formula_units_Z 48
_cell_length_a 16.492486
_cell_length_b 29.343488
_cell_length_c 9.190724
_cell_angle_alpha 90.000000
_cell_angle_beta 30.242153
_cell_angle_gamma 90.000000
_cell_volume 2240.171706
_symmetry_space_group_name_H-M "C 2/M"
_symmetry_group_IT_number 12
_symmetry_cell_setting 'monoclinic'
loop_
_space_group_symop_operation_xyz
x,y,z
-x,y,-z
-x,-y,-z
x,-y,z
1/2+x,1/2+y,z
1/2-x,1/2+y,-z
1/2-x,1/2-y,-z
1/2+x,1/2-y,z
loop_
_atom_site_type_symbol
_atom_site_label
_atom_site_fract_x
_atom_site_fract_y
_atom_site_fract_z
Si Si1 0.660974 0.140739 0.322205
Si Si2 0.660092 0.123073 0.666096
Si Si3 0.272234 0.447446 0.980590
Si Si4 0.758286 0.779750 0.631842
Si Si5 0.124002 0.225566 0.089157
Si Si6 0.650679 0.448121 0.468293
O O1 0.500000 0.161289 0.500000
O O2 0.639475 0.132992 0.527492
O O3 0.805167 0.176030 0.064681
O O4 0.688542 0.092204 0.201160
O O5 0.717312 0.169083 0.654862
O O6 0.793162 0.085113 0.492751
O O7 0.500000 0.108150 0.000000
O O8 0.216171 0.500000 0.089244
O O9 0.460039 0.446234 0.735248
O O10 0.268117 0.436976 0.814090
O O11 0.750000 0.750000 0.500000
O O12 0.631419 0.758123 0.937751
O O13 0.937894 0.777702 0.421472
O O14 0.250000 0.250000 0.000000
O O15 0.693650 0.500000 0.437489
#
# Coordination Sequence:
#
# PCOD9222757 Si02
#       6
#     8   8   8   8   8   8
#     4  12  26  43  64  95 133 172 223 273 331 399
#     4  12  26  42  66  95 130 175 220 276 334 391
#     4   9  20  41  68  96 130 170 215 272 333 395
#     4  12  25  45  69  95 133 171 219 271 329 383
#     4  12  27  45  67  99 131 175 219 270 326 397
#     4   9  20  41  68  97 129 169 218 270 331 399
#
# _framework density 21.426928
#
# number of rings (size 3 to 8) (size 9 to 14) (size 15 to 20)
#    0.000    1.000    1.667    6.000    4.667    3.333 
#    0.000    1.667    0.000    0.000    0.000    0.000 
#    0.000    0.000    0.000    0.000    0.000    0.000 
#
# Total GULP energy -134262.655750 kJ/mol
# GULP energy per Si atom -5594.277323 kJ/mol
# Density = 2.137816 g / cm^3
# Si number density = 21.426928 Si / 1000 Ang^3
#
#
#
# Elastic Constant Matrix: (Units=GPa)
#
#
# Indices 1 2 3 4 5 6 
#
# 1 90.4231 21.6222 -0.9284 0.0000 -2.9507 0.0000
# 2 21.6222 86.7906 11.3875 0.0000 3.3435 0.0000
# 3 -0.9284 11.3875 56.3856 0.0000 -5.8407 0.0000
# 4 0.0000 0.0000 0.0000 30.9986 0.0000 0.6844
# 5 -2.9507 3.3435 -5.8407 0.0000 29.1624 0.0000
# 6 0.0000 0.0000 0.0000 0.6844 0.0000 30.5179
#
#
#
# Elastic Compliance Matrix: (Units=1/GPa)
#
#
# Indices 1 2 3 4 5 6 
#
# 1 0.011883 -0.003162 0.001018 0.000000 0.001769 0.000000
# 2 -0.003162 0.012778 -0.002877 0.000000 -0.002361 0.000000
# 3 0.001018 -0.002877 0.018767 0.000000 0.004192 0.000000
# 4 0.000000 0.000000 0.000000 0.032275 0.000000 -0.000724
# 5 0.001769 -0.002361 0.004192 0.000000 0.035580 0.000000
# 6 0.000000 0.000000 0.000000 -0.000724 0.000000 0.032784
#
#
# Mechanical properties :
#
#
# Convention : Reuss Voigt Hill
#
# Bulk Modulus (GPa) = 29.95377 33.08464 31.51921
# Shear Modulus (GPa) = 30.25896 31.57032 30.91464
#
# Velocity S-wave (km/s) = 3.76199 3.84265 3.80253
# Velocity P-wave (km/s) = 5.73411 5.92976 5.83276
#
# Compressibility (1/GPa) = 0.03338478
#
# Stress axis : x y z
#
# Youngs Moduli (GPa) = 84.15080 78.25791 53.28487
#
# Poissons Ratio (x) = 0.24746 -0.05422
# Poissons Ratio (y) = 0.26610 0.15332
# Poissons Ratio (z) = -0.08562 0.22517
#
# Static dielectric constant tensor:
#      x y z
#    x 1.759980 0.000000 -0.011580 
#    y 0.000000 1.734060 0.000000 
#    z -0.011580 0.000000 1.774700 
# 
# From -- ./inp_files/67319.got.cif
#   From: 2010.05.17/outbox.cif.g08.bks.cpg/sg12_34_cif.got.tgz:67319.got - 2010.06.03 13:09:07.
