data_PCOD9222561
_publ_section_title
;
Structure prediction by ZEFSAII (Michael W. Deem and Ramdas Pophale) SiO2 
 PCOD9222561
Probable space group: C 2/M
;
_chemical_formula_sum "Si O2"
_cell_formula_units_Z 60
_cell_length_a 8.224910
_cell_length_b 32.589125
_cell_length_c 12.547385
_cell_angle_alpha 90.000000
_cell_angle_beta 72.795450
_cell_angle_gamma 90.000000
_cell_volume 3212.745631
_symmetry_space_group_name_H-M "C 2/M"
_symmetry_group_IT_number 12
_symmetry_cell_setting 'monoclinic'
loop_
_space_group_symop_operation_xyz
x,y,z
-x,y,-z
-x,-y,-z
x,-y,z
1/2+x,1/2+y,z
1/2-x,1/2+y,-z
1/2-x,1/2-y,-z
1/2+x,1/2-y,z
loop_
_atom_site_type_symbol
_atom_site_label
_atom_site_fract_x
_atom_site_fract_y
_atom_site_fract_z
Si Si1 0.369104 0.871600 0.123339
Si Si2 0.802192 0.045225 0.904438
Si Si3 0.702029 0.291207 0.446622
Si Si4 0.210456 0.955430 0.843841
Si Si5 0.362134 0.870933 0.746770
Si Si6 0.876753 0.796889 0.125601
Si Si7 0.000000 0.343735 0.500000
Si Si8 0.806154 0.786379 0.804921
O O1 0.261718 0.913627 0.139334
O O2 0.469570 0.869757 0.214123
O O3 0.268582 0.828789 0.133992
O O4 0.500000 0.873377 0.000000
O O5 0.006692 0.045280 0.870056
O O6 0.747591 0.000000 0.873036
O O7 0.746189 0.047382 0.038951
O O8 0.500000 0.301625 0.500000
O O9 0.750000 0.250000 0.500000
O O10 0.845798 0.320757 0.467871
O O11 0.724425 0.285866 0.315447
O O12 0.281453 0.915355 0.776587
O O13 0.271662 0.000000 0.793165
O O14 0.241493 0.835263 0.819907
O O15 0.404086 0.865358 0.615554
O O16 0.771007 0.755025 0.129381
O O17 0.996435 0.787795 0.203572
O O18 0.000000 0.804762 0.000000
#
# Coordination Sequence:
#
# PCOD9222561 Si02
#       8
#     8   8   8   8   8   8   4   8
#     4  12  22  36  59  90 128 160 202 254 319 387
#     4   9  19  35  61  95 128 158 199 258 315 385
#     4  12  24  41  67  89 119 170 230 282 321 368
#     4   9  19  38  64  92 123 163 205 249 319 386
#     4  12  24  41  64  91 127 169 207 263 317 376
#     4  12  26  42  63  91 130 169 211 261 325 394
#     4  12  26  46  61  94 132 168 228 274 319 380
#     4  12  24  42  59  90 123 167 217 260 324 379
#
# _framework density 18.675615000000001
#
# number of rings (size 3 to 8) (size 9 to 14) (size 15 to 20)
#    0.000    0.800    3.333    6.400    1.867    0.800 
#    0.000    0.333    0.000    0.000    0.000    1.867 
#    0.000    0.000    0.000    0.000    0.000    0.000 
#
# Total GULP energy -167480.320174 kJ/mol
# GULP energy per Si atom -5582.677339 kJ/mol
# Density = 1.863311 g / cm^3
# Si number density = 18.675615 Si / 1000 Ang^3
#
#
#
# Elastic Constant Matrix: (Units=GPa)
#
#
# Indices 1 2 3 4 5 6 
#
# 1 84.7832 54.8803 13.7489 0.0000 10.3070 0.0000
# 2 54.8803 185.3899 45.0645 0.0000 -13.3063 0.0000
# 3 13.7489 45.0645 80.2321 0.0000 5.3937 0.0000
# 4 0.0000 0.0000 0.0000 20.8866 0.0000 -4.7937
# 5 10.3070 -13.3063 5.3937 0.0000 32.4907 0.0000
# 6 0.0000 0.0000 0.0000 -4.7937 0.0000 43.5622
#
#
#
# Elastic Compliance Matrix: (Units=1/GPa)
#
#
# Indices 1 2 3 4 5 6 
#
# 1 0.016150 -0.005526 0.000842 0.000000 -0.007526 0.000000
# 2 -0.005526 0.008479 -0.004214 0.000000 0.005925 0.000000
# 3 0.000842 -0.004214 0.014988 0.000000 -0.004481 0.000000
# 4 0.000000 0.000000 0.000000 0.049118 0.000000 0.005405
# 5 -0.007526 0.005925 -0.004481 0.000000 0.036336 0.000000
# 6 0.000000 0.000000 0.000000 0.005405 0.000000 0.023550
#
#
# Mechanical properties :
#
#
# Convention : Reuss Voigt Hill
#
# Bulk Modulus (GPa) = 45.82602 64.19919 55.01261
# Shear Modulus (GPa) = 28.78678 35.16869 31.97773
#
# Velocity S-wave (km/s) = 3.93034 4.34422 4.14245
# Velocity P-wave (km/s) = 6.72220 7.72098 7.23883
#
# Compressibility (1/GPa) = 0.02182166
#
# Stress axis : x y z
#
# Youngs Moduli (GPa) = 61.91970 117.93261 66.72119
#
# Poissons Ratio (x) = 0.65166 -0.05618
# Poissons Ratio (y) = 0.34215 0.28117
# Poissons Ratio (z) = -0.05214 0.49698
#
# Static dielectric constant tensor:
#      x y z
#    x 2.118290 0.000000 0.307230 
#    y 0.000000 1.695900 0.000000 
#    z 0.307230 0.000000 1.903470 
# 
# From -- ./inp_files/125697.got.cif
#   From: 2010.05.17/outbox.cif.g08.bks.cpg/sg12_63_cif.got.tgz:125697.got - 2010.06.03 13:09:07.
