data_PCOD9222340
_publ_section_title
;
Structure prediction by ZEFSAII (Michael W. Deem and Ramdas Pophale) SiO2 
 PCOD9222340
Probable space group: C 2/M
;
_chemical_formula_sum "Si O2"
_cell_formula_units_Z 32
_cell_length_a 12.724107
_cell_length_b 20.974719
_cell_length_c 14.336907
_cell_angle_alpha 90.000000
_cell_angle_beta 159.436803
_cell_angle_gamma 90.000000
_cell_volume 1343.950546
_symmetry_space_group_name_H-M "C 2/M"
_symmetry_group_IT_number 12
_symmetry_cell_setting 'monoclinic'
loop_
_space_group_symop_operation_xyz
x,y,z
-x,y,-z
-x,-y,-z
x,-y,z
1/2+x,1/2+y,z
1/2-x,1/2+y,-z
1/2-x,1/2-y,-z
1/2+x,1/2-y,z
loop_
_atom_site_type_symbol
_atom_site_label
_atom_site_fract_x
_atom_site_fract_y
_atom_site_fract_z
Si Si1 0.845727 0.500000 0.771667
Si Si2 0.185693 0.373979 0.793127
Si Si3 0.708870 0.000000 0.517109
Si Si4 0.757248 0.105209 0.056951
Si Si5 0.000000 0.274410 0.500000
Si Si6 0.500000 0.189265 0.000000
O O1 0.500000 0.500000 0.500000
O O2 0.530926 0.555948 0.283700
O O3 0.000000 0.500000 0.000000
O O4 0.983100 0.321175 0.574764
O O5 0.037532 0.443413 0.664852
O O6 0.247598 0.357722 0.952154
O O7 0.500000 0.375220 0.000000
O O8 0.540206 0.939496 0.189993
O O9 0.718764 0.146793 0.117448
O O10 0.709946 0.231332 0.240853
#
# Coordination Sequence:
#
# PCOD9222340 Si02
#       6
#     4   8   4   8   4   4
#     4  11  25  45  75 121 161 199 261 324 414 476
#     4  12  27  53  78 121 161 212 274 331 403 470
#     4  11  26  47  85 120 160 202 265 340 409 467
#     4  11  28  46  82 120 159 210 258 343 401 477
#     4  12  30  55  80 113 162 224 268 328 382 482
#     4  12  30  53  82 119 162 212 272 320 404 482
#
# _framework density 23.810397999999999
#
# number of rings (size 3 to 8) (size 9 to 14) (size 15 to 20)
#    0.000    0.500    2.500    3.375   12.250    5.500 
#    0.000    0.000    0.000    0.000    0.000    0.000 
#    0.000    0.000    0.000    0.000    0.000    0.000 
#
# Total GULP energy -89169.923772 kJ/mol
# GULP energy per Si atom -5573.120236 kJ/mol
# Density = 2.375620 g / cm^3
# Si number density = 23.810398 Si / 1000 Ang^3
#
#
#
# Elastic Constant Matrix: (Units=GPa)
#
#
# Indices 1 2 3 4 5 6 
#
# 1 150.7060 40.9559 58.2389 0.0261 -11.5934 -0.0237
# 2 40.9559 124.3976 46.0010 0.0024 -3.7790 -0.0006
# 3 58.2389 46.0010 140.8403 0.0361 13.4150 -0.0324
# 4 0.0261 0.0024 0.0361 -51.9270 0.0198 216.9828
# 5 -11.5934 -3.7790 13.4150 0.0198 51.5596 -0.0168
# 6 -0.0237 -0.0006 -0.0324 216.9828 -0.0168 -278.4445
#
#
#
# Elastic Compliance Matrix: (Units=1/GPa)
#
#
# Indices 1 2 3 4 5 6 
#
# 1 0.008519 -0.001510 -0.003283 0.000000 0.002659 -0.000001
# 2 -0.001510 0.009523 -0.002584 0.000000 0.001031 0.000000
# 3 -0.003283 -0.002584 0.009629 0.000000 -0.003433 -0.000001
# 4 0.000000 0.000000 0.000000 0.008535 -0.000001 0.006651
# 5 0.002659 0.001031 -0.003433 -0.000001 0.020962 -0.000002
# 6 -0.000001 0.000000 -0.000001 0.006651 -0.000002 0.001592
#
#
# Mechanical properties :
#
#
# Convention : Reuss Voigt Hill
#
# Bulk Modulus (GPa) = 77.41918 78.48172 77.95045
# Shear Modulus (GPa) = 64.25233 -37.71249 13.26992
#
# Velocity S-wave (km/s) = 5.20034 -3.98410 2.36332
# Velocity P-wave (km/s) = 8.28514 3.44508 6.34477
#
# Compressibility (1/GPa) = 0.01291670
#
# Stress axis : x y z
#
# Youngs Moduli (GPa) = 117.38571 105.01147 103.85671
#
# Poissons Ratio (x) = 0.15857 0.34093
# Poissons Ratio (y) = 0.17726 0.26837
# Poissons Ratio (z) = 0.38534 0.27136
#
# Static dielectric constant tensor:
#      x y z
#    x 1.976170 0.000000 -0.099840 
#    y 0.000000 1.892550 0.000000 
#    z -0.099840 0.000000 1.963910 
# 
# From -- ./inp_files/218365.got.cif
#   From: 2010.05.17/outbox.cif.g08.bks.cpg/sg12_110_cif.got.tgz:218365.got - 2010.06.03 13:09:07.
