data_PCOD9222506
_publ_section_title
;
Structure prediction by ZEFSAII (Michael W. Deem and Ramdas Pophale) SiO2 
 PCOD9222506
Probable space group: C 2/M
;
_chemical_formula_sum "Si O2"
_cell_formula_units_Z 44
_cell_length_a 18.058667
_cell_length_b 20.909439
_cell_length_c 17.075801
_cell_angle_alpha 90.000000
_cell_angle_beta 162.267269
_cell_angle_gamma 90.000000
_cell_volume 1963.842214
_symmetry_space_group_name_H-M "C 2/M"
_symmetry_group_IT_number 12
_symmetry_cell_setting 'monoclinic'
loop_
_space_group_symop_operation_xyz
x,y,z
-x,y,-z
-x,-y,-z
x,-y,z
1/2+x,1/2+y,z
1/2-x,1/2+y,-z
1/2-x,1/2-y,-z
1/2+x,1/2-y,z
loop_
_atom_site_type_symbol
_atom_site_label
_atom_site_fract_x
_atom_site_fract_y
_atom_site_fract_z
Si Si1 0.201789 0.240888 0.041123
Si Si2 0.012650 0.155796 0.599099
Si Si3 0.385572 0.575798 0.624907
Si Si4 0.702486 0.283441 0.267454
Si Si5 0.607341 0.895530 0.772607
Si Si6 0.500000 0.102577 0.500000
O O1 0.239362 0.310052 0.119893
O O2 0.372980 0.179848 0.232377
O O3 0.250000 0.250000 0.000000
O O4 0.935907 0.213881 0.790130
O O5 0.000000 0.123884 0.500000
O O6 0.908822 0.114516 0.566281
O O7 0.868939 0.221824 0.440922
O O8 0.373693 0.500000 0.597328
O O9 0.135927 0.592923 0.420924
O O10 0.640954 0.588018 0.929186
O O11 0.791729 0.350330 0.323267
O O12 0.500000 0.264827 0.000000
O O13 0.589134 0.929921 0.669599
#
# Coordination Sequence:
#
# PCOD9222506 Si02
#       6
#     8   8   8   8   8   4
#     4  12  23  37  66 108 140 180 218 284 376 434
#     4  12  24  41  69 106 144 184 232 295 356 436
#     4  12  30  51  70  96 140 197 254 298 338 405
#     4  12  20  38  61 106 159 169 216 278 361 455
#     4  12  25  47  74 105 143 182 233 300 359 432
#     4  12  24  38  73 114 145 184 216 288 382 444
#
# _framework density 22.405059000000001
#
# number of rings (size 3 to 8) (size 9 to 14) (size 15 to 20)
#    0.000    0.000    8.182    2.727    0.000    1.818 
#    0.000    2.727    0.000    2.727    0.000    0.000 
#    0.000    0.000    0.000    0.000    0.000    0.000 
#
# Total GULP energy -122634.154773 kJ/mol
# GULP energy per Si atom -5574.279762 kJ/mol
# Density = 2.235406 g / cm^3
# Si number density = 22.405059 Si / 1000 Ang^3
#
#
#
# Elastic Constant Matrix: (Units=GPa)
#
#
# Indices 1 2 3 4 5 6 
#
# 1 180.2400 25.9948 43.6877 -0.0026 12.6045 -0.0020
# 2 25.9948 88.0053 11.7810 -0.0025 9.8875 -0.0023
# 3 43.6877 11.7810 84.4677 -0.0070 15.5382 -0.0059
# 4 -0.0026 -0.0025 -0.0070 -13.9571 -0.0001 -14.5806
# 5 12.6045 9.8875 15.5382 -0.0001 48.5203 -0.0003
# 6 -0.0020 -0.0023 -0.0059 -14.5806 -0.0003 -39.1017
#
#
#
# Elastic Compliance Matrix: (Units=1/GPa)
#
#
# Indices 1 2 3 4 5 6 
#
# 1 0.006541 -0.001471 -0.003103 0.000001 -0.000406 0.000000
# 2 -0.001471 0.012088 -0.000576 -0.000002 -0.001897 0.000000
# 3 -0.003103 -0.000576 0.014190 -0.000007 -0.003621 0.000001
# 4 0.000001 -0.000002 -0.000007 -0.117370 0.000003 0.043766
# 5 -0.000406 -0.001897 -0.003621 0.000003 0.022261 0.000000
# 6 0.000000 0.000000 0.000001 0.043766 0.000000 -0.041894
#
#
# Mechanical properties :
#
#
# Convention : Reuss Voigt Hill
#
# Bulk Modulus (GPa) = 44.40904 57.29334 50.85119
# Shear Modulus (GPa) = -57.88589 17.17561 -20.35514
#
# Velocity S-wave (km/s) = -5.08843 2.77175 -3.01741
# Velocity P-wave (km/s) = 3.82869 5.98921 3.25666
#
# Compressibility (1/GPa) = 0.02251794
#
# Stress axis : x y z
#
# Youngs Moduli (GPa) = 152.88508 82.72886 70.47074
#
# Poissons Ratio (x) = 0.12170 0.21869
# Poissons Ratio (y) = 0.22490 0.04060
# Poissons Ratio (z) = 0.47444 0.04767
#
# Static dielectric constant tensor:
#      x y z
#    x 2.030830 0.000000 -0.022410 
#    y 0.000000 1.824310 0.000000 
#    z -0.022410 0.000000 2.239830 
# 
# From -- ./inp_files/279405.got.cif
#   From: 2010.05.17/outbox.cif.g08.bks.cpg/sg12_140_cif.got.tgz:279405.got - 2010.06.03 13:09:07.
