data_PCOD9222920
_publ_section_title
;
Structure prediction by ZEFSAII (Michael W. Deem and Ramdas Pophale) SiO2 
 PCOD9222920
Probable space group: C 2/M
;
_chemical_formula_sum "Si O2"
_cell_formula_units_Z 56
_cell_length_a 23.674055
_cell_length_b 7.501490
_cell_length_c 22.356162
_cell_angle_alpha 90.000000
_cell_angle_beta 130.444330
_cell_angle_gamma 90.000000
_cell_volume 3021.502747
_symmetry_space_group_name_H-M "C 2/M"
_symmetry_group_IT_number 12
_symmetry_cell_setting 'monoclinic'
loop_
_space_group_symop_operation_xyz
x,y,z
-x,y,-z
-x,-y,-z
x,-y,z
1/2+x,1/2+y,z
1/2-x,1/2+y,-z
1/2-x,1/2-y,-z
1/2+x,1/2-y,z
loop_
_atom_site_type_symbol
_atom_site_label
_atom_site_fract_x
_atom_site_fract_y
_atom_site_fract_z
Si Si1 0.010138 0.218631 0.768020
Si Si2 0.635593 0.715200 0.936474
Si Si3 0.257407 0.209458 0.103180
Si Si4 0.583574 0.718140 0.575327
Si Si5 0.888566 0.793195 0.272629
Si Si6 0.815097 0.211592 0.462965
Si Si7 0.849619 0.214806 0.619866
O O1 0.054926 0.275120 0.858308
O O2 0.057384 0.279877 0.742245
O O3 0.925499 0.276494 0.702560
O O4 0.011565 0.000000 0.769086
O O5 0.634280 0.500000 0.939782
O O6 0.688815 0.762110 0.917116
O O7 0.677900 0.780470 0.025099
O O8 0.304415 0.285463 0.190319
O O9 0.250055 0.000000 0.109480
O O10 0.500000 0.765841 0.500000
O O11 0.587529 0.500000 0.578818
O O12 0.602053 0.782622 0.654824
O O13 0.640182 0.781539 0.563137
O O14 0.910196 0.000000 0.291988
O O15 0.842235 0.281883 0.546249
O O16 0.726839 0.238810 0.399847
O O17 0.828820 0.000000 0.474149
O O18 0.853073 0.000000 0.619682
#
# Coordination Sequence:
#
# PCOD9222920 Si02
#       7
#     8   8   8   8   8   8   8
#     4   8  13  23  40  60  79 102 134 165 193 231
#     4   8  14  24  38  56  79 107 137 168 199 234
#     4   9  15  23  36  56  83 110 133 161 201 246
#     4   9  16  27  45  65  81 103 139 175 200 230
#     4   9  16  26  41  60  82 108 137 168 201 238
#     4   9  17  28  42  61  82 103 131 166 200 234
#     4   9  16  27  43  60  80 106 132 161 199 240
#
# _framework density 18.533823000000002
#
# number of rings (size 3 to 8) (size 9 to 14) (size 15 to 20)
#    0.000    3.286    0.000    2.143    0.000    4.000 
#    0.000    3.571    0.000    5.143    0.000    1.000 
#    0.000    8.000    0.000    0.000    0.000    0.000 
#
# Total GULP energy -155878.564878 kJ/mol
# GULP energy per Si atom -5567.091603 kJ/mol
# Density = 1.849164 g / cm^3
# Si number density = 18.533823 Si / 1000 Ang^3
#
#
#
# Elastic Constant Matrix: (Units=GPa)
#
#
# Indices 1 2 3 4 5 6 
#
# 1 80.3451 -4.1599 63.9608 0.0000 10.5670 0.0000
# 2 -4.1599 45.5195 -10.2435 0.0000 -4.1011 -0.0001
# 3 63.9608 -10.2435 162.9772 0.0000 21.6265 0.0000
# 4 0.0000 0.0000 0.0000 0.9501 0.0000 12.7207
# 5 10.5670 -4.1011 21.6265 0.0000 25.4617 0.0000
# 6 0.0000 -0.0001 0.0000 12.7207 0.0000 5.6315
#
#
#
# Elastic Compliance Matrix: (Units=1/GPa)
#
#
# Indices 1 2 3 4 5 6 
#
# 1 0.018165 -0.000046 -0.006909 0.000000 -0.001678 0.000000
# 2 -0.000046 0.022450 0.001067 0.000000 0.002729 0.000000
# 3 -0.006909 0.001067 0.009592 0.000000 -0.005108 0.000000
# 4 0.000000 0.000000 0.000000 -0.035992 0.000000 0.081300
# 5 -0.001678 0.002729 -0.005108 0.000000 0.044749 0.000000
# 6 0.000000 0.000000 0.000000 0.081300 0.000000 -0.006072
#
#
# Mechanical properties :
#
#
# Convention : Reuss Voigt Hill
#
# Bulk Modulus (GPa) = 26.02045 43.10629 34.56337
# Shear Modulus (GPa) = 64.53369 22.36095 43.44732
#
# Velocity S-wave (km/s) = 5.90720 3.47723 4.84697
# Velocity P-wave (km/s) = 7.78438 6.27935 7.07201
#
# Compressibility (1/GPa) = 0.03843131
#
# Stress axis : x y z
#
# Youngs Moduli (GPa) = 55.05182 44.54269 104.25147
#
# Poissons Ratio (x) = 0.00204 0.72028
# Poissons Ratio (y) = 0.00253 -0.11123
# Poissons Ratio (z) = 0.38036 -0.04753
#
# Static dielectric constant tensor:
#      x y z
#    x 1.606410 0.000000 0.017120 
#    y 0.000000 1.471670 0.000000 
#    z 0.017120 0.000000 1.688390 
# 
# From -- ./inp_files/323798.got.cif
#   From: 2010.05.17/outbox.cif.g08.bks.cpg/sg12_162_cif.got.tgz:323798.got - 2010.06.03 13:09:07.
