data_PCOD9222817
_publ_section_title
;
Structure prediction by ZEFSAII (Michael W. Deem and Ramdas Pophale) SiO2 
 PCOD9222817
Probable space group: C 2/M
;
_chemical_formula_sum "Si O2"
_cell_formula_units_Z 64
_cell_length_a 9.660115
_cell_length_b 15.784379
_cell_length_c 22.378275
_cell_angle_alpha 90.000000
_cell_angle_beta 123.795066
_cell_angle_gamma 90.000000
_cell_volume 2835.661224
_symmetry_space_group_name_H-M "C 2/M"
_symmetry_group_IT_number 12
_symmetry_cell_setting 'monoclinic'
loop_
_space_group_symop_operation_xyz
x,y,z
-x,y,-z
-x,-y,-z
x,-y,z
1/2+x,1/2+y,z
1/2-x,1/2+y,-z
1/2-x,1/2-y,-z
1/2+x,1/2-y,z
loop_
_atom_site_type_symbol
_atom_site_label
_atom_site_fract_x
_atom_site_fract_y
_atom_site_fract_z
Si Si1 0.174017 0.596556 0.592462
Si Si2 0.061180 0.904198 0.081626
Si Si3 0.653502 0.399034 0.618819
Si Si4 0.429637 0.166316 0.309711
Si Si5 0.459974 0.905909 0.192540
Si Si6 0.970148 0.153482 0.292197
Si Si7 0.274208 0.396807 0.491700
Si Si8 0.541981 0.287572 0.185947
O O1 0.116723 0.500000 0.577918
O O2 0.081552 0.640082 0.624716
O O3 0.369491 0.595477 0.658699
O O4 0.171379 0.632913 0.524766
O O5 0.261999 0.905749 0.131912
O O6 0.002687 0.833495 0.114417
O O7 0.005878 0.000000 0.085552
O O8 0.000000 0.887518 0.000000
O O9 0.663221 0.500000 0.622220
O O10 0.667328 0.370161 0.690996
O O11 0.464075 0.375048 0.555118
O O12 0.753858 0.370658 0.583711
O O13 0.480019 0.101136 0.269756
O O14 0.527889 0.252495 0.323197
O O15 0.235700 0.191072 0.246889
O O16 0.516964 0.814001 0.180826
O O17 0.524296 0.000000 0.189023
O O18 0.936107 0.166526 0.213843
O O19 0.266488 0.500000 0.490526
#
# Coordination Sequence:
#
# PCOD9222817 Si02
#       8
#     8   8   8   8   8   8   8   8
#     4   9  15  25  42  60  78 107 144 177 213 258
#     4   9  18  32  51  74  95 115 143 177 211 251
#     4   8  12  20  34  53  78 107 136 168 212 261
#     4   9  17  28  41  62  89 111 140 182 219 251
#     4   9  17  31  49  66  88 120 151 176 211 256
#     4   9  16  25  39  60  85 108 135 174 217 250
#     4   7  11  19  33  53  75 101 136 173 208 255
#     4   9  18  30  46  66  90 118 147 179 213 252
#
# _framework density 22.569693000000001
#
# number of rings (size 3 to 8) (size 9 to 14) (size 15 to 20)
#    0.000    3.375    0.000    2.250    0.000    4.000 
#    0.000    1.875    0.000    4.875    0.000    0.000 
#    0.000    0.000    0.000   86.750    0.000    9.875 
#
# Total GULP energy -178520.261820 kJ/mol
# GULP energy per Si atom -5578.758182 kJ/mol
# Density = 2.251832 g / cm^3
# Si number density = 22.569693 Si / 1000 Ang^3
#
#
#
# Elastic Constant Matrix: (Units=GPa)
#
#
# Indices 1 2 3 4 5 6 
#
# 1 89.6601 30.7560 31.8344 0.0000 -29.2287 0.0000
# 2 30.7560 113.2669 71.9600 0.0000 -27.1419 0.0000
# 3 31.8344 71.9600 148.6787 0.0000 -23.3028 0.0000
# 4 0.0000 0.0000 0.0000 62.9531 0.0000 60.8793
# 5 -29.2287 -27.1419 -23.3028 0.0000 30.9572 0.0000
# 6 0.0000 0.0000 0.0000 60.8793 0.0000 174.8240
#
#
#
# Elastic Compliance Matrix: (Units=1/GPa)
#
#
# Indices 1 2 3 4 5 6 
#
# 1 0.016312 -0.000298 -0.001106 0.000000 0.014308 0.000000
# 2 -0.000298 0.014452 -0.005656 0.000000 0.008131 0.000000
# 3 -0.001106 -0.005656 0.009931 0.000000 0.001472 0.000000
# 4 0.000000 0.000000 0.000000 0.023950 0.000000 -0.008340
# 5 0.014308 0.008131 0.001472 0.000000 0.054049 0.000000
# 6 0.000000 0.000000 0.000000 -0.008340 0.000000 0.008624
#
#
# Mechanical properties :
#
#
# Convention : Reuss Voigt Hill
#
# Bulk Modulus (GPa) = 37.63037 68.96739 53.29888
# Shear Modulus (GPa) = 33.26731 68.21723 50.74227
#
# Velocity S-wave (km/s) = 3.84341 5.50370 4.74671
# Velocity P-wave (km/s) = 6.03365 8.42683 7.32859
#
# Compressibility (1/GPa) = 0.02657428
#
# Stress axis : x y z
#
# Youngs Moduli (GPa) = 61.30297 69.19616 100.69426
#
# Poissons Ratio (x) = 0.02064 0.11136
# Poissons Ratio (y) = 0.01829 0.56955
# Poissons Ratio (z) = 0.06779 0.39139
#
# Static dielectric constant tensor:
#      x y z
#    x 1.946560 0.000000 0.014170 
#    y 0.000000 1.817660 0.000000 
#    z 0.014170 0.000000 1.850180 
# 
# From -- ./inp_files/335915.got.cif
#   From: 2010.05.17/outbox.cif.g08.bks.cpg/sg12_168_cif.got.tgz:335915.got - 2010.06.03 13:09:07.
