data_PCOD9222923
_publ_section_title
;
Structure prediction by ZEFSAII (Michael W. Deem and Ramdas Pophale) SiO2 
 PCOD9222923
Probable space group: C 2/M
;
_chemical_formula_sum "Si O2"
_cell_formula_units_Z 56
_cell_length_a 24.073526
_cell_length_b 7.265361
_cell_length_c 19.425189
_cell_angle_alpha 90.000000
_cell_angle_beta 38.201412
_cell_angle_gamma 90.000000
_cell_volume 2101.121340
_symmetry_space_group_name_H-M "C 2/M"
_symmetry_group_IT_number 12
_symmetry_cell_setting 'monoclinic'
loop_
_space_group_symop_operation_xyz
x,y,z
-x,y,-z
-x,-y,-z
x,-y,z
1/2+x,1/2+y,z
1/2-x,1/2+y,-z
1/2-x,1/2-y,-z
1/2+x,1/2-y,z
loop_
_atom_site_type_symbol
_atom_site_label
_atom_site_fract_x
_atom_site_fract_y
_atom_site_fract_z
Si Si1 0.397439 0.779126 0.360949
Si Si2 0.492880 0.276193 0.927824
Si Si3 0.453541 0.285031 0.452380
Si Si4 0.695143 0.724783 0.303807
Si Si5 0.189154 0.290926 0.683348
Si Si6 0.145801 0.225367 0.209302
Si Si7 0.900974 0.790959 0.888198
O O1 0.387073 0.734747 0.451432
O O2 0.322120 0.706455 0.381582
O O3 0.496253 0.706467 0.242198
O O4 0.400328 0.000000 0.352204
O O5 0.491381 0.500000 0.927475
O O6 0.584990 0.206931 0.806024
O O7 0.414283 0.211799 0.951939
O O8 0.500000 0.219454 0.000000
O O9 0.469820 0.500000 0.448435
O O10 0.401465 0.218369 0.570279
O O11 0.547984 0.212390 0.332965
O O12 0.697399 0.500000 0.300848
O O13 0.763111 0.791057 0.296143
O O14 0.708828 0.781426 0.211551
O O15 0.222303 0.500000 0.644338
O O16 0.154002 0.291128 0.122683
O O17 0.146594 0.000000 0.204697
O O18 0.869979 0.000000 0.927255
#
# Coordination Sequence:
#
# PCOD9222923 Si02
#       7
#     8   8   8   8   8   8   8
#     4   9  16  26  39  57  84 113 139 171 210 248
#     4   9  17  30  49  70  88 105 129 167 212 255
#     4   9  16  26  42  62  81 108 149 186 210 235
#     4   9  16  26  41  61  85 112 143 180 212 237
#     4   9  18  30  43  62  87 113 139 167 207 256
#     4   8  13  23  42  64  82 105 143 184 209 229
#     4   8  14  26  45  66  82 102 137 173 206 245
#
# _framework density 26.652435000000001
#
# number of rings (size 3 to 8) (size 9 to 14) (size 15 to 20)
#    0.000    3.286    0.000    1.714    0.000    3.143 
#    0.000    0.714    0.000   11.143    0.000    0.000 
#    0.000    0.000    0.000    0.000    0.000    0.000 
#
# Total GULP energy -156229.774022 kJ/mol
# GULP energy per Si atom -5579.634787 kJ/mol
# Density = 2.659177 g / cm^3
# Si number density = 26.652435 Si / 1000 Ang^3
#
#
#
# Elastic Constant Matrix: (Units=GPa)
#
#
# Indices 1 2 3 4 5 6 
#
# 1 216.9180 -0.4538 55.7388 0.0127 61.7726 0.0183
# 2 -0.4538 135.3774 -0.7099 0.0043 2.3305 0.0223
# 3 55.7388 -0.7099 77.5220 0.0071 24.4759 0.0201
# 4 0.0127 0.0043 0.0071 -11.7362 -0.0071 -11.2621
# 5 61.7726 2.3305 24.4759 -0.0071 54.2578 -0.0187
# 6 0.0183 0.0223 0.0201 -11.2621 -0.0187 -4.5935
#
#
#
# Elastic Compliance Matrix: (Units=1/GPa)
#
#
# Indices 1 2 3 4 5 6 
#
# 1 0.007415 0.000130 -0.003105 0.000024 -0.007047 -0.000015
# 2 0.000130 0.007397 0.000142 0.000025 -0.000529 -0.000023
# 3 -0.003105 0.000142 0.016348 0.000047 -0.003845 -0.000040
# 4 0.000024 0.000025 0.000047 0.062991 -0.000095 -0.154436
# 5 -0.007047 -0.000529 -0.003845 -0.000095 0.028210 0.000071
# 6 -0.000015 -0.000023 -0.000040 -0.154436 0.000071 0.160937
#
#
# Mechanical properties :
#
#
# Convention : Reuss Voigt Hill
#
# Bulk Modulus (GPa) = 39.22843 59.88527 49.55685
# Shear Modulus (GPa) = 16.80883 32.60180 24.70531
#
# Velocity S-wave (km/s) = 2.51403 3.50125 3.04788
# Velocity P-wave (km/s) = 4.81431 6.23400 5.56958
#
# Compressibility (1/GPa) = 0.02549172
#
# Stress axis : x y z
#
# Youngs Moduli (GPa) = 134.86235 135.18901 61.17089
#
# Poissons Ratio (x) = -0.01756 0.18996
# Poissons Ratio (y) = -0.01752 -0.00866
# Poissons Ratio (z) = 0.41880 -0.01913
#
# Static dielectric constant tensor:
#      x y z
#    x 2.245950 -0.000020 0.033210 
#    y -0.000020 1.995430 0.000010 
#    z 0.033210 0.000010 2.066100 
# 
# From -- ./inp_files/287381.got.cif
#   From: 2010.05.17/outbox.cif.g08.bks.cpg/sg12_144_cif.got.tgz:287381.got - 2010.06.03 13:09:07.
