data_PCOD9222774
_publ_section_title
;
Structure prediction by ZEFSAII (Michael W. Deem and Ramdas Pophale) SiO2 
 PCOD9222774
Probable space group: C 2/M
;
_chemical_formula_sum "Si O2"
_cell_formula_units_Z 34
_cell_length_a 20.682637
_cell_length_b 7.958830
_cell_length_c 19.164145
_cell_angle_alpha 90.000000
_cell_angle_beta 29.040388
_cell_angle_gamma 90.000000
_cell_volume 1531.325943
_symmetry_space_group_name_H-M "C 2/M"
_symmetry_group_IT_number 12
_symmetry_cell_setting 'monoclinic'
loop_
_space_group_symop_operation_xyz
x,y,z
-x,y,-z
-x,-y,-z
x,-y,z
1/2+x,1/2+y,z
1/2-x,1/2+y,-z
1/2-x,1/2-y,-z
1/2+x,1/2-y,z
loop_
_atom_site_type_symbol
_atom_site_label
_atom_site_fract_x
_atom_site_fract_y
_atom_site_fract_z
Si Si1 0.903070 0.693579 0.354985
Si Si2 0.000000 0.500000 0.500000
Si Si3 0.995118 0.816445 0.599737
Si Si4 0.453735 0.303850 0.154603
Si Si5 0.780740 0.198723 0.188917
O O1 0.912249 0.500000 0.365548
O O2 0.750000 0.750000 0.500000
O O3 0.955043 0.716276 0.227434
O O4 0.980367 0.794899 0.341345
O O5 0.049285 0.653284 0.508102
O O6 0.838810 0.804076 0.729179
O O7 0.048396 0.000000 0.528558
O O8 0.424887 0.500000 0.194534
O O9 0.341486 0.245366 0.205555
O O10 0.593888 0.296872 0.981703
O O11 0.731063 0.000000 0.239854
#
# Coordination Sequence:
#
# PCOD9222774 Si02
#       5
#     8   2   8   8   8
#     4  12  26  44  63  94 136 174 221 276 334 395
#     4  12  26  48  68  96 140 166 224 276 324 392
#     4  12  26  44  69  99 131 177 221 269 332 395
#     4   9  20  39  68  96 131 176 217 272 330 391
#     4   9  19  41  67  98 133 172 222 271 328 386
#
# _framework density 22.202981000000001
#
# number of rings (size 3 to 8) (size 9 to 14) (size 15 to 20)
#    0.000    1.412    2.353    3.882    3.294    2.824 
#    0.000    2.353    0.000    0.000    0.000    0.000 
#    0.000    0.000    0.000    0.000    0.000    0.000 
#
# Total GULP energy -94875.574355 kJ/mol
# GULP energy per Si atom -5580.916139 kJ/mol
# Density = 2.215245 g / cm^3
# Si number density = 22.202981 Si / 1000 Ang^3
#
#
#
# Elastic Constant Matrix: (Units=GPa)
#
#
# Indices 1 2 3 4 5 6 
#
# 1 171.7242 53.2320 42.4209 0.0001 17.8297 0.0000
# 2 53.2320 146.6102 38.1102 0.0000 4.3621 0.0000
# 3 42.4209 38.1102 46.5344 0.0002 6.3240 -0.0001
# 4 0.0001 0.0000 0.0002 31.1716 -0.0001 6.0036
# 5 17.8297 4.3621 6.3240 -0.0001 43.1517 0.0000
# 6 0.0000 0.0000 -0.0001 6.0036 0.0000 33.7022
#
#
#
# Elastic Compliance Matrix: (Units=1/GPa)
#
#
# Indices 1 2 3 4 5 6 
#
# 1 0.007901 -0.001282 -0.005843 0.000000 -0.002279 0.000000
# 2 -0.001282 0.008875 -0.006172 0.000000 0.000537 0.000000
# 3 -0.005843 -0.006172 0.032097 0.000000 -0.001666 0.000000
# 4 0.000000 0.000000 0.000000 0.033220 0.000000 -0.005918
# 5 -0.002279 0.000537 -0.001666 0.000000 0.024305 0.000000
# 6 0.000000 0.000000 0.000000 -0.005918 0.000000 0.030726
#
#
# Mechanical properties :
#
#
# Convention : Reuss Voigt Hill
#
# Bulk Modulus (GPa) = 44.88687 70.26611 57.57649
# Shear Modulus (GPa) = 29.21518 37.01216 33.11367
#
# Velocity S-wave (km/s) = 3.63136 4.08731 3.86606
# Velocity P-wave (km/s) = 6.15166 7.34783 6.77619
#
# Compressibility (1/GPa) = 0.02227823
#
# Stress axis : x y z
#
# Youngs Moduli (GPa) = 126.57318 112.67846 31.15556
#
# Poissons Ratio (x) = 0.14446 0.18203
# Poissons Ratio (y) = 0.16227 0.19231
# Poissons Ratio (z) = 0.73951 0.69550
#
# Static dielectric constant tensor:
#      x y z
#    x 1.755580 0.000000 0.034600 
#    y 0.000000 1.826190 0.000000 
#    z 0.034600 0.000000 1.727570 
# 
# From -- ./inp_files/180374.got.cif
#   From: 2010.05.17/outbox.cif.g08.bks.cpg/sg12_91_cif.got.tgz:180374.got - 2010.06.03 13:09:07.
