data_PCOD9222500
_publ_section_title
;
Structure prediction by ZEFSAII (Michael W. Deem and Ramdas Pophale) SiO2 
 PCOD9222500
Probable space group: C 2/M
;
_chemical_formula_sum "Si O2"
_cell_formula_units_Z 44
_cell_length_a 8.946442
_cell_length_b 29.123438
_cell_length_c 8.456539
_cell_angle_alpha 90.000000
_cell_angle_beta 92.646920
_cell_angle_gamma 90.000000
_cell_volume 2201.010157
_symmetry_space_group_name_H-M "C 2/M"
_symmetry_group_IT_number 12
_symmetry_cell_setting 'monoclinic'
loop_
_space_group_symop_operation_xyz
x,y,z
-x,y,-z
-x,-y,-z
x,-y,z
1/2+x,1/2+y,z
1/2-x,1/2+y,-z
1/2-x,1/2-y,-z
1/2+x,1/2-y,z
loop_
_atom_site_type_symbol
_atom_site_label
_atom_site_fract_x
_atom_site_fract_y
_atom_site_fract_z
Si Si1 0.424312 0.298374 0.659027
Si Si2 0.500000 0.168467 0.000000
Si Si3 0.259978 0.500000 0.065159
Si Si4 0.239541 0.900865 0.926193
Si Si5 0.570594 0.600370 0.258146
Si Si6 0.338575 0.755951 0.167598
Si Si7 0.582927 0.500000 0.258640
O O1 0.500000 0.283696 0.500000
O O2 0.387367 0.352529 0.653382
O O3 0.555157 0.287060 0.792257
O O4 0.280511 0.269325 0.704530
O O5 0.363521 0.137800 0.933474
O O6 0.554916 0.200778 0.860693
O O7 0.187697 0.451142 0.096861
O O8 0.419153 0.500000 0.166710
O O9 0.301832 0.500000 0.882022
O O10 0.104747 0.895912 0.795454
O O11 0.159636 0.900213 0.095109
O O12 0.598053 0.550250 0.338382
O O13 0.250000 0.750000 0.000000
#
# Coordination Sequence:
#
# PCOD9222500 Si02
#       7
#     8   4   4   8   8   8   4
#     4  12  25  40  58  85 117 148 187 239 291 331
#     4  12  20  31  54  82 106 139 196 228 274 326
#     4   7  12  25  42  76 113 136 171 232 291 309
#     4   9  17  28  52  80 108 143 185 233 274 336
#     4   9  17  32  55  76 108 145 185 227 280 331
#     4  12  24  41  60  81 110 152 196 234 275 342
#     4   7  12  26  49  78 101 138 184 225 267 336
#
# _framework density 19.990819999999999
#
# number of rings (size 3 to 8) (size 9 to 14) (size 15 to 20)
#    0.000    2.000    3.636    3.818    2.545    0.364 
#    0.000    0.455    0.000    0.000    0.000    0.000 
#    0.000    4.364    0.000    0.000    0.000    0.000 
#
# Total GULP energy -122665.014289 kJ/mol
# GULP energy per Si atom -5575.682468 kJ/mol
# Density = 1.994532 g / cm^3
# Si number density = 19.990820 Si / 1000 Ang^3
#
#
#
# Elastic Constant Matrix: (Units=GPa)
#
#
# Indices 1 2 3 4 5 6 
#
# 1 59.2315 33.8878 3.9140 0.0000 -12.5782 0.0000
# 2 33.8878 129.1495 -3.7961 0.0000 -11.4471 0.0000
# 3 3.9140 -3.7961 32.0626 0.0000 -18.6713 0.0000
# 4 0.0000 0.0000 0.0000 1.4519 0.0000 -0.8115
# 5 -12.5782 -11.4471 -18.6713 0.0000 25.6342 0.0000
# 6 0.0000 0.0000 0.0000 -0.8115 0.0000 30.2888
#
#
#
# Elastic Compliance Matrix: (Units=1/GPa)
#
#
# Indices 1 2 3 4 5 6 
#
# 1 0.021617 -0.004623 0.003106 0.000000 0.010805 0.000000
# 2 -0.004623 0.009605 0.004998 0.000000 0.005661 0.000000
# 3 0.003106 0.004998 0.058330 0.000000 0.046242 0.000000
# 4 0.000000 0.000000 0.000000 0.699237 0.000000 0.018734
# 5 0.010805 0.005661 0.046242 0.000000 0.080522 0.000000
# 6 0.000000 0.000000 0.000000 0.018734 0.000000 0.033517
#
#
# Mechanical properties :
#
#
# Convention : Reuss Voigt Hill
#
# Bulk Modulus (GPa) = 10.36119 32.05054 21.20586
# Shear Modulus (GPa) = 5.38771 23.90416 14.64593
#
# Velocity S-wave (km/s) = 1.64345 3.46172 2.70966
# Velocity P-wave (km/s) = 2.96572 5.66087 4.51890
#
# Compressibility (1/GPa) = 0.09651405
#
# Stress axis : x y z
#
# Youngs Moduli (GPa) = 46.25946 104.11524 17.14370
#
# Poissons Ratio (x) = 0.48135 -0.05325
# Poissons Ratio (y) = 0.21387 -0.08569
# Poissons Ratio (z) = -0.14367 -0.52039
#
# Static dielectric constant tensor:
#      x y z
#    x 1.691410 0.000000 0.000290 
#    y 0.000000 1.776790 0.000000 
#    z 0.000290 0.000000 1.710290 
# 
# From -- ./inp_files/41646.got.cif
#   From: 2010.05.17/outbox.cif.g08.bks.cpg/sg12_21_cif.got.tgz:41646.got - 2010.06.03 13:09:07.
