data_PCOD9222935
_publ_section_title
;
Structure prediction by ZEFSAII (Michael W. Deem and Ramdas Pophale) SiO2 
 PCOD9222935
Probable space group: C 2/M
;
_chemical_formula_sum "Si O2"
_cell_formula_units_Z 48
_cell_length_a 28.362999
_cell_length_b 7.296306
_cell_length_c 12.896438
_cell_angle_alpha 90.000000
_cell_angle_beta 130.641546
_cell_angle_gamma 90.000000
_cell_volume 2025.125027
_symmetry_space_group_name_H-M "C 2/M"
_symmetry_group_IT_number 12
_symmetry_cell_setting 'monoclinic'
loop_
_space_group_symop_operation_xyz
x,y,z
-x,y,-z
-x,-y,-z
x,-y,z
1/2+x,1/2+y,z
1/2-x,1/2+y,-z
1/2-x,1/2-y,-z
1/2+x,1/2-y,z
loop_
_atom_site_type_symbol
_atom_site_label
_atom_site_fract_x
_atom_site_fract_y
_atom_site_fract_z
Si Si1 0.401095 0.722437 0.337657
Si Si2 0.177458 0.217757 0.422386
Si Si3 0.293267 0.280925 0.312110
Si Si4 0.348871 0.718215 0.838818
Si Si5 0.992664 0.776992 0.655153
Si Si6 0.479801 0.276874 0.085027
O O1 0.400768 0.500000 0.331453
O O2 0.331635 0.783309 0.266981
O O3 0.439985 0.780760 0.293167
O O4 0.442816 0.775537 0.497195
O O5 0.250000 0.250000 0.500000
O O6 0.173974 0.288871 0.534682
O O7 0.145552 0.289541 0.271976
O O8 0.163774 0.000000 0.407957
O O9 0.299905 0.500000 0.325152
O O10 0.219716 0.248851 0.214190
O O11 0.354557 0.500000 0.837554
O O12 0.407370 0.777213 0.989987
O O13 0.983766 0.715802 0.760409
O O14 0.990935 0.000000 0.653938
O O15 0.484599 0.500000 0.091467
O O16 0.500000 0.216241 0.000000
#
# Coordination Sequence:
#
# PCOD9222935 Si02
#       6
#     8   8   8   8   8   8
#     4   8  14  24  41  62  84 108 138 180 219 247
#     4   8  14  23  36  55  81 108 134 167 203 242
#     4   9  16  26  43  64  84 111 145 177 210 251
#     4   9  17  28  40  61  90 114 138 173 216 258
#     4   8  14  25  39  60  86 109 139 180 217 248
#     4   9  17  26  40  60  84 114 143 172 212 260
#
# _framework density 23.70224
#
# number of rings (size 3 to 8) (size 9 to 14) (size 15 to 20)
#    0.000    3.500    0.000    1.000    2.333    0.000 
#    0.000    0.833    0.000    0.500    0.000    3.500 
#    0.000    0.000    0.000    0.000    0.000    0.000 
#
# Total GULP energy -133775.698342 kJ/mol
# GULP energy per Si atom -5573.987431 kJ/mol
# Density = 2.364829 g / cm^3
# Si number density = 23.702240 Si / 1000 Ang^3
#
#
#
# Elastic Constant Matrix: (Units=GPa)
#
#
# Indices 1 2 3 4 5 6 
#
# 1 126.5511 -7.6936 15.7707 0.0000 -6.9069 0.0000
# 2 -7.6936 96.8595 -4.2450 0.0000 -2.9581 0.0000
# 3 15.7707 -4.2450 61.2560 0.0000 -10.5321 0.0000
# 4 0.0000 0.0000 0.0000 2.2447 0.0000 3.5610
# 5 -6.9069 -2.9581 -10.5321 0.0000 29.2821 0.0000
# 6 0.0000 0.0000 0.0000 3.5610 0.0000 1.7912
#
#
#
# Elastic Compliance Matrix: (Units=1/GPa)
#
#
# Indices 1 2 3 4 5 6 
#
# 1 0.008243 0.000615 -0.001849 0.000000 0.001341 0.000000
# 2 0.000615 0.010455 0.000824 0.000000 0.001497 0.000000
# 3 -0.001849 0.000824 0.017905 0.000000 0.006087 0.000000
# 4 0.000000 0.000000 0.000000 -0.206841 0.000000 0.411202
# 5 0.001341 0.001497 0.006087 0.000000 0.036808 0.000000
# 6 0.000000 0.000000 0.000000 0.411202 0.000000 -0.259202
#
#
# Mechanical properties :
#
#
# Convention : Reuss Voigt Hill
#
# Bulk Modulus (GPa) = 27.94755 32.48120 30.21437
# Shear Modulus (GPa) = -13.16187 25.38590 6.11202
#
# Velocity S-wave (km/s) = -2.35904 3.27622 1.60756
# Velocity P-wave (km/s) = 2.09681 5.29576 4.02751
#
# Compressibility (1/GPa) = 0.03578131
#
# Stress axis : x y z
#
# Youngs Moduli (GPa) = 121.31591 95.64906 55.85156
#
# Poissons Ratio (x) = -0.05879 0.10327
# Poissons Ratio (y) = -0.07457 -0.04601
# Poissons Ratio (z) = 0.22431 -0.07879
#
# Static dielectric constant tensor:
#      x y z
#    x 1.931450 0.000000 0.012230 
#    y 0.000000 1.908880 0.000000 
#    z 0.012230 0.000000 1.883640 
# 
# From -- ./inp_files/164236.got.cif
#   From: 2010.05.17/outbox.cif.g08.bks.cpg/sg12_83_cif.got.tgz:164236.got - 2010.06.03 13:09:07.
