data_PCOD9222388
_publ_section_title
;
Structure prediction by ZEFSAII (Michael W. Deem and Ramdas Pophale) SiO2 
 PCOD9222388
Probable space group: C 2/M
;
_chemical_formula_sum "Si O2"
_cell_formula_units_Z 28
_cell_length_a 14.349916
_cell_length_b 10.721697
_cell_length_c 7.325972
_cell_angle_alpha 90.000000
_cell_angle_beta 64.466351
_cell_angle_gamma 90.000000
_cell_volume 1017.055481
_symmetry_space_group_name_H-M "C 2/M"
_symmetry_group_IT_number 12
_symmetry_cell_setting 'monoclinic'
loop_
_space_group_symop_operation_xyz
x,y,z
-x,y,-z
-x,-y,-z
x,-y,z
1/2+x,1/2+y,z
1/2-x,1/2+y,-z
1/2-x,1/2-y,-z
1/2+x,1/2-y,z
loop_
_atom_site_type_symbol
_atom_site_label
_atom_site_fract_x
_atom_site_fract_y
_atom_site_fract_z
Si Si1 0.134746 0.000000 0.010585
Si Si2 0.673678 0.000000 0.871926
Si Si3 0.139865 0.262754 0.492843
Si Si4 0.426805 0.219932 0.839822
Si Si5 0.335482 0.500000 0.446938
O O1 0.227805 0.000000 0.075906
O O2 0.080185 0.864469 0.089756
O O3 0.834882 0.000000 0.229286
O O4 0.719719 0.000000 0.629234
O O5 0.613172 0.875067 0.974805
O O6 0.250000 0.250000 0.500000
O O7 0.145884 0.300950 0.277473
O O8 0.040447 0.319932 0.674518
O O9 0.108392 0.118180 0.518948
#
# Coordination Sequence:
#
# PCOD9222388 Si02
#       5
#     4   4   8   8   4
#     4  12  25  49  81 111 158 211 260 320 383 469
#     4  12  26  48  78 116 157 203 254 335 384 457
#     4  11  25  48  77 114 154 204 263 317 386 477
#     4  11  26  49  80 113 160 204 255 324 397 449
#     4  12  27  44  80 109 154 211 265 309 385 464
#
# _framework density 27.530455
#
# number of rings (size 3 to 8) (size 9 to 14) (size 15 to 20)
#    0.000    0.571    2.857    3.429    4.000    8.000 
#    0.000    1.429    0.000    0.000    0.000    0.000 
#    0.000    0.000    0.000    0.000    0.000    0.000 
#
# Total GULP energy -78464.878764 kJ/mol
# GULP energy per Si atom -5604.634197 kJ/mol
# Density = 2.746779 g / cm^3
# Si number density = 27.530455 Si / 1000 Ang^3
#
#
#
# Elastic Constant Matrix: (Units=GPa)
#
#
# Indices 1 2 3 4 5 6 
#
# 1 173.6167 6.2087 56.9559 0.0000 18.6087 0.0000
# 2 6.2087 118.6359 52.9404 0.0000 -15.6394 0.0000
# 3 56.9559 52.9404 234.1941 0.0000 9.5232 0.0000
# 4 0.0000 0.0000 0.0000 74.3522 0.0000 -100.2843
# 5 18.6087 -15.6394 9.5232 0.0000 54.5141 0.0000
# 6 0.0000 0.0000 0.0000 -100.2843 0.0000 479.8279
#
#
#
# Elastic Compliance Matrix: (Units=1/GPa)
#
#
# Indices 1 2 3 4 5 6 
#
# 1 0.006458 0.000084 -0.001512 0.000000 -0.001916 0.000000
# 2 0.000084 0.009920 -0.002394 0.000000 0.003235 0.000000
# 3 -0.001512 -0.002394 0.005223 0.000000 -0.001083 0.000000
# 4 0.000000 0.000000 0.000000 0.018729 0.000000 0.003914
# 5 -0.001916 0.003235 -0.001083 0.000000 0.020115 0.000000
# 6 0.000000 0.000000 0.000000 0.003914 0.000000 0.002902
#
#
# Mechanical properties :
#
#
# Convention : Reuss Voigt Hill
#
# Bulk Modulus (GPa) = 71.65061 84.29519 77.97290
# Shear Modulus (GPa) = 66.09911 149.09496 107.59703
#
# Velocity S-wave (km/s) = 4.90526 7.36708 6.25841
# Velocity P-wave (km/s) = 7.62657 10.15138 8.97817
#
# Compressibility (1/GPa) = 0.01395662
#
# Stress axis : x y z
#
# Youngs Moduli (GPa) = 154.84379 100.80901 191.46423
#
# Poissons Ratio (x) = -0.00846 0.28943
# Poissons Ratio (y) = -0.01300 0.45844
# Poissons Ratio (z) = 0.23407 0.24138
#
# Static dielectric constant tensor:
#      x y z
#    x 2.124120 0.000000 -0.045390 
#    y 0.000000 2.239490 0.000000 
#    z -0.045390 0.000000 2.147800 
# 
# From -- ./inp_files/56305.got.cif
#   From: 2010.05.17/outbox.cif.g08.bks.cpg/sg12_29_cif.got.tgz:56305.got - 2010.06.03 13:09:07.
