data_PCOD9222247
_publ_section_title
;
Structure prediction by ZEFSAII (Michael W. Deem and Ramdas Pophale) SiO2 
 PCOD9222247
Probable space group: C 2/M
;
_chemical_formula_sum "Si O2"
_cell_formula_units_Z 40
_cell_length_a 23.440361
_cell_length_b 21.918392
_cell_length_c 7.074864
_cell_angle_alpha 90.000000
_cell_angle_beta 144.028877
_cell_angle_gamma 90.000000
_cell_volume 2135.051422
_symmetry_space_group_name_H-M "C 2/M"
_symmetry_group_IT_number 12
_symmetry_cell_setting 'monoclinic'
loop_
_space_group_symop_operation_xyz
x,y,z
-x,y,-z
-x,-y,-z
x,-y,z
1/2+x,1/2+y,z
1/2-x,1/2+y,-z
1/2-x,1/2-y,-z
1/2+x,1/2-y,z
loop_
_atom_site_type_symbol
_atom_site_label
_atom_site_fract_x
_atom_site_fract_y
_atom_site_fract_z
Si Si1 0.202915 0.858510 0.712664
Si Si2 0.897444 0.069583 0.824431
Si Si3 0.188452 0.168945 0.120876
Si Si4 0.392698 0.206873 0.212231
Si Si5 0.887654 0.265079 0.638454
O O1 0.174666 0.921977 0.546122
O O2 0.140644 0.806413 0.432975
O O3 0.189831 0.851846 0.903115
O O4 0.312076 0.841853 0.951474
O O5 0.859334 0.115166 0.885283
O O6 0.901776 0.000000 0.904285
O O7 0.000000 0.085136 0.000000
O O8 0.297869 0.192345 0.472071
O O9 0.123412 0.231208 0.951080
O O10 0.500000 0.182442 0.500000
O O11 0.376623 0.224743 0.385321
O O12 0.000000 0.276686 0.000000
#
# Coordination Sequence:
#
# PCOD9222247 Si02
#       5
#     8   8   8   8   8
#     4   9  20  37  54  83 117 142 178 227 276 331
#     4  11  25  39  56  80 105 149 199 229 265 313
#     4   9  21  37  54  81 116 145 178 228 278 325
#     4   9  19  31  54  89 115 142 174 214 285 346
#     4   9  18  32  55  88 113 141 176 218 283 343
#
# _framework density 18.734912000000001
#
# number of rings (size 3 to 8) (size 9 to 14) (size 15 to 20)
#    0.000    2.600    0.000    3.000   11.200    2.400 
#    0.000    2.000    0.000    1.200    0.000    0.000 
#    0.000    0.000    0.000    0.000    0.000    0.000 
#
# Total GULP energy -111362.313034 kJ/mol
# GULP energy per Si atom -5568.115652 kJ/mol
# Density = 1.869227 g / cm^3
# Si number density = 18.734912 Si / 1000 Ang^3
#
#
#
# Elastic Constant Matrix: (Units=GPa)
#
#
# Indices 1 2 3 4 5 6 
#
# 1 105.1633 58.0815 39.8454 0.0000 5.0509 0.0000
# 2 58.0815 79.2110 47.3244 0.0000 17.0714 0.0000
# 3 39.8454 47.3244 123.6790 0.0000 19.1722 0.0000
# 4 0.0000 0.0000 0.0000 31.9190 0.0000 18.4985
# 5 5.0509 17.0714 19.1722 0.0000 32.6568 0.0000
# 6 0.0000 0.0000 0.0000 18.4985 0.0000 52.3436
#
#
#
# Elastic Compliance Matrix: (Units=1/GPa)
#
#
# Indices 1 2 3 4 5 6 
#
# 1 0.016653 -0.012424 -0.001341 0.000000 0.004706 0.000000
# 2 -0.012424 0.026537 -0.004729 0.000000 -0.009174 0.000000
# 3 -0.001341 -0.004729 0.010904 0.000000 -0.003722 0.000000
# 4 0.000000 0.000000 0.000000 0.039399 0.000000 -0.013924
# 5 0.004706 -0.009174 -0.003722 0.000000 0.036874 0.000000
# 6 0.000000 0.000000 0.000000 -0.013924 0.000000 0.024025
#
#
# Mechanical properties :
#
#
# Convention : Reuss Voigt Hill
#
# Bulk Modulus (GPa) = 58.45925 66.50622 62.48273
# Shear Modulus (GPa) = 25.37019 34.23734 29.80376
#
# Velocity S-wave (km/s) = 3.68389 4.27952 3.99283
# Velocity P-wave (km/s) = 7.02608 7.74562 7.39461
#
# Compressibility (1/GPa) = 0.01710593
#
# Stress axis : x y z
#
# Youngs Moduli (GPa) = 60.05072 37.68317 91.70991
#
# Poissons Ratio (x) = 0.46817 0.12295
# Poissons Ratio (y) = 0.74606 0.43373
# Poissons Ratio (z) = 0.08050 0.17822
#
# Static dielectric constant tensor:
#      x y z
#    x 2.044130 0.000000 0.132950 
#    y 0.000000 1.633560 0.000000 
#    z 0.132950 0.000000 1.745690 
# 
# From -- ./inp_files/106467.got.cif
#   From: 2010.05.17/outbox.cif.g08.bks.cpg/sg12_54_cif.got.tgz:106467.got - 2010.06.03 13:09:07.
