data_PCOD9222608
_publ_section_title
;
Structure prediction by ZEFSAII (Michael W. Deem and Ramdas Pophale) SiO2 
 PCOD9222608
Probable space group: C 2/M
;
_chemical_formula_sum "Si O2"
_cell_formula_units_Z 40
_cell_length_a 9.256850
_cell_length_b 26.397746
_cell_length_c 7.894692
_cell_angle_alpha 90.000000
_cell_angle_beta 103.568523
_cell_angle_gamma 90.000000
_cell_volume 1875.304323
_symmetry_space_group_name_H-M "C 2/M"
_symmetry_group_IT_number 12
_symmetry_cell_setting 'monoclinic'
loop_
_space_group_symop_operation_xyz
x,y,z
-x,y,-z
-x,-y,-z
x,-y,z
1/2+x,1/2+y,z
1/2-x,1/2+y,-z
1/2-x,1/2-y,-z
1/2+x,1/2-y,z
loop_
_atom_site_type_symbol
_atom_site_label
_atom_site_fract_x
_atom_site_fract_y
_atom_site_fract_z
Si Si1 0.130055 0.637627 0.724031
Si Si2 0.083342 0.277738 0.202020
Si Si3 0.585099 0.057455 0.205710
Si Si4 0.090717 0.832182 0.352047
Si Si5 0.298760 0.638902 0.129255
O O1 0.248870 0.641608 0.607590
O O2 0.024342 0.686449 0.716971
O O3 0.025086 0.588895 0.703994
O O4 0.229579 0.637535 0.922902
O O5 0.117149 0.225485 0.302013
O O6 0.228303 0.310460 0.194820
O O7 0.000000 0.267720 0.000000
O O8 0.730772 0.090913 0.209624
O O9 0.613458 0.000000 0.266759
O O10 0.500000 0.056393 0.000000
O O11 0.000000 0.834294 0.500000
O O12 0.974338 0.857570 0.190394
#
# Coordination Sequence:
#
# PCOD9222608 Si02
#       5
#     8   8   8   8   8
#     4   9  18  33  53  75  99 128 161 200 247 294
#     4   9  18  33  52  72  96 131 170 201 238 291
#     4   8  15  32  59  83  95 112 157 214 254 288
#     4  12  23  31  44  71 106 138 166 199 236 280
#     4   9  18  33  53  75  99 128 161 200 247 294
#
# _framework density 21.329872000000002
#
# number of rings (size 3 to 8) (size 9 to 14) (size 15 to 20)
#    0.000    2.600    0.000    5.400    0.000    6.400 
#    0.000    4.000    0.000    8.400    0.000    0.000 
#    0.000    0.000    0.000    0.000    0.000    0.000 
#
# Total GULP energy -111847.699582 kJ/mol
# GULP energy per Si atom -5592.384979 kJ/mol
# Density = 2.128132 g / cm^3
# Si number density = 21.329872 Si / 1000 Ang^3
#
#
#
# Elastic Constant Matrix: (Units=GPa)
#
#
# Indices 1 2 3 4 5 6 
#
# 1 109.7419 42.9222 20.2973 0.0000 -20.3596 0.0000
# 2 42.9222 133.7677 13.9985 0.0000 -15.5619 0.0000
# 3 20.2973 13.9985 73.9095 0.0000 -11.6988 0.0000
# 4 0.0000 0.0000 0.0000 -6.6799 0.0000 -0.5361
# 5 -20.3596 -15.5619 -11.6988 0.0000 38.4725 0.0000
# 6 0.0000 0.0000 0.0000 -0.5361 0.0000 -4.3508
#
#
#
# Elastic Compliance Matrix: (Units=1/GPa)
#
#
# Indices 1 2 3 4 5 6 
#
# 1 0.011415 -0.002968 -0.001898 0.000000 0.004263 0.000000
# 2 -0.002968 0.008692 -0.000550 0.000000 0.001778 0.000000
# 3 -0.001898 -0.000550 0.014667 0.000000 0.003233 0.000000
# 4 0.000000 0.000000 0.000000 -0.151198 0.000000 0.018629
# 5 0.004263 0.001778 0.003233 0.000000 0.029951 0.000000
# 6 0.000000 0.000000 0.000000 0.018629 0.000000 -0.232138
#
#
# Mechanical properties :
#
#
# Convention : Reuss Voigt Hill
#
# Bulk Modulus (GPa) = 41.76587 52.42834 47.09710
# Shear Modulus (GPa) = -16.67794 21.50178 2.41192
#
# Velocity S-wave (km/s) = -2.79929 3.17844 1.06453
# Velocity P-wave (km/s) = 3.02909 6.17277 4.86202
#
# Compressibility (1/GPa) = 0.02394300
#
# Stress axis : x y z
#
# Youngs Moduli (GPa) = 87.60281 115.04235 68.17951
#
# Poissons Ratio (x) = 0.34147 0.12940
# Poissons Ratio (y) = 0.26003 0.03748
# Poissons Ratio (z) = 0.16626 0.06325
#
# Static dielectric constant tensor:
#      x y z
#    x 1.737200 0.000000 -0.000050 
#    y 0.000000 1.727260 0.000000 
#    z -0.000050 0.000000 1.884400 
# 
# From -- ./inp_files/40320.got.cif
#   From: 2010.05.17/outbox.cif.g08.bks.cpg/sg12_21_cif.got.tgz:40320.got - 2010.06.03 13:09:07.
