data_PCOD9222973
_publ_section_title
;
Structure prediction by ZEFSAII (Michael W. Deem and Ramdas Pophale) SiO2 
 PCOD9222973
Probable space group: C 2/M
;
_chemical_formula_sum "Si O2"
_cell_formula_units_Z 44
_cell_length_a 20.199991
_cell_length_b 7.286466
_cell_length_c 18.528999
_cell_angle_alpha 90.000000
_cell_angle_beta 143.326490
_cell_angle_gamma 90.000000
_cell_volume 1628.843761
_symmetry_space_group_name_H-M "C 2/M"
_symmetry_group_IT_number 12
_symmetry_cell_setting 'monoclinic'
loop_
_space_group_symop_operation_xyz
x,y,z
-x,y,-z
-x,-y,-z
x,-y,z
1/2+x,1/2+y,z
1/2-x,1/2+y,-z
1/2-x,1/2-y,-z
1/2+x,1/2-y,z
loop_
_atom_site_type_symbol
_atom_site_label
_atom_site_fract_x
_atom_site_fract_y
_atom_site_fract_z
Si Si1 0.337146 0.276795 0.841978
Si Si2 0.917724 0.276775 0.363067
Si Si3 0.165464 0.500000 0.891851
Si Si4 0.810963 0.211045 0.665291
Si Si5 0.912938 0.723213 0.603216
Si Si6 0.620561 0.703411 0.966531
O O1 0.347500 0.500000 0.855286
O O2 0.207741 0.220951 0.734394
O O3 0.366017 0.215926 0.786110
O O4 0.395734 0.219413 0.967168
O O5 0.915570 0.500000 0.359366
O O6 0.000000 0.225002 0.500000
O O7 0.975893 0.217830 0.339676
O O8 0.103980 0.341283 0.886869
O O9 0.246849 0.655187 0.923739
O O10 0.884405 0.218124 0.658423
O O11 0.691575 0.287451 0.536720
O O12 0.784422 0.000000 0.658880
O O13 0.916156 0.500000 0.607217
O O14 0.566781 0.500000 0.911538
#
# Coordination Sequence:
#
# PCOD9222973 Si02
#       6
#     8   8   4   8   8   8
#     4   9  15  24  41  64  84 108 147 181 208 246
#     4   9  14  23  40  60  82 110 148 182 205 244
#     4   8  14  26  42  62  90 114 130 170 230 278
#     4   9  16  26  40  56  79 111 145 177 207 247
#     4   9  16  26  40  56  78 112 147 176 209 243
#     4   8  14  25  42  63  89 113 136 173 221 272
#
# _framework density 27.013027000000001
#
# number of rings (size 3 to 8) (size 9 to 14) (size 15 to 20)
#    0.545    2.727    1.818    0.000    0.000    0.000 
#    1.636    0.000    2.000    0.545    0.000    0.000 
#    0.000    8.727    0.000    0.000    0.000    0.000 
#
# Total GULP energy -122495.770387 kJ/mol
# GULP energy per Si atom -5567.989563 kJ/mol
# Density = 2.695154 g / cm^3
# Si number density = 27.013027 Si / 1000 Ang^3
#
#
#
# Elastic Constant Matrix: (Units=GPa)
#
#
# Indices 1 2 3 4 5 6 
#
# 1 105.8170 -9.5470 81.0359 0.0000 -22.3189 0.0000
# 2 -9.5470 111.6772 9.5227 0.0000 -4.0794 0.0000
# 3 81.0359 9.5227 128.9214 0.0000 -6.3264 0.0000
# 4 0.0000 0.0000 0.0000 -3.0865 0.0000 -9.4165
# 5 -22.3189 -4.0794 -6.3264 0.0000 56.6546 0.0000
# 6 0.0000 0.0000 0.0000 -9.4165 0.0000 15.9097
#
#
#
# Elastic Compliance Matrix: (Units=1/GPa)
#
#
# Indices 1 2 3 4 5 6 
#
# 1 0.021557 0.003252 -0.013436 0.000000 0.007226 0.000000
# 2 0.003252 0.009521 -0.002666 0.000000 0.001669 0.000000
# 3 -0.013436 -0.002666 0.016219 0.000000 -0.003674 0.000000
# 4 0.000000 0.000000 0.000000 -0.115475 0.000000 -0.068346
# 5 0.007226 0.001669 -0.003674 0.000000 0.020208 0.000000
# 6 0.000000 0.000000 0.000000 -0.068346 0.000000 0.022402
#
#
# Mechanical properties :
#
#
# Convention : Reuss Voigt Hill
#
# Bulk Modulus (GPa) = 46.29977 56.49321 51.39649
# Shear Modulus (GPa) = 682.18470 31.58915 356.88692
#
# Velocity S-wave (km/s) = 15.90872 3.42337 11.50667
# Velocity P-wave (km/s) = 18.83154 6.04852 13.98591
#
# Compressibility (1/GPa) = 0.02159838
#
# Stress axis : x y z
#
# Youngs Moduli (GPa) = 46.38824 105.03430 61.65757
#
# Poissons Ratio (x) = -0.34162 0.82842
# Poissons Ratio (y) = -0.15088 0.16436
# Poissons Ratio (z) = 0.62326 0.27999
#
# Static dielectric constant tensor:
#      x y z
#    x 2.083850 0.000000 0.039320 
#    y 0.000000 2.149000 0.000000 
#    z 0.039320 0.000000 2.178970 
# 
# From -- ./inp_files/279789.got.cif
#   From: 2010.05.17/outbox.cif.g08.bks.cpg/sg12_140_cif.got.tgz:279789.got - 2010.06.03 13:09:07.
