data_PCOD9222740
_publ_section_title
;
Structure prediction by ZEFSAII (Michael W. Deem and Ramdas Pophale) SiO2 
 PCOD9222740
Probable space group: C 2/M
;
_chemical_formula_sum "Si O2"
_cell_formula_units_Z 56
_cell_length_a 8.236736
_cell_length_b 19.922690
_cell_length_c 18.478218
_cell_angle_alpha 90.000000
_cell_angle_beta 89.999966
_cell_angle_gamma 90.000000
_cell_volume 3032.237471
_symmetry_space_group_name_H-M "C 2/M"
_symmetry_group_IT_number 12
_symmetry_cell_setting 'monoclinic'
loop_
_space_group_symop_operation_xyz
x,y,z
-x,y,-z
-x,-y,-z
x,-y,z
1/2+x,1/2+y,z
1/2-x,1/2+y,-z
1/2-x,1/2-y,-z
1/2+x,1/2-y,z
loop_
_atom_site_type_symbol
_atom_site_label
_atom_site_fract_x
_atom_site_fract_y
_atom_site_fract_z
Si Si1 0.308166 0.826857 1.000000
Si Si2 0.196264 0.173568 0.581037
Si Si3 0.801933 0.076847 0.708067
Si Si4 0.696263 0.673568 0.418962
Si Si5 0.698068 0.576847 0.708067
Si Si6 0.195993 0.076826 0.872302
Si Si7 0.195993 0.923174 0.127698
O O1 0.250782 0.868914 0.930220
O O2 0.500000 0.825744 0.000000
O O3 0.250000 0.750000 0.000000
O O4 0.250781 0.868914 0.069780
O O5 0.250001 0.250000 0.592247
O O6 0.249759 0.152861 0.500000
O O7 0.256281 0.126411 0.645631
O O8 0.000000 0.171468 0.581576
O O9 0.743719 0.126411 0.645631
O O10 0.750827 0.093335 0.790184
O O11 0.000000 0.078774 0.707949
O O12 0.754837 0.000000 0.693152
O O13 0.745163 0.500000 0.693152
O O14 0.749174 0.593335 0.790184
O O15 0.000000 0.075730 0.872785
O O16 0.249449 0.000000 0.889349
O O17 0.249449 0.000000 0.110650
#
# Coordination Sequence:
#
# PCOD9222740 Si02
#       7
#     8   8   8   8   8   8   8
#     4  12  25  38  53  75 103 131 165 208 249 294
#     4   9  17  29  46  69  98 131 165 201 241 285
#     4   8  15  29  50  75  99 125 161 202 241 284
#     4   9  17  29  46  69  98 131 165 201 241 285
#     4   8  15  29  50  75  99 125 161 202 241 284
#     4   9  18  35  57  77 101 133 165 200 248 303
#     4   9  18  35  57  77 101 133 165 200 248 303
#
# _framework density 18.468211
#
# number of rings (size 3 to 8) (size 9 to 14) (size 15 to 20)
#    0.000    2.857    0.000    3.429    0.000    4.000 
#    0.000    7.143    0.000    2.571    0.000    4.000 
#    0.000    0.000    0.000    0.000    0.000    0.000 
#
# Total GULP energy -156110.408296 kJ/mol
# GULP energy per Si atom -5575.371725 kJ/mol
# Density = 1.842618 g / cm^3
# Si number density = 18.468211 Si / 1000 Ang^3
#
#
#
# Elastic Constant Matrix: (Units=GPa)
#
#
# Indices 1 2 3 4 5 6 
#
# 1 16.7647 20.5385 25.3781 0.0000 2.2216 0.0000
# 2 20.5385 146.6814 146.0316 0.0000 10.4160 0.0000
# 3 25.3781 146.0316 195.6807 0.0000 12.6286 0.0000
# 4 0.0000 0.0000 0.0000 259.4823 0.0000 19.3460
# 5 2.2216 10.4160 12.6286 0.0000 9.9393 0.0000
# 6 0.0000 0.0000 0.0000 19.3460 0.0000 26.3588
#
#
#
# Elastic Compliance Matrix: (Units=1/GPa)
#
#
# Indices 1 2 3 4 5 6 
#
# 1 0.074776 -0.003055 -0.007130 0.000000 -0.004452 0.000000
# 2 -0.003055 0.026725 -0.019373 0.000000 -0.002709 0.000000
# 3 -0.007130 -0.019373 0.020784 0.000000 -0.004512 0.000000
# 4 0.000000 0.000000 0.000000 0.004077 0.000000 -0.002992
# 5 -0.004452 -0.002709 -0.004512 0.000000 0.110177 0.000000
# 6 0.000000 0.000000 0.000000 -0.002992 0.000000 0.040134
#
#
# Mechanical properties :
#
#
# Convention : Reuss Voigt Hill
#
# Bulk Modulus (GPa) = 15.83098 82.55813 49.19456
# Shear Modulus (GPa) = 14.01164 70.30133 42.15648
#
# Velocity S-wave (km/s) = 2.75742 6.17647 4.78289
# Velocity P-wave (km/s) = 4.32764 9.78084 7.56285
#
# Compressibility (1/GPa) = 0.06316727
#
# Stress axis : x y z
#
# Youngs Moduli (GPa) = 13.37330 37.41831 48.11410
#
# Poissons Ratio (x) = 0.11432 0.34308
# Poissons Ratio (y) = 0.04086 0.93212
# Poissons Ratio (z) = 0.09536 0.72491
#
# Static dielectric constant tensor:
#      x y z
#    x 1.653380 0.000000 0.000250 
#    y 0.000000 1.688040 0.000000 
#    z 0.000250 0.000000 1.656440 
# 
# From -- ./inp_files/257615.got.cif
#   From: 2010.05.17/outbox.cif.g08.bks.cpg/sg12_129_cif.got.tgz:257615.got - 2010.06.03 13:09:07.
