data_PCOD9222133
_publ_section_title
;
Structure prediction by ZEFSAII (Michael W. Deem and Ramdas Pophale) SiO2 
 PCOD9222133
Probable space group: C 2/M
;
_chemical_formula_sum "Si O2"
_cell_formula_units_Z 48
_cell_length_a 8.236841
_cell_length_b 31.015657
_cell_length_c 15.894332
_cell_angle_alpha 90.000000
_cell_angle_beta 32.859050
_cell_angle_gamma 90.000000
_cell_volume 2203.145129
_symmetry_space_group_name_H-M "C 2/M"
_symmetry_group_IT_number 12
_symmetry_cell_setting 'monoclinic'
loop_
_space_group_symop_operation_xyz
x,y,z
-x,y,-z
-x,-y,-z
x,-y,z
1/2+x,1/2+y,z
1/2-x,1/2+y,-z
1/2-x,1/2-y,-z
1/2+x,1/2-y,z
loop_
_atom_site_type_symbol
_atom_site_label
_atom_site_fract_x
_atom_site_fract_y
_atom_site_fract_z
Si Si1 0.500000 0.352717 0.000000
Si Si2 0.835957 0.797058 0.929709
Si Si3 0.844497 0.087142 0.318803
Si Si4 0.214481 0.000000 0.184453
Si Si5 0.933048 0.406258 0.734177
Si Si6 0.327032 0.328723 0.757699
Si Si7 0.657312 0.000000 0.677459
Si Si8 0.000000 0.845722 0.500000
O O1 0.441254 0.320384 0.103097
O O2 0.222708 0.385399 0.117097
O O3 0.936732 0.798902 0.788675
O O4 0.750000 0.750000 0.000000
O O5 0.528858 0.823997 0.076231
O O6 0.500000 0.085402 0.500000
O O7 0.802759 0.097502 0.238839
O O8 0.009864 0.042093 0.260614
O O9 0.036417 0.124544 0.279620
O O10 0.341159 0.000000 0.223197
O O11 0.500000 0.000000 0.000000
O O12 0.010307 0.456200 0.708969
O O13 0.227653 0.377566 0.593625
O O14 0.415036 0.319851 0.622291
O O15 0.000000 0.000000 0.500000
#
# Coordination Sequence:
#
# PCOD9222133 Si02
#       8
#     4   8   8   4   8   8   4   4
#     4  12  24  41  72 104 136 178 240 293 358 432
#     4  11  25  47  75 105 140 184 232 291 366 445
#     4  12  24  45  70 104 146 195 240 296 366 427
#     4  12  30  42  68 103 148 193 259 304 345 410
#     4  12  25  41  71  99 145 189 242 295 354 422
#     4  11  24  43  76 103 146 184 241 287 362 430
#     4  12  25  45  65  95 140 199 243 287 356 414
#     4  12  22  45  70 108 138 192 230 296 350 425
#
# _framework density 21.787033999999998
#
# number of rings (size 3 to 8) (size 9 to 14) (size 15 to 20)
#    0.000    0.333    5.833    3.750    4.667    0.333 
#    0.000    0.833    1.833    0.000    0.000    0.000 
#    0.000    0.000    0.000    0.000    0.000    0.000 
#
# Total GULP energy -134037.145494 kJ/mol
# GULP energy per Si atom -5584.881062 kJ/mol
# Density = 2.173745 g / cm^3
# Si number density = 21.787034 Si / 1000 Ang^3
#
#
#
# Elastic Constant Matrix: (Units=GPa)
#
#
# Indices 1 2 3 4 5 6 
#
# 1 93.7123 23.4950 21.7162 0.0000 35.6519 0.0000
# 2 23.4950 122.4923 44.9821 0.0000 8.3034 0.0000
# 3 21.7162 44.9821 101.0699 0.0000 16.9944 0.0000
# 4 0.0000 0.0000 0.0000 17.5573 0.0000 -4.6572
# 5 35.6519 8.3034 16.9944 0.0000 53.0630 0.0000
# 6 0.0000 0.0000 0.0000 -4.6572 0.0000 -25.4842
#
#
#
# Elastic Compliance Matrix: (Units=1/GPa)
#
#
# Indices 1 2 3 4 5 6 
#
# 1 0.014946 -0.001949 -0.000747 0.000000 -0.009498 0.000000
# 2 -0.001949 0.010014 -0.004222 0.000000 0.001094 0.000000
# 3 -0.000747 -0.004222 0.012406 0.000000 -0.002811 0.000000
# 4 0.000000 0.000000 0.000000 0.054323 0.000000 -0.009928
# 5 -0.009498 0.001094 -0.002811 0.000000 0.025956 0.000000
# 6 0.000000 0.000000 0.000000 -0.009928 0.000000 -0.037426
#
#
# Mechanical properties :
#
#
# Convention : Reuss Voigt Hill
#
# Bulk Modulus (GPa) = 42.49794 55.29568 48.89681
# Shear Modulus (GPa) = 49.06856 24.16595 36.61725
#
# Velocity S-wave (km/s) = 4.75087 3.33406 4.10407
# Velocity P-wave (km/s) = 7.04577 6.34480 6.70445
#
# Compressibility (1/GPa) = 0.02353055
#
# Stress axis : x y z
#
# Youngs Moduli (GPa) = 66.90787 99.86227 80.60384
#
# Poissons Ratio (x) = 0.19459 0.06022
# Poissons Ratio (y) = 0.13037 0.34032
# Poissons Ratio (z) = 0.04999 0.42163
#
# Static dielectric constant tensor:
#      x y z
#    x 1.942860 0.000000 0.052910 
#    y 0.000000 1.849850 0.000000 
#    z 0.052910 0.000000 1.866560 
# 
# From -- ./inp_files/260281.got.cif
#   From: 2010.05.17/outbox.cif.g08.bks.cpg/sg12_131_cif.got.tgz:260281.got - 2010.06.03 13:09:07.
