data_PCOD9222656
_publ_section_title
;
Structure prediction by ZEFSAII (Michael W. Deem and Ramdas Pophale) SiO2 
 PCOD9222656
Probable space group: C 2/M
;
_chemical_formula_sum "Si O2"
_cell_formula_units_Z 40
_cell_length_a 8.725937
_cell_length_b 14.964387
_cell_length_c 21.152026
_cell_angle_alpha 90.000000
_cell_angle_beta 139.245637
_cell_angle_gamma 90.000000
_cell_volume 1803.078865
_symmetry_space_group_name_H-M "C 2/M"
_symmetry_group_IT_number 12
_symmetry_cell_setting 'monoclinic'
loop_
_space_group_symop_operation_xyz
x,y,z
-x,y,-z
-x,-y,-z
x,-y,z
1/2+x,1/2+y,z
1/2-x,1/2+y,-z
1/2-x,1/2-y,-z
1/2+x,1/2-y,z
loop_
_atom_site_type_symbol
_atom_site_label
_atom_site_fract_x
_atom_site_fract_y
_atom_site_fract_z
Si Si1 0.808449 0.000000 0.880514
Si Si2 0.844014 0.170598 0.796294
Si Si3 0.441175 0.500000 0.675944
Si Si4 0.641030 0.179164 0.098110
Si Si5 0.958021 0.500000 0.880697
Si Si6 0.054255 0.352664 0.585534
Si Si7 0.661750 0.500000 0.490093
O O1 0.812323 0.913838 0.834443
O O2 0.571763 0.000000 0.847611
O O3 0.000000 0.000000 0.000000
O O4 0.845889 0.260372 0.836957
O O5 0.648973 0.187553 0.680595
O O6 0.098663 0.159281 0.844413
O O7 0.677437 0.500000 0.787905
O O8 0.271385 0.417467 0.636412
O O9 0.504186 0.500000 0.622477
O O10 0.488134 0.090967 0.065856
O O11 0.500000 0.231153 0.000000
O O12 0.000000 0.306074 0.500000
O O13 0.833265 0.414519 0.536014
O O14 0.500000 0.500000 0.500000
#
# Coordination Sequence:
#
# PCOD9222656 Si02
#       7
#     4   8   4   8   4   8   4
#     4  12  25  41  65 100 136 174 222 277 334 402
#     4  12  24  44  67  97 137 176 220 280 337 393
#     4   9  17  35  61  90 123 165 213 264 321 392
#     4  12  25  44  68  97 134 179 226 277 335 398
#     4  12  23  41  69  95 128 175 232 267 335 401
#     4   9  19  39  62  92 129 172 212 267 333 391
#     4   9  18  31  62  98 128 163 219 269 324 390
#
# _framework density 22.184276000000001
#
# number of rings (size 3 to 8) (size 9 to 14) (size 15 to 20)
#    0.000    1.200    2.000    6.900    2.800    0.000 
#    0.000    1.000    0.000    0.000    0.000    0.000 
#    0.000    0.000    0.000    0.000    0.000    0.000 
#
# Total GULP energy -111588.601727 kJ/mol
# GULP energy per Si atom -5579.430086 kJ/mol
# Density = 2.213378 g / cm^3
# Si number density = 22.184276 Si / 1000 Ang^3
#
#
#
# Elastic Constant Matrix: (Units=GPa)
#
#
# Indices 1 2 3 4 5 6 
#
# 1 140.1188 41.1445 17.3976 0.0000 -16.4486 0.0000
# 2 41.1445 71.0356 17.8669 0.0000 -26.5792 0.0000
# 3 17.3976 17.8669 151.1205 0.0001 -33.6007 0.0001
# 4 0.0000 0.0000 0.0001 29.9020 0.0001 8.7000
# 5 -16.4486 -26.5792 -33.6007 0.0001 47.8885 0.0000
# 6 0.0000 0.0000 0.0001 8.7000 0.0000 39.9071
#
#
#
# Elastic Compliance Matrix: (Units=1/GPa)
#
#
# Indices 1 2 3 4 5 6 
#
# 1 0.008625 -0.004912 -0.000426 0.000000 -0.000063 0.000000
# 2 -0.004912 0.020566 0.000352 0.000000 0.009974 0.000000
# 3 -0.000426 0.000352 0.007862 0.000000 0.005565 0.000000
# 4 0.000000 0.000000 0.000000 0.035707 0.000000 -0.007784
# 5 -0.000063 0.009974 0.005565 0.000000 0.030301 0.000000
# 6 0.000000 0.000000 0.000000 -0.007784 0.000000 0.026755
#
#
# Mechanical properties :
#
#
# Convention : Reuss Voigt Hill
#
# Bulk Modulus (GPa) = 36.92736 57.23254 47.07995
# Shear Modulus (GPa) = 33.59864 42.59726 38.09795
#
# Velocity S-wave (km/s) = 3.89591 4.38671 4.14858
# Velocity P-wave (km/s) = 6.07613 7.17721 6.64950
#
# Compressibility (1/GPa) = 0.02708019
#
# Stress axis : x y z
#
# Youngs Moduli (GPa) = 115.94684 48.62403 127.19234
#
# Poissons Ratio (x) = 0.23883 0.05420
# Poissons Ratio (y) = 0.56951 -0.04473
# Poissons Ratio (z) = 0.04941 -0.01710
#
# Static dielectric constant tensor:
#      x y z
#    x 1.789380 0.000000 -0.039500 
#    y 0.000000 1.880040 0.000000 
#    z -0.039500 0.000000 1.874520 
# 
# From -- ./inp_files/301004.got.cif
#   From: 2010.05.17/outbox.cif.g08.bks.cpg/sg12_151_cif.got.tgz:301004.got - 2010.06.03 13:09:07.
