data_PCOD9222556
_publ_section_title
;
Structure prediction by ZEFSAII (Michael W. Deem and Ramdas Pophale) SiO2 
 PCOD9222556
Probable space group: C 2/M
;
_chemical_formula_sum "Si O2"
_cell_formula_units_Z 36
_cell_length_a 16.334818
_cell_length_b 15.490813
_cell_length_c 17.694994
_cell_angle_alpha 90.000000
_cell_angle_beta 26.200549
_cell_angle_gamma 90.000000
_cell_volume 1976.896138
_symmetry_space_group_name_H-M "C 2/M"
_symmetry_group_IT_number 12
_symmetry_cell_setting 'monoclinic'
loop_
_space_group_symop_operation_xyz
x,y,z
-x,y,-z
-x,-y,-z
x,-y,z
1/2+x,1/2+y,z
1/2-x,1/2+y,-z
1/2-x,1/2-y,-z
1/2+x,1/2-y,z
loop_
_atom_site_type_symbol
_atom_site_label
_atom_site_fract_x
_atom_site_fract_y
_atom_site_fract_z
Si Si1 0.914740 0.400481 0.867503
Si Si2 0.945747 0.597471 0.671588
Si Si3 0.063466 0.096477 0.064122
Si Si4 0.594414 0.223794 0.840415
Si Si5 0.000000 0.736813 0.500000
O O1 0.943458 0.500000 0.866287
O O2 0.007722 0.388767 0.707403
O O3 0.990177 0.335087 0.865960
O O4 0.695974 0.390564 0.027996
O O5 0.997933 0.500000 0.604938
O O6 0.006424 0.672595 0.566504
O O7 0.720725 0.598878 0.867740
O O8 0.930905 0.176271 0.163019
O O9 0.983010 0.000000 0.132614
O O10 0.813471 0.207984 0.660606
O O11 0.500000 0.212074 0.000000
#
# Coordination Sequence:
#
# PCOD9222556 Si02
#       5
#     8   8   8   8   4
#     4   8  18  38  60  78 104 145 189 228 267 312
#     4   8  17  35  55  79 108 138 177 224 271 323
#     4   8  17  35  57  79 105 140 176 221 275 319
#     4  12  22  35  56  82 114 146 179 225 268 321
#     4  12  23  32  51  88 112 144 178 214 276 340
#
# _framework density 18.210364999999999
#
# number of rings (size 3 to 8) (size 9 to 14) (size 15 to 20)
#    1.333    1.333    2.222    1.000    0.000    3.556 
#    0.000    0.556    0.000    2.667    0.000    0.000 
#    0.000    0.000    0.000    0.000    0.000    0.000 
#
# Total GULP energy -100212.447488 kJ/mol
# GULP energy per Si atom -5567.358194 kJ/mol
# Density = 1.816892 g / cm^3
# Si number density = 18.210365 Si / 1000 Ang^3
#
#
#
# Elastic Constant Matrix: (Units=GPa)
#
#
# Indices 1 2 3 4 5 6 
#
# 1 76.9479 47.1820 13.9554 -0.0020 4.6272 0.0027
# 2 47.1820 57.5897 6.0219 -0.0033 3.4096 -0.0002
# 3 13.9554 6.0219 47.3210 -0.0047 -13.7694 0.0030
# 4 -0.0020 -0.0033 -0.0047 0.5561 -0.0013 1.8980
# 5 4.6272 3.4096 -13.7694 -0.0013 16.0926 -0.0010
# 6 0.0027 -0.0002 0.0030 1.8980 -0.0010 11.3700
#
#
#
# Elastic Compliance Matrix: (Units=1/GPa)
#
#
# Indices 1 2 3 4 5 6 
#
# 1 0.028771 -0.021964 -0.008978 -0.000261 -0.011302 0.000038
# 2 -0.021964 0.035076 0.002249 0.000313 0.000808 -0.000047
# 3 -0.008978 0.002249 0.032098 0.000781 0.029570 -0.000134
# 4 -0.000261 0.000313 0.000781 4.178992 0.000971 -0.697584
# 5 -0.011302 0.000808 0.029570 0.000971 0.090520 -0.000160
# 6 0.000038 -0.000047 -0.000134 -0.697584 -0.000160 0.204396
#
#
# Mechanical properties :
#
#
# Convention : Reuss Voigt Hill
#
# Bulk Modulus (GPa) = 25.93468 35.13079 30.53274
# Shear Modulus (GPa) = 1.07756 13.25035 7.16396
#
# Velocity S-wave (km/s) = 0.77008 2.70038 1.98558
# Velocity P-wave (km/s) = 3.88115 5.39039 4.69679
#
# Compressibility (1/GPa) = 0.03855841
#
# Stress axis : x y z
#
# Youngs Moduli (GPa) = 34.75699 28.50985 31.15445
#
# Poissons Ratio (x) = 0.62618 0.27972
# Poissons Ratio (y) = 0.76339 -0.07006
# Poissons Ratio (z) = 0.31206 -0.06411
#
# Static dielectric constant tensor:
#      x y z
#    x 1.644590 0.000000 -0.011190 
#    y 0.000000 1.604510 0.000000 
#    z -0.011190 0.000000 1.648580 
# 
# From -- ./inp_files/216172.got.cif
#   From: 2010.05.17/outbox.cif.g08.bks.cpg/sg12_109_cif.got.tgz:216172.got - 2010.06.03 13:09:07.
