data_PCOD9222602
_publ_section_title
;
Structure prediction by ZEFSAII (Michael W. Deem and Ramdas Pophale) SiO2 
 PCOD9222602
Probable space group: C 2/M
;
_chemical_formula_sum "Si O2"
_cell_formula_units_Z 52
_cell_length_a 13.895000
_cell_length_b 20.256945
_cell_length_c 13.555110
_cell_angle_alpha 90.000000
_cell_angle_beta 138.696859
_cell_angle_gamma 90.000000
_cell_volume 2518.301235
_symmetry_space_group_name_H-M "C 2/M"
_symmetry_group_IT_number 12
_symmetry_cell_setting 'monoclinic'
loop_
_space_group_symop_operation_xyz
x,y,z
-x,y,-z
-x,-y,-z
x,-y,z
1/2+x,1/2+y,z
1/2-x,1/2+y,-z
1/2-x,1/2-y,-z
1/2+x,1/2-y,z
loop_
_atom_site_type_symbol
_atom_site_label
_atom_site_fract_x
_atom_site_fract_y
_atom_site_fract_z
Si Si1 0.529563 0.000000 0.639889
Si Si2 0.345237 0.271976 0.860913
Si Si3 0.826428 0.291156 0.643201
Si Si4 0.939939 0.881452 0.556374
Si Si5 0.262797 0.500000 0.461934
Si Si6 0.125580 0.637288 0.806243
Si Si7 0.238922 0.861877 0.873486
Si Si8 0.670937 0.000000 0.158672
O O1 0.500000 0.000000 0.500000
O O2 0.606288 0.066703 0.738591
O O3 0.374865 0.000000 0.575213
O O4 0.355035 0.258345 0.753294
O O5 0.210756 0.313890 0.798113
O O6 0.331728 0.199561 0.902190
O O7 0.500000 0.305397 0.000000
O O8 0.750000 0.250000 0.500000
O O9 0.695457 0.337087 0.580478
O O10 0.967688 0.332051 0.716280
O O11 0.864840 0.937983 0.560516
O O12 0.000000 0.910094 0.500000
O O13 0.069727 0.847434 0.716661
O O14 0.206350 0.500000 0.303543
O O15 0.218860 0.632288 0.979269
O O16 0.269961 0.932297 0.844757
O O17 0.500000 0.000000 0.000000
#
# Coordination Sequence:
#
# PCOD9222602 Si02
#       8
#     4   8   8   8   4   8   8   4
#     4  12  30  55  75 102 143 206 262 311 366 446
#     4  12  26  46  74 109 150 194 250 313 375 442
#     4  12  27  43  75 106 142 193 245 307 373 437
#     4  12  23  40  68 109 145 181 230 299 372 436
#     4  12  22  45  68 105 141 183 238 304 372 426
#     4  12  28  51  76 105 149 202 252 305 380 452
#     4  12  24  43  69 113 153 187 237 301 382 451
#     4  12  23  35  73 106 151 189 236 299 373 447
#
# _framework density 20.648841000000001
#
# number of rings (size 3 to 8) (size 9 to 14) (size 15 to 20)
#    0.000    0.000    6.154    3.923    4.308    0.000 
#    0.000    0.385    0.000    0.000    0.000    0.000 
#    0.000    0.000    0.000    0.000    0.000    0.000 
#
# Total GULP energy -145301.624920 kJ/mol
# GULP energy per Si atom -5588.524035 kJ/mol
# Density = 2.060184 g / cm^3
# Si number density = 20.648841 Si / 1000 Ang^3
#
#
#
# Elastic Constant Matrix: (Units=GPa)
#
#
# Indices 1 2 3 4 5 6 
#
# 1 90.0133 50.3834 39.9181 0.0000 6.4914 0.0000
# 2 50.3834 93.0281 23.4392 0.0000 -5.6248 0.0000
# 3 39.9181 23.4392 122.6412 0.0000 0.1716 0.0000
# 4 0.0000 0.0000 0.0000 34.6307 0.0000 5.8105
# 5 6.4914 -5.6248 0.1716 0.0000 49.6652 0.0000
# 6 0.0000 0.0000 0.0000 5.8105 0.0000 30.7748
#
#
#
# Elastic Compliance Matrix: (Units=1/GPa)
#
#
# Indices 1 2 3 4 5 6 
#
# 1 0.018291 -0.009049 -0.004219 0.000000 -0.003401 0.000000
# 2 -0.009049 0.015853 -0.000089 0.000000 0.002978 0.000000
# 3 -0.004219 -0.000089 0.009543 0.000000 0.000508 0.000000
# 4 0.000000 0.000000 0.000000 0.029821 0.000000 -0.005630
# 5 -0.003401 0.002978 0.000508 0.000000 0.020915 0.000000
# 6 0.000000 0.000000 0.000000 -0.005630 0.000000 0.033557
#
#
# Mechanical properties :
#
#
# Convention : Reuss Voigt Hill
#
# Bulk Modulus (GPa) = 58.91545 59.24043 59.07794
# Shear Modulus (GPa) = 31.18170 35.81026 33.49598
#
# Velocity S-wave (km/s) = 3.89021 4.16895 4.03199
# Velocity P-wave (km/s) = 6.98372 7.20592 7.09569
#
# Compressibility (1/GPa) = 0.01697348
#
# Stress axis : x y z
#
# Youngs Moduli (GPa) = 54.67275 63.08130 104.78438
#
# Poissons Ratio (x) = 0.57080 0.44211
# Poissons Ratio (y) = 0.49471 0.00929
# Poissons Ratio (z) = 0.23068 0.00559
#
# Static dielectric constant tensor:
#      x y z
#    x 1.755910 0.000000 -0.008230 
#    y 0.000000 1.848920 0.000000 
#    z -0.008230 0.000000 1.714790 
# 
# From -- ./inp_files/136055.got.cif
#   From: 2010.05.17/outbox.cif.g08.bks.cpg/sg12_69_cif.got.tgz:136055.got - 2010.06.03 13:09:07.
