data_PCOD9222469
_publ_section_title
;
Structure prediction by ZEFSAII (Michael W. Deem and Ramdas Pophale) SiO2 
 PCOD9222469
Probable space group: C 2/M
;
_chemical_formula_sum "Si O2"
_cell_formula_units_Z 28
_cell_length_a 14.179347
_cell_length_b 16.105893
_cell_length_c 4.731124
_cell_angle_alpha 90.000000
_cell_angle_beta 98.587713
_cell_angle_gamma 90.000000
_cell_volume 1068.338170
_symmetry_space_group_name_H-M "C 2/M"
_symmetry_group_IT_number 12
_symmetry_cell_setting 'monoclinic'
loop_
_space_group_symop_operation_xyz
x,y,z
-x,y,-z
-x,-y,-z
x,-y,z
1/2+x,1/2+y,z
1/2-x,1/2+y,-z
1/2-x,1/2-y,-z
1/2+x,1/2-y,z
loop_
_atom_site_type_symbol
_atom_site_label
_atom_site_fract_x
_atom_site_fract_y
_atom_site_fract_z
Si Si1 0.405011 0.146688 0.368585
Si Si2 0.500000 0.718622 0.000000
Si Si3 0.896189 0.091599 0.596265
Si Si4 0.773051 0.663627 0.848517
O O1 0.500000 0.097139 0.500000
O O2 0.346156 0.173742 0.617851
O O3 0.452581 0.223301 0.216272
O O4 0.329175 0.110679 0.111814
O O5 0.582604 0.659424 0.157601
O O6 0.817040 0.121310 0.340326
O O7 0.000000 0.086484 0.500000
O O8 0.872258 0.000000 0.697027
O O9 0.750000 0.750000 0.000000
#
# Coordination Sequence:
#
# PCOD9222469 Si02
#       4
#     8   4   8   8
#     4  12  25  43  73 112 146 183 244 322 373 420
#     4  12  23  44  76 106 153 192 248 306 381 432
#     4  11  28  48  70 105 157 204 241 296 377 463
#     4  12  26  43  75 110 147 194 253 312 365 436
#
# _framework density 26.208929999999999
#
# number of rings (size 3 to 8) (size 9 to 14) (size 15 to 20)
#    0.000    0.286    2.857    5.571    8.000    0.000 
#    0.000    0.000    0.000    6.857    0.000    0.000 
#    0.000    0.000    0.000    0.000    0.000    0.000 
#
# Total GULP energy -78448.415860 kJ/mol
# GULP energy per Si atom -5603.458276 kJ/mol
# Density = 2.614928 g / cm^3
# Si number density = 26.208930 Si / 1000 Ang^3
#
#
#
# Elastic Constant Matrix: (Units=GPa)
#
#
# Indices 1 2 3 4 5 6 
#
# 1 187.7630 41.0464 78.6085 0.0000 2.3203 0.0000
# 2 41.0464 100.1400 40.2532 0.0000 9.5565 0.0000
# 3 78.6085 40.2532 219.6326 0.0000 38.0976 0.0000
# 4 0.0000 0.0000 0.0000 12.6527 0.0000 0.1663
# 5 2.3203 9.5565 38.0976 0.0000 95.3019 0.0000
# 6 0.0000 0.0000 0.0000 0.1663 0.0000 11.8244
#
#
#
# Elastic Compliance Matrix: (Units=1/GPa)
#
#
# Indices 1 2 3 4 5 6 
#
# 1 0.006652 -0.001935 -0.002183 0.000000 0.000905 0.000000
# 2 -0.001935 0.011352 -0.001288 0.000000 -0.000576 0.000000
# 3 -0.002183 -0.001288 0.005951 0.000000 -0.002197 0.000000
# 4 0.000000 0.000000 0.000000 0.079049 0.000000 -0.001112
# 5 0.000905 -0.000576 -0.002197 0.000000 0.011407 0.000000
# 6 0.000000 0.000000 0.000000 -0.001112 0.000000 0.084587
#
#
# Mechanical properties :
#
#
# Convention : Reuss Voigt Hill
#
# Bulk Modulus (GPa) = 76.08725 91.92800 84.00763
# Shear Modulus (GPa) = 23.34362 47.13096 35.23729
#
# Velocity S-wave (km/s) = 2.98765 4.24521 3.67069
# Velocity P-wave (km/s) = 6.40277 7.69287 7.07728
#
# Compressibility (1/GPa) = 0.01314281
#
# Stress axis : x y z
#
# Youngs Moduli (GPa) = 150.33838 88.09030 168.02617
#
# Poissons Ratio (x) = 0.17048 0.36679
# Poissons Ratio (y) = 0.29095 0.21640
# Poissons Ratio (z) = 0.32818 0.11345
#
# Static dielectric constant tensor:
#      x y z
#    x 2.145760 0.000000 0.059900 
#    y 0.000000 2.062190 0.000000 
#    z 0.059900 0.000000 2.121250 
# 
# From -- ./inp_files/15660.got.cif
#   From: 2010.05.17/outbox.cif.g08.bks.cpg/sg12_8_cif.got.tgz:15660.got - 2010.06.03 13:09:07.
