data_PCOD9222078
_publ_section_title
;
Structure prediction by ZEFSAII (Michael W. Deem and Ramdas Pophale) SiO2 
 PCOD9222078
Probable space group: C 2/M
;
_chemical_formula_sum "Si O2"
_cell_formula_units_Z 36
_cell_length_a 12.769008
_cell_length_b 23.489989
_cell_length_c 9.524498
_cell_angle_alpha 90.000000
_cell_angle_beta 139.722750
_cell_angle_gamma 90.000000
_cell_volume 1846.893265
_symmetry_space_group_name_H-M "C 2/M"
_symmetry_group_IT_number 12
_symmetry_cell_setting 'monoclinic'
loop_
_space_group_symop_operation_xyz
x,y,z
-x,y,-z
-x,-y,-z
x,-y,z
1/2+x,1/2+y,z
1/2-x,1/2+y,-z
1/2-x,1/2-y,-z
1/2+x,1/2-y,z
loop_
_atom_site_type_symbol
_atom_site_label
_atom_site_fract_x
_atom_site_fract_y
_atom_site_fract_z
Si Si1 0.752803 0.564184 0.720687
Si Si2 0.500000 0.352778 0.000000
Si Si3 0.063569 0.935377 0.802284
Si Si4 0.338212 0.213088 0.413962
Si Si5 0.854882 0.685081 0.754650
O O1 0.819244 0.500000 0.779450
O O2 0.593230 0.564255 0.459205
O O3 0.706240 0.576168 0.835620
O O4 0.849215 0.617462 0.761392
O O5 0.538259 0.391552 0.902307
O O6 0.331864 0.318394 0.797903
O O7 0.085044 0.000000 0.879013
O O8 0.500000 0.194372 0.500000
O O9 0.303491 0.280464 0.355961
O O10 0.373607 0.202726 0.613438
O O11 0.000000 0.705352 0.000000
#
# Coordination Sequence:
#
# PCOD9222078 Si02
#       5
#     8   4   8   8   8
#     4   9  19  37  61  92 122 162 215 259 303 371
#     4  12  21  42  66  94 129 170 202 260 316 376
#     4   9  19  35  63  93 123 164 211 257 312 369
#     4  11  27  43  62  97 130 162 212 259 314 375
#     4  11  24  43  64  91 126 169 208 259 316 367
#
# _framework density 19.492193
#
# number of rings (size 3 to 8) (size 9 to 14) (size 15 to 20)
#    0.000    1.778    3.333    1.667    6.222    1.333 
#    0.000    0.000    0.000    3.333    0.000    0.000 
#    0.000    0.000    0.000    0.000    0.000    0.000 
#
# Total GULP energy -100307.961812 kJ/mol
# GULP energy per Si atom -5572.664545 kJ/mol
# Density = 1.944783 g / cm^3
# Si number density = 19.492193 Si / 1000 Ang^3
#
#
#
# Elastic Constant Matrix: (Units=GPa)
#
#
# Indices 1 2 3 4 5 6 
#
# 1 67.0313 35.9171 53.1361 0.0000 -2.8855 0.0000
# 2 35.9171 102.8504 38.8060 0.0000 -11.3446 0.0000
# 3 53.1361 38.8060 117.0547 0.0000 -5.9799 0.0000
# 4 0.0000 0.0000 0.0000 27.9206 0.0000 -6.3689
# 5 -2.8855 -11.3446 -5.9799 0.0000 25.4373 0.0000
# 6 0.0000 0.0000 0.0000 -6.3689 0.0000 23.7626
#
#
#
# Elastic Compliance Matrix: (Units=1/GPa)
#
#
# Indices 1 2 3 4 5 6 
#
# 1 0.025599 -0.005397 -0.009925 0.000000 -0.001837 0.000000
# 2 -0.005397 0.012699 -0.001520 0.000000 0.004694 0.000000
# 3 -0.009925 -0.001520 0.013624 0.000000 0.001399 0.000000
# 4 0.000000 0.000000 0.000000 0.038148 0.000000 0.010225
# 5 -0.001837 0.004694 0.001399 0.000000 0.041526 0.000000
# 6 0.000000 0.000000 0.000000 0.010225 0.000000 0.044823
#
#
# Mechanical properties :
#
#
# Convention : Reuss Voigt Hill
#
# Bulk Modulus (GPa) = 54.83387 60.29497 57.56442
# Shear Modulus (GPa) = 23.12851 26.02925 24.57888
#
# Velocity S-wave (km/s) = 3.44837 3.65823 3.55485
# Velocity P-wave (km/s) = 6.63681 6.98882 6.81509
#
# Compressibility (1/GPa) = 0.01823690
#
# Stress axis : x y z
#
# Youngs Moduli (GPa) = 39.06405 78.74626 73.40116
#
# Poissons Ratio (x) = 0.42503 0.72850
# Poissons Ratio (y) = 0.21085 0.11157
# Poissons Ratio (z) = 0.38771 0.11970
#
# Static dielectric constant tensor:
#      x y z
#    x 1.729780 0.000000 0.070280 
#    y 0.000000 1.711780 0.000000 
#    z 0.070280 0.000000 1.695340 
# 
# From -- ./inp_files/50348.got.cif
#   From: 2010.05.17/outbox.cif.g08.bks.cpg/sg12_26_cif.got.tgz:50348.got - 2010.06.03 13:09:07.
