data_PCOD9222106
_publ_section_title
;
Structure prediction by ZEFSAII (Michael W. Deem and Ramdas Pophale) SiO2 
 PCOD9222106
Probable space group: C 2/M
;
_chemical_formula_sum "Si O2"
_cell_formula_units_Z 44
_cell_length_a 32.587614
_cell_length_b 11.500420
_cell_length_c 19.958666
_cell_angle_alpha 90.000000
_cell_angle_beta 162.280784
_cell_angle_gamma 90.000000
_cell_volume 2276.537034
_symmetry_space_group_name_H-M "C 2/M"
_symmetry_group_IT_number 12
_symmetry_cell_setting 'monoclinic'
loop_
_space_group_symop_operation_xyz
x,y,z
-x,y,-z
-x,-y,-z
x,-y,z
1/2+x,1/2+y,z
1/2-x,1/2+y,-z
1/2-x,1/2-y,-z
1/2+x,1/2-y,z
loop_
_atom_site_type_symbol
_atom_site_label
_atom_site_fract_x
_atom_site_fract_y
_atom_site_fract_z
Si Si1 0.622172 0.264439 0.994345
Si Si2 0.848538 0.638938 0.447077
Si Si3 0.156614 0.500000 0.226973
Si Si4 0.484105 0.500000 0.554465
Si Si5 0.831187 0.500000 0.912374
Si Si6 0.615474 0.719068 0.831724
Si Si7 0.682972 0.719068 0.466721
O O1 0.651553 0.308894 0.965061
O O2 0.475465 0.308894 0.788973
O O3 0.737664 0.303241 0.225328
O O4 0.612620 0.123255 0.975240
O O5 0.842055 0.500000 0.434109
O O6 0.817893 0.684933 0.474902
O O7 0.996125 0.684933 0.653133
O O8 0.157800 0.500000 0.149578
O O9 0.233947 0.611374 0.375153
O O10 0.000000 0.500000 0.000000
O O11 0.500000 0.500000 0.500000
O O12 0.325755 0.500000 0.317532
O O13 0.548464 0.611374 0.689669
O O14 0.750000 0.750000 0.000000
O O15 0.750000 0.750000 0.500000
#
# Coordination Sequence:
#
# PCOD9222106 Si02
#       7
#     8   8   4   4   4   8   8
#     4  11  24  43  68  95 138 176 228 281 342 401
#     4  11  26  45  67  99 141 182 223 283 357 405
#     4  12  24  44  70  98 135 178 239 280 332 411
#     4  12  24  44  70  98 135 178 239 280 332 411
#     4  12  20  44  70  90 128 186 222 280 334 402
#     4  11  26  43  68 103 135 180 234 282 343 410
#     4  11  26  43  68 103 135 180 234 282 343 410
#
# _framework density 19.327601000000001
#
# number of rings (size 3 to 8) (size 9 to 14) (size 15 to 20)
#    0.000    0.727    3.636    3.273   10.182    0.000 
#    0.000    1.818    0.000    0.000    0.000    0.000 
#    0.000    0.000    0.000    0.000    0.000    0.000 
#
# Total GULP energy -122932.624630 kJ/mol
# GULP energy per Si atom -5587.846574 kJ/mol
# Density = 1.928361 g / cm^3
# Si number density = 19.327601 Si / 1000 Ang^3
#
#
#
# Elastic Constant Matrix: (Units=GPa)
#
#
# Indices 1 2 3 4 5 6 
#
# 1 198.5016 42.9485 73.1103 0.0000 8.7133 0.0000
# 2 42.9485 142.0185 44.7962 0.0000 -0.8461 0.0000
# 3 73.1103 44.7962 149.3652 0.0000 13.7875 0.0000
# 4 0.0000 0.0000 0.0000 45.3074 0.0000 -10.3729
# 5 8.7133 -0.8461 13.7875 0.0000 50.8584 0.0000
# 6 0.0000 0.0000 0.0000 -10.3729 0.0000 22.6551
#
#
#
# Elastic Compliance Matrix: (Units=1/GPa)
#
#
# Indices 1 2 3 4 5 6 
#
# 1 0.006284 -0.001041 -0.002731 0.000000 -0.000354 0.000000
# 2 -0.001041 0.007980 -0.001961 0.000000 0.000843 0.000000
# 3 -0.002731 -0.001961 0.008800 0.000000 -0.001950 0.000000
# 4 0.000000 0.000000 0.000000 0.024656 0.000000 0.011289
# 5 -0.000354 0.000843 -0.001950 0.000000 0.020266 0.000000
# 6 0.000000 0.000000 0.000000 0.011289 0.000000 0.049309
#
#
# Mechanical properties :
#
#
# Convention : Reuss Voigt Hill
#
# Bulk Modulus (GPa) = 86.22960 90.17727 88.20344
# Shear Modulus (GPa) = 37.69927 45.69954 41.69940
#
# Velocity S-wave (km/s) = 4.42128 4.86786 4.64993
# Velocity P-wave (km/s) = 8.41280 8.85174 8.63506
#
# Compressibility (1/GPa) = 0.01159695
#
# Stress axis : x y z
#
# Youngs Moduli (GPa) = 159.12278 125.31479 113.63454
#
# Poissons Ratio (x) = 0.13047 0.31036
# Poissons Ratio (y) = 0.16567 0.22289
# Poissons Ratio (z) = 0.43459 0.24580
#
# Static dielectric constant tensor:
#      x y z
#    x 1.656530 0.000000 -0.008040 
#    y 0.000000 1.830180 0.000000 
#    z -0.008040 0.000000 1.674090 
# 
# From -- ./inp_files/296579.got.cif
#   From: 2010.05.17/outbox.cif.g08.bks.cpg/sg12_149_cif.got.tgz:296579.got - 2010.06.03 13:09:07.
