data_PCOD9222859
_publ_section_title
;
Structure prediction by ZEFSAII (Michael W. Deem and Ramdas Pophale) SiO2 
 PCOD9222859
Probable space group: C 2/M
;
_chemical_formula_sum "Si O2"
_cell_formula_units_Z 64
_cell_length_a 14.002972
_cell_length_b 9.275023
_cell_length_c 23.464388
_cell_angle_alpha 90.000000
_cell_angle_beta 109.811121
_cell_angle_gamma 90.000000
_cell_volume 2867.138559
_symmetry_space_group_name_H-M "C 2/M"
_symmetry_group_IT_number 12
_symmetry_cell_setting 'monoclinic'
loop_
_space_group_symop_operation_xyz
x,y,z
-x,y,-z
-x,-y,-z
x,-y,z
1/2+x,1/2+y,z
1/2-x,1/2+y,-z
1/2-x,1/2-y,-z
1/2+x,1/2-y,z
loop_
_atom_site_type_symbol
_atom_site_label
_atom_site_fract_x
_atom_site_fract_y
_atom_site_fract_z
Si Si1 0.498213 0.671532 0.328840
Si Si2 0.100167 0.175303 0.805217
Si Si3 0.409716 0.165346 0.551359
Si Si4 0.687215 0.828618 0.308498
Si Si5 0.475858 0.661406 0.935859
Si Si6 0.684547 0.335692 0.565392
Si Si7 0.704204 0.660952 0.937234
Si Si8 0.593143 0.168866 0.177297
O O1 0.499402 0.500000 0.337595
O O2 0.409371 0.705041 0.264751
O O3 0.513112 0.748065 0.392741
O O4 0.600531 0.725984 0.316824
O O5 0.191888 0.209730 0.868155
O O6 0.005380 0.265832 0.810908
O O7 0.085684 0.000000 0.807176
O O8 0.386787 0.233102 0.485267
O O9 0.297804 0.169561 0.559515
O O10 0.440556 0.000000 0.553931
O O11 0.789950 0.801669 0.363820
O O12 0.684011 0.810284 0.240170
O O13 0.661702 0.000000 0.313528
O O14 0.435401 0.500000 0.938793
O O15 0.585330 0.649192 0.929246
O O16 0.402993 0.747286 0.880500
O O17 0.500000 0.736717 0.000000
O O18 0.647939 0.500000 0.553408
O O19 0.749875 0.500000 0.946879
O O20 0.750000 0.750000 0.000000
O O21 0.580284 0.000000 0.164579
#
# Coordination Sequence:
#
# PCOD9222859 Si02
#       8
#     8   8   8   8   8   8   8   8
#     4   9  14  20  31  43  56  80 114 148 180 218
#     4   8  15  26  37  50  70  96 125 154 187 233
#     4   9  15  20  25  36  55  77 105 145 187 220
#     4   8  14  22  30  42  61  83 108 144 187 224
#     4   9  18  32  46  59  80 110 139 165 196 239
#     4   8  13  20  27  35  51  78 110 140 174 219
#     4   9  17  29  44  62  82 104 132 166 203 240
#     4   9  15  23  37  56  74  91 118 159 200 232
#
# _framework density 22.321905999999998
#
# number of rings (size 3 to 8) (size 9 to 14) (size 15 to 20)
#    0.000    3.375    0.000    2.625    0.000    6.250 
#    0.000    0.000    0.000    0.000    0.000    0.000 
#    0.000    0.000    0.000    0.000    0.000    1.250 
#
# Total GULP energy -178277.781672 kJ/mol
# GULP energy per Si atom -5571.180677 kJ/mol
# Density = 2.227110 g / cm^3
# Si number density = 22.321906 Si / 1000 Ang^3
#
#
#
# Elastic Constant Matrix: (Units=GPa)
#
#
# Indices 1 2 3 4 5 6 
#
# 1 60.2896 20.1442 17.2087 0.0000 17.9889 0.0000
# 2 20.1442 90.3502 115.1278 0.0000 17.7645 0.0000
# 3 17.2087 115.1278 286.1982 0.0000 7.8153 0.0000
# 4 0.0000 0.0000 0.0000 44.0692 0.0000 4.4642
# 5 17.9889 17.7645 7.8153 0.0000 22.5158 0.0000
# 6 0.0000 0.0000 0.0000 4.4642 0.0000 -7.0380
#
#
#
# Elastic Compliance Matrix: (Units=1/GPa)
#
#
# Indices 1 2 3 4 5 6 
#
# 1 0.022024 -0.001110 -0.000425 0.000000 -0.016572 0.000000
# 2 -0.001110 0.029081 -0.011135 0.000000 -0.018192 0.000000
# 3 -0.000425 -0.011135 0.007824 0.000000 0.006409 0.000000
# 4 0.000000 0.000000 0.000000 0.021322 0.000000 0.013524
# 5 -0.016572 -0.018192 0.006409 0.000000 0.069782 0.000000
# 6 0.000000 0.000000 0.000000 0.013524 0.000000 -0.133507
#
#
# Mechanical properties :
#
#
# Convention : Reuss Voigt Hill
#
# Bulk Modulus (GPa) = 29.77253 82.42215 56.09734
# Shear Modulus (GPa) = 94.23294 30.86657 62.54976
#
# Velocity S-wave (km/s) = 6.50439 3.72263 5.29929
# Velocity P-wave (km/s) = 8.35322 7.44861 7.91385
#
# Compressibility (1/GPa) = 0.03358801
#
# Stress axis : x y z
#
# Youngs Moduli (GPa) = 45.40577 34.38716 127.81676
#
# Poissons Ratio (x) = 0.03818 0.05433
# Poissons Ratio (y) = 0.05041 1.42319
# Poissons Ratio (z) = 0.01930 0.38289
#
# Static dielectric constant tensor:
#      x y z
#    x 0.743460 0.000000 0.050430 
#    y 0.000000 1.762610 0.000000 
#    z 0.050430 0.000000 1.884110 
# 
# From -- ./inp_files/367058.got.cif
#   From: 2010.05.17/outbox.cif.g08.bks.cpg/sg12_184_cif.got.tgz:367058.got - 2010.06.03 13:09:07.
