data_PCOD9222796
_publ_section_title
;
Structure prediction by ZEFSAII (Michael W. Deem and Ramdas Pophale) SiO2 
 PCOD9222796
Probable space group: C 2/M
;
_chemical_formula_sum "Si O2"
_cell_formula_units_Z 64
_cell_length_a 13.628150
_cell_length_b 7.696366
_cell_length_c 26.064817
_cell_angle_alpha 90.000000
_cell_angle_beta 119.802944
_cell_angle_gamma 90.000000
_cell_volume 2372.285057
_symmetry_space_group_name_H-M "C 2/M"
_symmetry_group_IT_number 12
_symmetry_cell_setting 'monoclinic'
loop_
_space_group_symop_operation_xyz
x,y,z
-x,y,-z
-x,-y,-z
x,-y,z
1/2+x,1/2+y,z
1/2-x,1/2+y,-z
1/2-x,1/2-y,-z
1/2+x,1/2-y,z
loop_
_atom_site_type_symbol
_atom_site_label
_atom_site_fract_x
_atom_site_fract_y
_atom_site_fract_z
Si Si1 0.157257 0.794086 0.193882
Si Si2 0.471315 0.701303 0.698838
Si Si3 0.178045 0.298846 0.684785
Si Si4 0.186895 0.712190 0.050047
Si Si5 0.329743 0.692847 0.569083
Si Si6 0.363554 0.296272 0.173071
Si Si7 0.479549 0.206689 0.073657
Si Si8 0.945248 0.806368 0.438345
O O1 0.199282 0.749702 0.262066
O O2 0.253558 0.710238 0.182841
O O3 0.032027 0.750403 0.142482
O O4 0.166844 0.000000 0.189982
O O5 0.438336 0.500000 0.701360
O O6 0.583361 0.695994 0.691480
O O7 0.374682 0.778127 0.635050
O O8 0.532304 0.777798 0.766078
O O9 0.157950 0.500000 0.691838
O O10 0.154501 0.275058 0.619241
O O11 0.195025 0.500000 0.051391
O O12 0.302902 0.779708 0.105908
O O13 0.084101 0.755970 0.062832
O O14 0.134569 0.778112 0.982425
O O15 0.288468 0.500000 0.571556
O O16 0.250000 0.750000 0.500000
O O17 0.449332 0.679780 0.571569
O O18 0.389428 0.500000 0.170864
O O19 0.470609 0.000000 0.068702
O O20 0.000000 0.709021 0.500000
O O21 0.907446 0.000000 0.445469
#
# Coordination Sequence:
#
# PCOD9222796 Si02
#       8
#     8   8   8   8   8   8   8   8
#     4   9  15  20  26  40  61  82 107 141 178 214
#     4   8  14  24  37  51  67  91 124 156 185 222
#     4   9  16  24  35  52  72  92 117 152 191 228
#     4   7  10  16  26  38  50  69 103 144 179 209
#     4   9  17  28  42  61  82 103 128 158 194 233
#     4   8  12  20  32  41  53  78 111 146 181 214
#     4   8  12  18  26  35  50  75 107 140 174 213
#     4   9  18  32  47  61  78 101 131 165 196 229
#
# _framework density 26.978210000000001
#
# number of rings (size 3 to 8) (size 9 to 14) (size 15 to 20)
#    0.000    3.625    0.000    3.000    0.000    3.750 
#    0.000    5.000    0.000    0.000    0.000    0.000 
#    0.000    0.000    0.000    0.000    0.000    1.250 
#
# Total GULP energy -178312.369899 kJ/mol
# GULP energy per Si atom -5572.261559 kJ/mol
# Density = 2.691681 g / cm^3
# Si number density = 26.978210 Si / 1000 Ang^3
#
#
#
# Elastic Constant Matrix: (Units=GPa)
#
#
# Indices 1 2 3 4 5 6 
#
# 1 104.4720 4.2757 40.3521 0.0000 30.3037 0.0000
# 2 4.2757 49.9931 26.4979 0.0000 9.7424 0.0000
# 3 40.3521 26.4979 363.7599 0.0000 49.0421 0.0000
# 4 0.0000 0.0000 0.0000 22.3847 0.0000 4.8527
# 5 30.3037 9.7424 49.0421 0.0000 45.0489 0.0000
# 6 0.0000 0.0000 0.0000 4.8527 0.0000 -1.7644
#
#
#
# Elastic Compliance Matrix: (Units=1/GPa)
#
#
# Indices 1 2 3 4 5 6 
#
# 1 0.011938 0.000673 -0.000318 0.000000 -0.007831 0.000000
# 2 0.000673 0.021282 -0.001106 0.000000 -0.003852 0.000000
# 3 -0.000318 -0.001106 0.003286 0.000000 -0.003125 0.000000
# 4 0.000000 0.000000 0.000000 0.027987 0.000000 0.076973
# 5 -0.007831 -0.003852 -0.003125 0.000000 0.031700 0.000000
# 6 0.000000 0.000000 0.000000 0.076973 0.000000 -0.355061
#
#
# Mechanical properties :
#
#
# Convention : Reuss Voigt Hill
#
# Bulk Modulus (GPa) = 28.56626 73.38628 50.97627
# Shear Modulus (GPa) = -20.35008 42.94045 11.29519
#
# Velocity S-wave (km/s) = -2.74946 3.99390 2.04838
# Velocity P-wave (km/s) = 0.72956 6.96631 4.95286
#
# Compressibility (1/GPa) = 0.03500634
#
# Stress axis : x y z
#
# Youngs Moduli (GPa) = 83.76280 46.98848 304.31189
#
# Poissons Ratio (x) = -0.03164 0.09667
# Poissons Ratio (y) = -0.05640 0.33647
# Poissons Ratio (z) = 0.02661 0.05195
#
# Static dielectric constant tensor:
#      x y z
#    x 2.276780 0.000000 -0.099290 
#    y 0.000000 2.045050 0.000000 
#    z -0.099290 0.000000 2.301330 
# 
# From -- ./inp_files/365231.got.cif
#   From: 2010.05.17/outbox.cif.g08.bks.cpg/sg12_183_cif.got.tgz:365231.got - 2010.06.03 13:09:07.
