data_PCOD9222025
_publ_section_title
;
Structure prediction by ZEFSAII (Michael W. Deem and Ramdas Pophale) SiO2 
 PCOD9222025
Probable space group: C 2/M
;
_chemical_formula_sum "Si O2"
_cell_formula_units_Z 32
_cell_length_a 14.193288
_cell_length_b 25.438648
_cell_length_c 12.020565
_cell_angle_alpha 90.000000
_cell_angle_beta 160.168180
_cell_angle_gamma 90.000000
_cell_volume 1472.431470
_symmetry_space_group_name_H-M "C 2/M"
_symmetry_group_IT_number 12
_symmetry_cell_setting 'monoclinic'
loop_
_space_group_symop_operation_xyz
x,y,z
-x,y,-z
-x,-y,-z
x,-y,z
1/2+x,1/2+y,z
1/2-x,1/2+y,-z
1/2-x,1/2-y,-z
1/2+x,1/2-y,z
loop_
_atom_site_type_symbol
_atom_site_label
_atom_site_fract_x
_atom_site_fract_y
_atom_site_fract_z
Si Si1 0.217218 0.059373 0.842220
Si Si2 0.012758 0.231224 0.376173
Si Si3 0.241342 0.881006 0.547439
Si Si4 0.208175 0.341358 0.629098
O O1 0.000000 0.058220 0.500000
O O2 0.027465 0.083141 0.729741
O O3 0.313047 0.000000 0.972091
O O4 0.475185 0.094820 0.090944
O O5 0.000000 0.225217 0.500000
O O6 0.142518 0.176452 0.479616
O O7 0.212565 0.281384 0.590021
O O8 0.750000 0.250000 0.000000
O O9 0.339004 0.876773 0.528784
O O10 0.000000 0.344008 0.500000
O O11 0.500000 0.356251 0.000000
#
# Coordination Sequence:
#
# PCOD9222025 Si02
#       4
#     8   8   8   8
#     4  11  25  43  65  96 132 169 218 284 348 401
#     4  11  24  43  66 102 143 180 224 273 331 406
#     4  12  23  41  69  96 128 177 226 272 333 409
#     4  11  24  42  63  93 134 174 214 267 331 399
#
# _framework density 21.732759999999999
#
# number of rings (size 3 to 8) (size 9 to 14) (size 15 to 20)
#    0.000    0.750    0.000    9.000    0.000   10.000 
#    0.000    0.000    0.000   15.000    0.000    0.000 
#    0.000    0.000    0.000    0.000    0.000    0.000 
#
# Total GULP energy -89185.063039 kJ/mol
# GULP energy per Si atom -5574.066440 kJ/mol
# Density = 2.168330 g / cm^3
# Si number density = 21.732760 Si / 1000 Ang^3
#
#
#
# Elastic Constant Matrix: (Units=GPa)
#
#
# Indices 1 2 3 4 5 6 
#
# 1 132.5917 73.6483 48.8350 0.0007 2.6832 -0.0025
# 2 73.6483 87.8733 48.2844 -0.0009 7.1272 -0.0035
# 3 48.8350 48.2844 103.9055 0.0082 7.8450 0.0025
# 4 0.0007 -0.0009 0.0082 37.9188 0.0025 29.6507
# 5 2.6832 7.1272 7.8450 0.0025 40.6226 -0.0005
# 6 -0.0025 -0.0035 0.0025 29.6507 -0.0005 68.5180
#
#
#
# Elastic Compliance Matrix: (Units=1/GPa)
#
#
# Indices 1 2 3 4 5 6 
#
# 1 0.014365 -0.011257 -0.001621 0.000000 0.001339 0.000000
# 2 -0.011257 0.024175 -0.005763 0.000002 -0.002385 0.000000
# 3 -0.001621 -0.005763 0.013172 -0.000003 -0.001426 0.000001
# 4 0.000000 0.000002 -0.000003 0.039860 -0.000002 -0.017249
# 5 0.001339 -0.002385 -0.001426 -0.000002 0.025222 0.000001
# 6 0.000000 0.000000 0.000001 -0.017249 0.000001 0.022059
#
#
# Mechanical properties :
#
#
# Convention : Reuss Voigt Hill
#
# Bulk Modulus (GPa) = 69.30776 73.98954 71.64865
# Shear Modulus (GPa) = 27.63257 39.65208 33.64233
#
# Velocity S-wave (km/s) = 3.56964 4.27609 3.93873
# Velocity P-wave (km/s) = 6.99642 7.64846 7.32969
#
# Compressibility (1/GPa) = 0.01442840
#
# Stress axis : x y z
#
# Youngs Moduli (GPa) = 69.61457 41.36502 75.91927
#
# Poissons Ratio (x) = 0.46565 0.12309
# Poissons Ratio (y) = 0.78366 0.43753
# Poissons Ratio (z) = 0.11287 0.23839
#
# Static dielectric constant tensor:
#      x y z
#    x 1.862820 0.000000 -0.057780 
#    y 0.000000 1.792300 0.000000 
#    z -0.057780 0.000000 1.846670 
# 
# From -- ./inp_files/149591.got.cif
#   From: 2010.05.17/outbox.cif.g08.bks.cpg/sg12_75_cif.got.tgz:149591.got - 2010.06.03 13:09:07.
