data_PCOD9222664
_publ_section_title
;
Structure prediction by ZEFSAII (Michael W. Deem and Ramdas Pophale) SiO2 
 PCOD9222664
Probable space group: C 2/M
;
_chemical_formula_sum "Si O2"
_cell_formula_units_Z 36
_cell_length_a 8.313932
_cell_length_b 29.312783
_cell_length_c 8.044482
_cell_angle_alpha 90.000000
_cell_angle_beta 117.277216
_cell_angle_gamma 90.000000
_cell_volume 1742.470483
_symmetry_space_group_name_H-M "C 2/M"
_symmetry_group_IT_number 12
_symmetry_cell_setting 'monoclinic'
loop_
_space_group_symop_operation_xyz
x,y,z
-x,y,-z
-x,-y,-z
x,-y,z
1/2+x,1/2+y,z
1/2-x,1/2+y,-z
1/2-x,1/2-y,-z
1/2+x,1/2-y,z
loop_
_atom_site_type_symbol
_atom_site_label
_atom_site_fract_x
_atom_site_fract_y
_atom_site_fract_z
Si Si1 0.000000 0.820106 0.000000
Si Si2 0.495326 0.073055 0.698499
Si Si3 0.550167 0.737725 0.354834
Si Si4 0.292818 0.500000 0.448837
Si Si5 0.709375 0.500000 0.152204
Si Si6 0.589218 0.170200 0.862529
O O1 0.033665 0.790628 0.180787
O O2 0.196079 0.841890 0.049039
O O3 0.500000 0.073781 0.500000
O O4 0.671463 0.044322 0.842120
O O5 0.490656 0.124491 0.757378
O O6 0.319643 0.043864 0.665318
O O7 0.500000 0.711304 0.500000
O O8 0.750000 0.750000 0.500000
O O9 0.444640 0.785150 0.267661
O O10 0.500000 0.500000 0.500000
O O11 0.285139 0.500000 0.645042
O O12 0.500000 0.500000 0.000000
O O13 0.500000 0.181837 0.000000
#
# Coordination Sequence:
#
# PCOD9222664 Si02
#       6
#     4   8   8   4   4   8
#     4  12  26  46  66  97 140 175 232 282 330 406
#     4   9  21  41  61  91 129 170 208 269 331 392
#     4  12  23  43  71  93 129 185 225 276 346 389
#     4   9  19  41  66  90 126 167 216 262 324 410
#     4   9  19  37  66  88 126 164 205 261 333 386
#     4  12  25  43  65  97 137 169 225 282 326 401
#
# _framework density 20.660319999999999
#
# number of rings (size 3 to 8) (size 9 to 14) (size 15 to 20)
#    0.000    1.333    3.333    4.000    1.556    1.778 
#    4.000    3.333    0.000    0.000    0.000    0.000 
#    0.000    0.000    0.000    0.000    0.000    0.000 
#
# Total GULP energy -100319.434223 kJ/mol
# GULP energy per Si atom -5573.301901 kJ/mol
# Density = 2.061330 g / cm^3
# Si number density = 20.660320 Si / 1000 Ang^3
#
#
#
# Elastic Constant Matrix: (Units=GPa)
#
#
# Indices 1 2 3 4 5 6 
#
# 1 119.5148 19.2900 32.7832 0.0000 10.9431 0.0000
# 2 19.2900 76.0378 25.7159 0.0000 -4.1635 0.0000
# 3 32.7832 25.7159 97.6552 0.0000 0.5065 0.0000
# 4 0.0000 0.0000 0.0000 47.0154 0.0000 12.3758
# 5 10.9431 -4.1635 0.5065 0.0000 49.2459 0.0000
# 6 0.0000 0.0000 0.0000 12.3758 0.0000 15.1366
#
#
#
# Elastic Compliance Matrix: (Units=1/GPa)
#
#
# Indices 1 2 3 4 5 6 
#
# 1 0.009597 -0.001616 -0.002785 0.000000 -0.002240 0.000000
# 2 -0.001616 0.014788 -0.003360 0.000000 0.001644 0.000000
# 3 -0.002785 -0.003360 0.012059 0.000000 0.000211 0.000000
# 4 0.000000 0.000000 0.000000 0.027103 0.000000 -0.022159
# 5 -0.002240 0.001644 0.000211 0.000000 0.020941 0.000000
# 6 0.000000 0.000000 0.000000 -0.022159 0.000000 0.084182
#
#
# Mechanical properties :
#
#
# Convention : Reuss Voigt Hill
#
# Bulk Modulus (GPa) = 47.79590 49.86514 48.83052
# Shear Modulus (GPa) = 26.15554 36.64085 31.39820
#
# Velocity S-wave (km/s) = 3.56192 4.21585 3.90261
# Velocity P-wave (km/s) = 6.33252 6.91997 6.63275
#
# Compressibility (1/GPa) = 0.02092230
#
# Stress axis : x y z
#
# Youngs Moduli (GPa) = 104.20030 67.62404 82.92760
#
# Poissons Ratio (x) = 0.10925 0.23093
# Poissons Ratio (y) = 0.16834 0.27866
# Poissons Ratio (z) = 0.29016 0.22724
#
# Static dielectric constant tensor:
#      x y z
#    x 1.800490 0.000000 -0.003140 
#    y 0.000000 1.741980 0.000000 
#    z -0.003140 0.000000 1.735160 
# 
# From -- ./inp_files/42013.got.cif
#   From: 2010.05.17/outbox.cif.g08.bks.cpg/sg12_22_cif.got.tgz:42013.got - 2010.06.03 13:09:07.
