data_PCOD9222016
_publ_section_title
;
Structure prediction by ZEFSAII (Michael W. Deem and Ramdas Pophale) SiO2 
 PCOD9222016
Probable space group: C 2/M
;
_chemical_formula_sum "Si O2"
_cell_formula_units_Z 44
_cell_length_a 11.793416
_cell_length_b 22.160534
_cell_length_c 9.679580
_cell_angle_alpha 90.000000
_cell_angle_beta 64.121987
_cell_angle_gamma 90.000000
_cell_volume 2276.073603
_symmetry_space_group_name_H-M "C 2/M"
_symmetry_group_IT_number 12
_symmetry_cell_setting 'monoclinic'
loop_
_space_group_symop_operation_xyz
x,y,z
-x,y,-z
-x,-y,-z
x,-y,z
1/2+x,1/2+y,z
1/2-x,1/2+y,-z
1/2-x,1/2-y,-z
1/2+x,1/2-y,z
loop_
_atom_site_type_symbol
_atom_site_label
_atom_site_fract_x
_atom_site_fract_y
_atom_site_fract_z
Si Si1 0.896684 0.210295 0.314180
Si Si2 0.497524 0.931202 0.333590
Si Si3 0.884880 0.338595 0.172014
Si Si4 0.500000 0.225265 0.500000
Si Si5 0.212045 0.357184 0.254882
Si Si6 0.820078 0.813521 0.927576
O O1 0.869404 0.271180 0.241479
O O2 0.905336 0.233265 0.465351
O O3 0.796122 0.157149 0.343998
O O4 0.037794 0.192719 0.196091
O O5 0.500000 0.922660 0.500000
O O6 0.417620 0.886085 0.277471
O O7 0.645086 0.917125 0.235503
O O8 0.462146 0.000000 0.323438
O O9 0.761068 0.348021 0.145130
O O10 0.000000 0.339204 0.000000
O O11 0.410484 0.186804 0.652097
O O12 0.308943 0.342795 0.082689
O O13 0.750000 0.750000 0.000000
#
# Coordination Sequence:
#
# PCOD9222016 Si02
#       6
#     8   8   8   4   8   8
#     4  12  22  33  57  88 126 158 183 240 310 367
#     4  11  24  42  61  84 117 159 207 256 295 338
#     4  12  19  35  58  86 118 152 198 240 291 353
#     4  12  20  34  51  90 121 154 196 240 296 370
#     4  12  21  36  57  85 118 154 198 243 299 358
#     4  12  20  35  54  86 124 158 190 235 304 362
#
# _framework density 19.331536
#
# number of rings (size 3 to 8) (size 9 to 14) (size 15 to 20)
#    0.000    0.182   10.000    1.091    0.000    1.818 
#    0.000    0.000    0.000    3.273    0.000    3.182 
#    0.000    0.000    0.000    0.000    0.000    0.000 
#
# Total GULP energy -122510.089758 kJ/mol
# GULP energy per Si atom -5568.640444 kJ/mol
# Density = 1.928754 g / cm^3
# Si number density = 19.331536 Si / 1000 Ang^3
#
#
#
# Elastic Constant Matrix: (Units=GPa)
#
#
# Indices 1 2 3 4 5 6 
#
# 1 103.1990 24.3617 14.5497 0.0000 12.5510 0.0000
# 2 24.3617 47.6581 14.8498 0.0000 12.5746 0.0000
# 3 14.5497 14.8498 65.7696 0.0000 8.1123 0.0000
# 4 0.0000 0.0000 0.0000 9.6224 0.0000 1.4548
# 5 12.5510 12.5746 8.1123 0.0000 43.1011 0.0000
# 6 0.0000 0.0000 0.0000 1.4548 0.0000 19.0972
#
#
#
# Elastic Compliance Matrix: (Units=1/GPa)
#
#
# Indices 1 2 3 4 5 6 
#
# 1 0.011217 -0.004947 -0.001167 0.000000 -0.001604 0.000000
# 2 -0.004947 0.026241 -0.004160 0.000000 -0.005432 0.000000
# 3 -0.001167 -0.004160 0.016596 0.000000 -0.001570 0.000000
# 4 0.000000 0.000000 0.000000 0.105135 0.000000 -0.008009
# 5 -0.001604 -0.005432 -0.001570 0.000000 0.025548 0.000000
# 6 0.000000 0.000000 0.000000 -0.008009 0.000000 0.052974
#
#
# Mechanical properties :
#
#
# Convention : Reuss Voigt Hill
#
# Bulk Modulus (GPa) = 29.84593 36.01657 32.93125
# Shear Modulus (GPa) = 18.55771 25.22184 21.88978
#
# Velocity S-wave (km/s) = 3.10170 3.61598 3.36867
# Velocity P-wave (km/s) = 5.31977 6.00876 5.67473
#
# Compressibility (1/GPa) = 0.03350540
#
# Stress axis : x y z
#
# Youngs Moduli (GPa) = 89.14682 38.10764 60.25651
#
# Poissons Ratio (x) = 0.18854 0.07030
# Poissons Ratio (y) = 0.44105 0.25069
# Poissons Ratio (z) = 0.10401 0.15854
#
# Static dielectric constant tensor:
#      x y z
#    x 1.960280 0.000000 -0.177000 
#    y 0.000000 1.726170 0.000000 
#    z -0.177000 0.000000 1.905530 
# 
# From -- ./inp_files/50529.got.cif
#   From: 2010.05.17/outbox.cif.g08.bks.cpg/sg12_26_cif.got.tgz:50529.got - 2010.06.03 13:09:07.
