data_PCOD9222387
_publ_section_title
;
Structure prediction by ZEFSAII (Michael W. Deem and Ramdas Pophale) SiO2 
 PCOD9222387
Probable space group: C 2/M
;
_chemical_formula_sum "Si O2"
_cell_formula_units_Z 30
_cell_length_a 10.102574
_cell_length_b 21.690788
_cell_length_c 11.414577
_cell_angle_alpha 90.000000
_cell_angle_beta 153.816399
_cell_angle_gamma 90.000000
_cell_volume 1103.699766
_symmetry_space_group_name_H-M "C 2/M"
_symmetry_group_IT_number 12
_symmetry_cell_setting 'monoclinic'
loop_
_space_group_symop_operation_xyz
x,y,z
-x,y,-z
-x,-y,-z
x,-y,z
1/2+x,1/2+y,z
1/2-x,1/2+y,-z
1/2-x,1/2-y,-z
1/2+x,1/2-y,z
loop_
_atom_site_type_symbol
_atom_site_label
_atom_site_fract_x
_atom_site_fract_y
_atom_site_fract_z
Si Si1 0.804261 0.403930 0.179608
Si Si2 0.820854 0.928602 0.190675
Si Si3 0.500000 0.334115 0.500000
Si Si4 0.601597 0.238224 0.757081
Si Si5 0.500000 0.000000 0.500000
O O1 0.846161 0.332075 0.237219
O O2 0.046699 0.446117 0.435766
O O3 0.500000 0.427885 0.000000
O O4 0.746903 0.414437 0.997614
O O5 0.059361 0.882690 0.441648
O O6 0.896237 0.000000 0.268975
O O7 0.500000 0.916991 0.000000
O O8 0.695391 0.284817 0.728155
O O9 0.250000 0.250000 0.500000
O O10 0.750000 0.250000 0.000000
#
# Coordination Sequence:
#
# PCOD9222387 Si02
#       5
#     8   8   4   8   2
#     4  12  28  52  82 120 167 220 288 351 430 511
#     4  11  25  48  74 113 158 212 276 350 421 503
#     4  12  26  44  80 104 158 204 276 340 416 488
#     4  12  29  50  82 119 167 220 278 346 428 508
#     4  12  28  48  82 116 174 224 284 350 438 504
#
# _framework density 27.181304000000001
#
# number of rings (size 3 to 8) (size 9 to 14) (size 15 to 20)
#    0.000    0.267    4.000    3.200    7.467    2.133 
#    0.000    0.000    0.000    0.000    0.000    0.000 
#    0.000    0.000    0.000    0.000    0.000    0.000 
#
# Total GULP energy -83853.765303 kJ/mol
# GULP energy per Si atom -5590.251020 kJ/mol
# Density = 2.711944 g / cm^3
# Si number density = 27.181304 Si / 1000 Ang^3
#
#
#
# Elastic Constant Matrix: (Units=GPa)
#
#
# Indices 1 2 3 4 5 6 
#
# 1 162.0742 33.9874 64.3306 0.0001 -47.5850 0.0004
# 2 33.9874 311.7321 65.0244 -0.0003 -57.1789 -0.0002
# 3 64.3306 65.0244 191.7345 -0.0010 -47.8914 0.0003
# 4 0.0001 -0.0003 -0.0010 186.1260 -0.0009 12.9731
# 5 -47.5850 -57.1789 -47.8914 -0.0009 82.9280 0.0000
# 6 0.0004 -0.0002 0.0003 12.9731 0.0000 63.2512
#
#
#
# Elastic Compliance Matrix: (Units=1/GPa)
#
#
# Indices 1 2 3 4 5 6 
#
# 1 0.007914 0.000179 -0.001812 0.000000 0.003618 0.000000
# 2 0.000179 0.003763 -0.000774 0.000000 0.002250 0.000000
# 3 -0.001812 -0.000774 0.006653 0.000000 0.002268 0.000000
# 4 0.000000 0.000000 0.000000 0.005451 0.000000 -0.001118
# 5 0.003618 0.002250 0.002268 0.000000 0.016996 0.000000
# 6 0.000000 0.000000 0.000000 -0.001118 0.000000 0.016039
#
#
# Mechanical properties :
#
#
# Convention : Reuss Voigt Hill
#
# Bulk Modulus (GPa) = 73.99635 110.24730 92.12183
# Shear Modulus (GPa) = 75.60312 99.94093 87.77202
#
# Velocity S-wave (km/s) = 5.27966 6.07026 5.68871
# Velocity P-wave (km/s) = 8.02800 9.47517 8.78144
#
# Compressibility (1/GPa) = 0.01351418
#
# Stress axis : x y z
#
# Youngs Moduli (GPa) = 126.35751 265.77937 150.31504
#
# Poissons Ratio (x) = -0.04751 0.27241
# Poissons Ratio (y) = -0.02259 0.11635
# Poissons Ratio (z) = 0.22900 0.20572
#
# Static dielectric constant tensor:
#      x y z
#    x 2.305690 0.000000 0.243380 
#    y 0.000000 2.047960 0.000000 
#    z 0.243380 0.000000 2.333310 
# 
# From -- ./inp_files/133611.got.cif
#   From: 2010.05.17/outbox.cif.g08.bks.cpg/sg12_67_cif.got.tgz:133611.got - 2010.06.03 13:09:07.
