data_PCOD9222267
_publ_section_title
;
Structure prediction by ZEFSAII (Michael W. Deem and Ramdas Pophale) SiO2 
 PCOD9222267
Probable space group: C 2/M
;
_chemical_formula_sum "Si O2"
_cell_formula_units_Z 40
_cell_length_a 8.967248
_cell_length_b 27.267376
_cell_length_c 10.200622
_cell_angle_alpha 90.000000
_cell_angle_beta 45.201116
_cell_angle_gamma 90.000000
_cell_volume 1769.837034
_symmetry_space_group_name_H-M "C 2/M"
_symmetry_group_IT_number 12
_symmetry_cell_setting 'monoclinic'
loop_
_space_group_symop_operation_xyz
x,y,z
-x,y,-z
-x,-y,-z
x,-y,z
1/2+x,1/2+y,z
1/2-x,1/2+y,-z
1/2-x,1/2-y,-z
1/2+x,1/2-y,z
loop_
_atom_site_type_symbol
_atom_site_label
_atom_site_fract_x
_atom_site_fract_y
_atom_site_fract_z
Si Si1 0.854802 0.308424 0.192680
Si Si2 0.000843 0.739991 0.318645
Si Si3 0.449057 0.053339 0.685517
Si Si4 0.317666 0.383197 0.506009
Si Si5 0.700204 0.350234 0.787587
O O1 0.003456 0.266078 0.159895
O O2 0.637051 0.286947 0.277060
O O3 0.815086 0.340338 0.344195
O O4 0.000000 0.335991 0.000000
O O5 0.750000 0.750000 0.500000
O O6 0.132222 0.694820 0.304314
O O7 0.500000 0.050461 0.500000
O O8 0.673947 0.068677 0.602646
O O9 0.297310 0.100068 0.791588
O O10 0.372130 0.000000 0.778600
O O11 0.500000 0.389349 0.500000
O O12 0.349426 0.366298 0.333883
O O13 0.500000 0.337483 0.000000
#
# Coordination Sequence:
#
# PCOD9222267 Si02
#       5
#     8   8   8   8   8
#     4  12  28  43  67 101 141 183 236 291 348 421
#     4  12  27  45  68  96 139 190 234 289 348 423
#     4   9  20  43  72 104 141 185 235 289 355 426
#     4  11  25  42  72 102 142 185 228 297 357 417
#     4  11  26  47  72 104 141 187 242 292 353 426
#
# _framework density 22.600950999999998
#
# number of rings (size 3 to 8) (size 9 to 14) (size 15 to 20)
#    0.000    1.000    2.000    3.000   11.200    0.800 
#    0.000    0.000    0.000    4.200    0.000    0.000 
#    0.000    0.000    0.000    0.000    0.000    0.000 
#
# Total GULP energy -111515.627218 kJ/mol
# GULP energy per Si atom -5575.781361 kJ/mol
# Density = 2.254951 g / cm^3
# Si number density = 22.600951 Si / 1000 Ang^3
#
#
#
# Elastic Constant Matrix: (Units=GPa)
#
#
# Indices 1 2 3 4 5 6 
#
# 1 163.2840 35.9373 43.8140 0.0000 -20.3847 0.0000
# 2 35.9373 130.3342 34.9122 0.0000 -18.1306 0.0000
# 3 43.8140 34.9122 132.3832 0.0000 -8.0484 0.0000
# 4 0.0000 0.0000 0.0000 16.3093 0.0000 -3.1707
# 5 -20.3847 -18.1306 -8.0484 0.0000 32.1575 0.0000
# 6 0.0000 0.0000 0.0000 -3.1707 0.0000 -4.0546
#
#
#
# Elastic Compliance Matrix: (Units=1/GPa)
#
#
# Indices 1 2 3 4 5 6 
#
# 1 0.007312 -0.000998 -0.001939 0.000000 0.003587 0.000000
# 2 -0.000998 0.008983 -0.001797 0.000000 0.003982 0.000000
# 3 -0.001939 -0.001797 0.008665 0.000000 -0.000073 0.000000
# 4 0.000000 0.000000 0.000000 0.053223 0.000000 -0.041621
# 5 0.003587 0.003982 -0.000073 0.000000 0.035598 0.000000
# 6 0.000000 0.000000 0.000000 -0.041621 0.000000 -0.214085
#
#
# Mechanical properties :
#
#
# Convention : Reuss Voigt Hill
#
# Bulk Modulus (GPa) = 64.54368 72.81427 68.67897
# Shear Modulus (GPa) = -58.36105 29.63828 -14.36138
#
# Velocity S-wave (km/s) = -5.08709 3.62522 -2.52351
# Velocity P-wave (km/s) = 2.42583 7.05764 4.68645
#
# Compressibility (1/GPa) = 0.01549338
#
# Stress axis : x y z
#
# Youngs Moduli (GPa) = 136.76200 111.32179 115.40885
#
# Poissons Ratio (x) = 0.11108 0.22375
# Poissons Ratio (y) = 0.13646 0.20735
# Poissons Ratio (z) = 0.26515 0.20001
#
# Static dielectric constant tensor:
#      x y z
#    x 1.952500 0.000000 -0.026160 
#    y 0.000000 1.984400 0.000000 
#    z -0.026160 0.000000 1.907100 
# 
# From -- ./inp_files/125009.got.cif
#   From: 2010.05.17/outbox.cif.g08.bks.cpg/sg12_63_cif.got.tgz:125009.got - 2010.06.03 13:09:07.
