data_PCOD9222081
_publ_section_title
;
Structure prediction by ZEFSAII (Michael W. Deem and Ramdas Pophale) SiO2 
 PCOD9222081
Probable space group: C 2/M
;
_chemical_formula_sum "Si O2"
_cell_formula_units_Z 40
_cell_length_a 14.895205
_cell_length_b 26.223399
_cell_length_c 5.194135
_cell_angle_alpha 90.000000
_cell_angle_beta 75.969151
_cell_angle_gamma 90.000000
_cell_volume 1968.314318
_symmetry_space_group_name_H-M "C 2/M"
_symmetry_group_IT_number 12
_symmetry_cell_setting 'monoclinic'
loop_
_space_group_symop_operation_xyz
x,y,z
-x,y,-z
-x,-y,-z
x,-y,z
1/2+x,1/2+y,z
1/2-x,1/2+y,-z
1/2-x,1/2-y,-z
1/2+x,1/2-y,z
loop_
_atom_site_type_symbol
_atom_site_label
_atom_site_fract_x
_atom_site_fract_y
_atom_site_fract_z
Si Si1 0.708005 0.778694 0.279919
Si Si2 0.000000 0.820434 0.000000
Si Si3 0.553491 0.937941 0.712811
Si Si4 0.500000 0.251620 0.500000
Si Si5 0.816512 0.118086 0.147351
Si Si6 0.733668 0.439174 0.334281
O O1 0.750000 0.750000 0.500000
O O2 0.596374 0.776885 0.371156
O O3 0.744336 0.836266 0.244088
O O4 0.750000 0.750000 0.000000
O O5 0.019843 0.786044 0.737136
O O6 0.088339 0.854967 0.995345
O O7 0.500000 0.919161 0.500000
O O8 0.661196 0.926152 0.655722
O O9 0.547898 0.000000 0.715237
O O10 0.500000 0.919122 0.000000
O O11 0.828085 0.086975 0.403718
O O12 0.784008 0.082436 0.936838
O O13 0.723242 0.500000 0.342370
#
# Coordination Sequence:
#
# PCOD9222081 Si02
#       6
#     8   4   8   4   8   8
#     4  12  23  43  70 104 137 172 223 275 340 415
#     4  12  24  42  73  96 130 182 229 264 352 412
#     4   9  17  33  58  83 112 160 215 261 319 388
#     4  12  22  44  70 100 140 182 210 278 350 408
#     4  12  24  43  67 100 131 176 229 277 332 406
#     4  11  24  43  65  92 135 180 225 283 332 379
#
# _framework density 20.321956
#
# number of rings (size 3 to 8) (size 9 to 14) (size 15 to 20)
#    0.000    0.800    4.000    4.200    0.000    3.200 
#    5.400    3.000    0.000    0.000    0.000    0.000 
#    0.000    0.000    0.000    0.000    0.000    0.000 
#
# Total GULP energy -111865.180890 kJ/mol
# GULP energy per Si atom -5593.259044 kJ/mol
# Density = 2.027570 g / cm^3
# Si number density = 20.321956 Si / 1000 Ang^3
#
#
#
# Elastic Constant Matrix: (Units=GPa)
#
#
# Indices 1 2 3 4 5 6 
#
# 1 90.7224 22.6858 11.4419 0.0000 -21.5414 0.0000
# 2 22.6858 100.8842 37.4463 0.0000 -6.1355 0.0000
# 3 11.4419 37.4463 127.5970 0.0000 8.9096 0.0000
# 4 0.0000 0.0000 0.0000 20.6163 0.0000 17.6753
# 5 -21.5414 -6.1355 8.9096 0.0000 44.1657 0.0000
# 6 0.0000 0.0000 0.0000 17.6753 0.0000 11.2595
#
#
#
# Elastic Compliance Matrix: (Units=1/GPa)
#
#
# Indices 1 2 3 4 5 6 
#
# 1 0.013204 -0.002223 -0.000973 0.000000 0.006328 0.000000
# 2 -0.002223 0.011720 -0.003325 0.000000 0.001215 0.000000
# 3 -0.000973 -0.003325 0.009094 0.000000 -0.002771 0.000000
# 4 0.000000 0.000000 0.000000 -0.140240 0.000000 0.220150
# 5 0.006328 0.001215 -0.002771 0.000000 0.026456 0.000000
# 6 0.000000 0.000000 0.000000 0.220150 0.000000 -0.256781
#
#
# Mechanical properties :
#
#
# Convention : Reuss Voigt Hill
#
# Bulk Modulus (GPa) = 47.67622 51.37240 49.52431
# Shear Modulus (GPa) = -15.79719 31.71693 7.95987
#
# Velocity S-wave (km/s) = -2.79112 3.95488 1.98126
# Velocity P-wave (km/s) = 3.62274 6.79624 5.44579
#
# Compressibility (1/GPa) = 0.02097482
#
# Stress axis : x y z
#
# Youngs Moduli (GPa) = 75.73629 85.32193 109.96510
#
# Poissons Ratio (x) = 0.18967 0.10705
# Poissons Ratio (y) = 0.16836 0.36564
# Poissons Ratio (z) = 0.07373 0.28370
#
# Static dielectric constant tensor:
#      x y z
#    x 1.714490 0.000000 -0.012090 
#    y 0.000000 1.701530 0.000000 
#    z -0.012090 0.000000 1.713800 
# 
# From -- ./inp_files/11545.got.cif
#   From: 2010.05.17/outbox.cif.g08.bks.cpg/sg12_6_cif.got.tgz:11545.got - 2010.06.03 13:09:07.
