data_PCOD9222576
_publ_section_title
;
Structure prediction by ZEFSAII (Michael W. Deem and Ramdas Pophale) SiO2 
 PCOD9222576
Probable space group: C 2/M
;
_chemical_formula_sum "Si O2"
_cell_formula_units_Z 36
_cell_length_a 13.441471
_cell_length_b 19.998957
_cell_length_c 6.809156
_cell_angle_alpha 90.000000
_cell_angle_beta 104.181521
_cell_angle_gamma 90.000000
_cell_volume 1774.623306
_symmetry_space_group_name_H-M "C 2/M"
_symmetry_group_IT_number 12
_symmetry_cell_setting 'monoclinic'
loop_
_space_group_symop_operation_xyz
x,y,z
-x,y,-z
-x,-y,-z
x,-y,z
1/2+x,1/2+y,z
1/2-x,1/2+y,-z
1/2-x,1/2-y,-z
1/2+x,1/2-y,z
loop_
_atom_site_type_symbol
_atom_site_label
_atom_site_fract_x
_atom_site_fract_y
_atom_site_fract_z
Si Si1 0.759259 0.174876 0.425940
Si Si2 0.441408 0.732055 0.284630
Si Si3 0.718086 0.422339 0.190617
Si Si4 0.500000 0.634244 0.000000
Si Si5 0.614015 0.141373 0.007538
O O1 0.750000 0.250000 0.500000
O O2 0.856347 0.181815 0.328850
O O3 0.768827 0.123669 0.609770
O O4 0.664579 0.157405 0.240814
O O5 0.500000 0.761888 0.500000
O O6 0.512615 0.684610 0.189160
O O7 0.397649 0.790067 0.124955
O O8 0.723864 0.500000 0.245709
O O9 0.605392 0.406886 0.045092
O O10 0.808090 0.403771 0.080456
O O11 0.500000 0.115078 0.000000
#
# Coordination Sequence:
#
# PCOD9222576 Si02
#       5
#     8   8   8   4   8
#     4  12  23  43  71 104 139 181 239 289 344 407
#     4  12  22  39  73 111 135 174 231 297 353 402
#     4  12  28  47  70 101 144 190 231 283 349 423
#     4  12  23  46  70 104 139 178 230 290 347 410
#     4  12  26  42  70 104 141 183 231 290 349 409
#
# _framework density 20.285993999999999
#
# number of rings (size 3 to 8) (size 9 to 14) (size 15 to 20)
#    0.000    0.000    7.778    3.667    0.000    1.333 
#    0.000    2.222    0.000    0.000    0.000    0.000 
#    0.000    0.000    0.000    0.000    0.000    0.000 
#
# Total GULP energy -100633.595280 kJ/mol
# GULP energy per Si atom -5590.755293 kJ/mol
# Density = 2.023982 g / cm^3
# Si number density = 20.285994 Si / 1000 Ang^3
#
#
#
# Elastic Constant Matrix: (Units=GPa)
#
#
# Indices 1 2 3 4 5 6 
#
# 1 135.2220 39.3120 49.7996 0.0000 -3.5436 0.0000
# 2 39.3120 138.1232 51.4555 0.0000 -2.8526 0.0000
# 3 49.7996 51.4555 119.6278 0.0000 18.0422 0.0000
# 4 0.0000 0.0000 0.0000 23.4180 0.0000 0.2148
# 5 -3.5436 -2.8526 18.0422 0.0000 43.3725 0.0000
# 6 0.0000 0.0000 0.0000 0.2148 0.0000 17.5981
#
#
#
# Elastic Compliance Matrix: (Units=1/GPa)
#
#
# Indices 1 2 3 4 5 6 
#
# 1 0.009133 -0.001210 -0.003608 0.000000 0.002167 0.000000
# 2 -0.001210 0.008993 -0.003669 0.000000 0.002019 0.000000
# 3 -0.003608 -0.003669 0.012291 0.000000 -0.005649 0.000000
# 4 0.000000 0.000000 0.000000 0.042707 0.000000 -0.000521
# 5 0.002167 0.002019 -0.005649 0.000000 0.025716 0.000000
# 6 0.000000 0.000000 0.000000 -0.000521 0.000000 0.056831
#
#
# Mechanical properties :
#
#
# Convention : Reuss Voigt Hill
#
# Bulk Modulus (GPa) = 74.39120 74.90082 74.64601
# Shear Modulus (GPa) = 28.22858 33.70477 30.96668
#
# Velocity S-wave (km/s) = 3.73437 4.08055 3.91129
# Velocity P-wave (km/s) = 7.43941 7.69440 7.56798
#
# Compressibility (1/GPa) = 0.01344245
#
# Stress axis : x y z
#
# Youngs Moduli (GPa) = 109.49624 111.20005 81.35863
#
# Poissons Ratio (x) = 0.13460 0.29355
# Poissons Ratio (y) = 0.13254 0.29848
# Poissons Ratio (z) = 0.39507 0.40795
#
# Static dielectric constant tensor:
#      x y z
#    x 1.859870 0.000000 -0.033300 
#    y 0.000000 1.663270 0.000000 
#    z -0.033300 0.000000 1.749000 
# 
# From -- ./inp_files/10842.got.cif
#   From: 2010.05.17/outbox.cif.g08.bks.cpg/sg12_6_cif.got.tgz:10842.got - 2010.06.03 13:09:07.
