data_PCOD9222003
_publ_section_title
;
Structure prediction by ZEFSAII (Michael W. Deem and Ramdas Pophale) SiO2 
 PCOD9222003
Probable space group: C 2/M
;
_chemical_formula_sum "Si O2"
_cell_formula_units_Z 32
_cell_length_a 9.552934
_cell_length_b 19.877794
_cell_length_c 8.779398
_cell_angle_alpha 90.000000
_cell_angle_beta 107.792332
_cell_angle_gamma 90.000000
_cell_volume 1587.392520
_symmetry_space_group_name_H-M "C 2/M"
_symmetry_group_IT_number 12
_symmetry_cell_setting 'monoclinic'
loop_
_space_group_symop_operation_xyz
x,y,z
-x,y,-z
-x,-y,-z
x,-y,z
1/2+x,1/2+y,z
1/2-x,1/2+y,-z
1/2-x,1/2-y,-z
1/2+x,1/2-y,z
loop_
_atom_site_type_symbol
_atom_site_label
_atom_site_fract_x
_atom_site_fract_y
_atom_site_fract_z
Si Si1 0.631202 0.123922 0.658168
Si Si2 0.587534 0.239083 0.883898
Si Si3 0.748965 0.500000 0.123882
Si Si4 0.541814 0.642795 0.349876
Si Si5 0.947373 0.000000 0.219954
O O1 0.500000 0.106377 0.500000
O O2 0.589988 0.189317 0.741970
O O3 0.783640 0.135063 0.617034
O O4 0.664625 0.065185 0.790553
O O5 0.517344 0.309136 0.803556
O O6 0.500000 0.211588 0.000000
O O7 0.750000 0.250000 0.000000
O O8 0.593930 0.500000 0.163574
O O9 0.697873 0.500000 0.932455
O O10 0.500000 0.672403 0.500000
O O11 0.462916 0.569952 0.314067
#
# Coordination Sequence:
#
# PCOD9222003 Si02
#       5
#     8   8   4   8   4
#     4  11  24  42  65  93 130 166 204 260 314 370
#     4  12  25  42  65  93 125 165 215 259 309 370
#     4   9  19  40  66  93 121 165 207 256 314 368
#     4  11  24  41  66  96 125 166 210 255 313 373
#     4   9  19  38  69  92 122 157 215 261 303 366
#
# _framework density 20.158844999999999
#
# number of rings (size 3 to 8) (size 9 to 14) (size 15 to 20)
#    0.000    1.250    2.500    3.000    7.000    2.000 
#    0.000    0.625    0.000    0.000    0.000    0.000 
#    0.000    0.000    0.000    0.000    0.000    0.000 
#
# Total GULP energy -89404.141733 kJ/mol
# GULP energy per Si atom -5587.758858 kJ/mol
# Density = 2.011296 g / cm^3
# Si number density = 20.158845 Si / 1000 Ang^3
#
#
#
# Elastic Constant Matrix: (Units=GPa)
#
#
# Indices 1 2 3 4 5 6 
#
# 1 105.6475 19.1285 49.7549 0.0000 22.0538 0.0000
# 2 19.1285 86.4300 25.6917 0.0000 14.5968 0.0000
# 3 49.7549 25.6917 114.2267 0.0000 21.1568 0.0000
# 4 0.0000 0.0000 0.0000 6.2856 0.0000 0.4844
# 5 22.0538 14.5968 21.1568 0.0000 49.0719 0.0000
# 6 0.0000 0.0000 0.0000 0.4844 0.0000 19.6673
#
#
#
# Elastic Compliance Matrix: (Units=1/GPa)
#
#
# Indices 1 2 3 4 5 6 
#
# 1 0.012502 -0.000819 -0.004636 0.000000 -0.003376 0.000000
# 2 -0.000819 0.012791 -0.002047 0.000000 -0.002554 0.000000
# 3 -0.004636 -0.002047 0.011667 0.000000 -0.002338 0.000000
# 4 0.000000 0.000000 0.000000 0.159397 0.000000 -0.003926
# 5 -0.003376 -0.002554 -0.002338 0.000000 0.023663 0.000000
# 6 0.000000 0.000000 0.000000 -0.003926 0.000000 0.050943
#
#
# Mechanical properties :
#
#
# Convention : Reuss Voigt Hill
#
# Bulk Modulus (GPa) = 45.54481 55.05050 50.29765
# Shear Modulus (GPa) = 17.04818 29.12021 23.08419
#
# Velocity S-wave (km/s) = 2.91123 3.80483 3.38763
# Velocity P-wave (km/s) = 5.82601 6.83154 6.34871
#
# Compressibility (1/GPa) = 0.02195640
#
# Stress axis : x y z
#
# Youngs Moduli (GPa) = 79.98830 78.17888 85.70898
#
# Poissons Ratio (x) = 0.06399 0.39736
# Poissons Ratio (y) = 0.06548 0.17547
# Poissons Ratio (z) = 0.37083 0.16006
#
# Static dielectric constant tensor:
#      x y z
#    x 1.659970 0.000000 -0.033950 
#    y 0.000000 1.740750 0.000000 
#    z -0.033950 0.000000 1.742460 
# 
# From -- ./inp_files/37589.got.cif
#   From: 2010.05.17/outbox.cif.g08.bks.cpg/sg12_19_cif.got.tgz:37589.got - 2010.06.03 13:09:07.
