data_PCOD9222445
_publ_section_title
;
Structure prediction by ZEFSAII (Michael W. Deem and Ramdas Pophale) SiO2 
 PCOD9222445
Probable space group: C 2/M
;
_chemical_formula_sum "Si O2"
_cell_formula_units_Z 26
_cell_length_a 14.291747
_cell_length_b 15.889025
_cell_length_c 4.818037
_cell_angle_alpha 90.000000
_cell_angle_beta 109.780770
_cell_angle_gamma 90.000000
_cell_volume 1029.531740
_symmetry_space_group_name_H-M "C 2/M"
_symmetry_group_IT_number 12
_symmetry_cell_setting 'monoclinic'
loop_
_space_group_symop_operation_xyz
x,y,z
-x,y,-z
-x,-y,-z
x,-y,z
1/2+x,1/2+y,z
1/2-x,1/2+y,-z
1/2-x,1/2-y,-z
1/2+x,1/2-y,z
loop_
_atom_site_type_symbol
_atom_site_label
_atom_site_fract_x
_atom_site_fract_y
_atom_site_fract_z
Si Si1 0.402451 0.367233 0.577885
Si Si2 0.099310 0.329983 0.434458
Si Si3 0.000000 0.000000 0.000000
Si Si4 0.294892 0.902934 0.967739
O O1 0.500000 0.394281 0.500000
O O2 0.407905 0.268615 0.643994
O O3 0.415315 0.426614 0.853271
O O4 0.306625 0.385897 0.298347
O O5 0.122023 0.380105 0.179153
O O6 0.000000 0.355131 0.500000
O O7 0.187584 0.345701 0.744852
O O8 0.302869 0.000000 0.058202
#
# Coordination Sequence:
#
# PCOD9222445 Si02
#       4
#     8   8   2   8
#     4  11  27  45  73 108 146 184 238 302 373 429
#     4  11  27  47  74 102 147 194 241 299 354 426
#     4  12  26  44  80 106 148 182 238 308 374 428
#     4  12  26  46  74 107 145 193 243 293 357 430
#
# _framework density 25.254200999999998
#
# number of rings (size 3 to 8) (size 9 to 14) (size 15 to 20)
#    0.000    0.615    1.538    4.154   12.923    3.692 
#    0.000    0.000    0.000    0.000    0.000    0.000 
#    0.000    0.000    0.000    0.000    0.000    0.000 
#
# Total GULP energy -72700.980919 kJ/mol
# GULP energy per Si atom -5592.383148 kJ/mol
# Density = 2.519672 g / cm^3
# Si number density = 25.254201 Si / 1000 Ang^3
#
#
#
# Elastic Constant Matrix: (Units=GPa)
#
#
# Indices 1 2 3 4 5 6 
#
# 1 94.0344 25.6370 18.5612 0.0000 1.0766 0.0000
# 2 25.6370 91.3110 20.6627 0.0000 0.9112 0.0000
# 3 18.5612 20.6627 139.2878 0.0000 16.8012 0.0000
# 4 0.0000 0.0000 0.0000 19.3521 0.0000 26.7718
# 5 1.0766 0.9112 16.8012 0.0000 49.1454 0.0000
# 6 0.0000 0.0000 0.0000 26.7718 0.0000 16.2180
#
#
#
# Elastic Compliance Matrix: (Units=1/GPa)
#
#
# Indices 1 2 3 4 5 6 
#
# 1 0.011680 -0.003026 -0.001130 0.000000 0.000187 0.000000
# 2 -0.003026 0.012123 -0.001435 0.000000 0.000332 0.000000
# 3 -0.001130 -0.001435 0.007861 0.000000 -0.002636 0.000000
# 4 0.000000 0.000000 0.000000 -0.040255 0.000000 0.066452
# 5 0.000187 0.000332 -0.002636 0.000000 0.021239 0.000000
# 6 0.000000 0.000000 0.000000 0.066452 0.000000 -0.048035
#
#
# Mechanical properties :
#
#
# Convention : Reuss Voigt Hill
#
# Bulk Modulus (GPa) = 48.82391 50.48390 49.65391
# Shear Modulus (GPa) = -287.70468 34.26124 -126.72172
#
# Velocity S-wave (km/s) = -10.68507 3.68728 -7.09136
# Velocity P-wave (km/s) = 11.52618 6.17752 6.88081
#
# Compressibility (1/GPa) = 0.02048177
#
# Stress axis : x y z
#
# Youngs Moduli (GPa) = 85.61488 82.49114 127.21266
#
# Poissons Ratio (x) = 0.24958 0.14377
# Poissons Ratio (y) = 0.25903 0.18258
# Poissons Ratio (z) = 0.09676 0.11839
#
# Static dielectric constant tensor:
#      x y z
#    x 2.106280 0.000000 -0.029340 
#    y 0.000000 1.795920 0.000000 
#    z -0.029340 0.000000 2.044080 
# 
# From -- ./inp_files/14421.got.cif
#   From: 2010.05.17/outbox.cif.g08.bks.cpg/sg12_8_cif.got.tgz:14421.got - 2010.06.03 13:09:07.
