data_PCOD9222021
_publ_section_title
;
Structure prediction by ZEFSAII (Michael W. Deem and Ramdas Pophale) SiO2 
 PCOD9222021
Probable space group: C 2/M
;
_chemical_formula_sum "Si O2"
_cell_formula_units_Z 48
_cell_length_a 9.164311
_cell_length_b 17.519613
_cell_length_c 21.618221
_cell_angle_alpha 90.000000
_cell_angle_beta 50.606959
_cell_angle_gamma 90.000000
_cell_volume 2682.361976
_symmetry_space_group_name_H-M "C 2/M"
_symmetry_group_IT_number 12
_symmetry_cell_setting 'monoclinic'
loop_
_space_group_symop_operation_xyz
x,y,z
-x,y,-z
-x,-y,-z
x,-y,z
1/2+x,1/2+y,z
1/2-x,1/2+y,-z
1/2-x,1/2-y,-z
1/2+x,1/2-y,z
loop_
_atom_site_type_symbol
_atom_site_label
_atom_site_fract_x
_atom_site_fract_y
_atom_site_fract_z
Si Si1 0.536940 0.089146 0.916550
Si Si2 0.566253 0.694199 0.551422
Si Si3 0.273093 0.705400 0.302698
Si Si4 0.781126 0.812403 0.046256
Si Si5 0.791660 0.589878 0.581746
Si Si6 0.300042 0.729561 0.805687
O O1 0.340795 0.113791 0.937686
O O2 0.689975 0.149857 0.848677
O O3 0.585181 0.000000 0.893781
O O4 0.500000 0.101094 0.000000
O O5 0.500000 0.671424 0.500000
O O6 0.750000 0.750000 0.500000
O O7 0.384285 0.737260 0.628326
O O8 0.638046 0.627271 0.577169
O O9 0.220340 0.624243 0.346100
O O10 0.482926 0.719392 0.270815
O O11 0.285792 0.719770 0.226266
O O12 0.707285 0.775151 0.128779
O O13 0.750000 0.750000 0.000000
O O14 0.000000 0.827679 0.000000
O O15 0.770085 0.500000 0.588130
O O16 0.000000 0.609746 0.500000
#
# Coordination Sequence:
#
# PCOD9222021 Si02
#       6
#     8   8   8   8   8   8
#     4  11  24  42  63  92 128 166 209 262 320 376
#     4  12  20  39  67  92 121 166 219 259 299 380
#     4  12  22  37  64  94 120 165 212 257 316 379
#     4  12  20  39  67  92 121 166 219 257 300 380
#     4  11  24  42  63  91 128 166 210 264 319 376
#     4  12  22  37  64  93 120 165 210 259 311 378
#
# _framework density 17.894676
#
# number of rings (size 3 to 8) (size 9 to 14) (size 15 to 20)
#    0.000    0.333   10.000    0.000    0.000    1.333 
#    0.000    0.833    0.000    0.000    0.000    0.000 
#    0.000    0.000    0.000    0.000    0.000    0.000 
#
# Total GULP energy -133878.656364 kJ/mol
# GULP energy per Si atom -5578.277349 kJ/mol
# Density = 1.785395 g / cm^3
# Si number density = 17.894676 Si / 1000 Ang^3
#
#
#
# Elastic Constant Matrix: (Units=GPa)
#
#
# Indices 1 2 3 4 5 6 
#
# 1 124.2464 52.1748 48.2705 0.0002 -1.0337 0.0000
# 2 52.1748 83.6682 39.1669 0.0001 9.1583 0.0000
# 3 48.2705 39.1669 89.3811 0.0002 4.4957 0.0000
# 4 0.0002 0.0001 0.0002 25.9234 -0.0002 1.0847
# 5 -1.0337 9.1583 4.4957 -0.0002 52.9687 0.0001
# 6 0.0000 0.0000 0.0000 1.0847 0.0001 29.5978
#
#
#
# Elastic Compliance Matrix: (Units=1/GPa)
#
#
# Indices 1 2 3 4 5 6 
#
# 1 0.012075 -0.005804 -0.004058 0.000000 0.001584 0.000000
# 2 -0.005804 0.018051 -0.004633 0.000000 -0.002841 0.000000
# 3 -0.004058 -0.004633 0.015439 0.000000 -0.000589 0.000000
# 4 0.000000 0.000000 0.000000 0.038634 0.000000 -0.001416
# 5 0.001584 -0.002841 -0.000589 0.000000 0.019451 0.000000
# 6 0.000000 0.000000 0.000000 -0.001416 0.000000 0.033838
#
#
# Mechanical properties :
#
#
# Convention : Reuss Voigt Hill
#
# Bulk Modulus (GPa) = 60.32515 64.05779 62.19147
# Shear Modulus (GPa) = 29.06924 32.21022 30.63973
#
# Velocity S-wave (km/s) = 4.03484 4.24723 4.14239
# Velocity P-wave (km/s) = 7.44922 7.74124 7.59664
#
# Compressibility (1/GPa) = 0.01657683
#
# Stress axis : x y z
#
# Youngs Moduli (GPa) = 82.81299 55.39900 64.77094
#
# Poissons Ratio (x) = 0.32153 0.26282
# Poissons Ratio (y) = 0.48064 0.30006
# Poissons Ratio (z) = 0.33603 0.25664
#
# Static dielectric constant tensor:
#      x y z
#    x 1.778980 0.000000 -0.063200 
#    y 0.000000 1.589380 0.000000 
#    z -0.063200 0.000000 1.670760 
# 
# From -- ./inp_files/256150.got.cif
#   From: 2010.05.17/outbox.cif.g08.bks.cpg/sg12_129_cif.got.tgz:256150.got - 2010.06.03 13:09:07.
