data_PCOD9222450
_publ_section_title
;
Structure prediction by ZEFSAII (Michael W. Deem and Ramdas Pophale) SiO2 
 PCOD9222450
Probable space group: C 2/M
;
_chemical_formula_sum "Si O2"
_cell_formula_units_Z 40
_cell_length_a 29.909369
_cell_length_b 14.987246
_cell_length_c 8.983356
_cell_angle_alpha 90.000000
_cell_angle_beta 28.628346
_cell_angle_gamma 90.000000
_cell_volume 1929.379169
_symmetry_space_group_name_H-M "C 2/M"
_symmetry_group_IT_number 12
_symmetry_cell_setting 'monoclinic'
loop_
_space_group_symop_operation_xyz
x,y,z
-x,y,-z
-x,-y,-z
x,-y,z
1/2+x,1/2+y,z
1/2-x,1/2+y,-z
1/2-x,1/2-y,-z
1/2+x,1/2-y,z
loop_
_atom_site_type_symbol
_atom_site_label
_atom_site_fract_x
_atom_site_fract_y
_atom_site_fract_z
Si Si1 0.688961 0.175043 0.764441
Si Si2 0.349796 0.235174 0.787959
Si Si3 0.375449 0.399414 0.279760
Si Si4 0.552253 0.606656 0.609502
Si Si5 0.996383 0.393291 0.188790
O O1 0.750000 0.250000 0.500000
O O2 0.769109 0.101449 0.548173
O O3 0.664174 0.202856 0.003879
O O4 0.596419 0.140697 0.955802
O O5 0.400724 0.330938 0.647700
O O6 0.415009 0.165606 0.504930
O O7 0.250000 0.250000 0.000000
O O8 0.409351 0.500000 0.190698
O O9 0.396043 0.365897 0.385838
O O10 0.446000 0.361849 0.950588
O O11 0.561557 0.500000 0.553413
O O12 0.984176 0.500000 0.254532
O O13 0.000000 0.380655 0.000000
#
# Coordination Sequence:
#
# PCOD9222450 Si02
#       5
#     8   8   8   8   8
#     4  12  24  41  66  97 135 178 229 277 339 408
#     4  12  24  40  67  99 132 179 224 279 342 409
#     4   9  18  35  62  91 124 168 214 266 327 395
#     4   9  19  37  63  97 132 168 213 269 333 399
#     4  11  27  48  69  97 138 184 232 292 352 408
#
# _framework density 20.732059
#
# number of rings (size 3 to 8) (size 9 to 14) (size 15 to 20)
#    0.000    1.400    2.000    4.800    2.800    3.200 
#    0.000    2.000    0.000    4.800    0.000    0.000 
#    0.000    0.000    0.000    0.000    0.000    0.000 
#
# Total GULP energy -111577.048304 kJ/mol
# GULP energy per Si atom -5578.852415 kJ/mol
# Density = 2.068487 g / cm^3
# Si number density = 20.732059 Si / 1000 Ang^3
#
#
#
# Elastic Constant Matrix: (Units=GPa)
#
#
# Indices 1 2 3 4 5 6 
#
# 1 134.4525 46.2430 81.7845 0.0000 -19.9172 0.0000
# 2 46.2430 126.9609 79.7508 0.0000 -0.5226 0.0000
# 3 81.7845 79.7508 163.9521 0.0000 -20.1608 0.0000
# 4 0.0000 0.0000 0.0000 31.9667 0.0000 -8.8058
# 5 -19.9172 -0.5226 -20.1608 0.0000 41.1598 0.0000
# 6 0.0000 0.0000 0.0000 -8.8058 0.0000 17.8059
#
#
#
# Elastic Compliance Matrix: (Units=1/GPa)
#
#
# Indices 1 2 3 4 5 6 
#
# 1 0.011082 -0.001138 -0.004593 0.000000 0.003098 0.000000
# 2 -0.001138 0.011753 -0.005532 0.000000 -0.003111 0.000000
# 3 -0.004593 -0.005532 0.011492 0.000000 0.003336 0.000000
# 4 0.000000 0.000000 0.000000 0.036216 0.000000 0.017911
# 5 0.003098 -0.003111 0.003336 0.000000 0.027389 0.000000
# 6 0.000000 0.000000 0.000000 0.017911 0.000000 0.065019
#
#
# Mechanical properties :
#
#
# Convention : Reuss Voigt Hill
#
# Bulk Modulus (GPa) = 84.74670 93.43579 89.09125
# Shear Modulus (GPa) = 26.39757 32.69229 29.54493
#
# Velocity S-wave (km/s) = 3.57217 3.97532 3.77912
# Velocity P-wave (km/s) = 7.61444 8.13861 7.88089
#
# Compressibility (1/GPa) = 0.01179987
#
# Stress axis : x y z
#
# Youngs Moduli (GPa) = 90.23543 85.08458 87.01959
#
# Poissons Ratio (x) = 0.09685 0.39972
# Poissons Ratio (y) = 0.10272 0.48137
# Poissons Ratio (z) = 0.41449 0.47066
#
# Static dielectric constant tensor:
#      x y z
#    x 1.741490 0.000000 -0.004070 
#    y 0.000000 1.828430 0.000000 
#    z -0.004070 0.000000 1.720190 
# 
# From -- ./inp_files/111854.got.cif
#   From: 2010.05.17/outbox.cif.g08.bks.cpg/sg12_56_cif.got.tgz:111854.got - 2010.06.03 13:09:07.
