data_PCOD9222912
_publ_section_title
;
Structure prediction by ZEFSAII (Michael W. Deem and Ramdas Pophale) SiO2 
 PCOD9222912
Probable space group: C 2/M
;
_chemical_formula_sum "Si O2"
_cell_formula_units_Z 40
_cell_length_a 14.362750
_cell_length_b 11.358891
_cell_length_c 11.278611
_cell_angle_alpha 90.000000
_cell_angle_beta 71.245235
_cell_angle_gamma 90.000000
_cell_volume 1742.347692
_symmetry_space_group_name_H-M "C 2/M"
_symmetry_group_IT_number 12
_symmetry_cell_setting 'monoclinic'
loop_
_space_group_symop_operation_xyz
x,y,z
-x,y,-z
-x,-y,-z
x,-y,z
1/2+x,1/2+y,z
1/2-x,1/2+y,-z
1/2-x,1/2-y,-z
1/2+x,1/2-y,z
loop_
_atom_site_type_symbol
_atom_site_label
_atom_site_fract_x
_atom_site_fract_y
_atom_site_fract_z
Si Si1 0.114146 0.124345 0.993411
Si Si2 0.386039 0.125251 0.005219
Si Si3 0.680615 0.135226 0.700941
Si Si4 0.767157 0.368633 0.713569
Si Si5 0.509925 0.138795 0.364516
O O1 0.132642 0.249203 0.047144
O O2 0.184497 0.124967 0.849544
O O3 0.131281 0.000000 0.051353
O O4 0.000000 0.124682 0.000000
O O5 0.327341 0.126459 0.153149
O O6 0.366956 0.000000 0.951018
O O7 0.500000 0.123109 0.000000
O O8 0.746648 0.249816 0.647463
O O9 0.573362 0.173358 0.694414
O O10 0.705312 0.000000 0.651533
O O11 0.766084 0.500000 0.655299
O O12 0.877108 0.351774 0.716302
O O13 0.500000 0.192789 0.500000
O O14 0.490327 0.000000 0.384384
#
# Coordination Sequence:
#
# PCOD9222912 Si02
#       5
#     8   8   8   8   8
#     4   8  13  22  39  62  86 114 147 181 220 267
#     4   8  13  22  39  62  86 114 147 181 220 267
#     4   9  17  30  49  70  93 123 157 194 236 279
#     4   9  17  30  49  70  93 123 157 194 236 279
#     4   9  18  32  49  70  95 123 159 199 234 276
#
# _framework density 22.957529000000001
#
# number of rings (size 3 to 8) (size 9 to 14) (size 15 to 20)
#    0.000    3.400    0.000    0.000    0.000    0.800 
#    0.000    1.000    0.000   20.400    0.000   28.000 
#    0.000    0.000    0.000    0.000    0.000    0.000 
#
# Total GULP energy -111349.511028 kJ/mol
# GULP energy per Si atom -5567.475551 kJ/mol
# Density = 2.290528 g / cm^3
# Si number density = 22.957529 Si / 1000 Ang^3
#
#
#
# Elastic Constant Matrix: (Units=GPa)
#
#
# Indices 1 2 3 4 5 6 
#
# 1 81.4114 47.8298 5.0619 0.0000 1.6214 0.0000
# 2 47.8298 262.2912 15.5615 0.0000 10.9108 0.0000
# 3 5.0619 15.5615 67.5043 0.0000 7.4454 0.0000
# 4 0.0000 0.0000 0.0000 -10.3441 0.0000 -3.0020
# 5 1.6214 10.9108 7.4454 0.0000 12.2522 0.0000
# 6 0.0000 0.0000 0.0000 -3.0020 0.0000 26.0261
#
#
#
# Elastic Compliance Matrix: (Units=1/GPa)
#
#
# Indices 1 2 3 4 5 6 
#
# 1 0.013777 -0.002511 -0.000536 0.000000 0.000739 0.000000
# 2 -0.002511 0.004437 -0.000467 0.000000 -0.003335 0.000000
# 3 -0.000536 -0.000467 0.015979 0.000000 -0.009224 0.000000
# 4 0.000000 0.000000 0.000000 -0.093542 0.000000 -0.010790
# 5 0.000739 -0.003335 -0.009224 0.000000 0.090095 0.000000
# 6 0.000000 0.000000 0.000000 -0.010790 0.000000 0.037178
#
#
# Mechanical properties :
#
#
# Convention : Reuss Voigt Hill
#
# Bulk Modulus (GPa) = 36.81081 60.90149 48.85615
# Shear Modulus (GPa) = 59.51881 28.43709 43.97795
#
# Velocity S-wave (km/s) = 5.09724 3.52331 4.38153
# Velocity P-wave (km/s) = 7.12121 6.56788 6.85014
#
# Compressibility (1/GPa) = 0.02716593
#
# Stress axis : x y z
#
# Youngs Moduli (GPa) = 72.58319 225.38131 62.58241
#
# Poissons Ratio (x) = 0.56600 0.03352
# Poissons Ratio (y) = 0.18228 0.02920
# Poissons Ratio (z) = 0.03888 0.10517
#
# Static dielectric constant tensor:
#      x y z
#    x 1.833940 0.000000 0.022900 
#    y 0.000000 1.965480 0.000000 
#    z 0.022900 0.000000 1.817210 
# 
# From -- ./inp_files/51882.got.cif
#   From: 2010.05.17/outbox.cif.g08.bks.cpg/sg12_26_cif.got.tgz:51882.got - 2010.06.03 13:09:07.
