data_PCOD9222263
_publ_section_title
;
Structure prediction by ZEFSAII (Michael W. Deem and Ramdas Pophale) SiO2 
 PCOD9222263
Probable space group: C 2/M
;
_chemical_formula_sum "Si O2"
_cell_formula_units_Z 24
_cell_length_a 9.732438
_cell_length_b 12.363367
_cell_length_c 14.136620
_cell_angle_alpha 90.000000
_cell_angle_beta 139.624261
_cell_angle_gamma 90.000000
_cell_volume 1101.902528
_symmetry_space_group_name_H-M "C 2/M"
_symmetry_group_IT_number 12
_symmetry_cell_setting 'monoclinic'
loop_
_space_group_symop_operation_xyz
x,y,z
-x,y,-z
-x,-y,-z
x,-y,z
1/2+x,1/2+y,z
1/2-x,1/2+y,-z
1/2-x,1/2-y,-z
1/2+x,1/2-y,z
loop_
_atom_site_type_symbol
_atom_site_label
_atom_site_fract_x
_atom_site_fract_y
_atom_site_fract_z
Si Si1 0.852030 0.500000 0.216257
Si Si2 0.427175 0.500000 0.113458
Si Si3 0.275686 0.123504 0.837900
Si Si4 0.519598 0.203322 0.401981
O O1 0.651349 0.500000 0.182091
O O2 0.979929 0.606725 0.308098
O O3 0.752351 0.500000 0.060541
O O4 0.385513 0.602401 0.159170
O O5 0.162926 0.206532 0.710096
O O6 0.306859 0.000000 0.815910
O O7 0.500000 0.159743 0.000000
O O8 0.500000 0.164719 0.500000
O O9 0.750000 0.250000 0.500000
#
# Coordination Sequence:
#
# PCOD9222263 Si02
#       4
#     4   4   8   8
#     4  11  25  42  66  99 131 175 221 266 335 388
#     4   9  21  44  70  96 130 169 222 283 308 395
#     4   9  22  43  70  96 127 169 225 272 317 384
#     4  12  28  43  69  96 139 178 212 274 330 401
#
# _framework density 21.780512000000002
#
# number of rings (size 3 to 8) (size 9 to 14) (size 15 to 20)
#    1.000    0.667    0.000    2.500   11.667    2.000 
#    0.000    0.000    0.000    0.000    0.000    0.000 
#    0.000    0.000    0.000    0.000    0.000    0.000 
#
# Total GULP energy -67063.573621 kJ/mol
# GULP energy per Si atom -5588.631135 kJ/mol
# Density = 2.173094 g / cm^3
# Si number density = 21.780512 Si / 1000 Ang^3
#
#
#
# Elastic Constant Matrix: (Units=GPa)
#
#
# Indices 1 2 3 4 5 6 
#
# 1 38.9609 -13.9223 -19.8115 0.0000 8.7885 0.0000
# 2 -13.9223 73.9843 53.1763 0.0000 12.9443 0.0000
# 3 -19.8115 53.1763 97.4169 0.0001 14.1149 0.0000
# 4 0.0000 0.0000 0.0001 -11.4372 0.0000 11.1338
# 5 8.7885 12.9443 14.1149 0.0000 39.8805 0.0000
# 6 0.0000 0.0000 0.0000 11.1338 0.0000 36.8332
#
#
#
# Elastic Compliance Matrix: (Units=1/GPa)
#
#
# Indices 1 2 3 4 5 6 
#
# 1 0.032431 0.003463 0.006223 0.000000 -0.010473 0.000000
# 2 0.003463 0.022978 -0.011223 0.000000 -0.004249 0.000000
# 3 0.006223 -0.011223 0.018264 0.000000 -0.004193 0.000000
# 4 0.000000 0.000000 0.000000 -0.067556 0.000000 0.020420
# 5 -0.010473 -0.004249 -0.004193 0.000000 0.030246 0.000000
# 6 0.000000 0.000000 0.000000 0.020420 0.000000 0.020977
#
#
# Mechanical properties :
#
#
# Convention : Reuss Voigt Hill
#
# Bulk Modulus (GPa) = 14.16475 27.69412 20.92944
# Shear Modulus (GPa) = 59.56051 25.78328 42.67190
#
# Velocity S-wave (km/s) = 5.23499 3.44434 4.43106
# Velocity P-wave (km/s) = 6.56184 5.34422 5.98408
#
# Compressibility (1/GPa) = 0.07059778
#
# Stress axis : x y z
#
# Youngs Moduli (GPa) = 30.83492 43.52007 54.75128
#
# Poissons Ratio (x) = -0.15069 -0.34070
# Poissons Ratio (y) = -0.10677 0.61447
# Poissons Ratio (z) = -0.19188 0.48842
#
# Static dielectric constant tensor:
#      x y z
#    x 1.797690 0.000000 0.006060 
#    y 0.000000 1.831460 0.000000 
#    z 0.006060 0.000000 1.739680 
# 
# From -- ./inp_files/204077.got.cif
#   From: 2010.05.17/outbox.cif.g08.bks.cpg/sg12_103_cif.got.tgz:204077.got - 2010.06.03 13:09:07.
