data_PCOD9222773
_publ_section_title
;
Structure prediction by ZEFSAII (Michael W. Deem and Ramdas Pophale) SiO2 
 PCOD9222773
Probable space group: C 2/M
;
_chemical_formula_sum "Si O2"
_cell_formula_units_Z 24
_cell_length_a 11.473082
_cell_length_b 20.362470
_cell_length_c 4.821683
_cell_angle_alpha 90.000000
_cell_angle_beta 108.928359
_cell_angle_gamma 90.000000
_cell_volume 1065.530475
_symmetry_space_group_name_H-M "C 2/M"
_symmetry_group_IT_number 12
_symmetry_cell_setting 'monoclinic'
loop_
_space_group_symop_operation_xyz
x,y,z
-x,y,-z
-x,-y,-z
x,-y,z
1/2+x,1/2+y,z
1/2-x,1/2+y,-z
1/2-x,1/2-y,-z
1/2+x,1/2-y,z
loop_
_atom_site_type_symbol
_atom_site_label
_atom_site_fract_x
_atom_site_fract_y
_atom_site_fract_z
Si Si1 0.500000 0.277032 0.500000
Si Si2 0.126373 0.329233 0.996399
Si Si3 0.707632 0.359370 0.380513
Si Si4 0.595890 0.500000 0.329586
O O1 0.422631 0.232027 0.223802
O O2 0.582395 0.322038 0.362001
O O3 0.230399 0.358233 0.874000
O O4 0.196656 0.322995 0.340132
O O5 0.000000 0.365019 0.000000
O O6 0.679940 0.435490 0.412846
O O7 0.500000 0.500000 0.500000
O O8 0.500000 0.500000 0.000000
#
# Coordination Sequence:
#
# PCOD9222773 Si02
#       4
#     4   8   8   4
#     4  12  26  43  78 105 152 180 242 296 360 418
#     4  12  26  45  69 109 148 190 231 289 361 429
#     4  12  27  45  75 106 142 188 242 293 355 416
#     4  12  26  52  75 105 140 184 244 301 349 417
#
# _framework density 22.523990000000001
#
# number of rings (size 3 to 8) (size 9 to 14) (size 15 to 20)
#    0.000    0.000    5.000    4.000    4.667    0.000 
#    0.000    5.000    0.000    0.000    0.000    0.000 
#    0.000    0.000    0.000    0.000    0.000    0.000 
#
# Total GULP energy -66999.651247 kJ/mol
# GULP energy per Si atom -5583.304271 kJ/mol
# Density = 2.247272 g / cm^3
# Si number density = 22.523990 Si / 1000 Ang^3
#
#
#
# Elastic Constant Matrix: (Units=GPa)
#
#
# Indices 1 2 3 4 5 6 
#
# 1 183.0632 31.5097 12.6899 0.0000 -34.9112 0.0000
# 2 31.5097 125.7863 11.1285 0.0000 4.5916 0.0000
# 3 12.6899 11.1285 109.8221 0.0000 -20.9830 0.0000
# 4 0.0000 0.0000 0.0000 8.4946 0.0000 -2.5691
# 5 -34.9112 4.5916 -20.9830 0.0000 53.8455 0.0000
# 6 0.0000 0.0000 0.0000 -2.5691 0.0000 11.9646
#
#
#
# Elastic Compliance Matrix: (Units=1/GPa)
#
#
# Indices 1 2 3 4 5 6 
#
# 1 0.006634 -0.001855 0.000295 0.000000 0.004574 0.000000
# 2 -0.001855 0.008599 -0.001110 0.000000 -0.002368 0.000000
# 3 0.000295 -0.001110 0.009982 0.000000 0.004176 0.000000
# 4 0.000000 0.000000 0.000000 0.125898 0.000000 0.027034
# 5 0.004574 -0.002368 0.004176 0.000000 0.023367 0.000000
# 6 0.000000 0.000000 0.000000 0.027034 0.000000 0.089385
#
#
# Mechanical properties :
#
#
# Convention : Reuss Voigt Hill
#
# Bulk Modulus (GPa) = 50.30992 58.81420 54.56206
# Shear Modulus (GPa) = 18.12721 39.08382 28.60551
#
# Velocity S-wave (km/s) = 2.83997 4.17010 3.56757
# Velocity P-wave (km/s) = 5.75661 7.02530 6.42236
#
# Compressibility (1/GPa) = 0.01987680
#
# Stress axis : x y z
#
# Youngs Moduli (GPa) = 150.74452 116.28911 100.18231
#
# Poissons Ratio (x) = 0.21570 -0.02960
# Poissons Ratio (y) = 0.27961 0.11116
# Poissons Ratio (z) = -0.04453 0.12903
#
# Static dielectric constant tensor:
#      x y z
#    x 1.920500 0.000000 0.032070 
#    y 0.000000 1.797450 0.000000 
#    z 0.032070 0.000000 1.818430 
# 
# From -- ./inp_files/6432.got.cif
#   From: 2010.05.17/outbox.cif.g08.bks.cpg/sg12_4_cif.got.tgz:6432.got - 2010.06.03 13:09:07.
