data_PCOD9222132
_publ_section_title
;
Structure prediction by ZEFSAII (Michael W. Deem and Ramdas Pophale) SiO2 
 PCOD9222132
Probable space group: C 2/M
;
_chemical_formula_sum "Si O2"
_cell_formula_units_Z 50
_cell_length_a 18.133735
_cell_length_b 17.114541
_cell_length_c 9.137623
_cell_angle_alpha 90.000000
_cell_angle_beta 119.310326
_cell_angle_gamma 90.000000
_cell_volume 2472.821733
_symmetry_space_group_name_H-M "C 2/M"
_symmetry_group_IT_number 12
_symmetry_cell_setting 'monoclinic'
loop_
_space_group_symop_operation_xyz
x,y,z
-x,y,-z
-x,-y,-z
x,-y,z
1/2+x,1/2+y,z
1/2-x,1/2+y,-z
1/2-x,1/2-y,-z
1/2+x,1/2-y,z
loop_
_atom_site_type_symbol
_atom_site_label
_atom_site_fract_x
_atom_site_fract_y
_atom_site_fract_z
Si Si1 0.000000 0.000000 0.500000
Si Si2 0.865023 0.092004 0.906639
Si Si3 0.790903 0.696511 0.162872
Si Si4 0.478038 0.373018 0.737699
Si Si5 0.394084 0.910076 0.048167
Si Si6 0.597818 0.090214 0.270118
Si Si7 0.580587 0.781293 0.481708
O O1 0.017820 0.932025 0.392811
O O2 0.781027 0.143192 0.834347
O O3 0.910532 0.100824 0.794464
O O4 0.850195 0.000000 0.921477
O O5 0.931707 0.124261 0.091729
O O6 0.854067 0.640447 0.135528
O O7 0.845691 0.743268 0.334989
O O8 0.750000 0.750000 0.000000
O O9 0.452549 0.288035 0.653286
O O10 0.495536 0.908754 0.159286
O O11 0.366779 0.000000 0.035019
O O12 0.370684 0.884036 0.860170
O O13 0.617699 0.148986 0.419098
O O14 0.623554 0.000000 0.320507
O O15 0.500000 0.807775 0.500000
#
# Coordination Sequence:
#
# PCOD9222132 Si02
#       7
#     2   8   8   8   8   8   8
#     4  12  20  42  76 104 126 162 238 286 336 396
#     4  11  24  47  69  98 132 177 226 274 345 397
#     4  12  27  41  62  95 137 174 211 271 335 398
#     4  11  24  43  74  99 127 174 226 288 331 404
#     4   9  19  40  63  92 122 166 212 259 315 378
#     4   9  20  38  68  94 123 165 221 264 311 392
#     4  12  24  41  65  99 130 172 224 269 337 397
#
# _framework density 20.219816000000002
#
# number of rings (size 3 to 8) (size 9 to 14) (size 15 to 20)
#    0.000    1.280    4.000    2.880    2.240    3.520 
#    0.000    0.000    3.520    0.000    0.000    0.000 
#    0.000    0.000    0.000    0.000    0.000    0.000 
#
# Total GULP energy -139443.472608 kJ/mol
# GULP energy per Si atom -5577.738904 kJ/mol
# Density = 2.017380 g / cm^3
# Si number density = 20.219816 Si / 1000 Ang^3
#
#
#
# Elastic Constant Matrix: (Units=GPa)
#
#
# Indices 1 2 3 4 5 6 
#
# 1 64.5674 14.4219 24.6597 0.0000 -6.4212 0.0000
# 2 14.4219 53.5902 39.9394 0.0000 -9.3210 0.0000
# 3 24.6597 39.9394 105.7554 0.0000 -11.2630 0.0000
# 4 0.0000 0.0000 0.0000 31.7409 0.0000 -7.2159
# 5 -6.4212 -9.3210 -11.2630 0.0000 27.1480 0.0000
# 6 0.0000 0.0000 0.0000 -7.2159 0.0000 22.0687
#
#
#
# Elastic Compliance Matrix: (Units=1/GPa)
#
#
# Indices 1 2 3 4 5 6 
#
# 1 0.017315 -0.002016 -0.003048 0.000000 0.002139 0.000000
# 2 -0.002016 0.026889 -0.009157 0.000000 0.004956 0.000000
# 3 -0.003048 -0.009157 0.013824 0.000000 0.001870 0.000000
# 4 0.000000 0.000000 0.000000 0.034035 0.000000 0.011129
# 5 0.002139 0.004956 0.001870 0.000000 0.039819 0.000000
# 6 0.000000 0.000000 0.000000 0.011129 0.000000 0.048952
#
#
# Mechanical properties :
#
#
# Convention : Reuss Voigt Hill
#
# Bulk Modulus (GPa) = 33.80025 42.43946 38.11986
# Shear Modulus (GPa) = 22.81670 25.85098 24.33384
#
# Velocity S-wave (km/s) = 3.36286 3.57949 3.47286
# Velocity P-wave (km/s) = 5.64191 6.17400 5.91394
#
# Compressibility (1/GPa) = 0.02958558
#
# Stress axis : x y z
#
# Youngs Moduli (GPa) = 57.75379 37.18971 72.33803
#
# Poissons Ratio (x) = 0.07497 0.22051
# Poissons Ratio (y) = 0.11642 0.66240
# Poissons Ratio (z) = 0.17606 0.34055
#
# Static dielectric constant tensor:
#      x y z
#    x 1.697150 0.000000 0.003880 
#    y 0.000000 1.710220 0.000000 
#    z 0.003880 0.000000 1.728540 
# 
# From -- ./inp_files/76051.got.cif
#   From: 2010.05.17/outbox.cif.g08.bks.cpg/sg12_39_cif.got.tgz:76051.got - 2010.06.03 13:09:07.
