data_PCOD9222095
_publ_section_title
;
Structure prediction by ZEFSAII (Michael W. Deem and Ramdas Pophale) SiO2 
 PCOD9222095
Probable space group: C 2/M
;
_chemical_formula_sum "Si O2"
_cell_formula_units_Z 42
_cell_length_a 18.231107
_cell_length_b 15.497217
_cell_length_c 7.574356
_cell_angle_alpha 90.000000
_cell_angle_beta 117.806330
_cell_angle_gamma 90.000000
_cell_volume 1892.887319
_symmetry_space_group_name_H-M "C 2/M"
_symmetry_group_IT_number 12
_symmetry_cell_setting 'monoclinic'
loop_
_space_group_symop_operation_xyz
x,y,z
-x,y,-z
-x,-y,-z
x,-y,z
1/2+x,1/2+y,z
1/2-x,1/2+y,-z
1/2-x,1/2-y,-z
1/2+x,1/2-y,z
loop_
_atom_site_type_symbol
_atom_site_label
_atom_site_fract_x
_atom_site_fract_y
_atom_site_fract_z
Si Si1 0.893987 0.095489 0.244841
Si Si2 0.204884 0.098358 0.241422
Si Si3 0.500000 0.000000 0.000000
Si Si4 0.512404 0.144000 0.710951
Si Si5 0.048118 0.821459 0.241926
Si Si6 0.822398 0.269647 0.219567
O O1 0.857799 0.175878 0.313944
O O2 0.987480 0.118440 0.290343
O O3 0.887590 0.000000 0.315731
O O4 0.840290 0.094721 0.002009
O O5 0.135245 0.135901 0.292653
O O6 0.281785 0.164016 0.311792
O O7 0.229078 0.000000 0.313554
O O8 0.502454 0.074789 0.849260
O O9 0.500000 0.109242 0.500000
O O10 0.452402 0.225915 0.676012
O O11 0.604375 0.184531 0.807102
O O12 0.000000 0.811671 0.000000
O O13 0.750000 0.250000 0.000000
#
# Coordination Sequence:
#
# PCOD9222095 Si02
#       6
#     8   8   2   8   8   8
#     4   8  14  26  47  80 114 158 212 259 308 394
#     4   9  16  27  51  84 120 164 208 263 329 390
#     4  12  26  44  72  90 126 180 238 270 320 406
#     4  11  24  43  67  95 128 172 226 282 326 387
#     4   9  16  32  57  84 117 157 210 262 331 396
#     4   9  19  34  58  90 132 169 214 272 342 389
#
# _framework density 22.188324999999999
#
# number of rings (size 3 to 8) (size 9 to 14) (size 15 to 20)
#    0.000    2.667    0.952    2.000    1.333    2.286 
#    0.000    0.952    0.000   14.286    0.000    0.000 
#    0.000    0.000    0.000    0.000    0.000    0.000 
#
# Total GULP energy -117111.518515 kJ/mol
# GULP energy per Si atom -5576.738977 kJ/mol
# Density = 2.213782 g / cm^3
# Si number density = 22.188325 Si / 1000 Ang^3
#
#
#
# Elastic Constant Matrix: (Units=GPa)
#
#
# Indices 1 2 3 4 5 6 
#
# 1 125.7534 115.9556 30.1211 0.0000 -0.2518 0.0000
# 2 115.9556 249.8811 48.6692 0.0000 -14.3409 0.0000
# 3 30.1211 48.6692 96.6898 0.0000 -26.4750 0.0000
# 4 0.0000 0.0000 0.0000 26.2173 0.0000 -4.8653
# 5 -0.2518 -14.3409 -26.4750 0.0000 33.3883 0.0000
# 6 0.0000 0.0000 0.0000 -4.8653 0.0000 20.3335
#
#
#
# Elastic Compliance Matrix: (Units=1/GPa)
#
#
# Indices 1 2 3 4 5 6 
#
# 1 0.014585 -0.006544 -0.002541 0.000000 -0.004716 0.000000
# 2 -0.006544 0.007374 -0.001047 0.000000 0.002288 0.000000
# 3 -0.002541 -0.001047 0.014731 0.000000 0.011212 0.000000
# 4 0.000000 0.000000 0.000000 0.039915 0.000000 0.009551
# 5 -0.004716 0.002288 0.011212 0.000000 0.039788 0.000000
# 6 0.000000 0.000000 0.000000 0.009551 0.000000 0.051465
#
#
# Mechanical properties :
#
#
# Convention : Reuss Voigt Hill
#
# Bulk Modulus (GPa) = 60.87583 95.75738 78.31660
# Shear Modulus (GPa) = 25.82688 34.49305 30.15997
#
# Velocity S-wave (km/s) = 3.41542 3.94707 3.69083
# Velocity P-wave (km/s) = 6.56118 8.00142 7.31682
#
# Compressibility (1/GPa) = 0.01642688
#
# Stress axis : x y z
#
# Youngs Moduli (GPa) = 68.56190 135.61662 67.88572
#
# Poissons Ratio (x) = 0.88747 0.17249
# Poissons Ratio (y) = 0.44867 0.07104
# Poissons Ratio (z) = 0.17421 0.14193
#
# Static dielectric constant tensor:
#      x y z
#    x 1.762690 0.000000 0.028820 
#    y 0.000000 1.799900 0.000000 
#    z 0.028820 0.000000 1.859420 
# 
# From -- ./inp_files/72984.got.cif
#   From: 2010.05.17/outbox.cif.g08.bks.cpg/sg12_37_cif.got.tgz:72984.got - 2010.06.03 13:09:07.
