data_PCOD9222951
_publ_section_title
;
Structure prediction by ZEFSAII (Michael W. Deem and Ramdas Pophale) SiO2 
 PCOD9222951
Probable space group: C 2/M
;
_chemical_formula_sum "Si O2"
_cell_formula_units_Z 48
_cell_length_a 14.523331
_cell_length_b 16.138697
_cell_length_c 13.773334
_cell_angle_alpha 90.000000
_cell_angle_beta 33.037581
_cell_angle_gamma 90.000000
_cell_volume 1760.033268
_symmetry_space_group_name_H-M "C 2/M"
_symmetry_group_IT_number 12
_symmetry_cell_setting 'monoclinic'
loop_
_space_group_symop_operation_xyz
x,y,z
-x,y,-z
-x,-y,-z
x,-y,z
1/2+x,1/2+y,z
1/2-x,1/2+y,-z
1/2-x,1/2-y,-z
1/2+x,1/2-y,z
loop_
_atom_site_type_symbol
_atom_site_label
_atom_site_fract_x
_atom_site_fract_y
_atom_site_fract_z
Si Si1 0.548938 0.902810 0.321711
Si Si2 0.999922 0.086020 0.211642
Si Si3 0.617307 0.909863 0.044707
Si Si4 0.579304 0.640441 0.522023
Si Si5 0.740419 0.287298 0.618560
Si Si6 0.242079 0.246879 0.125097
O O1 0.383661 0.857223 0.510733
O O2 0.711056 0.840836 0.191161
O O3 0.571918 0.000000 0.327633
O O4 0.515198 0.900921 0.234875
O O5 0.889916 0.088605 0.408952
O O6 0.936489 0.166509 0.211375
O O7 0.189774 0.083655 0.083531
O O8 0.967689 0.000000 0.186792
O O9 0.623331 0.826800 0.976633
O O10 0.579032 0.000000 0.034106
O O11 0.500000 0.595065 0.500000
O O12 0.724178 0.702368 0.356649
O O13 0.437059 0.705556 0.685459
O O14 0.750000 0.250000 0.500000
O O15 0.250000 0.250000 0.000000
#
# Coordination Sequence:
#
# PCOD9222951 Si02
#       6
#     8   8   8   8   8   8
#     4   9  15  24  41  64  87 113 150 194 232 270
#     4   9  16  27  44  67  93 120 152 192 237 285
#     4   8  14  24  40  65  89 111 147 192 233 271
#     4   9  17  28  43  66  95 122 151 194 244 288
#     4   9  17  28  42  63  89 120 156 193 233 278
#     4   8  14  25  41  62  86 114 151 192 229 271
#
# _framework density 27.272212
#
# number of rings (size 3 to 8) (size 9 to 14) (size 15 to 20)
#    0.000    3.333    0.000    1.500    0.000    0.333 
#    0.000    0.000    0.000   12.500    0.000  168.000 
#    0.000  134.667    0.000    0.000    0.000    0.000 
#
# Total GULP energy -133704.680405 kJ/mol
# GULP energy per Si atom -5571.028350 kJ/mol
# Density = 2.721014 g / cm^3
# Si number density = 27.272212 Si / 1000 Ang^3
#
#
#
# Elastic Constant Matrix: (Units=GPa)
#
#
# Indices 1 2 3 4 5 6 
#
# 1 65.7229 17.9453 27.8574 -0.0007 0.4879 -0.0001
# 2 17.9453 212.9546 17.4531 -0.0010 4.1536 -0.0001
# 3 27.8574 17.4531 95.2970 -0.0040 0.8627 0.0013
# 4 -0.0007 -0.0010 -0.0040 6.9233 0.0012 0.2499
# 5 0.4879 4.1536 0.8627 0.0012 29.0210 0.0000
# 6 -0.0001 -0.0001 0.0013 0.2499 0.0000 -6.3702
#
#
#
# Elastic Compliance Matrix: (Units=1/GPa)
#
#
# Indices 1 2 3 4 5 6 
#
# 1 0.017608 -0.001078 -0.004950 -0.000001 0.000005 -0.000001
# 2 -0.001078 0.004846 -0.000566 0.000000 -0.000659 0.000000
# 3 -0.004950 -0.000566 0.012046 0.000006 -0.000194 0.000003
# 4 -0.000001 0.000000 0.000006 0.144236 -0.000006 0.005657
# 5 0.000005 -0.000659 -0.000194 -0.000006 0.034558 0.000000
# 6 -0.000001 0.000000 0.000003 0.005657 0.000000 -0.156759
#
#
# Mechanical properties :
#
#
# Convention : Reuss Voigt Hill
#
# Bulk Modulus (GPa) = 46.92404 55.60955 51.26680
# Shear Modulus (GPa) = 65.08175 26.62938 45.85556
#
# Velocity S-wave (km/s) = 4.89035 3.12818 4.10494
# Velocity P-wave (km/s) = 7.00932 5.78638 6.42700
#
# Compressibility (1/GPa) = 0.02131104
#
# Stress axis : x y z
#
# Youngs Moduli (GPa) = 56.79313 206.35744 83.01579
#
# Poissons Ratio (x) = 0.22250 0.41090
# Poissons Ratio (y) = 0.06124 0.04702
# Poissons Ratio (z) = 0.28111 0.11687
#
# Static dielectric constant tensor:
#      x y z
#    x 2.274340 0.000000 -0.045770 
#    y 0.000000 2.289020 0.000000 
#    z -0.045770 0.000000 2.204920 
# 
# From -- ./inp_files/278532.got.cif
#   From: 2010.05.17/outbox.cif.g08.bks.cpg/sg12_140_cif.got.tgz:278532.got - 2010.06.03 13:09:07.
