data_PCOD9222624
_publ_section_title
;
Structure prediction by ZEFSAII (Michael W. Deem and Ramdas Pophale) SiO2 
 PCOD9222624
Probable space group: C 2/M
;
_chemical_formula_sum "Si O2"
_cell_formula_units_Z 40
_cell_length_a 10.094151
_cell_length_b 25.602331
_cell_length_c 17.304310
_cell_angle_alpha 90.000000
_cell_angle_beta 149.085334
_cell_angle_gamma 90.000000
_cell_volume 2297.548136
_symmetry_space_group_name_H-M "C 2/M"
_symmetry_group_IT_number 12
_symmetry_cell_setting 'monoclinic'
loop_
_space_group_symop_operation_xyz
x,y,z
-x,y,-z
-x,-y,-z
x,-y,z
1/2+x,1/2+y,z
1/2-x,1/2+y,-z
1/2-x,1/2-y,-z
1/2+x,1/2-y,z
loop_
_atom_site_type_symbol
_atom_site_label
_atom_site_fract_x
_atom_site_fract_y
_atom_site_fract_z
Si Si1 0.301373 0.385854 0.555386
Si Si2 0.193137 0.000000 0.437797
Si Si3 0.810335 0.114955 0.747127
Si Si4 0.497200 0.280032 0.590512
Si Si5 0.181059 0.000000 0.251838
Si Si6 0.002912 0.777893 0.093759
O O1 0.382505 0.443674 0.567630
O O2 0.327574 0.383859 0.662022
O O3 0.462667 0.339964 0.598047
O O4 0.994730 0.378533 0.386386
O O5 0.107906 0.000000 0.305653
O O6 0.506065 0.000000 0.593418
O O7 0.966025 0.162932 0.860084
O O8 0.896847 0.056986 0.818137
O O9 0.500000 0.274666 0.500000
O O10 0.750824 0.254070 0.752510
O O11 0.250000 0.250000 0.500000
O O12 0.000000 0.777882 0.000000
O O13 0.750000 0.750000 0.000000
#
# Coordination Sequence:
#
# PCOD9222624 Si02
#       6
#     8   4   8   8   4   8
#     4   9  16  30  56  83 107 138 182 227 268 319
#     4   7  12  24  47  83 111 129 168 229 275 309
#     4   9  16  31  55  81 109 140 181 226 267 321
#     4  12  23  38  59  82 107 147 191 228 270 328
#     4   7  12  24  49  81 105 135 178 221 263 315
#     4  12  25  38  53  80 116 148 179 227 284 327
#
# _framework density 17.409862
#
# number of rings (size 3 to 8) (size 9 to 14) (size 15 to 20)
#    0.000    2.200    2.000    6.000    0.000    0.000 
#    0.000    1.000    0.000    1.200    0.000    5.600 
#    0.000    0.000    0.000    0.000    0.000    0.000 
#
# Total GULP energy -111486.459545 kJ/mol
# GULP energy per Si atom -5574.322977 kJ/mol
# Density = 1.737024 g / cm^3
# Si number density = 17.409862 Si / 1000 Ang^3
#
#
#
# Elastic Constant Matrix: (Units=GPa)
#
#
# Indices 1 2 3 4 5 6 
#
# 1 73.1809 53.8835 37.2093 0.0001 -2.9726 -0.0001
# 2 53.8835 209.2354 69.0317 -0.0006 2.0870 -0.0003
# 3 37.2093 69.0317 84.8754 0.0027 2.1575 0.0015
# 4 0.0001 -0.0006 0.0027 -6.7249 0.0005 -7.4936
# 5 -2.9726 2.0870 2.1575 0.0005 20.9648 0.0003
# 6 -0.0001 -0.0003 0.0015 -7.4936 0.0003 25.5898
#
#
#
# Elastic Compliance Matrix: (Units=1/GPa)
#
#
# Indices 1 2 3 4 5 6 
#
# 1 0.019058 -0.002948 -0.006049 -0.000001 0.003618 0.000000
# 2 -0.002948 0.006988 -0.004374 -0.000002 -0.000664 0.000000
# 3 -0.006049 -0.004374 0.018050 0.000007 -0.002280 0.000001
# 4 -0.000001 -0.000002 0.000007 -0.112117 0.000002 -0.032832
# 5 0.003618 -0.000664 -0.002280 0.000002 0.048513 0.000000
# 6 0.000000 0.000000 0.000001 -0.032832 0.000000 0.029464
#
#
# Mechanical properties :
#
#
# Convention : Reuss Voigt Hill
#
# Bulk Modulus (GPa) = 57.62832 76.39342 67.01087
# Shear Modulus (GPa) = 117.68983 21.77707 69.73345
#
# Velocity S-wave (km/s) = 8.23081 3.54057 6.33569
# Velocity P-wave (km/s) = 11.11311 7.79030 9.59661
#
# Compressibility (1/GPa) = 0.01735258
#
# Stress axis : x y z
#
# Youngs Moduli (GPa) = 52.47036 143.09321 55.40232
#
# Poissons Ratio (x) = 0.42189 0.33514
# Poissons Ratio (y) = 0.15470 0.24236
# Poissons Ratio (z) = 0.31740 0.62596
#
# Static dielectric constant tensor:
#      x y z
#    x 1.573700 0.000000 -0.007170 
#    y 0.000000 1.647350 0.000000 
#    z -0.007170 0.000000 1.564670 
# 
# From -- ./inp_files/259786.got.cif
#   From: 2010.05.17/outbox.cif.g08.bks.cpg/sg12_130_cif.got.tgz:259786.got - 2010.06.03 13:09:07.
