data_PCOD9222094
_publ_section_title
;
Structure prediction by ZEFSAII (Michael W. Deem and Ramdas Pophale) SiO2 
 PCOD9222094
Probable space group: C 2/M
;
_chemical_formula_sum "Si O2"
_cell_formula_units_Z 48
_cell_length_a 12.317154
_cell_length_b 26.813251
_cell_length_c 14.916067
_cell_angle_alpha 90.000000
_cell_angle_beta 152.013817
_cell_angle_gamma 90.000000
_cell_volume 2311.673177
_symmetry_space_group_name_H-M "C 2/M"
_symmetry_group_IT_number 12
_symmetry_cell_setting 'monoclinic'
loop_
_space_group_symop_operation_xyz
x,y,z
-x,y,-z
-x,-y,-z
x,-y,z
1/2+x,1/2+y,z
1/2-x,1/2+y,-z
1/2-x,1/2-y,-z
1/2+x,1/2-y,z
loop_
_atom_site_type_symbol
_atom_site_label
_atom_site_fract_x
_atom_site_fract_y
_atom_site_fract_z
Si Si1 0.442140 0.500000 0.714078
Si Si2 0.259215 0.000000 0.772512
Si Si3 0.605975 0.268292 0.809303
Si Si4 0.778675 0.000000 0.901875
Si Si5 0.590812 0.915989 0.412638
Si Si6 0.745137 0.894119 0.326130
Si Si7 0.105161 0.307871 0.483721
Si Si8 0.000000 0.669753 0.000000
O O1 0.561621 0.500000 0.703854
O O2 0.279615 0.451206 0.598794
O O3 0.632103 0.500000 0.930736
O O4 0.248281 0.950621 0.705419
O O5 0.500000 0.000000 0.000000
O O6 0.381954 0.299883 0.677873
O O7 0.506143 0.221984 0.680106
O O8 0.780887 0.298219 0.872521
O O9 0.750000 0.250000 0.000000
O O10 0.623903 0.048215 0.766549
O O11 0.000000 0.000000 0.000000
O O12 0.685467 0.896644 0.386345
O O13 0.541079 0.865952 0.429853
O O14 0.000000 0.871769 0.500000
O O15 0.570499 0.864071 0.136170
O O16 0.000000 0.287726 0.500000
#
# Coordination Sequence:
#
# PCOD9222094 Si02
#       8
#     4   4   8   4   8   8   8   4
#     4  11  24  43  67  94 141 176 226 279 330 397
#     4  12  21  37  64  98 137 177 211 269 329 399
#     4  11  25  48  71 102 139 175 228 286 348 413
#     4  11  28  46  66  96 136 185 234 284 328 397
#     4  11  25  44  68  99 133 181 228 276 335 405
#     4  12  23  40  65 101 138 179 217 271 343 405
#     4  11  26  46  73 100 136 182 229 284 344 409
#     4  12  26  41  70 102 136 175 222 284 344 406
#
# _framework density 20.764181000000001
#
# number of rings (size 3 to 8) (size 9 to 14) (size 15 to 20)
#    0.000    0.667    2.500    5.250    2.333    5.333 
#    1.500    0.000    0.000    0.000    0.000    0.000 
#    0.000    0.000    0.000    0.000    0.000    0.000 
#
# Total GULP energy -134345.936470 kJ/mol
# GULP energy per Si atom -5597.747353 kJ/mol
# Density = 2.071692 g / cm^3
# Si number density = 20.764181 Si / 1000 Ang^3
#
#
#
# Elastic Constant Matrix: (Units=GPa)
#
#
# Indices 1 2 3 4 5 6 
#
# 1 98.8084 17.1550 23.4829 0.0002 6.3637 -0.0002
# 2 17.1550 97.4383 44.3745 0.0001 -4.3296 0.0000
# 3 23.4829 44.3745 134.8759 0.0003 -3.0778 -0.0004
# 4 0.0002 0.0001 0.0003 13.9426 0.0003 3.6889
# 5 6.3637 -4.3296 -3.0778 0.0003 40.6258 -0.0002
# 6 -0.0002 0.0000 -0.0004 3.6889 -0.0002 18.1660
#
#
#
# Elastic Compliance Matrix: (Units=1/GPa)
#
#
# Indices 1 2 3 4 5 6 
#
# 1 0.010830 -0.001311 -0.001499 0.000000 -0.001950 0.000000
# 2 -0.001311 0.012270 -0.003781 0.000000 0.001227 0.000000
# 3 -0.001499 -0.003781 0.008931 0.000000 0.000508 0.000000
# 4 0.000000 0.000000 0.000000 0.075795 -0.000001 -0.015391
# 5 -0.001950 0.001227 0.000508 -0.000001 0.025090 0.000000
# 6 0.000000 0.000000 0.000000 -0.015391 0.000000 0.058174
#
#
# Mechanical properties :
#
#
# Convention : Reuss Voigt Hill
#
# Bulk Modulus (GPa) = 53.05028 55.68304 54.36666
# Shear Modulus (GPa) = 23.74706 30.95422 27.35064
#
# Velocity S-wave (km/s) = 3.38547 3.86521 3.63327
# Velocity P-wave (km/s) = 6.39423 6.84068 6.62122
#
# Compressibility (1/GPa) = 0.01885004
#
# Stress axis : x y z
#
# Youngs Moduli (GPa) = 92.33657 81.50016 111.97441
#
# Poissons Ratio (x) = 0.10683 0.16783
# Poissons Ratio (y) = 0.12103 0.42333
# Poissons Ratio (z) = 0.13840 0.30812
#
# Static dielectric constant tensor:
#      x y z
#    x 1.752720 0.000000 0.008160 
#    y 0.000000 1.747680 0.000000 
#    z 0.008160 0.000000 1.736240 
# 
# From -- ./inp_files/209514.got.cif
#   From: 2010.05.17/outbox.cif.g08.bks.cpg/sg12_105_cif.got.tgz:209514.got - 2010.06.03 13:09:07.
