data_PCOD9222895
_publ_section_title
;
Structure prediction by ZEFSAII (Michael W. Deem and Ramdas Pophale) SiO2 
 PCOD9222895
Probable space group: C 2/M
;
_chemical_formula_sum "Si O2"
_cell_formula_units_Z 40
_cell_length_a 30.098134
_cell_length_b 7.446987
_cell_length_c 26.303425
_cell_angle_alpha 90.000000
_cell_angle_beta 159.575892
_cell_angle_gamma 90.000000
_cell_volume 2057.387378
_symmetry_space_group_name_H-M "C 2/M"
_symmetry_group_IT_number 12
_symmetry_cell_setting 'monoclinic'
loop_
_space_group_symop_operation_xyz
x,y,z
-x,y,-z
-x,-y,-z
x,-y,z
1/2+x,1/2+y,z
1/2-x,1/2+y,-z
1/2-x,1/2-y,-z
1/2+x,1/2-y,z
loop_
_atom_site_type_symbol
_atom_site_label
_atom_site_fract_x
_atom_site_fract_y
_atom_site_fract_z
Si Si1 0.881084 0.219782 0.405801
Si Si2 0.543362 0.220235 0.186330
Si Si3 0.824865 0.790415 0.456560
Si Si4 0.603261 0.788017 0.358107
Si Si5 0.395654 0.781228 0.929919
O O1 0.882935 0.280378 0.466612
O O2 0.745368 0.274979 0.236935
O O3 0.000000 0.281394 0.500000
O O4 0.884469 0.000000 0.408604
O O5 0.683724 0.282212 0.318119
O O6 0.525656 0.279753 0.225813
O O7 0.545312 0.000000 0.189405
O O8 0.441852 0.275183 0.035308
O O9 0.909714 0.778451 0.598305
O O10 0.801985 0.000000 0.422461
O O11 0.750000 0.750000 0.500000
O O12 0.585450 0.000000 0.341671
O O13 0.396342 0.000000 0.930122
O O14 0.500000 0.724619 0.000000
#
# Coordination Sequence:
#
# PCOD9222895 Si02
#       5
#     8   8   8   8   8
#     4   9  16  24  37  60  86 109 136 174 215 248
#     4   8  13  21  35  57  79 101 132 169 203 241
#     4   9  15  25  40  59  85 111 138 170 207 251
#     4   9  16  25  39  61  86 109 138 173 209 247
#     4   9  13  20  36  56  80 107 133 169 213 247
#
# _framework density 19.442133999999999
#
# number of rings (size 3 to 8) (size 9 to 14) (size 15 to 20)
#    0.000    3.200    2.000    1.800    0.000    0.000 
#    0.000    0.000    0.000    1.800    0.000   12.600 
#    0.000    0.000    0.000    0.000    0.000    0.800 
#
# Total GULP energy -111395.424916 kJ/mol
# GULP energy per Si atom -5569.771246 kJ/mol
# Density = 1.939788 g / cm^3
# Si number density = 19.442134 Si / 1000 Ang^3
#
#
#
# Elastic Constant Matrix: (Units=GPa)
#
#
# Indices 1 2 3 4 5 6 
#
# 1 191.7439 0.4802 102.2835 0.0000 -33.6463 0.0000
# 2 0.4802 52.4328 -1.5242 0.0000 4.5952 0.0000
# 3 102.2835 -1.5242 109.7453 0.0001 -17.7675 0.0000
# 4 0.0000 0.0000 0.0001 0.8732 0.0000 -6.7536
# 5 -33.6463 4.5952 -17.7675 0.0000 36.3077 0.0000
# 6 0.0000 0.0000 0.0000 -6.7536 0.0000 9.6368
#
#
#
# Elastic Compliance Matrix: (Units=1/GPa)
#
#
# Indices 1 2 3 4 5 6 
#
# 1 0.011448 -0.000910 -0.009716 0.000000 0.005969 0.000000
# 2 -0.000910 0.019360 0.000634 0.000000 -0.002984 0.000000
# 3 -0.009716 0.000634 0.018143 0.000001 -0.000205 0.000000
# 4 0.000000 0.000000 0.000001 -0.259078 0.000001 -0.181565
# 5 0.005969 -0.002984 -0.000205 0.000001 0.033351 0.000000
# 6 0.000000 0.000000 0.000000 -0.181565 0.000000 -0.023475
#
#
# Mechanical properties :
#
#
# Convention : Reuss Voigt Hill
#
# Bulk Modulus (GPa) = 34.52167 61.82233 48.17200
# Shear Modulus (GPa) = -29.30632 26.20903 -1.54864
#
# Velocity S-wave (km/s) = -3.88669 3.67557 -0.89346
# Velocity P-wave (km/s) = 1.53203 7.06259 4.87509
#
# Compressibility (1/GPa) = 0.02896731
#
# Stress axis : x y z
#
# Youngs Moduli (GPa) = 87.35376 51.65213 55.11908
#
# Poissons Ratio (x) = 0.04703 0.53551
# Poissons Ratio (y) = 0.07953 -0.03497
# Poissons Ratio (z) = 0.84869 -0.03277
#
# Static dielectric constant tensor:
#      x y z
#    x 1.703520 0.000000 -0.047020 
#    y 0.000000 1.764120 0.000000 
#    z -0.047020 0.000000 1.651560 
# 
# From -- ./inp_files/101204.got.cif
#   From: 2010.05.17/outbox.cif.g08.bks.cpg/sg12_51_cif.got.tgz:101204.got - 2010.06.03 13:09:07.
