data_PCOD9222792
_publ_section_title
;
Structure prediction by ZEFSAII (Michael W. Deem and Ramdas Pophale) SiO2 
 PCOD9222792
Probable space group: C 2/M
;
_chemical_formula_sum "Si O2"
_cell_formula_units_Z 48
_cell_length_a 25.415085
_cell_length_b 7.360617
_cell_length_c 24.675058
_cell_angle_alpha 90.000000
_cell_angle_beta 145.267550
_cell_angle_gamma 90.000000
_cell_volume 2629.932114
_symmetry_space_group_name_H-M "C 2/M"
_symmetry_group_IT_number 12
_symmetry_cell_setting 'monoclinic'
loop_
_space_group_symop_operation_xyz
x,y,z
-x,y,-z
-x,-y,-z
x,-y,z
1/2+x,1/2+y,z
1/2-x,1/2+y,-z
1/2-x,1/2-y,-z
1/2+x,1/2-y,z
loop_
_atom_site_type_symbol
_atom_site_label
_atom_site_fract_x
_atom_site_fract_y
_atom_site_fract_z
Si Si1 0.788400 0.721665 0.770667
Si Si2 0.913967 0.286945 0.969337
Si Si3 0.903307 0.777847 0.442994
Si Si4 0.370639 0.781544 0.650141
Si Si5 0.663017 0.285872 0.497331
Si Si6 0.953943 0.721934 0.829869
O O1 0.789601 0.500000 0.772696
O O2 0.828046 0.786148 0.862117
O O3 0.686264 0.777839 0.667508
O O4 0.862725 0.773240 0.787268
O O5 0.894745 0.500000 0.962370
O O6 0.000000 0.276946 0.000000
O O7 0.956264 0.213313 0.060968
O O8 0.885868 0.716764 0.490066
O O9 0.000000 0.717032 0.500000
O O10 0.904873 0.000000 0.443963
O O11 0.390031 0.735932 0.604249
O O12 0.266925 0.712663 0.576103
O O13 0.438932 0.719786 0.755425
O O14 0.368189 0.000000 0.650747
O O15 0.675272 0.500000 0.516871
O O16 0.956621 0.500000 0.833170
#
# Coordination Sequence:
#
# PCOD9222792 Si02
#       6
#     8   8   8   8   8   8
#     4   8  11  17  27  43  68  91 111 139 174 210
#     4   7  10  14  24  42  65  89 107 130 173 219
#     4   9  15  22  33  48  68  96 123 144 171 207
#     4   9  15  23  37  53  72  96 118 143 177 215
#     4   9  16  25  35  51  74  96 119 146 175 209
#     4   8  11  17  29  47  69  90 108 133 176 218
#
# _framework density 18.251422000000002
#
# number of rings (size 3 to 8) (size 9 to 14) (size 15 to 20)
#    0.000    3.667    1.667    2.000    0.000    0.000 
#    0.000    0.000    0.000    0.500    0.000    1.167 
#    0.000    7.333    0.000    0.000    0.000    0.000 
#
# Total GULP energy -133605.483193 kJ/mol
# GULP energy per Si atom -5566.895133 kJ/mol
# Density = 1.820988 g / cm^3
# Si number density = 18.251422 Si / 1000 Ang^3
#
#
#
# Elastic Constant Matrix: (Units=GPa)
#
#
# Indices 1 2 3 4 5 6 
#
# 1 93.1107 4.8288 87.0138 0.0000 -14.7695 0.0000
# 2 4.8288 63.2918 0.5850 -0.0002 1.7662 -0.0005
# 3 87.0138 0.5850 181.3427 0.0000 -29.3505 0.0000
# 4 0.0000 -0.0002 0.0000 -2.6964 0.0000 -10.8255
# 5 -14.7695 1.7662 -29.3505 0.0000 24.2815 0.0000
# 6 0.0000 -0.0005 0.0000 -10.8255 0.0000 -6.2634
#
#
#
# Elastic Compliance Matrix: (Units=1/GPa)
#
#
# Indices 1 2 3 4 5 6 
#
# 1 0.019609 -0.001433 -0.009271 0.000000 0.000826 0.000000
# 2 -0.001433 0.015949 0.000382 -0.000001 -0.001570 0.000000
# 3 -0.009271 0.000382 0.011244 0.000000 0.007925 0.000000
# 4 0.000000 -0.000001 0.000000 0.062445 0.000000 -0.107928
# 5 0.000826 -0.001570 0.007925 0.000000 0.051379 0.000000
# 6 0.000000 0.000000 0.000000 -0.107928 0.000000 0.026882
#
#
# Mechanical properties :
#
#
# Convention : Reuss Voigt Hill
#
# Bulk Modulus (GPa) = 38.22806 58.06671 48.14738
# Shear Modulus (GPa) = 23.05503 19.41886 21.23694
#
# Velocity S-wave (km/s) = 3.55800 3.26538 3.41483
# Velocity P-wave (km/s) = 6.15385 6.78977 6.47961
#
# Compressibility (1/GPa) = 0.02615880
#
# Stress axis : x y z
#
# Youngs Moduli (GPa) = 50.99749 62.69798 88.93504
#
# Poissons Ratio (x) = 0.08987 0.82449
# Poissons Ratio (y) = 0.07310 -0.03399
# Poissons Ratio (z) = 0.47278 -0.02396
#
# Static dielectric constant tensor:
#      x y z
#    x 1.586900 0.000000 -0.041740 
#    y 0.000000 1.746460 0.000000 
#    z -0.041740 0.000000 1.670890 
# 
# From -- ./inp_files/236614.got.cif
#   From: 2010.05.17/outbox.cif.g08.bks.cpg/sg12_119_cif.got.tgz:236614.got - 2010.06.03 13:09:07.
