data_PCOD9222279
_publ_section_title
;
Structure prediction by ZEFSAII (Michael W. Deem and Ramdas Pophale) SiO2 
 PCOD9222279
Probable space group: C 2/M
;
_chemical_formula_sum "Si O2"
_cell_formula_units_Z 48
_cell_length_a 13.644977
_cell_length_b 30.717312
_cell_length_c 8.874255
_cell_angle_alpha 90.000000
_cell_angle_beta 39.105021
_cell_angle_gamma 90.000000
_cell_volume 2346.069748
_symmetry_space_group_name_H-M "C 2/M"
_symmetry_group_IT_number 12
_symmetry_cell_setting 'monoclinic'
loop_
_space_group_symop_operation_xyz
x,y,z
-x,y,-z
-x,-y,-z
x,-y,z
1/2+x,1/2+y,z
1/2-x,1/2+y,-z
1/2-x,1/2-y,-z
1/2+x,1/2-y,z
loop_
_atom_site_type_symbol
_atom_site_label
_atom_site_fract_x
_atom_site_fract_y
_atom_site_fract_z
Si Si1 0.241151 0.450970 0.400150
Si Si2 0.850791 0.130441 0.752702
Si Si3 0.690551 0.295283 0.632780
Si Si4 0.320244 0.292805 0.000136
Si Si5 0.405349 0.450999 0.895313
Si Si6 0.853339 0.623703 0.278790
O O1 0.179846 0.500000 0.493960
O O2 0.418068 0.449935 0.253172
O O3 0.139475 0.415198 0.608318
O O4 0.278226 0.443760 0.179597
O O5 0.771515 0.166257 0.954086
O O6 0.893792 0.089084 0.799226
O O7 0.763021 0.111029 0.715117
O O8 0.000000 0.153354 0.500000
O O9 0.750000 0.250000 0.500000
O O10 0.508322 0.296244 0.801369
O O11 0.781318 0.334911 0.448189
O O12 0.727127 0.296143 0.768029
O O13 0.250000 0.250000 0.000000
O O14 0.380437 0.500000 0.864374
O O15 0.000000 0.635114 0.000000
#
# Coordination Sequence:
#
# PCOD9222279 Si02
#       6
#     8   8   8   8   8   8
#     4   9  18  37  63  92 126 164 208 257 313 372
#     4  12  22  39  63  92 126 160 209 264 305 364
#     4  11  25  44  66  90 125 163 204 260 312 373
#     4  11  25  43  68  93 120 160 209 260 318 369
#     4   9  18  35  65  96 121 160 213 263 310 365
#     4  12  26  41  60  91 132 169 206 253 316 378
#
# _framework density 20.459748999999999
#
# number of rings (size 3 to 8) (size 9 to 14) (size 15 to 20)
#    0.000    1.333    3.333    3.000    4.667    4.000 
#    0.000    2.500    0.000    2.000    0.000    0.000 
#    0.000    0.000    0.000    0.000    0.000    0.000 
#
# Total GULP energy -133785.424821 kJ/mol
# GULP energy per Si atom -5574.392701 kJ/mol
# Density = 2.041318 g / cm^3
# Si number density = 20.459749 Si / 1000 Ang^3
#
#
#
# Elastic Constant Matrix: (Units=GPa)
#
#
# Indices 1 2 3 4 5 6 
#
# 1 40.6563 29.0302 24.1071 0.0000 24.1824 0.0000
# 2 29.0302 142.6686 68.0813 0.0000 31.5477 0.0000
# 3 24.1071 68.0813 117.3745 0.0000 22.6882 0.0000
# 4 0.0000 0.0000 0.0000 28.0137 0.0000 7.0501
# 5 24.1824 31.5477 22.6882 0.0000 26.6753 0.0000
# 6 0.0000 0.0000 0.0000 7.0501 0.0000 28.5117
#
#
#
# Elastic Compliance Matrix: (Units=1/GPa)
#
#
# Indices 1 2 3 4 5 6 
#
# 1 0.053783 0.000646 -0.002213 0.000000 -0.047639 0.000000
# 2 0.000646 0.011370 -0.004805 0.000000 -0.009946 0.000000
# 3 -0.002213 -0.004805 0.012297 0.000000 -0.002770 0.000000
# 4 0.000000 0.000000 0.000000 0.038066 0.000000 -0.009412
# 5 -0.047639 -0.009946 -0.002770 0.000000 0.094794 0.000000
# 6 0.000000 0.000000 0.000000 -0.009412 0.000000 0.037401
#
#
# Mechanical properties :
#
#
# Convention : Reuss Voigt Hill
#
# Bulk Modulus (GPa) = 15.45431 60.34852 37.90142
# Shear Modulus (GPa) = 17.72910 28.60552 23.16731
#
# Velocity S-wave (km/s) = 2.94689 3.74322 3.36867
# Velocity P-wave (km/s) = 4.37594 6.94568 5.80480
#
# Compressibility (1/GPa) = 0.06470686
#
# Stress axis : x y z
#
# Youngs Moduli (GPa) = 18.59326 87.95002 81.32154
#
# Poissons Ratio (x) = -0.05685 0.17994
# Poissons Ratio (y) = -0.01202 0.39078
# Poissons Ratio (z) = 0.04114 0.42263
#
# Static dielectric constant tensor:
#      x y z
#    x 1.724070 0.000000 -0.015450 
#    y 0.000000 1.460250 0.000000 
#    z -0.015450 0.000000 1.769840 
# 
# From -- ./inp_files/67310.got.cif
#   From: 2010.05.17/outbox.cif.g08.bks.cpg/sg12_34_cif.got.tgz:67310.got - 2010.06.03 13:09:07.
