data_PCOD9222238
_publ_section_title
;
Structure prediction by ZEFSAII (Michael W. Deem and Ramdas Pophale) SiO2 
 PCOD9222238
Probable space group: C 2/M
;
_chemical_formula_sum "Si O2"
_cell_formula_units_Z 40
_cell_length_a 10.299526
_cell_length_b 29.497490
_cell_length_c 7.983259
_cell_angle_alpha 90.000000
_cell_angle_beta 50.010980
_cell_angle_gamma 90.000000
_cell_volume 1858.259273
_symmetry_space_group_name_H-M "C 2/M"
_symmetry_group_IT_number 12
_symmetry_cell_setting 'monoclinic'
loop_
_space_group_symop_operation_xyz
x,y,z
-x,y,-z
-x,-y,-z
x,-y,z
1/2+x,1/2+y,z
1/2-x,1/2+y,-z
1/2-x,1/2-y,-z
1/2+x,1/2-y,z
loop_
_atom_site_type_symbol
_atom_site_label
_atom_site_fract_x
_atom_site_fract_y
_atom_site_fract_z
Si Si1 0.619397 0.450502 0.236105
Si Si2 0.213709 0.782446 0.189223
Si Si3 0.119103 0.346820 0.685232
Si Si4 0.000000 0.574208 0.000000
Si Si5 0.481351 0.643080 0.211780
Si Si6 0.500000 0.788863 0.500000
O O1 0.500000 0.447897 0.500000
O O2 0.585241 0.500000 0.184596
O O3 0.570456 0.405354 0.174946
O O4 0.819156 0.449292 0.117897
O O5 0.334308 0.816012 0.192956
O O6 0.071890 0.817162 0.240643
O O7 0.156823 0.745268 0.373334
O O8 0.250000 0.750000 0.000000
O O9 0.289188 0.357346 0.438740
O O10 0.995886 0.319414 0.666383
O O11 0.035721 0.392982 0.813833
O O12 0.500000 0.652983 0.000000
#
# Coordination Sequence:
#
# PCOD9222238 Si02
#       6
#     8   8   8   4   8   4
#     4  11  24  48  76 105 138 180 232 297 365 432
#     4  12  24  42  65  96 139 189 240 290 345 407
#     4  12  25  45  66 103 144 185 242 294 349 419
#     4  12  23  44  78 104 138 178 240 290 355 426
#     4  12  25  45  69  99 144 189 234 292 357 423
#     4  12  26  38  62  98 142 186 240 282 338 416
#
# _framework density 21.52552
#
# number of rings (size 3 to 8) (size 9 to 14) (size 15 to 20)
#    0.000    0.200    6.000    3.300    5.600    0.400 
#    0.000    0.000    0.000    1.200    0.000    0.000 
#    0.000    0.000    0.000    0.000    0.000    0.000 
#
# Total GULP energy -111737.571407 kJ/mol
# GULP energy per Si atom -5586.878570 kJ/mol
# Density = 2.147653 g / cm^3
# Si number density = 21.525520 Si / 1000 Ang^3
#
#
#
# Elastic Constant Matrix: (Units=GPa)
#
#
# Indices 1 2 3 4 5 6 
#
# 1 76.8193 27.0738 34.6438 0.0000 -2.4808 0.0000
# 2 27.0738 121.0563 24.0385 0.0000 -0.5010 0.0000
# 3 34.6438 24.0385 111.9624 0.0000 -9.8187 0.0000
# 4 0.0000 0.0000 0.0000 9.1926 0.0000 18.3910
# 5 -2.4808 -0.5010 -9.8187 0.0000 42.1231 0.0000
# 6 0.0000 0.0000 0.0000 18.3910 0.0000 23.7056
#
#
#
# Elastic Compliance Matrix: (Units=1/GPa)
#
#
# Indices 1 2 3 4 5 6 
#
# 1 0.015931 -0.002698 -0.004360 0.000000 -0.000110 0.000000
# 2 -0.002698 0.009090 -0.001145 0.000000 -0.000318 0.000000
# 3 -0.004360 -0.001145 0.010722 0.000000 0.002229 0.000000
# 4 0.000000 0.000000 0.000000 -0.197031 0.000000 0.152859
# 5 -0.000110 -0.000318 0.002229 0.000000 0.024249 0.000000
# 6 0.000000 0.000000 0.000000 0.152859 0.000000 -0.076406
#
#
# Mechanical properties :
#
#
# Convention : Reuss Voigt Hill
#
# Bulk Modulus (GPa) = 51.71108 53.48338 52.59723
# Shear Modulus (GPa) = -26.23370 29.94305 1.85467
#
# Velocity S-wave (km/s) = -3.49481 3.73372 0.92924
# Velocity P-wave (km/s) = 2.79112 6.59454 5.06351
#
# Compressibility (1/GPa) = 0.01933822
#
# Stress axis : x y z
#
# Youngs Moduli (GPa) = 62.77086 110.01181 93.26735
#
# Poissons Ratio (x) = 0.29677 0.40664
# Poissons Ratio (y) = 0.16933 0.10677
# Poissons Ratio (z) = 0.27367 0.12594
#
# Static dielectric constant tensor:
#      x y z
#    x 1.789940 0.000000 -0.057550 
#    y 0.000000 1.750000 0.000000 
#    z -0.057550 0.000000 1.864290 
# 
# From -- ./inp_files/52359.got.cif
#   From: 2010.05.17/outbox.cif.g08.bks.cpg/sg12_27_cif.got.tgz:52359.got - 2010.06.03 13:09:07.
