data_PCOD9222793
_publ_section_title
;
Structure prediction by ZEFSAII (Michael W. Deem and Ramdas Pophale) SiO2 
 PCOD9222793
Probable space group: C 2/M
;
_chemical_formula_sum "Si O2"
_cell_formula_units_Z 56
_cell_length_a 28.435527
_cell_length_b 7.337320
_cell_length_c 26.281067
_cell_angle_alpha 90.000000
_cell_angle_beta 35.770820
_cell_angle_gamma 90.000000
_cell_volume 3205.231038
_symmetry_space_group_name_H-M "C 2/M"
_symmetry_group_IT_number 12
_symmetry_cell_setting 'monoclinic'
loop_
_space_group_symop_operation_xyz
x,y,z
-x,y,-z
-x,-y,-z
x,-y,z
1/2+x,1/2+y,z
1/2-x,1/2+y,-z
1/2-x,1/2-y,-z
1/2+x,1/2-y,z
loop_
_atom_site_type_symbol
_atom_site_label
_atom_site_fract_x
_atom_site_fract_y
_atom_site_fract_z
Si Si1 0.556823 0.213110 0.000325
Si Si2 0.543094 0.721975 0.539373
Si Si3 0.878430 0.221843 0.635756
Si Si4 0.411609 0.776961 0.190327
Si Si5 0.802545 0.277203 0.189776
Si Si6 0.648060 0.281154 0.540520
Si Si7 0.329618 0.215694 0.364620
O O1 0.642006 0.286741 0.905943
O O2 0.570164 0.000000 0.000181
O O3 0.500000 0.221589 0.000000
O O4 0.499989 0.287042 0.094834
O O5 0.542301 0.500000 0.540593
O O6 0.451896 0.779604 0.607506
O O7 0.596947 0.774923 0.443276
O O8 0.583623 0.784284 0.555953
O O9 0.789589 0.282677 0.728805
O O10 0.877405 0.000000 0.637026
O O11 0.347653 0.726028 0.202580
O O12 0.380505 0.714411 0.272353
O O13 0.414519 0.000000 0.187486
O O14 0.803243 0.500000 0.188101
O O15 0.650540 0.500000 0.534186
O O16 0.631806 0.240389 0.613751
O O17 0.738124 0.212086 0.448507
O O18 0.321826 0.000000 0.362804
#
# Coordination Sequence:
#
# PCOD9222793 Si02
#       7
#     8   8   8   8   8   8   8
#     4   7  10  15  23  38  61  86 106 125 157 199
#     4   8  13  20  29  43  64  87 108 132 162 195
#     4   8  12  17  27  44  63  83 108 133 160 197
#     4   8  12  18  28  43  65  89 108 128 159 198
#     4   8  11  15  25  42  65  88 105 127 163 201
#     4   9  16  25  35  48  68  90 111 137 166 192
#     4   9  16  24  35  50  66  88 116 138 159 192
#
# _framework density 17.471440000000001
#
# number of rings (size 3 to 8) (size 9 to 14) (size 15 to 20)
#    0.000    3.857    0.000    3.429    0.000    3.429 
#    0.000    0.000    0.000    0.000    0.000    3.000 
#    0.000    6.286    0.000    0.286    0.000    0.000 
#
# Total GULP energy -155918.142328 kJ/mol
# GULP energy per Si atom -5568.505083 kJ/mol
# Density = 1.743167 g / cm^3
# Si number density = 17.471440 Si / 1000 Ang^3
#
#
#
# Elastic Constant Matrix: (Units=GPa)
#
#
# Indices 1 2 3 4 5 6 
#
# 1 106.3341 -1.7260 94.2485 -0.0045 6.2097 0.0020
# 2 -1.7260 64.9189 8.7972 -0.0014 0.5278 -0.0082
# 3 94.2485 8.7972 194.3344 -0.0036 0.8532 -0.0015
# 4 -0.0045 -0.0014 -0.0036 -9.5656 0.0014 9.0337
# 5 6.2097 0.5278 0.8532 0.0014 27.8217 0.0002
# 6 0.0020 -0.0082 -0.0015 9.0337 0.0002 1.7811
#
#
#
# Elastic Compliance Matrix: (Units=1/GPa)
#
#
# Indices 1 2 3 4 5 6 
#
# 1 0.016995 0.001605 -0.008299 -0.000004 -0.003569 0.000002
# 2 0.001605 0.015653 -0.001485 0.000011 -0.000610 0.000014
# 3 -0.008299 -0.001485 0.009231 0.000002 0.001597 0.000001
# 4 -0.000004 0.000011 0.000002 -0.018056 0.000001 0.091577
# 5 -0.003569 -0.000610 0.001597 0.000001 0.036702 -0.000006
# 6 0.000002 0.000014 0.000001 0.091577 -0.000006 0.096969
#
#
# Mechanical properties :
#
#
# Convention : Reuss Voigt Hill
#
# Bulk Modulus (GPa) = 39.18203 63.13628 51.15916
# Shear Modulus (GPa) = 27.41866 21.62530 24.52198
#
# Velocity S-wave (km/s) = 3.96579 3.52199 3.75046
# Velocity P-wave (km/s) = 6.59128 7.26323 6.93540
#
# Compressibility (1/GPa) = 0.02552190
#
# Stress axis : x y z
#
# Youngs Moduli (GPa) = 58.84207 63.88693 108.33231
#
# Poissons Ratio (x) = -0.10257 0.89906
# Poissons Ratio (y) = -0.09447 0.16082
# Poissons Ratio (z) = 0.48834 0.09484
#
# Static dielectric constant tensor:
#      x y z
#    x 1.562610 -0.000010 -0.002490 
#    y -0.000010 1.704960 0.000000 
#    z -0.002490 0.000000 1.617810 
# 
# From -- ./inp_files/292649.got.cif
#   From: 2010.05.17/outbox.cif.g08.bks.cpg/sg12_147_cif.got.tgz:292649.got - 2010.06.03 13:09:07.
