data_PCOD9222999
_publ_section_title
;
Structure prediction by ZEFSAII (Michael W. Deem and Ramdas Pophale) SiO2 
 PCOD9222999
Probable space group: C 2/M
;
_chemical_formula_sum "Si O2"
_cell_formula_units_Z 56
_cell_length_a 20.428079
_cell_length_b 7.624608
_cell_length_c 19.284954
_cell_angle_alpha 90.000000
_cell_angle_beta 104.977023
_cell_angle_gamma 90.000000
_cell_volume 2901.710384
_symmetry_space_group_name_H-M "C 2/M"
_symmetry_group_IT_number 12
_symmetry_cell_setting 'monoclinic'
loop_
_space_group_symop_operation_xyz
x,y,z
-x,y,-z
-x,-y,-z
x,-y,z
1/2+x,1/2+y,z
1/2-x,1/2+y,-z
1/2-x,1/2-y,-z
1/2+x,1/2-y,z
loop_
_atom_site_type_symbol
_atom_site_label
_atom_site_fract_x
_atom_site_fract_y
_atom_site_fract_z
Si Si1 0.645619 0.211449 0.277056
Si Si2 0.286626 0.290966 0.849968
Si Si3 0.503876 0.785582 0.723264
Si Si4 0.816121 0.289961 0.562154
Si Si5 0.036163 0.285804 0.440255
Si Si6 0.171430 0.791853 0.995420
Si Si7 0.364063 0.204991 0.162394
O O1 0.681840 0.263165 0.216306
O O2 0.567334 0.270168 0.261889
O O3 0.682954 0.273243 0.357749
O O4 0.645079 0.000000 0.278214
O O5 0.281274 0.500000 0.860151
O O6 0.333762 0.226253 0.926726
O O7 0.209685 0.219546 0.836457
O O8 0.500657 0.735233 0.641436
O O9 0.570538 0.720653 0.780865
O O10 0.503739 0.000000 0.725308
O O11 0.821347 0.500000 0.567072
O O12 0.750000 0.250000 0.500000
O O13 0.885783 0.227808 0.545520
O O14 0.036065 0.500000 0.441953
O O15 0.000000 0.224086 0.500000
O O16 0.160218 0.000000 0.990081
O O17 0.250000 0.750000 0.000000
O O18 0.130305 0.716290 0.919470
O O19 0.361874 0.000000 0.180784
#
# Coordination Sequence:
#
# PCOD9222999 Si02
#       7
#     8   8   8   8   8   8   8
#     4   9  18  32  48  66  92 125 155 185 224 272
#     4   9  18  30  46  70  94 117 149 189 230 270
#     4   8  15  29  46  65  91 120 152 189 225 266
#     4   9  18  31  47  69  94 120 152 188 228 273
#     4   8  14  26  46  69  90 116 152 191 227 263
#     4   9  17  30  47  68  94 121 152 190 230 271
#     4   9  17  30  49  71  93 118 152 193 232 270
#
# _framework density 19.298962
#
# number of rings (size 3 to 8) (size 9 to 14) (size 15 to 20)
#    0.000    3.286    0.000    3.000    0.000    4.571 
#    0.000    4.286    0.000    5.571    0.000    0.000 
#    0.000    0.000    0.000    0.000    0.000    0.000 
#
# Total GULP energy -155941.493999 kJ/mol
# GULP energy per Si atom -5569.339071 kJ/mol
# Density = 1.925504 g / cm^3
# Si number density = 19.298962 Si / 1000 Ang^3
#
#
#
# Elastic Constant Matrix: (Units=GPa)
#
#
# Indices 1 2 3 4 5 6 
#
# 1 105.7229 0.1254 118.8721 0.0000 8.9420 0.0000
# 2 0.1254 31.1358 -8.2623 0.0000 1.8581 0.0000
# 3 118.8721 -8.2623 188.8292 0.0000 3.2368 0.0000
# 4 0.0000 0.0000 0.0000 20.5416 0.0000 -0.5011
# 5 8.9420 1.8581 3.2368 0.0000 38.4856 0.0000
# 6 0.0000 0.0000 0.0000 -0.5011 0.0000 13.3874
#
#
#
# Elastic Compliance Matrix: (Units=1/GPa)
#
#
# Indices 1 2 3 4 5 6 
#
# 1 0.034668 -0.005615 -0.021968 0.000000 -0.005936 0.000000
# 2 -0.005615 0.033514 0.005014 0.000000 -0.000735 0.000000
# 3 -0.021968 0.005014 0.019289 0.000000 0.003240 0.000000
# 4 0.000000 0.000000 0.000000 0.048726 0.000000 0.001824
# 5 -0.005936 -0.000735 0.003240 0.000000 0.027126 0.000000
# 6 0.000000 0.000000 0.000000 0.001824 0.000000 0.074765
#
#
# Mechanical properties :
#
#
# Convention : Reuss Voigt Hill
#
# Bulk Modulus (GPa) = 23.62239 60.79537 42.20888
# Shear Modulus (GPa) = 16.81592 28.81310 22.81451
#
# Velocity S-wave (km/s) = 2.95505 3.86811 3.44199
# Velocity P-wave (km/s) = 4.88977 7.17774 6.14125
#
# Compressibility (1/GPa) = 0.04233272
#
# Stress axis : x y z
#
# Youngs Moduli (GPa) = 28.84541 29.83796 51.84330
#
# Poissons Ratio (x) = 0.16754 1.13889
# Poissons Ratio (y) = 0.16196 -0.25993
# Poissons Ratio (z) = 0.63367 -0.14960
#
# Static dielectric constant tensor:
#      x y z
#    x 1.655050 0.000000 0.009350 
#    y 0.000000 1.802850 0.000000 
#    z 0.009350 0.000000 1.694090 
# 
# From -- ./inp_files/280381.got.cif
#   From: 2010.05.17/outbox.cif.g08.bks.cpg/sg12_141_cif.got.tgz:280381.got - 2010.06.03 13:09:07.
