data_PCOD9222204
_publ_section_title
;
Structure prediction by ZEFSAII (Michael W. Deem and Ramdas Pophale) SiO2 
 PCOD9222204
Probable space group: C 2/M
;
_chemical_formula_sum "Si O2"
_cell_formula_units_Z 48
_cell_length_a 20.421922
_cell_length_b 12.862388
_cell_length_c 28.999084
_cell_angle_alpha 90.000000
_cell_angle_beta 19.478807
_cell_angle_gamma 90.000000
_cell_volume 2540.059296
_symmetry_space_group_name_H-M "C 2/M"
_symmetry_group_IT_number 12
_symmetry_cell_setting 'monoclinic'
loop_
_space_group_symop_operation_xyz
x,y,z
-x,y,-z
-x,-y,-z
x,-y,z
1/2+x,1/2+y,z
1/2-x,1/2+y,-z
1/2-x,1/2-y,-z
1/2+x,1/2-y,z
loop_
_atom_site_type_symbol
_atom_site_label
_atom_site_fract_x
_atom_site_fract_y
_atom_site_fract_z
Si Si1 0.084249 0.702534 0.076662
Si Si2 0.434365 0.885251 0.470189
Si Si3 0.192764 0.624941 0.903713
Si Si4 0.684223 0.385236 0.720257
Si Si5 0.171732 0.500000 0.731626
Si Si6 0.556254 0.500000 0.539837
Si Si7 0.058647 0.797311 0.602224
O O1 0.934320 0.797808 0.175258
O O2 0.965733 0.601692 0.173681
O O3 0.250000 0.750000 0.000000
O O4 0.163151 0.671594 0.974132
O O5 0.246129 0.856184 0.626785
O O6 0.614975 0.894775 0.385051
O O7 0.496895 0.797947 0.393631
O O8 0.396356 0.000000 0.474942
O O9 0.213660 0.500000 0.893121
O O10 0.385707 0.672074 0.751869
O O11 0.000000 0.645259 0.000000
O O12 0.589249 0.500000 0.781947
O O13 0.333989 0.500000 0.665695
O O14 0.297288 0.500000 0.601117
O O15 0.589674 0.398310 0.549177
O O16 0.250000 0.750000 0.500000
#
# Coordination Sequence:
#
# PCOD9222204 Si02
#       7
#     8   8   8   8   4   4   8
#     4  12  26  40  65 100 135 172 221 284 336 394
#     4   9  19  38  65  92 123 164 212 263 325 399
#     4  11  24  46  71  95 135 188 235 272 338 426
#     4   9  19  38  65  92 123 164 212 263 325 399
#     4  11  24  45  73  97 129 175 229 283 336 400
#     4  11  24  45  73  97 129 175 229 283 336 400
#     4  12  26  40  65 100 135 172 221 284 336 394
#
# _framework density 18.897196999999998
#
# number of rings (size 3 to 8) (size 9 to 14) (size 15 to 20)
#    0.000    1.333    1.667    5.000    7.000    2.667 
#    0.000    0.833    0.000    3.000    0.000    0.000 
#    0.000    0.000    0.000    0.000    0.000    0.000 
#
# Total GULP energy -133917.415262 kJ/mol
# GULP energy per Si atom -5579.892303 kJ/mol
# Density = 1.885419 g / cm^3
# Si number density = 18.897197 Si / 1000 Ang^3
#
#
#
# Elastic Constant Matrix: (Units=GPa)
#
#
# Indices 1 2 3 4 5 6 
#
# 1 111.3965 76.3049 79.1518 0.0108 6.2963 -0.0671
# 2 76.3049 149.4166 89.3139 -0.0296 18.1227 0.0168
# 3 79.1518 89.3139 130.5201 -0.0496 18.9238 -0.0238
# 4 0.0108 -0.0296 -0.0496 46.5278 0.0260 14.5577
# 5 6.2963 18.1227 18.9238 0.0260 37.4732 0.0488
# 6 -0.0671 0.0168 -0.0238 14.5577 0.0488 36.1754
#
#
#
# Elastic Compliance Matrix: (Units=1/GPa)
#
#
# Indices 1 2 3 4 5 6 
#
# 1 0.017660 -0.004623 -0.008028 -0.000029 0.003323 0.000037
# 2 -0.004623 0.012635 -0.005470 0.000011 -0.002572 -0.000019
# 3 -0.008028 -0.005470 0.016934 0.000020 -0.004557 -0.000003
# 4 -0.000029 0.000011 0.000020 0.024589 -0.000015 -0.009895
# 5 0.003323 -0.002572 -0.004557 -0.000015 0.029673 -0.000030
# 6 0.000037 -0.000019 -0.000003 -0.009895 -0.000030 0.031625
#
#
# Mechanical properties :
#
#
# Convention : Reuss Voigt Hill
#
# Bulk Modulus (GPa) = 91.01175 97.87494 94.44334
# Shear Modulus (GPa) = 28.89865 33.80610 31.35238
#
# Velocity S-wave (km/s) = 3.91481 4.23418 4.07763
# Velocity P-wave (km/s) = 8.28857 8.70691 8.50031
#
# Compressibility (1/GPa) = 0.01098759
#
# Stress axis : x y z
#
# Youngs Moduli (GPa) = 56.62507 79.14519 59.05425
#
# Poissons Ratio (x) = 0.36589 0.47408
# Poissons Ratio (y) = 0.26178 0.32300
# Poissons Ratio (z) = 0.45458 0.43289
#
# Static dielectric constant tensor:
#      x y z
#    x 1.524290 0.000050 0.068720 
#    y 0.000050 1.673060 -0.000060 
#    z 0.068720 -0.000060 1.575480 
# 
# From -- ./inp_files/381180.got.cif
#   From: 2010.05.17/outbox.cif.g08.bks.cpg/sg12_191_cif.got.tgz:381180.got - 2010.06.03 13:09:07.
