data_PCOD9222071
_publ_section_title
;
Structure prediction by ZEFSAII (Michael W. Deem and Ramdas Pophale) SiO2 
 PCOD9222071
Probable space group: C 2/M
;
_chemical_formula_sum "Si O2"
_cell_formula_units_Z 32
_cell_length_a 12.415887
_cell_length_b 21.907329
_cell_length_c 5.601305
_cell_angle_alpha 90.000000
_cell_angle_beta 67.744674
_cell_angle_gamma 90.000000
_cell_volume 1410.052602
_symmetry_space_group_name_H-M "C 2/M"
_symmetry_group_IT_number 12
_symmetry_cell_setting 'monoclinic'
loop_
_space_group_symop_operation_xyz
x,y,z
-x,y,-z
-x,-y,-z
x,-y,z
1/2+x,1/2+y,z
1/2-x,1/2+y,-z
1/2-x,1/2-y,-z
1/2+x,1/2-y,z
loop_
_atom_site_type_symbol
_atom_site_label
_atom_site_fract_x
_atom_site_fract_y
_atom_site_fract_z
Si Si1 0.702884 0.500000 0.948341
Si Si2 0.182873 0.295283 0.879344
Si Si3 0.404382 0.304994 0.405761
Si Si4 0.000000 0.394073 0.000000
Si Si5 0.000000 0.092555 0.000000
Si Si6 0.150274 0.500000 0.671266
O O1 0.611695 0.555619 0.998306
O O2 0.783385 0.500000 0.640025
O O3 0.770142 0.500000 0.148427
O O4 0.285945 0.323560 0.634760
O O5 0.117992 0.247530 0.765053
O O6 0.250000 0.250000 0.000000
O O7 0.096273 0.348530 0.035274
O O8 0.500000 0.278175 0.500000
O O9 0.457880 0.364307 0.245212
O O10 0.931091 0.439791 0.234148
#
# Coordination Sequence:
#
# PCOD9222071 Si02
#       6
#     4   8   8   4   4   4
#     4  11  28  49  74 108 146 193 253 315 372 439
#     4  11  24  45  69 109 150 189 242 302 371 454
#     4  11  24  42  70 108 144 189 239 300 381 443
#     4  11  25  46  74 102 151 195 250 310 364 459
#     4  11  25  42  74 104 145 185 246 312 372 447
#     4  11  28  53  72 110 143 202 253 305 380 440
#
# _framework density 22.694186999999999
#
# number of rings (size 3 to 8) (size 9 to 14) (size 15 to 20)
#    0.000    1.000    0.000    5.250   10.500    3.000 
#   13.500    0.000    0.000    0.000    0.000    0.000 
#    0.000    0.000    0.000    0.000    0.000    0.000 
#
# Total GULP energy -89455.887535 kJ/mol
# GULP energy per Si atom -5590.992971 kJ/mol
# Density = 2.264253 g / cm^3
# Si number density = 22.694187 Si / 1000 Ang^3
#
#
#
# Elastic Constant Matrix: (Units=GPa)
#
#
# Indices 1 2 3 4 5 6 
#
# 1 157.6840 79.5208 73.2256 0.0000 4.4249 0.0000
# 2 79.5208 139.4083 67.1464 0.0000 -16.2089 0.0000
# 3 73.2256 67.1464 128.2914 0.0000 -21.5685 0.0000
# 4 0.0000 0.0000 0.0000 19.1478 0.0000 14.3961
# 5 4.4249 -16.2089 -21.5685 0.0000 56.6993 0.0000
# 6 0.0000 0.0000 0.0000 14.3961 0.0000 -69.1472
#
#
#
# Elastic Compliance Matrix: (Units=1/GPa)
#
#
# Indices 1 2 3 4 5 6 
#
# 1 0.010752 -0.004427 -0.004459 0.000000 -0.003801 0.000000
# 2 -0.004427 0.011456 -0.003056 0.000000 0.002458 0.000000
# 3 -0.004459 -0.003056 0.012660 0.000000 0.004290 0.000000
# 4 0.000000 0.000000 0.000000 0.045157 0.000000 0.009401
# 5 -0.003801 0.002458 0.004290 0.000000 0.020268 0.000000
# 6 0.000000 0.000000 0.000000 0.009401 0.000000 -0.012505
#
#
# Mechanical properties :
#
#
# Convention : Reuss Voigt Hill
#
# Bulk Modulus (GPa) = 91.03511 96.12992 93.58252
# Shear Modulus (GPa) = 43.35239 15.03935 29.19587
#
# Velocity S-wave (km/s) = 4.37542 2.57708 3.59066
# Velocity P-wave (km/s) = 8.10720 7.16282 7.64960
#
# Compressibility (1/GPa) = 0.01098477
#
# Stress axis : x y z
#
# Youngs Moduli (GPa) = 93.00888 87.28854 78.98738
#
# Poissons Ratio (x) = 0.38646 0.35217
# Poissons Ratio (y) = 0.41178 0.24137
# Poissons Ratio (z) = 0.41468 0.26674
#
# Static dielectric constant tensor:
#      x y z
#    x 1.842170 0.000000 0.009840 
#    y 0.000000 1.844200 0.000000 
#    z 0.009840 0.000000 1.901870 
# 
# From -- ./inp_files/6866.got.cif
#   From: 2010.05.17/outbox.cif.g08.bks.cpg/sg12_4_cif.got.tgz:6866.got - 2010.06.03 13:09:07.
