data_PCOD9222122
_publ_section_title
;
Structure prediction by ZEFSAII (Michael W. Deem and Ramdas Pophale) SiO2 
 PCOD9222122
Probable space group: C 2/M
;
_chemical_formula_sum "Si O2"
_cell_formula_units_Z 52
_cell_length_a 9.216263
_cell_length_b 18.155773
_cell_length_c 20.796860
_cell_angle_alpha 90.000000
_cell_angle_beta 137.394466
_cell_angle_gamma 90.000000
_cell_volume 2355.711384
_symmetry_space_group_name_H-M "C 2/M"
_symmetry_group_IT_number 12
_symmetry_cell_setting 'monoclinic'
loop_
_space_group_symop_operation_xyz
x,y,z
-x,y,-z
-x,-y,-z
x,-y,z
1/2+x,1/2+y,z
1/2-x,1/2+y,-z
1/2-x,1/2-y,-z
1/2+x,1/2-y,z
loop_
_atom_site_type_symbol
_atom_site_label
_atom_site_fract_x
_atom_site_fract_y
_atom_site_fract_z
Si Si1 0.811015 0.580354 0.196079
Si Si2 0.239187 0.413848 0.578473
Si Si3 0.959193 0.626977 0.917351
Si Si4 0.994898 0.878283 0.789135
Si Si5 0.265409 0.000000 0.052723
Si Si6 0.082799 0.710370 0.230746
Si Si7 0.044994 0.802874 0.439940
O O1 0.913878 0.500000 0.247933
O O2 0.622050 0.596921 0.183998
O O3 0.720150 0.562131 0.095903
O O4 0.973786 0.648228 0.240995
O O5 0.225860 0.500000 0.562100
O O6 0.339131 0.399114 0.680306
O O7 0.385072 0.377090 0.572571
O O8 0.000000 0.381375 0.500000
O O9 0.726215 0.589334 0.848718
O O10 0.137287 0.565481 0.961465
O O11 0.939323 0.679765 0.848906
O O12 0.000000 0.663749 0.000000
O O13 0.023719 0.790021 0.799174
O O14 0.328785 0.722003 0.333007
O O15 0.250000 0.750000 0.500000
O O16 0.000000 0.812589 0.500000
#
# Coordination Sequence:
#
# PCOD9222122 Si02
#       7
#     8   8   8   8   4   8   8
#     4   9  22  41  66 101 136 182 230 292 348 416
#     4  11  26  45  67 105 143 177 234 290 349 432
#     4  11  24  43  70  99 139 187 236 295 351 421
#     4  12  23  42  73  99 139 190 235 285 364 416
#     4   8  21  44  61 100 135 174 241 289 341 419
#     4  11  24  44  69 102 142 182 234 294 350 429
#     4  12  26  44  71 103 139 182 235 284 351 420
#
# _framework density 22.074010999999999
#
# number of rings (size 3 to 8) (size 9 to 14) (size 15 to 20)
#    0.462    0.769    1.538    3.923    6.462    1.538 
#    0.000    3.846    0.000    0.000    0.000    0.000 
#    0.000    0.000    0.000    0.000    0.000    0.000 
#
# Total GULP energy -144771.558067 kJ/mol
# GULP energy per Si atom -5568.136849 kJ/mol
# Density = 2.202377 g / cm^3
# Si number density = 22.074011 Si / 1000 Ang^3
#
#
#
# Elastic Constant Matrix: (Units=GPa)
#
#
# Indices 1 2 3 4 5 6 
#
# 1 118.7530 20.9083 6.9622 0.0001 -22.0088 0.0000
# 2 20.9083 89.3069 -18.3418 0.0000 -2.0990 0.0000
# 3 6.9622 -18.3418 76.5203 0.0001 3.0494 0.0000
# 4 0.0001 0.0000 0.0001 43.8943 0.0001 14.2754
# 5 -22.0088 -2.0990 3.0494 0.0001 30.2236 0.0000
# 6 0.0000 0.0000 0.0000 14.2754 0.0000 42.9948
#
#
#
# Elastic Compliance Matrix: (Units=1/GPa)
#
#
# Indices 1 2 3 4 5 6 
#
# 1 0.010402 -0.002644 -0.001882 0.000000 0.007581 0.000000
# 2 -0.002644 0.012458 0.003282 0.000000 -0.001391 0.000000
# 3 -0.001882 0.003282 0.014129 0.000000 -0.002568 0.000000
# 4 0.000000 0.000000 0.000000 0.025540 0.000000 -0.008480
# 5 0.007581 -0.001391 -0.002568 0.000000 0.038769 0.000000
# 6 0.000000 0.000000 0.000000 -0.008480 0.000000 0.026074
#
#
# Mechanical properties :
#
#
# Convention : Reuss Voigt Hill
#
# Bulk Modulus (GPa) = 28.98507 33.73753 31.36130
# Shear Modulus (GPa) = 35.37094 41.75931 38.56513
#
# Velocity S-wave (km/s) = 4.00732 4.35419 4.18435
# Velocity P-wave (km/s) = 5.87969 6.37147 6.13051
#
# Compressibility (1/GPa) = 0.03450052
#
# Stress axis : x y z
#
# Youngs Moduli (GPa) = 96.13918 80.27216 70.77788
#
# Poissons Ratio (x) = 0.21221 0.13321
# Poissons Ratio (y) = 0.25415 -0.23230
# Poissons Ratio (z) = 0.18095 -0.26346
#
# Static dielectric constant tensor:
#      x y z
#    x 1.856730 0.000000 0.052890 
#    y 0.000000 1.987500 0.000000 
#    z 0.052890 0.000000 1.864870 
# 
# From -- ./inp_files/301187.got.cif
#   From: 2010.05.17/outbox.cif.g08.bks.cpg/sg12_151_cif.got.tgz:301187.got - 2010.06.03 13:09:07.
