data_PCOD9222234
_publ_section_title
;
Structure prediction by ZEFSAII (Michael W. Deem and Ramdas Pophale) SiO2 
 PCOD9222234
Probable space group: C 2/M
;
_chemical_formula_sum "Si O2"
_cell_formula_units_Z 44
_cell_length_a 24.587701
_cell_length_b 10.177548
_cell_length_c 15.865116
_cell_angle_alpha 90.000000
_cell_angle_beta 152.153317
_cell_angle_gamma 90.000000
_cell_volume 1854.474697
_symmetry_space_group_name_H-M "C 2/M"
_symmetry_group_IT_number 12
_symmetry_cell_setting 'monoclinic'
loop_
_space_group_symop_operation_xyz
x,y,z
-x,y,-z
-x,-y,-z
x,-y,z
1/2+x,1/2+y,z
1/2-x,1/2+y,-z
1/2-x,1/2-y,-z
1/2+x,1/2-y,z
loop_
_atom_site_type_symbol
_atom_site_label
_atom_site_fract_x
_atom_site_fract_y
_atom_site_fract_z
Si Si1 0.843013 0.500000 0.780867
Si Si2 0.857474 0.786841 0.888130
Si Si3 0.741203 0.000000 0.617214
Si Si4 0.465998 0.500000 0.825317
Si Si5 0.677715 0.812282 0.995425
Si Si6 0.566890 0.500000 0.411409
Si Si7 0.516442 0.000000 0.202965
Si Si8 0.428941 0.717273 0.321006
O O1 0.865905 0.640206 0.859589
O O2 0.703878 0.500000 0.584656
O O3 0.083549 0.500000 0.205541
O O4 0.770880 0.870942 0.711162
O O5 0.809242 0.803825 0.918226
O O6 0.976570 0.870102 0.056161
O O7 0.830941 0.000000 0.662377
O O8 0.613468 0.000000 0.407052
O O9 0.486962 0.500000 0.755027
O O10 0.631019 0.804380 0.835767
O O11 0.570968 0.881719 0.896829
O O12 0.810468 0.862692 0.181973
O O13 0.520969 0.625012 0.399626
O O14 0.500000 0.769500 0.500000
#
# Coordination Sequence:
#
# PCOD9222234 Si02
#       8
#     4   8   4   4   8   4   4   8
#     4  12  29  43  80 115 154 202 249 311 391 453
#     4  11  25  48  73 110 154 200 256 312 378 458
#     4  11  28  46  76 106 160 208 251 302 387 477
#     4  11  24  48  73 107 152 210 250 303 376 467
#     4  11  26  46  74 112 154 192 261 318 386 444
#     4  12  23  47  74 105 146 203 257 309 375 464
#     4  12  29  46  69 119 160 193 248 329 381 457
#     4  11  25  47  78 106 145 205 262 317 380 456
#
# _framework density 23.726396000000001
#
# number of rings (size 3 to 8) (size 9 to 14) (size 15 to 20)
#    0.000    0.727    2.727    3.545   10.182    1.455 
#    0.000    0.455    0.000    0.000    0.000    0.000 
#    0.000    0.000    0.000    0.000    0.000    0.000 
#
# Total GULP energy -122585.419157 kJ/mol
# GULP energy per Si atom -5572.064507 kJ/mol
# Density = 2.367239 g / cm^3
# Si number density = 23.726396 Si / 1000 Ang^3
#
#
#
# Elastic Constant Matrix: (Units=GPa)
#
#
# Indices 1 2 3 4 5 6 
#
# 1 144.1342 21.4583 74.1980 0.0000 -6.2114 0.0000
# 2 21.4583 85.9165 35.3369 0.0000 0.9884 0.0000
# 3 74.1980 35.3369 191.6730 0.0000 8.1365 0.0000
# 4 0.0000 0.0000 0.0000 14.5489 0.0000 -8.4057
# 5 -6.2114 0.9884 8.1365 0.0000 53.2462 0.0000
# 6 0.0000 0.0000 0.0000 -8.4057 0.0000 18.6841
#
#
#
# Elastic Compliance Matrix: (Units=1/GPa)
#
#
# Indices 1 2 3 4 5 6 
#
# 1 0.008849 -0.000857 -0.003334 0.000000 0.001558 0.000000
# 2 -0.000857 0.012678 -0.002004 0.000000 -0.000029 0.000000
# 3 -0.003334 -0.002004 0.006937 0.000000 -0.001412 0.000000
# 4 0.000000 0.000000 0.000000 0.092874 0.000000 0.041783
# 5 0.001558 -0.000029 -0.001412 0.000000 0.019179 0.000000
# 6 0.000000 0.000000 0.000000 0.041783 0.000000 0.072319
#
#
# Mechanical properties :
#
#
# Convention : Reuss Voigt Hill
#
# Bulk Modulus (GPa) = 62.21162 75.96780 69.08971
# Shear Modulus (GPa) = 21.68418 36.67785 29.18102
#
# Velocity S-wave (km/s) = 3.02640 3.93602 3.51079
# Velocity P-wave (km/s) = 6.20399 7.26251 6.75402
#
# Compressibility (1/GPa) = 0.01607417
#
# Stress axis : x y z
#
# Youngs Moduli (GPa) = 113.01059 78.87715 144.15215
#
# Poissons Ratio (x) = 0.06759 0.48054
# Poissons Ratio (y) = 0.09684 0.28893
# Poissons Ratio (z) = 0.37673 0.15810
#
# Static dielectric constant tensor:
#      x y z
#    x 2.006090 0.000000 -0.017240 
#    y 0.000000 1.878910 0.000000 
#    z -0.017240 0.000000 1.873530 
# 
# From -- ./inp_files/296594.got.cif
#   From: 2010.05.17/outbox.cif.g08.bks.cpg/sg12_149_cif.got.tgz:296594.got - 2010.06.03 13:09:07.
