data_PCOD9222379
_publ_section_title
;
Structure prediction by ZEFSAII (Michael W. Deem and Ramdas Pophale) SiO2 
 PCOD9222379
Probable space group: C 2/M
;
_chemical_formula_sum "Si O2"
_cell_formula_units_Z 44
_cell_length_a 13.504649
_cell_length_b 12.118827
_cell_length_c 12.695237
_cell_angle_alpha 90.000000
_cell_angle_beta 58.521151
_cell_angle_gamma 90.000000
_cell_volume 1771.938689
_symmetry_space_group_name_H-M "C 2/M"
_symmetry_group_IT_number 12
_symmetry_cell_setting 'monoclinic'
loop_
_space_group_symop_operation_xyz
x,y,z
-x,y,-z
-x,-y,-z
x,-y,z
1/2+x,1/2+y,z
1/2-x,1/2+y,-z
1/2-x,1/2-y,-z
1/2+x,1/2-y,z
loop_
_atom_site_type_symbol
_atom_site_label
_atom_site_fract_x
_atom_site_fract_y
_atom_site_fract_z
Si Si1 0.985977 0.203654 0.212992
Si Si2 0.609161 0.500000 0.035761
Si Si3 0.280982 0.816310 0.847750
Si Si4 0.167246 0.121079 0.512961
Si Si5 0.376914 0.126836 0.129138
Si Si6 0.636592 0.162255 0.425411
O O1 0.095107 0.281081 0.176912
O O2 0.931705 0.151927 0.347680
O O3 0.896874 0.292797 0.216432
O O4 0.015496 0.099939 0.120988
O O5 0.295739 0.403997 0.048428
O O6 0.215294 0.698313 0.883240
O O7 0.304053 0.865977 0.718003
O O8 0.287429 0.126065 0.514790
O O9 0.149271 0.206313 0.429587
O O10 0.153467 0.000000 0.479029
O O11 0.343427 0.000000 0.167677
O O12 0.500000 0.125377 0.000000
O O13 0.500000 0.131717 0.500000
#
# Coordination Sequence:
#
# PCOD9222379 Si02
#       6
#     8   4   8   8   8   8
#     4  12  25  47  75 112 150 188 251 306 372 441
#     4  12  28  45  77 108 153 194 244 315 370 433
#     4  12  27  46  74 111 148 194 250 302 374 443
#     4  11  25  47  76 107 145 192 248 309 363 436
#     4  11  26  44  70 103 151 195 239 300 375 446
#     4  11  25  49  70 105 146 189 244 300 366 439
#
# _framework density 24.83156
#
# number of rings (size 3 to 8) (size 9 to 14) (size 15 to 20)
#    0.000    0.545    6.364    0.545    3.818    2.909 
#    0.000    0.000    0.000    0.000    0.000    0.000 
#    0.000    0.000    0.000    0.000    0.000    0.000 
#
# Total GULP energy -122651.560516 kJ/mol
# GULP energy per Si atom -5575.070933 kJ/mol
# Density = 2.477504 g / cm^3
# Si number density = 24.831560 Si / 1000 Ang^3
#
#
#
# Elastic Constant Matrix: (Units=GPa)
#
#
# Indices 1 2 3 4 5 6 
#
# 1 101.9802 17.1985 20.6961 0.0000 -20.4921 0.0000
# 2 17.1985 210.0962 22.9464 0.0000 -5.1936 0.0000
# 3 20.6961 22.9464 84.8421 0.0000 -22.5507 0.0000
# 4 0.0000 0.0000 0.0000 9.4232 0.0000 -7.5000
# 5 -20.4921 -5.1936 -22.5507 0.0000 36.7798 0.0000
# 6 0.0000 0.0000 0.0000 -7.5000 0.0000 -13.6811
#
#
#
# Elastic Compliance Matrix: (Units=1/GPa)
#
#
# Indices 1 2 3 4 5 6 
#
# 1 0.011246 -0.000664 -0.001103 0.000000 0.005496 0.000000
# 2 -0.000664 0.004944 -0.001300 0.000000 -0.000469 0.000000
# 3 -0.001103 -0.001300 0.014569 0.000000 0.008135 0.000000
# 4 0.000000 0.000000 0.000000 0.073884 0.000000 -0.040503
# 5 0.005496 -0.000469 0.008135 0.000000 0.035172 0.000000
# 6 0.000000 0.000000 0.000000 -0.040503 0.000000 -0.050889
#
#
# Mechanical properties :
#
#
# Convention : Reuss Voigt Hill
#
# Bulk Modulus (GPa) = 40.60782 57.62228 49.11505
# Shear Modulus (GPa) = 48.41684 28.90954 38.66319
#
# Velocity S-wave (km/s) = 4.42046 3.41578 3.95019
# Velocity P-wave (km/s) = 6.51481 6.22996 6.37397
#
# Compressibility (1/GPa) = 0.02462580
#
# Stress axis : x y z
#
# Youngs Moduli (GPa) = 88.92045 202.24571 68.63694
#
# Poissons Ratio (x) = 0.13435 0.07570
# Poissons Ratio (y) = 0.05907 0.08922
# Poissons Ratio (z) = 0.09807 0.26289
#
# Static dielectric constant tensor:
#      x y z
#    x 2.596610 0.000000 0.143990 
#    y 0.000000 1.915040 0.000000 
#    z 0.143990 0.000000 2.000460 
# 
# From -- ./inp_files/213256.got.cif
#   From: 2010.05.17/outbox.cif.g08.bks.cpg/sg12_107_cif.got.tgz:213256.got - 2010.06.03 13:09:07.
