data_PCOD9222043
_publ_section_title
;
Structure prediction by ZEFSAII (Michael W. Deem and Ramdas Pophale) SiO2 
 PCOD9222043
Probable space group: C 2/M
;
_chemical_formula_sum "Si O2"
_cell_formula_units_Z 34
_cell_length_a 10.437245
_cell_length_b 7.851838
_cell_length_c 18.993531
_cell_angle_alpha 90.000000
_cell_angle_beta 80.584757
_cell_angle_gamma 90.000000
_cell_volume 1535.580654
_symmetry_space_group_name_H-M "C 2/M"
_symmetry_group_IT_number 12
_symmetry_cell_setting 'monoclinic'
loop_
_space_group_symop_operation_xyz
x,y,z
-x,y,-z
-x,-y,-z
x,-y,z
1/2+x,1/2+y,z
1/2-x,1/2+y,-z
1/2-x,1/2-y,-z
1/2+x,1/2-y,z
loop_
_atom_site_type_symbol
_atom_site_label
_atom_site_fract_x
_atom_site_fract_y
_atom_site_fract_z
Si Si1 0.168907 0.197338 0.437840
Si Si2 0.000000 0.500000 0.500000
Si Si3 0.182020 0.200692 0.710869
Si Si4 0.610017 0.703082 0.042743
Si Si5 0.094054 0.298511 0.206910
O O1 0.250000 0.250000 0.500000
O O2 0.061075 0.345702 0.443751
O O3 0.266068 0.208598 0.363378
O O4 0.125032 0.000000 0.447214
O O5 0.273501 0.260228 0.767239
O O6 0.032448 0.225817 0.743465
O O7 0.202174 0.000000 0.697826
O O8 0.598662 0.500000 0.044493
O O9 0.593614 0.760669 0.124315
O O10 0.500000 0.772549 0.000000
O O11 0.750000 0.750000 0.000000
O O12 0.087911 0.500000 0.215874
#
# Coordination Sequence:
#
# PCOD9222043 Si02
#       5
#     8   2   8   8   8
#     4  12  26  46  72 102 138 185 234 292 350 418
#     4  12  26  48  72 100 140 180 238 292 350 418
#     4  11  25  45  67  99 139 178 226 286 342 410
#     4  11  24  42  66  96 132 173 220 275 333 402
#     4  11  25  43  67  99 135 175 225 278 340 409
#
# _framework density 22.141459999999999
#
# number of rings (size 3 to 8) (size 9 to 14) (size 15 to 20)
#    0.000    0.706    2.353    3.882    3.294   11.294 
#    0.000    0.000    0.000    0.000    0.000    0.000 
#    0.000    0.000    0.000    0.000    0.000    0.000 
#
# Total GULP energy -94868.353817 kJ/mol
# GULP energy per Si atom -5580.491401 kJ/mol
# Density = 2.209107 g / cm^3
# Si number density = 22.141460 Si / 1000 Ang^3
#
#
#
# Elastic Constant Matrix: (Units=GPa)
#
#
# Indices 1 2 3 4 5 6 
#
# 1 67.5519 15.3914 -5.7573 0.0000 -8.2554 0.0000
# 2 15.3914 148.2300 20.6484 0.0000 -7.5820 0.0000
# 3 -5.7573 20.6484 93.7010 0.0000 -8.5398 0.0000
# 4 0.0000 0.0000 0.0000 42.0504 0.0000 -11.9668
# 5 -8.2554 -7.5820 -8.5398 0.0000 46.2022 0.0000
# 6 0.0000 0.0000 0.0000 -11.9668 0.0000 27.7595
#
#
#
# Elastic Compliance Matrix: (Units=1/GPa)
#
#
# Indices 1 2 3 4 5 6 
#
# 1 0.015672 -0.001706 0.001595 0.000000 0.002815 0.000000
# 2 -0.001706 0.007180 -0.001635 0.000000 0.000571 0.000000
# 3 0.001595 -0.001635 0.011323 0.000000 0.002110 0.000000
# 4 0.000000 0.000000 0.000000 0.027106 0.000000 0.011685
# 5 0.002815 0.000571 0.002110 0.000000 0.022631 0.000000
# 6 0.000000 0.000000 0.000000 0.011685 0.000000 0.041061
#
#
# Mechanical properties :
#
#
# Convention : Reuss Voigt Hill
#
# Bulk Modulus (GPa) = 32.58937 41.11643 36.85290
# Shear Modulus (GPa) = 36.05108 41.81578 38.93343
#
# Velocity S-wave (km/s) = 4.03949 4.35049 4.19787
# Velocity P-wave (km/s) = 6.04213 6.62162 6.33850
#
# Compressibility (1/GPa) = 0.03068486
#
# Stress axis : x y z
#
# Youngs Moduli (GPa) = 63.80786 139.26900 88.31712
#
# Poissons Ratio (x) = 0.23753 -0.14090
# Poissons Ratio (y) = 0.10883 0.14440
# Poissons Ratio (z) = -0.10180 0.22771
#
# Static dielectric constant tensor:
#      x y z
#    x 1.853470 0.000000 0.037400 
#    y 0.000000 1.801970 0.000000 
#    z 0.037400 0.000000 1.778780 
# 
# From -- ./inp_files/260787.got.cif
#   From: 2010.05.17/outbox.cif.g08.bks.cpg/sg12_131_cif.got.tgz:260787.got - 2010.06.03 13:09:07.
