data_PCOD9222786
_publ_section_title
;
Structure prediction by ZEFSAII (Michael W. Deem and Ramdas Pophale) SiO2 
 PCOD9222786
Probable space group: C 2/M
;
_chemical_formula_sum "Si O2"
_cell_formula_units_Z 32
_cell_length_a 10.607826
_cell_length_b 25.270575
_cell_length_c 8.328280
_cell_angle_alpha 90.000000
_cell_angle_beta 138.876112
_cell_angle_gamma 90.000000
_cell_volume 1468.309640
_symmetry_space_group_name_H-M "C 2/M"
_symmetry_group_IT_number 12
_symmetry_cell_setting 'monoclinic'
loop_
_space_group_symop_operation_xyz
x,y,z
-x,y,-z
-x,-y,-z
x,-y,z
1/2+x,1/2+y,z
1/2-x,1/2+y,-z
1/2-x,1/2-y,-z
1/2+x,1/2-y,z
loop_
_atom_site_type_symbol
_atom_site_label
_atom_site_fract_x
_atom_site_fract_y
_atom_site_fract_z
Si Si1 0.422894 0.285394 0.597491
Si Si2 0.747364 0.342640 0.082848
Si Si3 0.407622 0.939046 0.086794
Si Si4 0.830516 0.362957 0.525483
O O1 0.500000 0.268584 0.500000
O O2 0.250000 0.250000 0.500000
O O3 0.600831 0.298639 0.884013
O O4 0.314920 0.342569 0.481316
O O5 0.740748 0.397762 0.975987
O O6 0.736629 0.354289 0.262037
O O7 0.971803 0.328921 0.270485
O O8 0.582877 0.921260 0.371919
O O9 0.354288 0.000000 0.050392
O O10 0.500000 0.929488 0.000000
#
# Coordination Sequence:
#
# PCOD9222786 Si02
#       4
#     8   8   8   8
#     4  12  27  44  67  96 128 176 223 275 337 397
#     4   9  21  42  65  92 137 171 222 269 328 394
#     4   9  17  34  66 101 135 175 217 268 332 394
#     4   9  21  42  64  93 134 175 215 277 327 389
#
# _framework density 21.793766999999999
#
# number of rings (size 3 to 8) (size 9 to 14) (size 15 to 20)
#    1.500    0.750    0.000    2.250    3.500    3.000 
#    4.500    1.250    0.000    7.500    0.000    0.000 
#    0.000    0.000    0.000    0.000    0.000    0.000 
#
# Total GULP energy -89084.479940 kJ/mol
# GULP energy per Si atom -5567.779996 kJ/mol
# Density = 2.174416 g / cm^3
# Si number density = 21.793767 Si / 1000 Ang^3
#
#
#
# Elastic Constant Matrix: (Units=GPa)
#
#
# Indices 1 2 3 4 5 6 
#
# 1 114.5712 53.7438 38.2197 0.0000 -1.5790 0.0000
# 2 53.7438 100.3430 46.0506 0.0000 -0.8896 0.0000
# 3 38.2197 46.0506 117.4848 0.0000 -8.5043 0.0000
# 4 0.0000 0.0000 0.0000 27.2373 0.0000 2.6319
# 5 -1.5790 -0.8896 -8.5043 0.0000 21.2840 0.0000
# 6 0.0000 0.0000 0.0000 2.6319 0.0000 35.1125
#
#
#
# Elastic Compliance Matrix: (Units=1/GPa)
#
#
# Indices 1 2 3 4 5 6 
#
# 1 0.011922 -0.005615 -0.001679 0.000000 -0.000021 0.000000
# 2 -0.005615 0.014839 -0.004094 0.000000 -0.001432 0.000000
# 3 -0.001679 -0.004094 0.010958 0.000000 0.004083 0.000000
# 4 0.000000 0.000000 0.000000 0.036982 0.000000 -0.002772
# 5 -0.000021 -0.001432 0.004083 0.000000 0.048554 0.000000
# 6 0.000000 0.000000 0.000000 -0.002772 0.000000 0.028688
#
#
# Mechanical properties :
#
#
# Convention : Reuss Voigt Hill
#
# Bulk Modulus (GPa) = 66.91631 67.60301 67.25966
# Shear Modulus (GPa) = 27.82429 29.68575 28.75502
#
# Velocity S-wave (km/s) = 3.57698 3.69470 3.63632
# Velocity P-wave (km/s) = 6.91598 7.02053 6.96845
#
# Compressibility (1/GPa) = 0.01494404
#
# Stress axis : x y z
#
# Youngs Moduli (GPa) = 83.87900 67.38918 91.25736
#
# Poissons Ratio (x) = 0.37839 0.15322
# Poissons Ratio (y) = 0.47098 0.37356
# Poissons Ratio (z) = 0.14083 0.27586
#
# Static dielectric constant tensor:
#      x y z
#    x 1.817030 0.000000 0.008660 
#    y 0.000000 1.882940 0.000000 
#    z 0.008660 0.000000 1.815500 
# 
# From -- ./inp_files/51110.got.cif
#   From: 2010.05.17/outbox.cif.g08.bks.cpg/sg12_26_cif.got.tgz:51110.got - 2010.06.03 13:09:07.
