data_PCOD9222397
_publ_section_title
;
Structure prediction by ZEFSAII (Michael W. Deem and Ramdas Pophale) SiO2 
 PCOD9222397
Probable space group: C 2/M
;
_chemical_formula_sum "Si O2"
_cell_formula_units_Z 32
_cell_length_a 7.554400
_cell_length_b 22.848273
_cell_length_c 10.576767
_cell_angle_alpha 90.000000
_cell_angle_beta 42.812028
_cell_angle_gamma 90.000000
_cell_volume 1240.671119
_symmetry_space_group_name_H-M "C 2/M"
_symmetry_group_IT_number 12
_symmetry_cell_setting 'monoclinic'
loop_
_space_group_symop_operation_xyz
x,y,z
-x,y,-z
-x,-y,-z
x,-y,z
1/2+x,1/2+y,z
1/2-x,1/2+y,-z
1/2-x,1/2-y,-z
1/2+x,1/2-y,z
loop_
_atom_site_type_symbol
_atom_site_label
_atom_site_fract_x
_atom_site_fract_y
_atom_site_fract_z
Si Si1 0.541180 0.112906 0.125078
Si Si2 0.286747 0.937076 0.499177
Si Si3 0.544149 0.338874 0.780725
Si Si4 0.999943 0.722511 0.297797
O O1 0.426287 0.070227 0.291189
O O2 0.423588 0.175197 0.232645
O O3 0.500000 0.098191 0.000000
O O4 0.851610 0.122695 0.965933
O O5 0.500000 0.937676 0.500000
O O6 0.119519 0.880338 0.623634
O O7 0.147137 0.000000 0.576103
O O8 0.386957 0.281082 0.822937
O O9 0.202155 0.312566 0.281050
O O10 0.750000 0.750000 0.500000
#
# Coordination Sequence:
#
# PCOD9222397 Si02
#       4
#     8   8   8   8
#     4  12  27  47  73 114 159 201 255 322 391 463
#     4  11  25  50  80 110 150 205 266 321 384 459
#     4  12  25  47  77 113 156 202 256 317 388 469
#     4  12  23  45  74 108 155 201 244 311 388 465
#
# _framework density 25.792491999999999
#
# number of rings (size 3 to 8) (size 9 to 14) (size 15 to 20)
#    0.000    0.250    5.000    3.750    0.000    2.500 
#    0.000    3.750    0.000    0.000    0.000    0.000 
#    0.000    0.000    0.000    0.000    0.000    0.000 
#
# Total GULP energy -89501.457431 kJ/mol
# GULP energy per Si atom -5593.841089 kJ/mol
# Density = 2.573379 g / cm^3
# Si number density = 25.792492 Si / 1000 Ang^3
#
#
#
# Elastic Constant Matrix: (Units=GPa)
#
#
# Indices 1 2 3 4 5 6 
#
# 1 136.3129 24.1074 45.8256 0.0000 23.8951 0.0000
# 2 24.1074 168.9443 53.1230 0.0000 15.1650 0.0000
# 3 45.8256 53.1230 183.7543 0.0000 19.5947 0.0000
# 4 0.0000 0.0000 0.0000 21.5312 0.0000 -11.3769
# 5 23.8951 15.1650 19.5947 0.0000 48.1869 0.0000
# 6 0.0000 0.0000 0.0000 -11.3769 0.0000 -5.6125
#
#
#
# Elastic Compliance Matrix: (Units=1/GPa)
#
#
# Indices 1 2 3 4 5 6 
#
# 1 0.008567 -0.000392 -0.001655 0.000000 -0.003452 0.000000
# 2 -0.000392 0.006613 -0.001686 0.000000 -0.001201 0.000000
# 3 -0.001655 -0.001686 0.006479 0.000000 -0.001283 0.000000
# 4 0.000000 0.000000 0.000000 0.022425 0.000000 -0.045457
# 5 -0.003452 -0.001201 -0.001283 0.000000 0.023364 0.000000
# 6 0.000000 0.000000 0.000000 -0.045457 0.000000 -0.086029
#
#
# Mechanical properties :
#
#
# Convention : Reuss Voigt Hill
#
# Bulk Modulus (GPa) = 70.45872 81.68039 76.06955
# Shear Modulus (GPa) = -783.18973 37.21816 -372.98579
#
# Velocity S-wave (km/s) = -17.44447 3.80278 -12.03844
# Velocity P-wave (km/s) = 19.45171 7.14273 12.79356
#
# Compressibility (1/GPa) = 0.01419271
#
# Stress axis : x y z
#
# Youngs Moduli (GPa) = 116.72859 151.21691 154.34420
#
# Poissons Ratio (x) = 0.05931 0.25544
# Poissons Ratio (y) = 0.04578 0.26021
# Poissons Ratio (z) = 0.19318 0.25494
#
# Static dielectric constant tensor:
#      x y z
#    x 2.149000 0.000000 0.021000 
#    y 0.000000 2.002940 0.000000 
#    z 0.021000 0.000000 2.119470 
# 
# From -- ./inp_files/135085.got.cif
#   From: 2010.05.17/outbox.cif.g08.bks.cpg/sg12_68_cif.got.tgz:135085.got - 2010.06.03 13:09:07.
