data_PCOD9222625
_publ_section_title
;
Structure prediction by ZEFSAII (Michael W. Deem and Ramdas Pophale) SiO2 
 PCOD9222625
Probable space group: C 2/M
;
_chemical_formula_sum "Si O2"
_cell_formula_units_Z 40
_cell_length_a 18.093773
_cell_length_b 25.680134
_cell_length_c 8.245699
_cell_angle_alpha 90.000000
_cell_angle_beta 152.029729
_cell_angle_gamma 90.000000
_cell_volume 1796.962936
_symmetry_space_group_name_H-M "C 2/M"
_symmetry_group_IT_number 12
_symmetry_cell_setting 'monoclinic'
loop_
_space_group_symop_operation_xyz
x,y,z
-x,y,-z
-x,-y,-z
x,-y,z
1/2+x,1/2+y,z
1/2-x,1/2+y,-z
1/2-x,1/2-y,-z
1/2+x,1/2-y,z
loop_
_atom_site_type_symbol
_atom_site_label
_atom_site_fract_x
_atom_site_fract_y
_atom_site_fract_z
Si Si1 0.322016 0.111882 0.367251
Si Si2 0.856665 0.290524 0.611342
Si Si3 0.359064 0.283417 0.333876
Si Si4 0.799620 0.613857 0.937712
Si Si5 0.829571 0.500000 0.380955
Si Si6 0.201986 0.500000 0.073048
O O1 0.265095 0.160031 0.362410
O O2 0.282457 0.116448 0.100602
O O3 0.513972 0.113918 0.740141
O O4 0.269370 0.055208 0.326767
O O5 0.750000 0.250000 0.500000
O O6 0.922006 0.258330 0.584436
O O7 0.000000 0.308115 0.000000
O O8 0.500000 0.305185 0.500000
O O9 0.250000 0.250000 0.000000
O O10 0.276802 0.331975 0.263744
O O11 0.733504 0.557212 0.754836
O O12 0.803153 0.500000 0.134400
O O13 0.018638 0.500000 0.770579
#
# Coordination Sequence:
#
# PCOD9222625 Si02
#       6
#     8   8   8   8   4   4
#     4   9  16  31  55  82 112 142 180 228 277 330
#     4  12  25  38  53  80 117 151 182 231 286 331
#     4  12  23  38  59  82 107 149 196 232 274 333
#     4   9  16  30  56  84 110 140 182 232 277 326
#     4   7  12  24  49  82 108 137 175 222 277 327
#     4   7  12  24  47  84 114 130 167 235 287 313
#
# _framework density 22.259778000000001
#
# number of rings (size 3 to 8) (size 9 to 14) (size 15 to 20)
#    0.000    2.200    2.000    6.000    0.000    0.000 
#    0.000    1.000    0.000    1.200    0.000    1.400 
#    0.000    0.000    0.000    0.000    0.000    0.000 
#
# Total GULP energy -111599.818075 kJ/mol
# GULP energy per Si atom -5579.990904 kJ/mol
# Density = 2.220911 g / cm^3
# Si number density = 22.259778 Si / 1000 Ang^3
#
#
#
# Elastic Constant Matrix: (Units=GPa)
#
#
# Indices 1 2 3 4 5 6 
#
# 1 41.0172 15.9590 -0.9890 0.0000 -3.3046 0.0000
# 2 15.9590 191.3748 5.7338 0.0000 -10.6926 0.0000
# 3 -0.9890 5.7338 19.7892 0.0000 -9.7398 0.0000
# 4 0.0000 0.0000 0.0000 19.5408 0.0000 1.3368
# 5 -3.3046 -10.6926 -9.7398 0.0000 20.0663 0.0000
# 6 0.0000 0.0000 0.0000 1.3368 0.0000 28.3484
#
#
#
# Elastic Compliance Matrix: (Units=1/GPa)
#
#
# Indices 1 2 3 4 5 6 
#
# 1 0.025689 -0.001978 0.004494 0.000000 0.005358 0.000000
# 2 -0.001978 0.005538 -0.000540 0.000000 0.002363 0.000000
# 3 0.004494 -0.000540 0.067186 0.000000 0.033063 0.000000
# 4 0.000000 0.000000 0.000000 0.051341 0.000000 -0.002421
# 5 0.005358 0.002363 0.033063 0.000000 0.068025 0.000000
# 6 0.000000 0.000000 0.000000 -0.002421 0.000000 0.035390
#
#
# Mechanical properties :
#
#
# Convention : Reuss Voigt Hill
#
# Bulk Modulus (GPa) = 9.76882 32.62100 21.19491
# Shear Modulus (GPa) = 17.64668 29.02292 23.33480
#
# Velocity S-wave (km/s) = 2.81866 3.61477 3.24125
# Velocity P-wave (km/s) = 3.87184 5.66645 4.85282
#
# Compressibility (1/GPa) = 0.10236650
#
# Stress axis : x y z
#
# Youngs Moduli (GPa) = 38.92641 180.55447 14.88395
#
# Poissons Ratio (x) = 0.35706 -0.06689
# Poissons Ratio (y) = 0.07698 0.00804
# Poissons Ratio (z) = -0.17494 0.09758
#
# Static dielectric constant tensor:
#      x y z
#    x 1.834980 0.000000 0.000510 
#    y 0.000000 1.896310 0.000000 
#    z 0.000510 0.000000 1.820150 
# 
# From -- ./inp_files/90573.got.cif
#   From: 2010.05.17/outbox.cif.g08.bks.cpg/sg12_46_cif.got.tgz:90573.got - 2010.06.03 13:09:07.
