data_PCOD9222901
_publ_section_title
;
Structure prediction by ZEFSAII (Michael W. Deem and Ramdas Pophale) SiO2 
 PCOD9222901
Probable space group: C 2/M
;
_chemical_formula_sum "Si O2"
_cell_formula_units_Z 48
_cell_length_a 14.077361
_cell_length_b 9.567907
_cell_length_c 16.382506
_cell_angle_alpha 90.000000
_cell_angle_beta 82.340705
_cell_angle_gamma 90.000000
_cell_volume 2186.887414
_symmetry_space_group_name_H-M "C 2/M"
_symmetry_group_IT_number 12
_symmetry_cell_setting 'monoclinic'
loop_
_space_group_symop_operation_xyz
x,y,z
-x,y,-z
-x,-y,-z
x,-y,z
1/2+x,1/2+y,z
1/2-x,1/2+y,-z
1/2-x,1/2-y,-z
1/2+x,1/2-y,z
loop_
_atom_site_type_symbol
_atom_site_label
_atom_site_fract_x
_atom_site_fract_y
_atom_site_fract_z
Si Si1 0.746765 0.845297 0.578386
Si Si2 0.656638 0.340635 0.913220
Si Si3 0.697727 0.162113 0.758387
Si Si4 0.573248 0.337018 0.228999
Si Si5 0.385543 0.159959 0.928856
Si Si6 0.970255 0.157863 0.589954
O O1 0.750000 0.750000 0.500000
O O2 0.691500 0.793251 0.664636
O O3 0.856601 0.857194 0.593001
O O4 0.710281 0.000000 0.562152
O O5 0.622002 0.500000 0.918026
O O6 0.649234 0.266809 0.826624
O O7 0.771043 0.344165 0.920985
O O8 0.608936 0.246281 0.988209
O O9 0.811422 0.162112 0.767663
O O10 0.666045 0.000000 0.769913
O O11 0.546714 0.500000 0.218707
O O12 0.563556 0.241062 0.150899
O O13 0.522171 0.285063 0.318555
O O14 0.417891 0.000000 0.932690
O O15 0.000000 0.227319 0.500000
O O16 0.013989 0.000000 0.585263
#
# Coordination Sequence:
#
# PCOD9222901 Si02
#       6
#     8   8   8   8   8   8
#     4   9  17  28  43  62  84 111 141 174 210 248
#     4   9  15  21  31  48  69  96 130 163 194 232
#     4   8  14  24  35  49  72 101 130 160 199 241
#     4   8  13  22  36  52  71  97 130 166 199 234
#     4   9  15  21  30  46  71 101 128 156 194 240
#     4   8  14  26  44  63  82 108 143 178 210 244
#
# _framework density 21.949003999999999
#
# number of rings (size 3 to 8) (size 9 to 14) (size 15 to 20)
#    0.000    3.500    0.000    3.000    0.000    4.667 
#    0.000    2.500    0.000    2.000    0.000    0.000 
#    0.000    1.333    0.000   15.333    0.000   18.833 
#
# Total GULP energy -133821.178141 kJ/mol
# GULP energy per Si atom -5575.882423 kJ/mol
# Density = 2.189905 g / cm^3
# Si number density = 21.949004 Si / 1000 Ang^3
#
#
#
# Elastic Constant Matrix: (Units=GPa)
#
#
# Indices 1 2 3 4 5 6 
#
# 1 58.1769 10.0091 3.0620 0.0000 -11.7730 0.0000
# 2 10.0091 136.3672 141.8664 0.0000 -2.2399 0.0000
# 3 3.0620 141.8664 279.1542 0.0000 -8.0896 0.0000
# 4 0.0000 0.0000 0.0000 28.3471 0.0000 0.4283
# 5 -11.7730 -2.2399 -8.0896 0.0000 16.3510 0.0000
# 6 0.0000 0.0000 0.0000 0.4283 0.0000 0.1196
#
#
#
# Elastic Compliance Matrix: (Units=1/GPa)
#
#
# Indices 1 2 3 4 5 6 
#
# 1 0.020760 -0.003179 0.001835 0.000000 0.015420 0.000000
# 2 -0.003179 0.016099 -0.008268 0.000000 -0.004174 0.000000
# 3 0.001835 -0.008268 0.007882 0.000000 0.004088 0.000000
# 4 0.000000 0.000000 0.000000 0.037294 0.000000 -0.133537
# 5 0.015420 -0.004174 0.004088 0.000000 0.073712 0.000000
# 6 0.000000 0.000000 0.000000 -0.133537 0.000000 8.839003
#
#
# Mechanical properties :
#
#
# Convention : Reuss Voigt Hill
#
# Bulk Modulus (GPa) = 39.18984 87.06369 63.12677
# Shear Modulus (GPa) = 0.55417 30.21427 15.38422
#
# Velocity S-wave (km/s) = 0.50302 3.71424 2.65034
# Velocity P-wave (km/s) = 4.26979 7.62539 6.17971
#
# Compressibility (1/GPa) = 0.02551682
#
# Stress axis : x y z
#
# Youngs Moduli (GPa) = 48.17010 62.11604 126.86846
#
# Poissons Ratio (x) = 0.19749 -0.23279
# Poissons Ratio (y) = 0.15315 1.04889
# Poissons Ratio (z) = -0.08839 0.51355
#
# Static dielectric constant tensor:
#      x y z
#    x 1.946350 0.000000 0.044550 
#    y 0.000000 1.803120 0.000000 
#    z 0.044550 0.000000 1.827050 
# 
# From -- ./inp_files/236609.got.cif
#   From: 2010.05.17/outbox.cif.g08.bks.cpg/sg12_119_cif.got.tgz:236609.got - 2010.06.03 13:09:07.
