data_PCOD9222044
_publ_section_title
;
Structure prediction by ZEFSAII (Michael W. Deem and Ramdas Pophale) SiO2 
 PCOD9222044
Probable space group: C 2/M
;
_chemical_formula_sum "Si O2"
_cell_formula_units_Z 34
_cell_length_a 23.393473
_cell_length_b 8.023380
_cell_length_c 7.563856
_cell_angle_alpha 90.000000
_cell_angle_beta 107.971647
_cell_angle_gamma 90.000000
_cell_volume 1350.427930
_symmetry_space_group_name_H-M "C 2/M"
_symmetry_group_IT_number 12
_symmetry_cell_setting 'monoclinic'
loop_
_space_group_symop_operation_xyz
x,y,z
-x,y,-z
-x,-y,-z
x,-y,z
1/2+x,1/2+y,z
1/2-x,1/2+y,-z
1/2-x,1/2-y,-z
1/2+x,1/2-y,z
loop_
_atom_site_type_symbol
_atom_site_label
_atom_site_fract_x
_atom_site_fract_y
_atom_site_fract_z
Si Si1 0.849300 0.688521 0.783498
Si Si2 0.549609 0.810242 0.828011
Si Si3 0.770741 0.689469 0.211671
Si Si4 0.000000 0.000000 0.000000
Si Si5 0.605461 0.308807 0.532325
O O1 0.827620 0.500000 0.745126
O O2 0.790040 0.800034 0.732170
O O3 0.891374 0.731845 0.659221
O O4 0.888349 0.702195 0.998316
O O5 0.566119 0.786145 0.639117
O O6 0.526011 0.000000 0.833791
O O7 0.514311 0.650205 0.867360
O O8 0.792421 0.500000 0.224512
O O9 0.825504 0.796817 0.335056
O O10 0.750000 0.750000 0.000000
O O11 0.587182 0.500000 0.506355
#
# Coordination Sequence:
#
# PCOD9222044 Si02
#       5
#     8   8   8   2   8
#     4  11  24  42  66  98 137 181 225 277 337 405
#     4  11  25  47  72 101 135 174 227 290 349 408
#     4  12  23  37  61  96 140 182 226 273 330 403
#     4  12  26  48  78 102 132 178 234 292 362 404
#     4  12  24  41  67  99 138 183 226 274 338 409
#
# _framework density 25.177205000000001
#
# number of rings (size 3 to 8) (size 9 to 14) (size 15 to 20)
#    0.000    0.471    3.529    6.000    3.294    0.000 
#    0.000    2.353    0.000    4.235    0.000    0.000 
#    0.000    0.000    0.000    0.000    0.000    0.000 
#
# Total GULP energy -95065.049844 kJ/mol
# GULP energy per Si atom -5592.061756 kJ/mol
# Density = 2.511990 g / cm^3
# Si number density = 25.177205 Si / 1000 Ang^3
#
#
#
# Elastic Constant Matrix: (Units=GPa)
#
#
# Indices 1 2 3 4 5 6 
#
# 1 92.3016 39.4133 49.7338 0.0000 -13.4627 0.0000
# 2 39.4133 162.6791 17.6469 0.0000 1.9607 0.0000
# 3 49.7338 17.6469 88.9007 0.0000 -26.5265 0.0000
# 4 0.0000 0.0000 0.0000 29.3583 0.0000 -13.6468
# 5 -13.4627 1.9607 -26.5265 0.0000 56.9726 0.0000
# 6 0.0000 0.0000 0.0000 -13.6468 0.0000 35.0390
#
#
#
# Elastic Compliance Matrix: (Units=1/GPa)
#
#
# Indices 1 2 3 4 5 6 
#
# 1 0.016950 -0.003145 -0.008862 0.000000 -0.000013 0.000000
# 2 -0.003145 0.006908 0.000111 0.000000 -0.000929 0.000000
# 3 -0.008862 0.000111 0.018068 0.000000 0.006315 0.000000
# 4 0.000000 0.000000 0.000000 0.041592 0.000000 0.016199
# 5 -0.000013 -0.000929 0.006315 0.000000 0.020521 0.000000
# 6 0.000000 0.000000 0.000000 0.016199 0.000000 0.034849
#
#
# Mechanical properties :
#
#
# Convention : Reuss Voigt Hill
#
# Bulk Modulus (GPa) = 55.14352 61.94104 58.54228
# Shear Modulus (GPa) = 29.63388 40.07981 34.85685
#
# Velocity S-wave (km/s) = 3.43448 3.99420 3.72487
# Velocity P-wave (km/s) = 6.13818 6.77694 6.46546
#
# Compressibility (1/GPa) = 0.01813450
#
# Stress axis : x y z
#
# Youngs Moduli (GPa) = 58.99647 144.75467 55.34552
#
# Poissons Ratio (x) = 0.45528 0.49046
# Poissons Ratio (y) = 0.18555 -0.00614
# Poissons Ratio (z) = 0.52282 -0.01606
#
# Static dielectric constant tensor:
#      x y z
#    x 2.065090 0.000000 0.011010 
#    y 0.000000 1.907100 0.000000 
#    z 0.011010 0.000000 1.975770 
# 
# From -- ./inp_files/92512.got.cif
#   From: 2010.05.17/outbox.cif.g08.bks.cpg/sg12_47_cif.got.tgz:92512.got - 2010.06.03 13:09:07.
