data_PCOD9222701
_publ_section_title
;
Structure prediction by ZEFSAII (Michael W. Deem and Ramdas Pophale) SiO2 
 PCOD9222701
Probable space group: C 2/M
;
_chemical_formula_sum "Si O2"
_cell_formula_units_Z 52
_cell_length_a 8.889210
_cell_length_b 26.959409
_cell_length_c 15.104200
_cell_angle_alpha 90.000000
_cell_angle_beta 44.156153
_cell_angle_gamma 90.000000
_cell_volume 2521.534252
_symmetry_space_group_name_H-M "C 2/M"
_symmetry_group_IT_number 12
_symmetry_cell_setting 'monoclinic'
loop_
_space_group_symop_operation_xyz
x,y,z
-x,y,-z
-x,-y,-z
x,-y,z
1/2+x,1/2+y,z
1/2-x,1/2+y,-z
1/2-x,1/2-y,-z
1/2+x,1/2-y,z
loop_
_atom_site_type_symbol
_atom_site_label
_atom_site_fract_x
_atom_site_fract_y
_atom_site_fract_z
Si Si1 0.500000 0.765854 0.000000
Si Si2 0.391113 0.558376 0.905980
Si Si3 0.161989 0.851883 0.195378
Si Si4 0.162122 0.442018 0.192595
Si Si5 0.150553 0.786204 0.768959
Si Si6 0.857320 0.287187 0.385479
Si Si7 0.712792 0.614600 0.376896
O O1 0.688615 0.805003 0.895715
O O2 0.498547 0.728732 0.916253
O O3 0.378387 0.500000 0.885209
O O4 0.298482 0.597735 0.876072
O O5 0.641381 0.570748 0.823891
O O6 0.261788 0.564068 0.052371
O O7 0.187136 0.866222 0.286971
O O8 0.933838 0.830541 0.257095
O O9 0.118445 0.500000 0.224109
O O10 0.939561 0.413029 0.291587
O O11 0.157134 0.738410 0.703635
O O12 0.391518 0.795953 0.700697
O O13 0.750000 0.250000 0.500000
O O14 0.730795 0.338131 0.433769
O O15 0.500000 0.585908 0.500000
#
# Coordination Sequence:
#
# PCOD9222701 Si02
#       7
#     4   8   8   8   8   8   8
#     4  12  24  40  59  94 135 156 214 264 332 386
#     4   9  20  41  70  99 128 165 213 264 329 397
#     4  12  24  40  63  94 129 168 209 267 325 385
#     4   9  20  42  68  97 129 166 211 266 326 388
#     4  12  24  40  61  88 125 166 211 266 320 375
#     4  12  24  43  63  85 121 172 222 262 308 376
#     4  12  25  42  62  92 128 171 222 264 321 384
#
# _framework density 20.622364000000001
#
# number of rings (size 3 to 8) (size 9 to 14) (size 15 to 20)
#    0.000    0.923    3.077    5.538    0.000    2.154 
#    0.000    4.231    0.000    1.846    0.000    0.000 
#    0.000    0.000    0.000    0.000    0.000    0.000 
#
# Total GULP energy -145216.578855 kJ/mol
# GULP energy per Si atom -5585.253033 kJ/mol
# Density = 2.057543 g / cm^3
# Si number density = 20.622364 Si / 1000 Ang^3
#
#
#
# Elastic Constant Matrix: (Units=GPa)
#
#
# Indices 1 2 3 4 5 6 
#
# 1 70.9137 26.1696 28.8260 0.0000 -3.2647 0.0000
# 2 26.1696 61.1678 19.3250 0.0000 -3.9224 0.0000
# 3 28.8260 19.3250 80.2905 0.0000 -6.7348 0.0000
# 4 0.0000 0.0000 0.0000 28.5430 0.0000 -3.3363
# 5 -3.2647 -3.9224 -6.7348 0.0000 37.0892 0.0000
# 6 0.0000 0.0000 0.0000 -3.3363 0.0000 42.4424
#
#
#
# Elastic Compliance Matrix: (Units=1/GPa)
#
#
# Indices 1 2 3 4 5 6 
#
# 1 0.018512 -0.006298 -0.005128 0.000000 0.000032 0.000000
# 2 -0.006298 0.019882 -0.002431 0.000000 0.001107 0.000000
# 3 -0.005128 -0.002431 0.015051 0.000000 0.002024 0.000000
# 4 0.000000 0.000000 0.000000 0.035360 0.000000 0.002780
# 5 0.000032 0.001107 0.002024 0.000000 0.027449 0.000000
# 6 0.000000 0.000000 0.000000 0.002780 0.000000 0.023780
#
#
# Mechanical properties :
#
#
# Convention : Reuss Voigt Hill
#
# Bulk Modulus (GPa) = 38.86416 40.11258 39.48837
# Shear Modulus (GPa) = 28.35689 30.81835 29.58762
#
# Velocity S-wave (km/s) = 3.71220 3.86996 3.79190
# Velocity P-wave (km/s) = 6.10413 6.28188 6.19364
#
# Compressibility (1/GPa) = 0.02573064
#
# Stress axis : x y z
#
# Youngs Moduli (GPa) = 54.02029 50.29660 66.44201
#
# Poissons Ratio (x) = 0.31676 0.34068
# Poissons Ratio (y) = 0.34021 0.16155
# Poissons Ratio (z) = 0.27699 0.12230
#
# Static dielectric constant tensor:
#      x y z
#    x 1.769170 0.000000 -0.034880 
#    y 0.000000 1.735760 0.000000 
#    z -0.034880 0.000000 1.760540 
# 
# From -- ./inp_files/201192.got.cif
#   From: 2010.05.17/outbox.cif.g08.bks.cpg/sg12_101_cif.got.tgz:201192.got - 2010.06.03 13:09:07.
