data_PCOD9222907
_publ_section_title
;
Structure prediction by ZEFSAII (Michael W. Deem and Ramdas Pophale) SiO2 
 PCOD9222907
Probable space group: C 2/M
;
_chemical_formula_sum "Si O2"
_cell_formula_units_Z 64
_cell_length_a 10.056647
_cell_length_b 13.883445
_cell_length_c 18.607908
_cell_angle_alpha 90.000000
_cell_angle_beta 73.009101
_cell_angle_gamma 90.000000
_cell_volume 2484.651031
_symmetry_space_group_name_H-M "C 2/M"
_symmetry_group_IT_number 12
_symmetry_cell_setting 'monoclinic'
loop_
_space_group_symop_operation_xyz
x,y,z
-x,y,-z
-x,-y,-z
x,-y,z
1/2+x,1/2+y,z
1/2-x,1/2+y,-z
1/2-x,1/2-y,-z
1/2+x,1/2-y,z
loop_
_atom_site_type_symbol
_atom_site_label
_atom_site_fract_x
_atom_site_fract_y
_atom_site_fract_z
Si Si1 0.673477 0.328336 0.216185
Si Si2 0.788880 0.603151 0.782799
Si Si3 0.777181 0.634909 0.994919
Si Si4 0.389628 0.895352 0.610962
Si Si5 0.718096 0.637954 0.502355
Si Si6 0.449824 0.144857 0.107931
Si Si7 0.495214 0.631584 0.898141
Si Si8 0.073071 0.165776 0.387843
O O1 0.658023 0.211742 0.209403
O O2 0.836718 0.358099 0.188879
O O3 0.594347 0.372392 0.161181
O O4 0.606601 0.356559 0.301164
O O5 0.864560 0.500000 0.782417
O O6 0.780423 0.607852 0.695821
O O7 0.645279 0.595794 0.849656
O O8 0.863149 0.608388 0.052972
O O9 0.619769 0.597824 0.025224
O O10 0.750000 0.750000 0.000000
O O11 0.891208 0.608382 0.916564
O O12 0.328125 0.902909 0.540640
O O13 0.446151 0.784156 0.604050
O O14 0.465226 0.000000 0.610722
O O15 0.750000 0.750000 0.500000
O O16 0.693541 0.624576 0.421385
O O17 0.569348 0.621009 0.562345
O O18 0.471593 0.257717 0.089933
#
# Coordination Sequence:
#
# PCOD9222907 Si02
#       8
#     8   8   8   8   8   8   8   8
#     4   9  16  26  43  66  89 117 154 191 228 273
#     4   9  17  28  43  68  98 121 148 192 237 273
#     4   8  13  22  37  61  91 116 144 188 226 254
#     4   9  17  30  48  68  91 120 154 191 230 274
#     4   9  17  30  45  63  87 117 147 185 231 273
#     4   8  14  23  37  64  89 111 146 193 224 251
#     4   9  15  24  41  65  89 122 156 185 221 269
#     4   9  17  29  44  63  89 119 151 187 232 280
#
# _framework density 25.758144999999999
#
# number of rings (size 3 to 8) (size 9 to 14) (size 15 to 20)
#    0.000    3.250    0.000    0.750    0.000    1.000 
#    0.000    6.250    0.000    0.750    0.000  189.875 
#    0.000    5.000    0.000    0.000    0.000    0.000 
#
# Total GULP energy -178165.815405 kJ/mol
# GULP energy per Si atom -5567.681731 kJ/mol
# Density = 2.569952 g / cm^3
# Si number density = 25.758145 Si / 1000 Ang^3
#
#
#
# Elastic Constant Matrix: (Units=GPa)
#
#
# Indices 1 2 3 4 5 6 
#
# 1 92.2421 -4.8496 25.2968 0.0000 -6.4083 0.0000
# 2 -4.8496 109.2718 1.9327 0.0000 -1.5940 0.0000
# 3 25.2968 1.9327 115.6751 0.0000 -7.6968 0.0000
# 4 0.0000 0.0000 0.0000 -33.0129 0.0000 -0.1474
# 5 -6.4083 -1.5940 -7.6968 0.0000 28.9745 0.0000
# 6 0.0000 0.0000 0.0000 -0.1474 0.0000 -15.8123
#
#
#
# Elastic Compliance Matrix: (Units=1/GPa)
#
#
# Indices 1 2 3 4 5 6 
#
# 1 0.011676 0.000590 -0.002432 0.000000 0.001969 0.000000
# 2 0.000590 0.009190 -0.000245 0.000000 0.000571 0.000000
# 3 -0.002432 -0.000245 0.009309 0.000000 0.001921 0.000000
# 4 0.000000 0.000000 0.000000 -0.030292 0.000000 0.000282
# 5 0.001969 0.000571 0.001921 0.000000 0.035490 0.000000
# 6 0.000000 0.000000 0.000000 0.000282 0.000000 -0.063245
#
#
# Mechanical properties :
#
#
# Convention : Reuss Voigt Hill
#
# Bulk Modulus (GPa) = 38.45980 40.21653 39.33816
# Shear Modulus (GPa) = -332.64461 15.68382 -158.48040
#
# Velocity S-wave (km/s) = -11.37637 2.47024 -7.85238
# Velocity P-wave (km/s) = 12.55384 4.87680 8.17973
#
# Compressibility (1/GPa) = 0.02600118
#
# Stress axis : x y z
#
# Youngs Moduli (GPa) = 85.64692 108.80996 107.42602
#
# Poissons Ratio (x) = -0.06419 0.26129
# Poissons Ratio (y) = -0.05053 0.02627
# Poissons Ratio (z) = 0.20831 0.02661
#
# Static dielectric constant tensor:
#      x y z
#    x 2.069890 0.000000 -0.003490 
#    y 0.000000 2.249470 0.000000 
#    z -0.003490 0.000000 2.021490 
# 
# From -- ./inp_files/305426.got.cif
#   From: 2010.05.17/outbox.cif.g08.bks.cpg/sg12_153_cif.got.tgz:305426.got - 2010.06.03 13:09:07.
