data_PCOD9222545
_publ_section_title
;
Structure prediction by ZEFSAII (Michael W. Deem and Ramdas Pophale) SiO2 
 PCOD9222545
Probable space group: C 2/M
;
_chemical_formula_sum "Si O2"
_cell_formula_units_Z 34
_cell_length_a 26.699062
_cell_length_b 7.332202
_cell_length_c 6.754091
_cell_angle_alpha 90.000000
_cell_angle_beta 66.525339
_cell_angle_gamma 90.000000
_cell_volume 1212.770379
_symmetry_space_group_name_H-M "C 2/M"
_symmetry_group_IT_number 12
_symmetry_cell_setting 'monoclinic'
loop_
_space_group_symop_operation_xyz
x,y,z
-x,y,-z
-x,-y,-z
x,-y,z
1/2+x,1/2+y,z
1/2-x,1/2+y,-z
1/2-x,1/2-y,-z
1/2+x,1/2-y,z
loop_
_atom_site_type_symbol
_atom_site_label
_atom_site_fract_x
_atom_site_fract_y
_atom_site_fract_z
Si Si1 0.560534 0.785330 0.386701
Si Si2 0.910434 0.285939 0.126662
Si Si3 0.205847 0.718252 0.796822
Si Si4 0.823030 0.717808 0.714576
Si Si5 0.500000 0.500000 0.000000
O O1 0.500000 0.703772 0.500000
O O2 0.576724 0.772430 0.129926
O O3 0.614913 0.715860 0.413261
O O4 0.555344 0.000000 0.444196
O O5 0.914805 0.500000 0.173591
O O6 0.847489 0.221858 0.241182
O O7 0.956832 0.159506 0.140908
O O8 0.200889 0.500000 0.805249
O O9 0.269763 0.755750 0.662209
O O10 0.194683 0.787023 0.039298
O O11 0.828610 0.500000 0.718557
#
# Coordination Sequence:
#
# PCOD9222545 Si02
#       5
#     8   8   8   8   2
#     4   8  14  28  48  70 101 130 151 185 241 298
#     4   9  19  33  48  70  99 125 160 201 236 283
#     4   8  14  25  39  60  92 121 143 183 236 278
#     4   8  13  21  39  65  91 119 147 176 226 293
#     4  12  22  32  50  70  92 132 168 202 240 266
#
# _framework density 28.034986
#
# number of rings (size 3 to 8) (size 9 to 14) (size 15 to 20)
#    0.000    3.529    0.000    3.176    1.647    0.000 
#    6.353    0.588    0.000    0.000    0.000    1.647 
#    0.000    0.000    0.000    0.000    0.000    0.000 
#
# Total GULP energy -94808.058613 kJ/mol
# GULP energy per Si atom -5576.944624 kJ/mol
# Density = 2.797118 g / cm^3
# Si number density = 28.034986 Si / 1000 Ang^3
#
#
#
# Elastic Constant Matrix: (Units=GPa)
#
#
# Indices 1 2 3 4 5 6 
#
# 1 299.0122 42.5800 105.1827 0.0000 -64.8668 0.0000
# 2 42.5800 132.4815 4.3031 0.0000 -26.0478 0.0000
# 3 105.1827 4.3031 146.3758 0.0000 -57.1344 0.0000
# 4 0.0000 0.0000 0.0000 -20.7829 0.0000 -3.4420
# 5 -64.8668 -26.0478 -57.1344 0.0000 86.8792 0.0000
# 6 0.0000 0.0000 0.0000 -3.4420 0.0000 12.5016
#
#
#
# Elastic Compliance Matrix: (Units=1/GPa)
#
#
# Indices 1 2 3 4 5 6 
#
# 1 0.004829 -0.001196 -0.002916 0.000000 0.001329 0.000000
# 2 -0.001196 0.008416 0.001679 0.000000 0.002735 0.000000
# 3 -0.002916 0.001679 0.011065 0.000000 0.005603 0.000000
# 4 0.000000 0.000000 0.000000 -0.046018 0.000000 -0.012670
# 5 0.001329 0.002735 0.005603 0.000000 0.017007 0.000000
# 6 0.000000 0.000000 0.000000 -0.012670 0.000000 0.076502
#
#
# Mechanical properties :
#
#
# Convention : Reuss Voigt Hill
#
# Bulk Modulus (GPa) = 51.42923 98.00012 74.71467
# Shear Modulus (GPa) = 60.13544 44.10649 52.12097
#
# Velocity S-wave (km/s) = 4.63645 3.97074 4.31645
# Velocity P-wave (km/s) = 6.85906 7.48697 7.17988
#
# Compressibility (1/GPa) = 0.01944420
#
# Stress axis : x y z
#
# Youngs Moduli (GPa) = 207.09576 118.82526 90.37876
#
# Poissons Ratio (x) = 0.14210 0.26353
# Poissons Ratio (y) = 0.24767 -0.15178
# Poissons Ratio (z) = 0.60386 -0.19955
#
# Static dielectric constant tensor:
#      x y z
#    x 2.226400 0.000000 0.075700 
#    y 0.000000 2.076090 0.000000 
#    z 0.075700 0.000000 2.293660 
# 
# From -- ./inp_files/92408.got.cif
#   From: 2010.05.17/outbox.cif.g08.bks.cpg/sg12_47_cif.got.tgz:92408.got - 2010.06.03 13:09:07.
