data_PCOD9222860
_publ_section_title
;
Structure prediction by ZEFSAII (Michael W. Deem and Ramdas Pophale) SiO2 
 PCOD9222860
Probable space group: C 2/M
;
_chemical_formula_sum "Si O2"
_cell_formula_units_Z 48
_cell_length_a 14.113899
_cell_length_b 10.175174
_cell_length_c 16.913279
_cell_angle_alpha 90.000000
_cell_angle_beta 108.048125
_cell_angle_gamma 90.000000
_cell_volume 2309.427295
_symmetry_space_group_name_H-M "C 2/M"
_symmetry_group_IT_number 12
_symmetry_cell_setting 'monoclinic'
loop_
_space_group_symop_operation_xyz
x,y,z
-x,y,-z
-x,-y,-z
x,-y,z
1/2+x,1/2+y,z
1/2-x,1/2+y,-z
1/2-x,1/2-y,-z
1/2+x,1/2-y,z
loop_
_atom_site_type_symbol
_atom_site_label
_atom_site_fract_x
_atom_site_fract_y
_atom_site_fract_z
Si Si1 0.561024 0.346421 0.272355
Si Si2 0.216667 0.854462 0.927941
Si Si3 0.014341 0.148397 0.089985
Si Si4 0.640669 0.150345 0.603578
Si Si5 0.324603 0.651047 0.255500
Si Si6 0.403202 0.848750 0.583032
O O1 0.591153 0.500000 0.283477
O O2 0.568489 0.298815 0.182776
O O3 0.443247 0.345251 0.265813
O O4 0.611580 0.253279 0.350087
O O5 0.098628 0.865496 0.909929
O O6 0.230827 0.814446 0.840620
O O7 0.260587 0.000000 0.951807
O O8 0.250000 0.750000 0.000000
O O9 0.055926 0.000000 0.086094
O O10 0.000000 0.214525 0.000000
O O11 0.690866 0.248273 0.677964
O O12 0.648059 0.187962 0.513389
O O13 0.522133 0.150792 0.593973
O O14 0.674447 0.000000 0.621526
O O15 0.300482 0.500000 0.269636
O O16 0.376536 0.000000 0.596132
#
# Coordination Sequence:
#
# PCOD9222860 Si02
#       6
#     8   8   8   8   8   8
#     4   8  13  21  34  51  69  93 126 158 188 224
#     4   9  17  28  42  60  81 106 135 166 201 238
#     4   8  14  26  43  60  79 105 137 170 199 230
#     4   8  13  20  30  45  66  95 127 152 180 224
#     4   8  14  23  33  48  71  96 123 156 191 225
#     4   8  13  20  29  44  69  97 122 150 185 226
#
# _framework density 20.784374
#
# number of rings (size 3 to 8) (size 9 to 14) (size 15 to 20)
#    0.000    3.833    0.000    3.000    0.000    1.333 
#    0.000    5.833    0.000    2.000    0.000    0.000 
#    0.000    1.333    0.000    3.000    0.000    6.333 
#
# Total GULP energy -133660.599530 kJ/mol
# GULP energy per Si atom -5569.191647 kJ/mol
# Density = 2.073707 g / cm^3
# Si number density = 20.784374 Si / 1000 Ang^3
#
#
#
# Elastic Constant Matrix: (Units=GPa)
#
#
# Indices 1 2 3 4 5 6 
#
# 1 48.5747 8.0633 12.2488 0.0000 -10.1382 0.0000
# 2 8.0633 113.5395 148.2058 0.0000 2.6156 0.0000
# 3 12.2488 148.2058 261.1275 0.0000 -4.1098 0.0000
# 4 0.0000 0.0000 0.0000 27.6883 0.0000 2.6377
# 5 -10.1382 2.6156 -4.1098 0.0000 19.0316 0.0000
# 6 0.0000 0.0000 0.0000 2.6377 0.0000 -3.9470
#
#
#
# Elastic Compliance Matrix: (Units=1/GPa)
#
#
# Indices 1 2 3 4 5 6 
#
# 1 0.023642 -0.003114 0.000867 0.000000 0.013210 0.000000
# 2 -0.003114 0.035956 -0.020435 0.000000 -0.011014 0.000000
# 3 0.000867 -0.020435 0.015491 0.000000 0.006615 0.000000
# 4 0.000000 0.000000 0.000000 0.033955 0.000000 0.022691
# 5 0.013210 -0.011014 0.006615 0.000000 0.062523 0.000000
# 6 0.000000 0.000000 0.000000 0.022691 0.000000 -0.238195
#
#
# Mechanical properties :
#
#
# Convention : Reuss Voigt Hill
#
# Bulk Modulus (GPa) = 33.64235 84.47528 59.05881
# Shear Modulus (GPa) = -440.35354 25.53617 -207.40869
#
# Velocity S-wave (km/s) = -14.57146 3.50897 -10.00037
# Velocity P-wave (km/s) = 16.33652 7.55970 10.24043
#
# Compressibility (1/GPa) = 0.02972444
#
# Stress axis : x y z
#
# Youngs Moduli (GPa) = 42.29700 27.81167 64.55412
#
# Poissons Ratio (x) = 0.08662 -0.05594
# Poissons Ratio (y) = 0.13173 1.31913
# Poissons Ratio (z) = -0.03665 0.56832
#
# Static dielectric constant tensor:
#      x y z
#    x 1.846260 0.000000 0.018410 
#    y 0.000000 1.738010 0.000000 
#    z 0.018410 0.000000 1.771810 
# 
# From -- ./inp_files/213526.got.cif
#   From: 2010.05.17/outbox.cif.g08.bks.cpg/sg12_107_cif.got.tgz:213526.got - 2010.06.03 13:09:07.
