data_PCOD9222995
_publ_section_title
;
Structure prediction by ZEFSAII (Michael W. Deem and Ramdas Pophale) SiO2 
 PCOD9222995
Probable space group: C 2/M
;
_chemical_formula_sum "Si O2"
_cell_formula_units_Z 40
_cell_length_a 18.370733
_cell_length_b 14.698798
_cell_length_c 9.134138
_cell_angle_alpha 90.000000
_cell_angle_beta 43.175872
_cell_angle_gamma 90.000000
_cell_volume 1687.657746
_symmetry_space_group_name_H-M "C 2/M"
_symmetry_group_IT_number 12
_symmetry_cell_setting 'monoclinic'
loop_
_space_group_symop_operation_xyz
x,y,z
-x,y,-z
-x,-y,-z
x,-y,z
1/2+x,1/2+y,z
1/2-x,1/2+y,-z
1/2-x,1/2-y,-z
1/2+x,1/2-y,z
loop_
_atom_site_type_symbol
_atom_site_label
_atom_site_fract_x
_atom_site_fract_y
_atom_site_fract_z
Si Si1 0.975135 0.796535 0.866586
Si Si2 0.791646 0.795020 0.628284
Si Si3 0.027962 0.596120 0.131068
Si Si4 0.714257 0.897845 0.469026
Si Si5 0.383662 0.398597 0.748245
O O1 0.091339 0.793587 0.619603
O O2 0.925267 0.695971 0.914130
O O3 0.907238 0.869572 0.878654
O O4 0.000000 0.813132 0.000000
O O5 0.729943 0.867269 0.615934
O O6 0.747236 0.692726 0.672681
O O7 0.812079 0.829690 0.760872
O O8 0.082196 0.500000 0.089579
O O9 0.911749 0.595997 0.377306
O O10 0.000000 0.593654 0.000000
O O11 0.759141 0.000000 0.380911
O O12 0.500000 0.398608 0.500000
O O13 0.340186 0.500000 0.802690
#
# Coordination Sequence:
#
# PCOD9222995 Si02
#       5
#     8   8   8   8   8
#     4   9  17  29  46  68  92 118 149 184 220 260
#     4   9  17  29  46  68  92 118 149 183 219 263
#     4   8  14  26  45  67  88 112 145 182 220 263
#     4   9  16  27  46  68  89 117 151 184 219 261
#     4   9  17  29  44  63  89 120 152 184 219 261
#
# _framework density 23.701488000000001
#
# number of rings (size 3 to 8) (size 9 to 14) (size 15 to 20)
#    0.000    3.200    0.000    0.600    0.000    1.200 
#    0.000    1.000    0.000   25.200    0.000    8.400 
#    0.000    0.000    0.000    0.000    0.000    0.000 
#
# Total GULP energy -111594.609653 kJ/mol
# GULP energy per Si atom -5579.730483 kJ/mol
# Density = 2.364754 g / cm^3
# Si number density = 23.701488 Si / 1000 Ang^3
#
#
#
# Elastic Constant Matrix: (Units=GPa)
#
#
# Indices 1 2 3 4 5 6 
#
# 1 101.0449 60.6477 29.4830 0.0000 17.2518 0.0000
# 2 60.6477 181.9636 21.4860 0.0000 26.2174 0.0000
# 3 29.4830 21.4860 62.0458 0.0000 12.2095 0.0000
# 4 0.0000 0.0000 0.0000 18.6701 0.0000 3.7762
# 5 17.2518 26.2174 12.2095 0.0000 32.6030 0.0000
# 6 0.0000 0.0000 0.0000 3.7762 0.0000 22.8421
#
#
#
# Elastic Compliance Matrix: (Units=1/GPa)
#
#
# Indices 1 2 3 4 5 6 
#
# 1 0.013984 -0.003714 -0.004848 0.000000 -0.002597 0.000000
# 2 -0.003714 0.007295 0.000007 0.000000 -0.003904 0.000000
# 3 -0.004848 0.000007 0.019340 0.000000 -0.004683 0.000000
# 4 0.000000 0.000000 0.000000 0.055414 0.000000 -0.009161
# 5 -0.002597 -0.003904 -0.004683 0.000000 0.036939 0.000000
# 6 0.000000 0.000000 0.000000 -0.009161 0.000000 0.045293
#
#
# Mechanical properties :
#
#
# Convention : Reuss Voigt Hill
#
# Bulk Modulus (GPa) = 42.53702 63.14309 52.84006
# Shear Modulus (GPa) = 24.60490 30.38553 27.49522
#
# Velocity S-wave (km/s) = 3.22548 3.58440 3.40966
# Velocity P-wave (km/s) = 5.64425 6.62038 6.15170
#
# Compressibility (1/GPa) = 0.02350893
#
# Stress axis : x y z
#
# Youngs Moduli (GPa) = 71.51190 137.07801 51.70692
#
# Poissons Ratio (x) = 0.50912 0.25065
# Poissons Ratio (y) = 0.26560 -0.00035
# Poissons Ratio (z) = 0.34665 -0.00093
#
# Static dielectric constant tensor:
#      x y z
#    x 1.859060 0.000000 -0.095380 
#    y 0.000000 1.935690 0.000000 
#    z -0.095380 0.000000 1.990870 
# 
# From -- ./inp_files/72403.got.cif
#   From: 2010.05.17/outbox.cif.g08.bks.cpg/sg12_37_cif.got.tgz:72403.got - 2010.06.03 13:09:07.
