data_PCOD9222173
_publ_section_title
;
Structure prediction by ZEFSAII (Michael W. Deem and Ramdas Pophale) SiO2 
 PCOD9222173
Probable space group: C 2/M
;
_chemical_formula_sum "Si O2"
_cell_formula_units_Z 30
_cell_length_a 10.878815
_cell_length_b 23.508860
_cell_length_c 7.444983
_cell_angle_alpha 90.000000
_cell_angle_beta 138.460102
_cell_angle_gamma 90.000000
_cell_volume 1262.650134
_symmetry_space_group_name_H-M "C 2/M"
_symmetry_group_IT_number 12
_symmetry_cell_setting 'monoclinic'
loop_
_space_group_symop_operation_xyz
x,y,z
-x,y,-z
-x,-y,-z
x,-y,z
1/2+x,1/2+y,z
1/2-x,1/2+y,-z
1/2-x,1/2-y,-z
1/2+x,1/2-y,z
loop_
_atom_site_type_symbol
_atom_site_label
_atom_site_fract_x
_atom_site_fract_y
_atom_site_fract_z
Si Si1 0.715554 0.565205 0.279596
Si Si2 0.608390 0.788533 0.954354
Si Si3 0.717784 0.403249 0.698083
Si Si4 0.500000 0.848521 0.500000
Si Si5 0.500000 0.000000 0.000000
O O1 0.783933 0.500000 0.343815
O O2 0.738407 0.585957 0.508015
O O3 0.826898 0.609634 0.281764
O O4 0.500000 0.565377 0.000000
O O5 0.714399 0.841749 0.161972
O O6 0.500000 0.759230 0.000000
O O7 0.750000 0.750000 0.000000
O O8 0.475004 0.811465 0.650720
O O9 0.500000 0.412114 0.500000
O O10 0.858535 0.450541 0.925653
#
# Coordination Sequence:
#
# PCOD9222173 Si02
#       5
#     8   8   8   4   2
#     4  11  24  44  75 120 162 202 253 324 404 488
#     4  12  29  53  83 117 159 219 277 343 403 479
#     4  12  25  47  79 119 160 210 262 328 407 480
#     4  12  25  52  78 110 162 203 272 328 406 476
#     4  12  22  44  78 116 166 200 262 314 410 480
#
# _framework density 23.759553
#
# number of rings (size 3 to 8) (size 9 to 14) (size 15 to 20)
#    0.000    0.267    5.333    2.400    1.867    4.267 
#    7.200    0.000    0.000    0.000    0.000    0.000 
#    0.000    0.000    0.000    0.000    0.000    0.000 
#
# Total GULP energy -83733.361316 kJ/mol
# GULP energy per Si atom -5582.224088 kJ/mol
# Density = 2.370547 g / cm^3
# Si number density = 23.759553 Si / 1000 Ang^3
#
#
#
# Elastic Constant Matrix: (Units=GPa)
#
#
# Indices 1 2 3 4 5 6 
#
# 1 125.9789 28.2678 26.2139 0.0000 -4.8139 0.0000
# 2 28.2678 93.8705 22.1927 0.0000 -0.0432 0.0000
# 3 26.2139 22.1927 81.5777 0.0000 -3.2881 0.0000
# 4 0.0000 0.0000 0.0000 0.8185 0.0000 10.0452
# 5 -4.8139 -0.0432 -3.2881 0.0000 60.0006 0.0000
# 6 0.0000 0.0000 0.0000 10.0452 0.0000 51.6546
#
#
#
# Elastic Compliance Matrix: (Units=1/GPa)
#
#
# Indices 1 2 3 4 5 6 
#
# 1 0.008912 -0.002150 -0.002255 0.000000 0.000590 0.000000
# 2 -0.002150 0.011906 -0.002560 0.000000 -0.000304 0.000000
# 3 -0.002255 -0.002560 0.013702 0.000000 0.000568 0.000000
# 4 0.000000 0.000000 0.000000 -0.881111 0.000000 0.171348
# 5 0.000590 -0.000304 0.000568 0.000000 0.016745 0.000000
# 6 0.000000 0.000000 0.000000 0.171348 0.000000 -0.013962
#
#
# Mechanical properties :
#
#
# Convention : Reuss Voigt Hill
#
# Bulk Modulus (GPa) = 48.56968 50.53066 49.55017
# Shear Modulus (GPa) = -6.07523 37.47825 15.70151
#
# Velocity S-wave (km/s) = -1.60079 3.97595 2.57349
# Velocity P-wave (km/s) = 4.13157 6.51086 5.45258
#
# Compressibility (1/GPa) = 0.02058898
#
# Stress axis : x y z
#
# Youngs Moduli (GPa) = 112.20683 83.99369 72.98076
#
# Poissons Ratio (x) = 0.18062 0.16457
# Poissons Ratio (y) = 0.24129 0.18684
# Poissons Ratio (z) = 0.25303 0.21504
#
# Static dielectric constant tensor:
#      x y z
#    x 1.918200 0.000000 -0.006430 
#    y 0.000000 1.884590 0.000000 
#    z -0.006430 0.000000 1.940390 
# 
# From -- ./inp_files/51132.got.cif
#   From: 2010.05.17/outbox.cif.g08.bks.cpg/sg12_26_cif.got.tgz:51132.got - 2010.06.03 13:09:07.
