data_PCOD9222967
_publ_section_title
;
Structure prediction by ZEFSAII (Michael W. Deem and Ramdas Pophale) SiO2 
 PCOD9222967
Probable space group: C 2/M
;
_chemical_formula_sum "Si O2"
_cell_formula_units_Z 48
_cell_length_a 13.340545
_cell_length_b 23.419116
_cell_length_c 7.770849
_cell_angle_alpha 90.000000
_cell_angle_beta 134.033980
_cell_angle_gamma 90.000000
_cell_volume 1745.411189
_symmetry_space_group_name_H-M "C 2/M"
_symmetry_group_IT_number 12
_symmetry_cell_setting 'monoclinic'
loop_
_space_group_symop_operation_xyz
x,y,z
-x,y,-z
-x,-y,-z
x,-y,z
1/2+x,1/2+y,z
1/2-x,1/2+y,-z
1/2-x,1/2-y,-z
1/2+x,1/2-y,z
loop_
_atom_site_type_symbol
_atom_site_label
_atom_site_fract_x
_atom_site_fract_y
_atom_site_fract_z
Si Si1 0.904426 0.248514 0.543298
Si Si2 0.906046 0.907604 0.052594
Si Si3 0.845193 0.114528 0.449163
Si Si4 0.652943 0.726604 0.039852
Si Si5 0.164857 0.433213 0.543350
Si Si6 0.100669 0.432872 0.952020
O O1 0.881998 0.180940 0.484748
O O2 0.000000 0.271047 0.500000
O O3 0.004861 0.257749 0.826787
O O4 0.749524 0.271509 0.324790
O O5 0.753152 0.931246 0.825194
O O6 0.884650 0.839566 0.023635
O O7 0.000000 0.925498 0.000000
O O8 0.010613 0.918751 0.335715
O O9 0.752828 0.102054 0.508657
O O10 0.743462 0.099188 0.169989
O O11 0.750000 0.750000 0.000000
O O12 0.163759 0.500000 0.490133
O O13 0.005011 0.414406 0.325572
O O14 0.133363 0.500000 0.978374
O O15 0.000000 0.426198 0.000000
#
# Coordination Sequence:
#
# PCOD9222967 Si02
#       6
#     8   8   8   8   8   8
#     4   9  18  32  49  67  90 122 163 203 237 282
#     4   9  18  30  45  71 101 125 158 201 239 279
#     4   9  16  27  44  67  94 125 155 193 238 280
#     4   9  18  34  51  67  93 129 163 197 239 288
#     4   9  17  29  46  70  99 127 155 189 233 284
#     4   8  14  25  41  63  92 124 157 189 226 278
#
# _framework density 27.500682000000001
#
# number of rings (size 3 to 8) (size 9 to 14) (size 15 to 20)
#    0.000    3.167    0.000    1.500    0.000    5.000 
#    0.000   10.000    0.000    2.000    0.000    7.000 
#    0.000   30.000    0.000    0.000    0.000    0.167 
#
# Total GULP energy -134161.513524 kJ/mol
# GULP energy per Si atom -5590.063063 kJ/mol
# Density = 2.743809 g / cm^3
# Si number density = 27.500682 Si / 1000 Ang^3
#
#
#
# Elastic Constant Matrix: (Units=GPa)
#
#
# Indices 1 2 3 4 5 6 
#
# 1 102.8194 3.9551 80.6652 0.0000 18.6538 0.0000
# 2 3.9551 46.6562 30.5055 0.0000 -4.3474 0.0000
# 3 80.6652 30.5055 375.3883 0.0000 9.4895 0.0000
# 4 0.0000 0.0000 0.0000 49.9444 0.0000 1.0731
# 5 18.6538 -4.3474 9.4895 0.0000 77.9762 0.0000
# 6 0.0000 0.0000 0.0000 1.0731 0.0000 20.2872
#
#
#
# Elastic Compliance Matrix: (Units=1/GPa)
#
#
# Indices 1 2 3 4 5 6 
#
# 1 0.012213 0.000420 -0.002593 0.000000 -0.002583 0.000000
# 2 0.000420 0.022825 -0.001981 0.000000 0.001413 0.000000
# 3 -0.002593 -0.001981 0.003380 0.000000 0.000099 0.000000
# 4 0.000000 0.000000 0.000000 0.020045 0.000000 -0.001060
# 5 -0.002583 0.001413 0.000099 0.000000 0.013509 0.000000
# 6 0.000000 0.000000 0.000000 -0.001060 0.000000 0.049348
#
#
# Mechanical properties :
#
#
# Convention : Reuss Voigt Hill
#
# Bulk Modulus (GPa) = 33.21353 83.90172 58.55762
# Shear Modulus (GPa) = 35.80028 56.95742 46.37885
#
# Velocity S-wave (km/s) = 3.61196 4.55590 4.11111
# Velocity P-wave (km/s) = 5.43125 7.63218 6.62377
#
# Compressibility (1/GPa) = 0.03010822
#
# Stress axis : x y z
#
# Youngs Moduli (GPa) = 81.88286 43.81244 295.89381
#
# Poissons Ratio (x) = -0.01838 0.76728
# Poissons Ratio (y) = -0.03435 0.58607
# Poissons Ratio (z) = 0.21233 0.08678
#
# Static dielectric constant tensor:
#      x y z
#    x 2.216100 0.000000 -0.055240 
#    y 0.000000 2.003810 0.000000 
#    z -0.055240 0.000000 2.244800 
# 
# From -- ./inp_files/169735.got.cif
#   From: 2010.05.17/outbox.cif.g08.bks.cpg/sg12_85_cif.got.tgz:169735.got - 2010.06.03 13:09:07.
