data_PCOD9222127
_publ_section_title
;
Structure prediction by ZEFSAII (Michael W. Deem and Ramdas Pophale) SiO2 
 PCOD9222127
Probable space group: C 2/M
;
_chemical_formula_sum "Si O2"
_cell_formula_units_Z 40
_cell_length_a 16.327639
_cell_length_b 14.893935
_cell_length_c 11.547468
_cell_angle_alpha 90.000000
_cell_angle_beta 38.739175
_cell_angle_gamma 90.000000
_cell_volume 1757.270404
_symmetry_space_group_name_H-M "C 2/M"
_symmetry_group_IT_number 12
_symmetry_cell_setting 'monoclinic'
loop_
_space_group_symop_operation_xyz
x,y,z
-x,y,-z
-x,-y,-z
x,-y,z
1/2+x,1/2+y,z
1/2-x,1/2+y,-z
1/2-x,1/2-y,-z
1/2+x,1/2-y,z
loop_
_atom_site_type_symbol
_atom_site_label
_atom_site_fract_x
_atom_site_fract_y
_atom_site_fract_z
Si Si1 0.695637 0.899398 0.781983
Si Si2 0.059087 0.100952 0.636923
Si Si3 0.849212 0.602262 0.666342
Si Si4 0.875255 0.210424 0.214330
Si Si5 0.243574 0.144131 0.031022
O O1 0.848655 0.893810 0.576601
O O2 0.629969 0.817938 0.786101
O O3 0.682778 0.881276 0.932526
O O4 0.651291 0.000000 0.801437
O O5 0.107106 0.172819 0.677374
O O6 0.906570 0.116156 0.785609
O O7 0.076534 0.000000 0.666275
O O8 0.842917 0.500000 0.626626
O O9 0.754197 0.668163 0.700742
O O10 0.000000 0.632464 0.500000
O O11 0.800510 0.600999 0.852408
O O12 0.000000 0.180387 0.000000
O O13 0.250000 0.250000 0.000000
#
# Coordination Sequence:
#
# PCOD9222127 Si02
#       5
#     8   8   8   8   8
#     4  11  25  44  67 100 140 182 226 280 343 411
#     4  11  24  43  72 104 136 180 230 285 344 405
#     4  11  25  44  70 101 136 181 229 283 340 398
#     4  12  24  45  71 102 138 182 226 285 344 405
#     4  12  23  42  70 102 138 180 230 282 340 405
#
# _framework density 22.762574000000001
#
# number of rings (size 3 to 8) (size 9 to 14) (size 15 to 20)
#    0.000    0.600    4.000    3.600    2.800    2.800 
#    3.600    0.000    0.000    0.000    0.000    0.000 
#    0.000    0.000    0.000    0.000    0.000    0.000 
#
# Total GULP energy -112016.739307 kJ/mol
# GULP energy per Si atom -5600.836965 kJ/mol
# Density = 2.271077 g / cm^3
# Si number density = 22.762574 Si / 1000 Ang^3
#
#
#
# Elastic Constant Matrix: (Units=GPa)
#
#
# Indices 1 2 3 4 5 6 
#
# 1 88.3617 53.3539 28.7788 0.0000 -1.2624 0.0000
# 2 53.3539 157.8510 -1.6323 0.0000 1.3787 0.0000
# 3 28.7788 -1.6323 98.3875 0.0000 -17.7540 0.0000
# 4 0.0000 0.0000 0.0000 27.4126 0.0000 -8.9571
# 5 -1.2624 1.3787 -17.7540 0.0000 46.8122 0.0000
# 6 0.0000 0.0000 0.0000 -8.9571 0.0000 3.4156
#
#
#
# Elastic Compliance Matrix: (Units=1/GPa)
#
#
# Indices 1 2 3 4 5 6 
#
# 1 0.016315 -0.005556 -0.005105 0.000000 -0.001332 0.000000
# 2 -0.005556 0.008229 0.001815 0.000000 0.000296 0.000000
# 3 -0.005105 0.001815 0.012509 0.000000 0.004553 0.000000
# 4 0.000000 0.000000 0.000000 0.254892 0.000000 0.668435
# 5 -0.001332 0.000296 0.004553 0.000000 0.023044 0.000000
# 6 0.000000 0.000000 0.000000 0.668435 0.000000 2.045698
#
#
# Mechanical properties :
#
#
# Convention : Reuss Voigt Hill
#
# Bulk Modulus (GPa) = 51.64756 56.17790 53.91273
# Shear Modulus (GPa) = 2.09658 33.13472 17.61565
#
# Velocity S-wave (km/s) = 0.96076 3.81946 2.78490
# Velocity P-wave (km/s) = 4.89589 6.64715 5.83756
#
# Compressibility (1/GPa) = 0.01936200
#
# Stress axis : x y z
#
# Youngs Moduli (GPa) = 61.29186 121.51959 79.94367
#
# Poissons Ratio (x) = 0.67513 0.40811
# Poissons Ratio (y) = 0.34052 -0.14510
# Poissons Ratio (z) = 0.31289 -0.22057
#
# Static dielectric constant tensor:
#      x y z
#    x 1.794910 0.000000 -0.023910 
#    y 0.000000 1.870930 0.000000 
#    z -0.023910 0.000000 1.841720 
# 
# From -- ./inp_files/155754.got.cif
#   From: 2010.05.17/outbox.cif.g08.bks.cpg/sg12_78_cif.got.tgz:155754.got - 2010.06.03 13:09:07.
