data_PCOD9222956
_publ_section_title
;
Structure prediction by ZEFSAII (Michael W. Deem and Ramdas Pophale) SiO2 
 PCOD9222956
Probable space group: C 2/M
;
_chemical_formula_sum "Si O2"
_cell_formula_units_Z 56
_cell_length_a 34.205906
_cell_length_b 7.290778
_cell_length_c 18.262557
_cell_angle_alpha 90.000000
_cell_angle_beta 25.917422
_cell_angle_gamma 90.000000
_cell_volume 1990.640424
_symmetry_space_group_name_H-M "C 2/M"
_symmetry_group_IT_number 12
_symmetry_cell_setting 'monoclinic'
loop_
_space_group_symop_operation_xyz
x,y,z
-x,y,-z
-x,-y,-z
x,-y,z
1/2+x,1/2+y,z
1/2-x,1/2+y,-z
1/2-x,1/2-y,-z
1/2+x,1/2-y,z
loop_
_atom_site_type_symbol
_atom_site_label
_atom_site_fract_x
_atom_site_fract_y
_atom_site_fract_z
Si Si1 0.645234 0.218164 0.659087
Si Si2 0.598031 0.787444 0.893184
Si Si3 0.773014 0.220561 0.071347
Si Si4 0.603601 0.786675 0.278978
Si Si5 0.067398 0.285550 0.100169
Si Si6 0.453085 0.224518 0.431400
Si Si7 0.696625 0.777739 0.417194
O O1 0.750000 0.250000 0.500000
O O2 0.593508 0.289650 0.818225
O O3 0.638187 0.279838 0.587043
O O4 0.630613 0.000000 0.683105
O O5 0.555306 0.707446 0.039181
O O6 0.703641 0.787139 0.735736
O O7 0.571210 0.000000 0.934777
O O8 0.672631 0.289011 0.223155
O O9 0.829371 0.273618 0.047583
O O10 0.768668 0.000000 0.078786
O O11 0.834713 0.280402 0.898632
O O12 0.507936 0.714358 0.410756
O O13 0.590938 0.000000 0.318915
O O14 0.043691 0.500000 0.135450
O O15 0.012783 0.213473 0.261292
O O16 0.354466 0.276821 0.570622
O O17 0.454324 0.000000 0.432522
O O18 0.700828 0.000000 0.410229
#
# Coordination Sequence:
#
# PCOD9222956 Si02
#       7
#     8   8   8   8   8   8   8
#     4   8  14  25  41  61  81 103 135 170 201 237
#     4   9  17  29  44  61  83 111 140 168 203 247
#     4   9  15  23  39  62  83 105 138 175 203 234
#     4   8  14  25  40  58  83 112 137 164 203 247
#     4   9  17  29  43  59  84 115 139 165 206 249
#     4   8  14  26  43  62  84 109 135 164 204 249
#     4   9  16  27  45  65  83 105 136 173 206 239
#
# _framework density 28.131647999999998
#
# number of rings (size 3 to 8) (size 9 to 14) (size 15 to 20)
#    0.000    3.429    0.000    1.286    0.000    1.143 
#    0.000    3.571    0.000    5.143    0.000    6.000 
#    0.000   16.000    0.000    0.000    0.000    0.000 
#
# Total GULP energy -156524.803774 kJ/mol
# GULP energy per Si atom -5590.171563 kJ/mol
# Density = 2.806762 g / cm^3
# Si number density = 28.131648 Si / 1000 Ang^3
#
#
#
# Elastic Constant Matrix: (Units=GPa)
#
#
# Indices 1 2 3 4 5 6 
#
# 1 264.6472 4.0547 46.4204 0.0000 1.4395 0.0000
# 2 4.0547 127.7978 -1.4786 0.0001 2.0575 0.0000
# 3 46.4204 -1.4786 112.1076 0.0001 -8.7234 0.0000
# 4 0.0000 0.0001 0.0001 -12.9186 0.0000 2.2676
# 5 1.4395 2.0575 -8.7234 0.0000 72.3313 0.0000
# 6 0.0000 0.0000 0.0000 2.2676 0.0000 -3.0935
#
#
#
# Elastic Compliance Matrix: (Units=1/GPa)
#
#
# Indices 1 2 3 4 5 6 
#
# 1 0.004083 -0.000145 -0.001715 0.000000 -0.000284 0.000000
# 2 -0.000145 0.007834 0.000148 0.000000 -0.000202 0.000000
# 3 -0.001715 0.000148 0.009726 0.000000 0.001203 0.000000
# 4 0.000000 0.000000 0.000000 -0.088838 0.000000 -0.065121
# 5 -0.000284 -0.000202 0.001203 0.000000 0.013982 0.000000
# 6 0.000000 0.000000 0.000000 -0.065121 0.000000 -0.370990
#
#
# Mechanical properties :
#
#
# Convention : Reuss Voigt Hill
#
# Bulk Modulus (GPa) = 54.88719 66.94953 60.91836
# Shear Modulus (GPa) = -12.05671 41.63422 14.78875
#
# Velocity S-wave (km/s) = -2.07247 3.85122 2.29530
# Velocity P-wave (km/s) = 3.71838 6.60501 5.35969
#
# Compressibility (1/GPa) = 0.01821919
#
# Stress axis : x y z
#
# Youngs Moduli (GPa) = 244.90907 127.64192 102.82184
#
# Poissons Ratio (x) = 0.01848 0.17631
# Poissons Ratio (y) = 0.03547 -0.01517
# Poissons Ratio (z) = 0.41995 -0.01884
#
# Static dielectric constant tensor:
#      x y z
#    x 2.170250 0.000000 0.004330 
#    y 0.000000 2.089290 0.000000 
#    z 0.004330 0.000000 2.277820 
# 
# From -- ./inp_files/295087.got.cif
#   From: 2010.05.17/outbox.cif.g08.bks.cpg/sg12_148_cif.got.tgz:295087.got - 2010.06.03 13:09:07.
