data_PCOD9222842
_publ_section_title
;
Structure prediction by ZEFSAII (Michael W. Deem and Ramdas Pophale) SiO2 
 PCOD9222842
Probable space group: C 2/M
;
_chemical_formula_sum "Si O2"
_cell_formula_units_Z 56
_cell_length_a 30.188060
_cell_length_b 14.263444
_cell_length_c 7.141664
_cell_angle_alpha 90.000000
_cell_angle_beta 99.751653
_cell_angle_gamma 90.000000
_cell_volume 3030.666851
_symmetry_space_group_name_H-M "C 2/M"
_symmetry_group_IT_number 12
_symmetry_cell_setting 'monoclinic'
loop_
_space_group_symop_operation_xyz
x,y,z
-x,y,-z
-x,-y,-z
x,-y,z
1/2+x,1/2+y,z
1/2-x,1/2+y,-z
1/2-x,1/2-y,-z
1/2+x,1/2-y,z
loop_
_atom_site_type_symbol
_atom_site_label
_atom_site_fract_x
_atom_site_fract_y
_atom_site_fract_z
Si Si1 0.695325 0.711192 0.253789
Si Si2 0.715967 0.105507 0.773101
Si Si3 0.667977 0.289994 0.792568
Si Si4 0.916460 0.107037 0.158341
Si Si5 0.513106 0.606849 0.293138
Si Si6 0.256834 0.895028 0.765726
Si Si7 0.388920 0.392993 0.709475
O O1 0.737818 0.641126 0.288914
O O2 0.713283 0.815031 0.310051
O O3 0.654084 0.672825 0.345038
O O4 0.680034 0.714240 0.024304
O O5 0.678498 0.186094 0.724459
O O6 0.703652 0.000000 0.709505
O O7 0.727858 0.103569 0.004562
O O8 0.617921 0.331606 0.744807
O O9 0.705618 0.359196 0.735450
O O10 0.967269 0.145359 0.170082
O O11 0.920299 0.000000 0.235852
O O12 0.895145 0.099509 0.938394
O O13 0.500000 0.603543 0.500000
O O14 0.518910 0.500000 0.223942
O O15 0.562883 0.647900 0.317564
O O16 0.260862 0.000000 0.694805
O O17 0.381985 0.500000 0.633530
#
# Coordination Sequence:
#
# PCOD9222842 Si02
#       7
#     8   8   8   8   8   8   8
#     4   8  13  19  29  48  72  97 122 144 171 209
#     4   8  12  18  28  45  72 100 121 144 174 206
#     4   8  13  19  29  48  72  97 122 144 171 209
#     4   9  15  23  36  53  73  96 120 146 176 210
#     4   9  17  27  37  51  72  95 118 146 181 219
#     4   8  12  18  28  45  72 100 121 144 174 206
#     4   9  15  23  36  53  73  96 120 146 176 210
#
# _framework density 18.477782000000001
#
# number of rings (size 3 to 8) (size 9 to 14) (size 15 to 20)
#    0.000    3.571    0.000    3.000    0.000    5.143 
#    0.000    0.000    0.000    0.000    0.000    5.000 
#    0.000   11.429    0.000    0.000    0.000    0.000 
#
# Total GULP energy -156105.310973 kJ/mol
# GULP energy per Si atom -5575.189678 kJ/mol
# Density = 1.843573 g / cm^3
# Si number density = 18.477782 Si / 1000 Ang^3
#
#
#
# Elastic Constant Matrix: (Units=GPa)
#
#
# Indices 1 2 3 4 5 6 
#
# 1 170.1032 83.1754 9.6586 0.0000 -11.6339 0.0000
# 2 83.1754 127.7614 6.6385 0.0000 -1.9171 0.0000
# 3 9.6586 6.6385 48.2955 0.0000 1.9343 0.0000
# 4 0.0000 0.0000 0.0000 3.3214 0.0000 1.3824
# 5 -11.6339 -1.9171 1.9343 0.0000 23.2783 0.0000
# 6 0.0000 0.0000 0.0000 1.3824 0.0000 25.9080
#
#
#
# Elastic Compliance Matrix: (Units=1/GPa)
#
#
# Indices 1 2 3 4 5 6 
#
# 1 0.009050 -0.005768 -0.001183 0.000000 0.004146 0.000000
# 2 -0.005768 0.011572 -0.000361 0.000000 -0.001900 0.000000
# 3 -0.001183 -0.000361 0.021087 0.000000 -0.002373 0.000000
# 4 0.000000 0.000000 0.000000 0.307915 0.000000 -0.016430
# 5 0.004146 -0.001900 -0.002373 0.000000 0.045071 0.000000
# 6 0.000000 0.000000 0.000000 -0.016430 0.000000 0.039475
#
#
# Mechanical properties :
#
#
# Convention : Reuss Voigt Hill
#
# Bulk Modulus (GPa) = 36.92062 60.56726 48.74394
# Shear Modulus (GPa) = 10.92124 26.94739 18.93431
#
# Velocity S-wave (km/s) = 2.43378 3.82300 3.20458
# Velocity P-wave (km/s) = 5.28415 7.23441 6.33478
#
# Compressibility (1/GPa) = 0.02708513
#
# Stress axis : x y z
#
# Youngs Moduli (GPa) = 110.49836 86.41228 47.42225
#
# Poissons Ratio (x) = 0.49843 0.05611
# Poissons Ratio (y) = 0.63735 0.01712
# Poissons Ratio (z) = 0.13073 0.03120
#
# Static dielectric constant tensor:
#      x y z
#    x 1.664820 0.000000 -0.000310 
#    y 0.000000 1.622600 0.000000 
#    z -0.000310 0.000000 1.755810 
# 
# From -- ./inp_files/103976.got.cif
#   From: 2010.05.17/outbox.cif.g08.bks.cpg/sg12_52_cif.got.tgz:103976.got - 2010.06.03 13:09:07.
