data_PCOD9222162
_publ_section_title
;
Structure prediction by ZEFSAII (Michael W. Deem and Ramdas Pophale) SiO2 
 PCOD9222162
Probable space group: C 2/M
;
_chemical_formula_sum "Si O2"
_cell_formula_units_Z 24
_cell_length_a 14.105199
_cell_length_b 10.577183
_cell_length_c 13.870302
_cell_angle_alpha 90.000000
_cell_angle_beta 30.282785
_cell_angle_gamma 90.000000
_cell_volume 1043.510259
_symmetry_space_group_name_H-M "C 2/M"
_symmetry_group_IT_number 12
_symmetry_cell_setting 'monoclinic'
loop_
_space_group_symop_operation_xyz
x,y,z
-x,y,-z
-x,-y,-z
x,-y,z
1/2+x,1/2+y,z
1/2-x,1/2+y,-z
1/2-x,1/2-y,-z
1/2+x,1/2-y,z
loop_
_atom_site_type_symbol
_atom_site_label
_atom_site_fract_x
_atom_site_fract_y
_atom_site_fract_z
Si Si1 0.339018 0.635689 0.336533
Si Si2 0.489861 0.701717 0.399882
Si Si3 0.908984 0.355564 0.974351
O O1 0.398491 0.500000 0.244379
O O2 0.363862 0.631903 0.430309
O O3 0.125355 0.667223 0.494379
O O4 0.469740 0.750849 0.187172
O O5 0.500000 0.650426 0.500000
O O6 0.698362 0.695614 0.174581
O O7 0.904700 0.500000 0.937962
O O8 0.000000 0.364289 0.000000
#
# Coordination Sequence:
#
# PCOD9222162 Si02
#       3
#     8   8   8
#     4  11  26  45  71 105 138 178 228 289 345 398
#     4  11  24  46  68 103 137 183 228 279 339 414
#     4  11  24  44  72 101 135 185 231 277 339 413
#
# _framework density 22.999296000000001
#
# number of rings (size 3 to 8) (size 9 to 14) (size 15 to 20)
#    0.000    1.000    3.333    2.000    0.000   12.000 
#    0.000    0.000    0.000    0.000    0.000    0.000 
#    0.000    0.000    0.000    0.000    0.000    0.000 
#
# Total GULP energy -66973.093168 kJ/mol
# GULP energy per Si atom -5581.091097 kJ/mol
# Density = 2.294695 g / cm^3
# Si number density = 22.999296 Si / 1000 Ang^3
#
#
#
# Elastic Constant Matrix: (Units=GPa)
#
#
# Indices 1 2 3 4 5 6 
#
# 1 123.5319 42.4947 27.1354 0.0000 -8.6886 0.0000
# 2 42.4947 187.2606 113.8333 0.0000 4.9273 0.0000
# 3 27.1354 113.8333 146.3885 0.0001 -27.0932 -0.0002
# 4 0.0000 0.0000 0.0001 15.0199 0.0000 12.5149
# 5 -8.6886 4.9273 -27.0932 0.0000 44.9632 0.0001
# 6 0.0000 0.0000 -0.0002 12.5149 0.0001 -42.8175
#
#
#
# Elastic Compliance Matrix: (Units=1/GPa)
#
#
# Indices 1 2 3 4 5 6 
#
# 1 0.008988 -0.002612 0.000832 0.000000 0.002525 0.000000
# 2 -0.002612 0.012980 -0.011217 0.000000 -0.008686 0.000000
# 3 0.000832 -0.011217 0.017622 0.000000 0.012008 0.000000
# 4 0.000000 0.000000 0.000000 0.053539 0.000000 0.015649
# 5 0.002525 -0.008686 0.012008 0.000000 0.030916 0.000000
# 6 0.000000 0.000000 0.000000 0.015649 0.000000 -0.018781
#
#
# Mechanical properties :
#
#
# Convention : Reuss Voigt Hill
#
# Bulk Modulus (GPa) = 73.54650 91.56751 82.55701
# Shear Modulus (GPa) = 36.82171 21.68096 29.25133
#
# Velocity S-wave (km/s) = 4.00558 3.07364 3.57015
# Velocity P-wave (km/s) = 7.31027 7.24541 7.27791
#
# Compressibility (1/GPa) = 0.01359684
#
# Stress axis : x y z
#
# Youngs Moduli (GPa) = 111.25482 77.04169 56.74867
#
# Poissons Ratio (x) = 0.20124 -0.04723
# Poissons Ratio (y) = 0.29061 0.63654
# Poissons Ratio (z) = -0.09260 0.86416
#
# Static dielectric constant tensor:
#      x y z
#    x 1.873960 0.000000 0.002910 
#    y 0.000000 1.946970 0.000000 
#    z 0.002910 0.000000 1.885140 
# 
# From -- ./inp_files/55258.got.cif
#   From: 2010.05.17/outbox.cif.g08.bks.cpg/sg12_28_cif.got.tgz:55258.got - 2010.06.03 13:09:07.
