data_PCOD9222915
_publ_section_title
;
Structure prediction by ZEFSAII (Michael W. Deem and Ramdas Pophale) SiO2 
 PCOD9222915
Probable space group: C 2/M
;
_chemical_formula_sum "Si O2"
_cell_formula_units_Z 64
_cell_length_a 18.673445
_cell_length_b 13.923722
_cell_length_c 9.871590
_cell_angle_alpha 90.000000
_cell_angle_beta 64.750674
_cell_angle_gamma 90.000000
_cell_volume 2321.434012
_symmetry_space_group_name_H-M "C 2/M"
_symmetry_group_IT_number 12
_symmetry_cell_setting 'monoclinic'
loop_
_space_group_symop_operation_xyz
x,y,z
-x,y,-z
-x,-y,-z
x,-y,z
1/2+x,1/2+y,z
1/2-x,1/2+y,-z
1/2-x,1/2-y,-z
1/2+x,1/2-y,z
loop_
_atom_site_type_symbol
_atom_site_label
_atom_site_fract_x
_atom_site_fract_y
_atom_site_fract_z
Si Si1 0.772676 0.141194 0.518222
Si Si2 0.846162 0.630013 0.149067
Si Si3 0.129695 0.142970 0.883737
Si Si4 0.000124 0.169294 0.785020
Si Si5 0.114862 0.178274 0.346322
Si Si6 0.149642 0.604900 0.407578
Si Si7 0.238831 0.136285 0.018800
Si Si8 0.523156 0.895727 0.760111
O O1 0.750000 0.250000 0.500000
O O2 0.716178 0.104349 0.683727
O O3 0.856837 0.142910 0.528223
O O4 0.736893 0.099142 0.408647
O O5 0.849422 0.745181 0.147954
O O6 0.818551 0.599966 0.023452
O O7 0.927946 0.596832 0.140579
O O8 0.082826 0.127113 0.779875
O O9 0.063052 0.131909 0.053830
O O10 0.205583 0.101448 0.903031
O O11 0.968469 0.153591 0.658220
O O12 0.991516 0.286529 0.798113
O O13 0.133402 0.295032 0.339411
O O14 0.174149 0.129018 0.190270
O O15 0.135713 0.500000 0.354629
O O16 0.085399 0.612012 0.583091
O O17 0.250000 0.250000 0.000000
O O18 0.483112 0.000000 0.773881
#
# Coordination Sequence:
#
# PCOD9222915 Si02
#       8
#     8   8   8   8   8   8   8   8
#     4   8  14  25  40  57  75  97 128 171 211 241
#     4   8  13  23  38  54  70  93 128 166 199 233
#     4   8  14  24  36  52  72  97 127 163 205 236
#     4   9  16  25  35  50  76 105 134 163 191 231
#     4   9  16  25  39  58  78 104 135 170 203 239
#     4   9  17  28  41  57  79 108 139 171 206 241
#     4   8  13  23  41  57  70  92 124 166 211 240
#     4   9  17  27  37  51  77 114 144 163 189 230
#
# _framework density 27.569165999999999
#
# number of rings (size 3 to 8) (size 9 to 14) (size 15 to 20)
#    0.000    3.500    0.000    0.000    0.000    1.000 
#    0.000    6.250    0.000   11.250    0.000    0.000 
#    0.000    1.000    0.000  213.125    0.000  282.250 
#
# Total GULP energy -178207.264435 kJ/mol
# GULP energy per Si atom -5568.977014 kJ/mol
# Density = 2.750642 g / cm^3
# Si number density = 27.569166 Si / 1000 Ang^3
#
#
#
# Elastic Constant Matrix: (Units=GPa)
#
#
# Indices 1 2 3 4 5 6 
#
# 1 158.4690 -8.1421 84.4096 0.0000 69.7784 0.0000
# 2 -8.1421 91.7612 5.9617 0.0000 -1.9540 0.0000
# 3 84.4096 5.9617 192.1036 0.0000 50.5360 0.0000
# 4 0.0000 0.0000 0.0000 -29.3744 0.0000 12.5346
# 5 69.7784 -1.9540 50.5360 0.0000 58.3441 0.0000
# 6 0.0000 0.0000 0.0000 12.5346 0.0000 -23.4968
#
#
#
# Elastic Compliance Matrix: (Units=1/GPa)
#
#
# Indices 1 2 3 4 5 6 
#
# 1 0.014165 0.001093 -0.002345 0.000000 -0.014872 0.000000
# 2 0.001093 0.011037 -0.000746 0.000000 -0.000291 0.000000
# 3 -0.002345 -0.000746 0.007159 0.000000 -0.003421 0.000000
# 4 0.000000 0.000000 0.000000 -0.044077 0.000000 -0.023513
# 5 -0.014872 -0.000291 -0.003421 0.000000 0.037880 0.000000
# 6 0.000000 0.000000 0.000000 -0.023513 0.000000 -0.055102
#
#
# Mechanical properties :
#
#
# Convention : Reuss Voigt Hill
#
# Bulk Modulus (GPa) = 35.25715 67.42136 51.33925
# Shear Modulus (GPa) = -322.88092 25.10155 -148.88969
#
# Velocity S-wave (km/s) = -10.83379 3.02071 -7.35684
# Velocity P-wave (km/s) = 11.98658 6.05596 7.31449
#
# Compressibility (1/GPa) = 0.02836304
#
# Stress axis : x y z
#
# Youngs Moduli (GPa) = 70.59891 90.60376 139.68092
#
# Poissons Ratio (x) = -0.09899 0.32759
# Poissons Ratio (y) = -0.07713 0.10421
# Poissons Ratio (z) = 0.16557 0.06760
#
# Static dielectric constant tensor:
#      x y z
#    x 2.261830 0.000000 -0.027250 
#    y 0.000000 2.253300 0.000000 
#    z -0.027250 0.000000 2.137910 
# 
# From -- ./inp_files/168098.got.cif
#   From: 2010.05.17/outbox.cif.g08.bks.cpg/sg12_85_cif.got.tgz:168098.got - 2010.06.03 13:09:07.
