data_PCOD9222467
_publ_section_title
;
Structure prediction by ZEFSAII (Michael W. Deem and Ramdas Pophale) SiO2 
 PCOD9222467
Probable space group: C 2/M
;
_chemical_formula_sum "Si O2"
_cell_formula_units_Z 30
_cell_length_a 7.264189
_cell_length_b 14.216005
_cell_length_c 13.624109
_cell_angle_alpha 90.000000
_cell_angle_beta 130.527247
_cell_angle_gamma 90.000000
_cell_volume 1069.404114
_symmetry_space_group_name_H-M "C 2/M"
_symmetry_group_IT_number 12
_symmetry_cell_setting 'monoclinic'
loop_
_space_group_symop_operation_xyz
x,y,z
-x,y,-z
-x,-y,-z
x,-y,z
1/2+x,1/2+y,z
1/2-x,1/2+y,-z
1/2-x,1/2-y,-z
1/2+x,1/2-y,z
loop_
_atom_site_type_symbol
_atom_site_label
_atom_site_fract_x
_atom_site_fract_y
_atom_site_fract_z
Si Si1 0.350700 0.163588 0.097814
Si Si2 0.792120 0.892192 0.743107
Si Si3 0.500000 0.000000 0.000000
Si Si4 0.379575 0.610582 0.320340
Si Si5 0.500000 0.756572 0.500000
O O1 0.805352 0.141697 0.859216
O O2 0.250000 0.250000 0.000000
O O3 0.625249 0.165624 0.239791
O O4 0.392272 0.079636 0.037778
O O5 0.620557 0.827474 0.619043
O O6 0.037909 0.891985 0.764169
O O7 0.704962 0.000000 0.714722
O O8 0.360313 0.500000 0.343327
O O9 0.576034 0.672872 0.447092
#
# Coordination Sequence:
#
# PCOD9222467 Si02
#       5
#     8   8   2   8   4
#     4  12  30  55  89 121 174 235 295 371 448 527
#     4  11  27  53  84 125 175 229 287 361 450 526
#     4  12  28  60  86 126 176 230 304 370 436 538
#     4  11  27  53  84 127 176 224 291 363 439 529
#     4  12  28  48  90 132 172 230 290 362 442 540
#
# _framework density 28.053008999999999
#
# number of rings (size 3 to 8) (size 9 to 14) (size 15 to 20)
#    0.000    0.533    2.667    1.600   11.200    1.067 
#    0.000    1.333    2.933    0.000    0.000    0.000 
#    0.000    0.000    0.000    0.000    0.000    0.000 
#
# Total GULP energy -83704.732670 kJ/mol
# GULP energy per Si atom -5580.315511 kJ/mol
# Density = 2.798916 g / cm^3
# Si number density = 28.053009 Si / 1000 Ang^3
#
#
#
# Elastic Constant Matrix: (Units=GPa)
#
#
# Indices 1 2 3 4 5 6 
#
# 1 188.5569 72.1314 44.1402 0.0000 -52.2660 0.0000
# 2 72.1314 296.0339 118.4794 0.0000 -26.1142 0.0000
# 3 44.1402 118.4794 153.9331 0.0001 -32.0995 0.0000
# 4 0.0000 0.0000 0.0001 -51.4525 0.0001 -79.8629
# 5 -52.2660 -26.1142 -32.0995 0.0001 69.6215 0.0000
# 6 0.0000 0.0000 0.0000 -79.8629 0.0000 5.3421
#
#
#
# Elastic Compliance Matrix: (Units=1/GPa)
#
#
# Indices 1 2 3 4 5 6 
#
# 1 0.007159 -0.001300 -0.000037 0.000000 0.004870 0.000000
# 2 -0.001300 0.005119 -0.003729 0.000000 -0.000775 0.000000
# 3 -0.000037 -0.003729 0.010045 0.000000 0.003205 0.000000
# 4 0.000000 0.000000 0.000000 -0.000803 0.000000 -0.012004
# 5 0.004870 -0.000775 0.003205 0.000000 0.019206 0.000000
# 6 0.000000 0.000000 0.000000 -0.012004 0.000000 0.007734
#
#
# Mechanical properties :
#
#
# Convention : Reuss Voigt Hill
#
# Bulk Modulus (GPa) = 82.01949 123.11399 102.56674
# Shear Modulus (GPa) = 79.80186 31.62041 55.71114
#
# Velocity S-wave (km/s) = 5.33934 3.36097 4.46121
# Velocity P-wave (km/s) = 8.20440 7.68394 7.94843
#
# Compressibility (1/GPa) = 0.01219222
#
# Stress axis : x y z
#
# Youngs Moduli (GPa) = 139.67823 195.36361 99.55153
#
# Poissons Ratio (x) = 0.25400 0.00365
# Poissons Ratio (y) = 0.18160 0.37118
# Poissons Ratio (z) = 0.00512 0.72843
#
# Static dielectric constant tensor:
#      x y z
#    x 2.376380 0.000000 0.186220 
#    y 0.000000 2.107610 0.000000 
#    z 0.186220 0.000000 2.367600 
# 
# From -- ./inp_files/305246.got.cif
#   From: 2010.05.17/outbox.cif.g08.bks.cpg/sg12_153_cif.got.tgz:305246.got - 2010.06.03 13:09:07.
