data_PCOD9222906
_publ_section_title
;
Structure prediction by ZEFSAII (Michael W. Deem and Ramdas Pophale) SiO2 
 PCOD9222906
Probable space group: C 2/M
;
_chemical_formula_sum "Si O2"
_cell_formula_units_Z 64
_cell_length_a 15.850465
_cell_length_b 7.558309
_cell_length_c 21.116809
_cell_angle_alpha 90.000000
_cell_angle_beta 66.918919
_cell_angle_gamma 90.000000
_cell_volume 2327.338941
_symmetry_space_group_name_H-M "C 2/M"
_symmetry_group_IT_number 12
_symmetry_cell_setting 'monoclinic'
loop_
_space_group_symop_operation_xyz
x,y,z
-x,y,-z
-x,-y,-z
x,-y,z
1/2+x,1/2+y,z
1/2-x,1/2+y,-z
1/2-x,1/2-y,-z
1/2+x,1/2-y,z
loop_
_atom_site_type_symbol
_atom_site_label
_atom_site_fract_x
_atom_site_fract_y
_atom_site_fract_z
Si Si1 0.879081 0.288668 0.515891
Si Si2 0.164744 0.287508 0.605139
Si Si3 0.080294 0.706905 0.360463
Si Si4 0.947043 0.713259 0.141407
Si Si5 0.210009 0.715278 0.728103
Si Si6 0.885897 0.792341 0.986206
Si Si7 0.944060 0.294729 0.767503
Si Si8 0.719552 0.292989 0.108286
O O1 0.894507 0.500000 0.511561
O O2 0.891718 0.222851 0.439841
O O3 0.770806 0.259477 0.560135
O O4 0.927072 0.218914 0.565924
O O5 0.157725 0.500000 0.605973
O O6 0.151835 0.235346 0.681937
O O7 0.053254 0.500000 0.371130
O O8 0.189437 0.711778 0.313546
O O9 0.041026 0.784339 0.306481
O O10 0.946819 0.500000 0.140318
O O11 0.007712 0.766922 0.063241
O O12 0.006546 0.778367 0.184837
O O13 0.845928 0.770505 0.193142
O O14 0.218095 0.500000 0.727325
O O15 0.830804 0.719808 0.940505
O O16 0.870780 0.000000 0.994214
O O17 0.828147 0.720121 0.062621
O O18 0.972571 0.500000 0.755090
O O19 0.836276 0.289935 0.817700
O O20 0.699990 0.500000 0.119666
#
# Coordination Sequence:
#
# PCOD9222906 Si02
#       8
#     8   8   8   8   8   8   8   8
#     4   8  13  22  37  57  80 105 136 174 211 246
#     4   8  13  22  37  57  80 105 136 174 211 246
#     4   9  17  28  43  63  86 113 143 176 214 253
#     4   9  17  29  44  62  86 115 144 173 208 252
#     4   9  17  28  43  63  86 113 143 176 214 253
#     4   9  16  26  42  64  87 110 139 175 212 248
#     4   9  17  29  44  62  86 115 144 173 208 252
#     4   9  16  26  42  64  87 110 139 175 212 248
#
# _framework density 27.499217000000002
#
# number of rings (size 3 to 8) (size 9 to 14) (size 15 to 20)
#    0.000    3.250    0.000    0.750    0.000    4.000 
#    0.000    0.000    0.000    1.500    0.000   10.500 
#    0.000    0.000    0.000   46.750    0.000   25.500 
#
# Total GULP energy -178806.755831 kJ/mol
# GULP energy per Si atom -5587.711120 kJ/mol
# Density = 2.743663 g / cm^3
# Si number density = 27.499217 Si / 1000 Ang^3
#
#
#
# Elastic Constant Matrix: (Units=GPa)
#
#
# Indices 1 2 3 4 5 6 
#
# 1 111.5417 -1.4158 29.5338 0.0000 -5.5536 0.0000
# 2 -1.4158 79.9459 7.5467 -0.0001 -4.6229 -0.0001
# 3 29.5338 7.5467 255.6518 0.0000 2.3168 0.0000
# 4 0.0000 -0.0001 0.0000 1.1888 0.0000 1.5994
# 5 -5.5536 -4.6229 2.3168 0.0000 60.0025 0.0000
# 6 0.0000 -0.0001 0.0000 1.5994 0.0000 -8.3710
#
#
#
# Elastic Compliance Matrix: (Units=1/GPa)
#
#
# Indices 1 2 3 4 5 6 
#
# 1 0.009305 0.000322 -0.001093 0.000000 0.000928 0.000000
# 2 0.000322 0.012613 -0.000419 0.000001 0.001018 0.000000
# 3 -0.001093 -0.000419 0.004053 0.000000 -0.000290 0.000000
# 4 0.000000 0.000001 0.000000 0.669169 0.000000 0.127853
# 5 0.000928 0.001018 -0.000290 0.000000 0.016841 0.000000
# 6 0.000000 0.000000 0.000000 0.127853 0.000000 -0.095032
#
#
# Mechanical properties :
#
#
# Convention : Reuss Voigt Hill
#
# Bulk Modulus (GPa) = 42.39008 57.60763 49.99885
# Shear Modulus (GPa) = 7.97205 37.99572 22.98388
#
# Velocity S-wave (km/s) = 1.70449 3.72116 2.89416
# Velocity P-wave (km/s) = 4.39570 6.28148 5.42122
#
# Compressibility (1/GPa) = 0.02359043
#
# Stress axis : x y z
#
# Youngs Moduli (GPa) = 107.47005 79.28629 246.74266
#
# Poissons Ratio (x) = -0.02550 0.26965
# Poissons Ratio (y) = -0.03456 0.10331
# Poissons Ratio (z) = 0.11745 0.03320
#
# Static dielectric constant tensor:
#      x y z
#    x 2.271650 0.000000 0.019170 
#    y 0.000000 2.086040 0.000000 
#    z 0.019170 0.000000 2.165750 
# 
# From -- ./inp_files/345520.got.cif
#   From: 2010.05.17/outbox.cif.g08.bks.cpg/sg12_173_cif.got.tgz:345520.got - 2010.06.03 13:09:07.
