data_PCOD9222415
_publ_section_title
;
Structure prediction by ZEFSAII (Michael W. Deem and Ramdas Pophale) SiO2 
 PCOD9222415
Probable space group: C 2/M
;
_chemical_formula_sum "Si O2"
_cell_formula_units_Z 26
_cell_length_a 26.782993
_cell_length_b 7.913660
_cell_length_c 4.783282
_cell_angle_alpha 90.000000
_cell_angle_beta 90.359250
_cell_angle_gamma 90.000000
_cell_volume 1013.803868
_symmetry_space_group_name_H-M "C 2/M"
_symmetry_group_IT_number 12
_symmetry_cell_setting 'monoclinic'
loop_
_space_group_symop_operation_xyz
x,y,z
-x,y,-z
-x,-y,-z
x,-y,z
1/2+x,1/2+y,z
1/2-x,1/2+y,-z
1/2-x,1/2-y,-z
1/2+x,1/2-y,z
loop_
_atom_site_type_symbol
_atom_site_label
_atom_site_fract_x
_atom_site_fract_y
_atom_site_fract_z
Si Si1 0.299709 0.805064 0.661150
Si Si2 0.547919 0.813689 0.205840
Si Si3 0.860428 0.805990 0.150933
Si Si4 0.500000 0.500000 0.500000
O O1 0.250000 0.750000 0.500000
O O2 0.313316 0.702640 0.938173
O O3 0.296436 0.000000 0.739426
O O4 0.344075 0.776455 0.439529
O O5 0.595443 0.787221 0.009020
O O6 0.539166 0.651480 0.400690
O O7 0.550598 0.000000 0.341273
O O8 0.500000 0.809814 0.000000
O O9 0.874381 0.000000 0.194591
#
# Coordination Sequence:
#
# PCOD9222415 Si02
#       4
#     8   8   8   2
#     4  12  26  47  72 104 141 184 236 295 358 423
#     4  11  26  45  68 102 142 186 234 292 352 421
#     4  12  26  46  73 104 141 187 237 291 358 423
#     4  12  24  44  72 100 140 184 244 284 358 410
#
# _framework density 25.645987000000002
#
# number of rings (size 3 to 8) (size 9 to 14) (size 15 to 20)
#    0.000    0.308    1.538    7.385    4.308    0.000 
#    0.000    0.000    0.000    0.000    0.000    0.000 
#    0.000    0.000    0.000    0.000    0.000    0.000 
#
# Total GULP energy -72725.249367 kJ/mol
# GULP energy per Si atom -5594.249951 kJ/mol
# Density = 2.558762 g / cm^3
# Si number density = 25.645987 Si / 1000 Ang^3
#
#
#
# Elastic Constant Matrix: (Units=GPa)
#
#
# Indices 1 2 3 4 5 6 
#
# 1 92.0923 23.4934 16.8323 0.0000 -3.1873 0.0000
# 2 23.4934 240.3769 25.8316 0.0000 -8.9668 0.0000
# 3 16.8323 25.8316 93.8110 0.0000 -3.7579 0.0000
# 4 0.0000 0.0000 0.0000 28.4750 0.0000 -12.4639
# 5 -3.1873 -8.9668 -3.7579 0.0000 57.4690 0.0000
# 6 0.0000 0.0000 0.0000 -12.4639 0.0000 38.0603
#
#
#
# Elastic Compliance Matrix: (Units=1/GPa)
#
#
# Indices 1 2 3 4 5 6 
#
# 1 0.011430 -0.000911 -0.001785 0.000000 0.000375 0.000000
# 2 -0.000911 0.004380 -0.001020 0.000000 0.000566 0.000000
# 3 -0.001785 -0.001020 0.011280 0.000000 0.000479 0.000000
# 4 0.000000 0.000000 0.000000 0.040995 0.000000 0.013425
# 5 0.000375 0.000566 0.000479 0.000000 0.017541 0.000000
# 6 0.000000 0.000000 0.000000 0.013425 0.000000 0.030670
#
#
# Mechanical properties :
#
#
# Convention : Reuss Voigt Hill
#
# Bulk Modulus (GPa) = 50.86977 62.06608 56.46793
# Shear Modulus (GPa) = 38.37836 48.80904 43.59370
#
# Velocity S-wave (km/s) = 3.87262 4.36728 4.12737
# Velocity P-wave (km/s) = 6.31464 7.04872 6.69175
#
# Compressibility (1/GPa) = 0.01965804
#
# Stress axis : x y z
#
# Youngs Moduli (GPa) = 87.48606 228.31473 88.65218
#
# Poissons Ratio (x) = 0.20807 0.15824
# Poissons Ratio (y) = 0.07973 0.09041
# Poissons Ratio (z) = 0.15616 0.23285
#
# Static dielectric constant tensor:
#      x y z
#    x 2.072490 0.000000 0.040130 
#    y 0.000000 1.953340 0.000000 
#    z 0.040130 0.000000 1.984670 
# 
# From -- ./inp_files/26910.got.cif
#   From: 2010.05.17/outbox.cif.g08.bks.cpg/sg12_14_cif.got.tgz:26910.got - 2010.06.03 13:09:07.
