data_PCOD9222383
_publ_section_title
;
Structure prediction by ZEFSAII (Michael W. Deem and Ramdas Pophale) SiO2 
 PCOD9222383
Probable space group: C 2/M
;
_chemical_formula_sum "Si O2"
_cell_formula_units_Z 34
_cell_length_a 15.823444
_cell_length_b 16.563836
_cell_length_c 7.144072
_cell_angle_alpha 90.000000
_cell_angle_beta 41.270466
_cell_angle_gamma 90.000000
_cell_volume 1235.087826
_symmetry_space_group_name_H-M "C 2/M"
_symmetry_group_IT_number 12
_symmetry_cell_setting 'monoclinic'
loop_
_space_group_symop_operation_xyz
x,y,z
-x,y,-z
-x,-y,-z
x,-y,z
1/2+x,1/2+y,z
1/2-x,1/2+y,-z
1/2-x,1/2-y,-z
1/2+x,1/2-y,z
loop_
_atom_site_type_symbol
_atom_site_label
_atom_site_fract_x
_atom_site_fract_y
_atom_site_fract_z
Si Si1 0.051998 0.214818 0.690446
Si Si2 0.500000 0.000000 0.500000
Si Si3 0.148060 0.908692 0.137328
Si Si4 0.621612 0.128956 0.998918
Si Si5 0.231210 0.641701 0.422225
O O1 0.161645 0.280021 0.449535
O O2 0.133476 0.168527 0.713523
O O3 0.942167 0.283190 0.901452
O O4 0.973481 0.144377 0.718565
O O5 0.543359 0.070289 0.268970
O O6 0.237227 0.868626 0.144642
O O7 0.236593 0.914235 0.803953
O O8 0.123259 0.000000 0.236643
O O9 0.351822 0.107726 0.264916
#
# Coordination Sequence:
#
# PCOD9222383 Si02
#       5
#     8   2   8   8   8
#     4  11  25  49  80 114 154 204 254 309 378 460
#     4  12  28  48  70 110 150 182 264 316 368 440
#     4  12  27  47  76 119 158 193 252 320 373 447
#     4  12  26  48  75 109 151 201 256 311 378 450
#     4  11  25  47  79 110 150 210 253 297 387 459
#
# _framework density 27.528404999999999
#
# number of rings (size 3 to 8) (size 9 to 14) (size 15 to 20)
#    0.000    0.471    1.176    7.765    1.647    6.588 
#    0.000    3.529    2.588    0.000    0.000    0.000 
#    0.000    0.000    0.000    0.000    0.000    0.000 
#
# Total GULP energy -94846.617626 kJ/mol
# GULP energy per Si atom -5579.212802 kJ/mol
# Density = 2.746575 g / cm^3
# Si number density = 27.528405 Si / 1000 Ang^3
#
#
#
# Elastic Constant Matrix: (Units=GPa)
#
#
# Indices 1 2 3 4 5 6 
#
# 1 145.7983 88.2842 74.8218 0.0000 6.3141 0.0000
# 2 88.2842 136.2123 40.8385 0.0000 -10.6475 0.0000
# 3 74.8218 40.8385 173.9501 0.0000 -13.1888 0.0000
# 4 0.0000 0.0000 0.0000 -384.4963 0.0000 327.0039
# 5 6.3141 -10.6475 -13.1888 0.0000 75.1832 0.0000
# 6 0.0000 0.0000 0.0000 327.0039 0.0000 -197.1748
#
#
#
# Elastic Compliance Matrix: (Units=1/GPa)
#
#
# Indices 1 2 3 4 5 6 
#
# 1 0.014173 -0.008101 -0.004430 0.000000 -0.003115 0.000000
# 2 -0.008101 0.012576 0.000728 0.000000 0.002589 0.000000
# 3 -0.004430 0.000728 0.007621 0.000000 0.001812 0.000000
# 4 0.000000 0.000000 0.000000 0.006336 0.000000 0.010508
# 5 -0.003115 0.002589 0.001812 0.000000 0.014247 0.000000
# 6 0.000000 0.000000 0.000000 0.010508 0.000000 0.012356
#
#
# Mechanical properties :
#
#
# Convention : Reuss Voigt Hill
#
# Bulk Modulus (GPa) = 92.90751 95.98329 94.44540
# Shear Modulus (GPa) = 52.90866 -84.49649 -15.79392
#
# Velocity S-wave (km/s) = 4.38878 -5.54625 -2.39787
# Velocity P-wave (km/s) = 7.71394 2.46412 5.16880
#
# Compressibility (1/GPa) = 0.01076339
#
# Stress axis : x y z
#
# Youngs Moduli (GPa) = 70.55861 79.51626 131.21909
#
# Poissons Ratio (x) = 0.64416 0.58135
# Poissons Ratio (y) = 0.57159 -0.09557
# Poissons Ratio (z) = 0.31260 -0.05791
#
# Static dielectric constant tensor:
#      x y z
#    x 2.201070 0.000000 0.117390 
#    y 0.000000 2.016780 0.000000 
#    z 0.117390 0.000000 2.397780 
# 
# From -- ./inp_files/233030.got.cif
#   From: 2010.05.17/outbox.cif.g08.bks.cpg/sg12_117_cif.got.tgz:233030.got - 2010.06.03 13:09:07.
