data_PCOD9222537
_publ_section_title
;
Structure prediction by ZEFSAII (Michael W. Deem and Ramdas Pophale) SiO2 
 PCOD9222537
Probable space group: C 2/M
;
_chemical_formula_sum "Si O2"
_cell_formula_units_Z 60
_cell_length_a 15.156487
_cell_length_b 29.260402
_cell_length_c 6.539133
_cell_angle_alpha 90.000000
_cell_angle_beta 100.073443
_cell_angle_gamma 90.000000
_cell_volume 2855.301295
_symmetry_space_group_name_H-M "C 2/M"
_symmetry_group_IT_number 12
_symmetry_cell_setting 'monoclinic'
loop_
_space_group_symop_operation_xyz
x,y,z
-x,y,-z
-x,-y,-z
x,-y,z
1/2+x,1/2+y,z
1/2-x,1/2+y,-z
1/2-x,1/2-y,-z
1/2+x,1/2-y,z
loop_
_atom_site_type_symbol
_atom_site_label
_atom_site_fract_x
_atom_site_fract_y
_atom_site_fract_z
Si Si1 0.433625 0.053223 0.765041
Si Si2 0.342790 0.758408 0.922008
Si Si3 0.178619 0.643669 0.208214
Si Si4 0.793701 0.811409 0.569901
Si Si5 0.696355 0.388091 0.088970
Si Si6 0.559340 0.300298 0.708965
Si Si7 0.865921 0.448710 0.270965
Si Si8 0.000000 0.123161 0.000000
O O1 0.381988 0.098786 0.814638
O O2 0.400433 0.052603 0.515971
O O3 0.415030 0.000000 0.823133
O O4 0.458644 0.060370 0.185477
O O5 0.414120 0.732822 0.094416
O O6 0.250000 0.750000 0.000000
O O7 0.362464 0.812112 0.920958
O O8 0.318310 0.737007 0.688989
O O9 0.203684 0.665497 0.439308
O O10 0.265702 0.627639 0.114192
O O11 0.813437 0.844449 0.768025
O O12 0.855279 0.812893 0.394228
O O13 0.777815 0.418565 0.204924
O O14 0.593260 0.405032 0.043550
O O15 0.500000 0.279981 0.500000
O O16 0.514076 0.343612 0.806179
O O17 0.837438 0.500000 0.210500
#
# Coordination Sequence:
#
# PCOD9222537 Si02
#       8
#     8   8   8   8   8   8   8   4
#     4   9  20  42  73 101 133 176 227 281 355 422
#     4  12  23  40  64  96 136 183 233 282 337 416
#     4  12  24  39  70 101 135 178 230 285 347 419
#     4  12  21  40  66  93 134 182 226 282 344 397
#     4  12  23  39  68  98 131 172 238 274 338 418
#     4  12  23  40  64  89 132 183 231 276 341 399
#     4   9  20  42  71 102 134 174 224 289 353 419
#     4  12  22  42  61 100 126 178 235 276 320 420
#
# _framework density 21.013542000000001
#
# number of rings (size 3 to 8) (size 9 to 14) (size 15 to 20)
#    0.000    0.800    8.000    1.200    0.000    1.067 
#    0.000    5.667    2.933    0.000    0.000    2.800 
#    0.000    0.000    0.000    0.000    0.000    0.000 
#
# Total GULP energy -167010.509803 kJ/mol
# GULP energy per Si atom -5567.016993 kJ/mol
# Density = 2.096571 g / cm^3
# Si number density = 21.013542 Si / 1000 Ang^3
#
#
#
# Elastic Constant Matrix: (Units=GPa)
#
#
# Indices 1 2 3 4 5 6 
#
# 1 130.1658 82.8469 30.3178 0.0000 3.4871 0.0000
# 2 82.8469 138.0327 45.7969 0.0000 -1.9223 0.0000
# 3 30.3178 45.7969 91.1829 0.0000 8.2188 0.0000
# 4 0.0000 0.0000 0.0000 28.2935 0.0000 -1.2014
# 5 3.4871 -1.9223 8.2188 0.0000 47.9481 0.0000
# 6 0.0000 0.0000 0.0000 -1.2014 0.0000 28.1940
#
#
#
# Elastic Compliance Matrix: (Units=1/GPa)
#
#
# Indices 1 2 3 4 5 6 
#
# 1 0.012509 -0.007414 -0.000332 0.000000 -0.001150 0.000000
# 2 -0.007414 0.013146 -0.004300 0.000000 0.001803 0.000000
# 3 -0.000332 -0.004300 0.013458 0.000000 -0.002455 0.000000
# 4 0.000000 0.000000 0.000000 0.035408 0.000000 0.001509
# 5 -0.001150 0.001803 -0.002455 0.000000 0.021433 0.000000
# 6 0.000000 0.000000 0.000000 0.001509 0.000000 0.035533
#
#
# Mechanical properties :
#
#
# Convention : Reuss Voigt Hill
#
# Bulk Modulus (GPa) = 66.56956 75.25606 70.91281
# Shear Modulus (GPa) = 31.13569 34.24843 32.69206
#
# Velocity S-wave (km/s) = 3.85346 4.04149 3.94859
# Velocity P-wave (km/s) = 7.17962 7.59402 7.38972
#
# Compressibility (1/GPa) = 0.01502188
#
# Stress axis : x y z
#
# Youngs Moduli (GPa) = 79.93955 76.06644 74.30274
#
# Poissons Ratio (x) = 0.56396 0.02466
# Poissons Ratio (y) = 0.59267 0.31952
# Poissons Ratio (z) = 0.02654 0.32710
#
# Static dielectric constant tensor:
#      x y z
#    x 1.853880 0.000000 0.030130 
#    y 0.000000 1.768230 0.000000 
#    z 0.030130 0.000000 1.841880 
# 
# From -- ./inp_files/22682.got.cif
#   From: 2010.05.17/outbox.cif.g08.bks.cpg/sg12_12_cif.got.tgz:22682.got - 2010.06.03 13:09:07.
