data_PCOD9222404
_publ_section_title
;
Structure prediction by ZEFSAII (Michael W. Deem and Ramdas Pophale) SiO2 
 PCOD9222404
Probable space group: C 2/M
;
_chemical_formula_sum "Si O2"
_cell_formula_units_Z 48
_cell_length_a 8.961176
_cell_length_b 19.084577
_cell_length_c 21.505314
_cell_angle_alpha 90.000000
_cell_angle_beta 137.123864
_cell_angle_gamma 90.000000
_cell_volume 2502.462976
_symmetry_space_group_name_H-M "C 2/M"
_symmetry_group_IT_number 12
_symmetry_cell_setting 'monoclinic'
loop_
_space_group_symop_operation_xyz
x,y,z
-x,y,-z
-x,-y,-z
x,-y,z
1/2+x,1/2+y,z
1/2-x,1/2+y,-z
1/2-x,1/2-y,-z
1/2+x,1/2-y,z
loop_
_atom_site_type_symbol
_atom_site_label
_atom_site_fract_x
_atom_site_fract_y
_atom_site_fract_z
Si Si1 0.643514 0.416458 0.405141
Si Si2 0.398179 0.681430 0.034755
Si Si3 0.353263 0.183709 0.239120
Si Si4 0.772081 0.667015 0.750278
Si Si5 0.952199 0.583949 0.383189
Si Si6 0.485776 0.082686 0.069552
O O1 0.614124 0.500000 0.397470
O O2 0.411762 0.379084 0.339800
O O3 0.760545 0.399482 0.374812
O O4 0.819436 0.398778 0.512299
O O5 0.600065 0.671735 0.142808
O O6 0.500000 0.695393 0.000000
O O7 0.250000 0.750000 0.000000
O O8 0.252617 0.612094 0.986763
O O9 0.344746 0.261034 0.265806
O O10 0.518193 0.179634 0.230538
O O11 0.423134 0.127455 0.311917
O O12 0.850507 0.626709 0.836768
O O13 0.947073 0.500000 0.370856
O O14 0.514095 0.000000 0.088953
O O15 0.500000 0.096498 0.000000
#
# Coordination Sequence:
#
# PCOD9222404 Si02
#       6
#     8   8   8   8   8   8
#     4   9  20  42  68  93 130 169 206 260 316 378
#     4  12  23  43  65  90 128 170 209 261 311 373
#     4  12  25  40  65  94 124 171 210 263 317 372
#     4  12  25  42  63  95 129 164 216 259 318 377
#     4   9  21  42  68  97 126 166 213 257 317 378
#     4  11  26  43  64  93 126 167 211 258 314 379
#
# _framework density 19.181103
#
# number of rings (size 3 to 8) (size 9 to 14) (size 15 to 20)
#    0.000    1.167    3.333    3.000    4.667    3.667 
#    0.000    1.667    0.000    0.000    0.000    0.000 
#    0.000    0.000    0.000    0.000    0.000    0.000 
#
# Total GULP energy -134057.236945 kJ/mol
# GULP energy per Si atom -5585.718206 kJ/mol
# Density = 1.913745 g / cm^3
# Si number density = 19.181103 Si / 1000 Ang^3
#
#
#
# Elastic Constant Matrix: (Units=GPa)
#
#
# Indices 1 2 3 4 5 6 
#
# 1 96.0429 50.2852 47.9549 -0.0001 -4.3207 0.0001
# 2 50.2852 73.5067 50.6488 -0.0002 -11.9084 0.0002
# 3 47.9549 50.6488 107.0433 -0.0008 1.0574 0.0004
# 4 -0.0001 -0.0002 -0.0008 26.1794 -0.0002 19.5589
# 5 -4.3207 -11.9084 1.0574 -0.0002 36.9028 0.0001
# 6 0.0001 0.0002 0.0004 19.5589 0.0001 8.8481
#
#
#
# Elastic Compliance Matrix: (Units=1/GPa)
#
#
# Indices 1 2 3 4 5 6 
#
# 1 0.016933 -0.009698 -0.002987 0.000000 -0.001061 -0.000001
# 2 -0.009698 0.027596 -0.008792 0.000000 0.008022 0.000000
# 3 -0.002987 -0.008792 0.014876 -0.000001 -0.003613 0.000002
# 4 0.000000 0.000000 -0.000001 -0.058632 -0.000001 0.129605
# 5 -0.001061 0.008022 -0.003613 -0.000001 0.029666 0.000001
# 6 -0.000001 0.000000 0.000002 0.129605 0.000001 -0.173476
#
#
# Mechanical properties :
#
#
# Convention : Reuss Voigt Hill
#
# Bulk Modulus (GPa) = 60.78417 63.81898 62.30158
# Shear Modulus (GPa) = -52.85425 22.89967 -14.97729
#
# Velocity S-wave (km/s) = -5.25502 3.45899 -2.79738
# Velocity P-wave (km/s) = 2.24986 7.02117 4.70292
#
# Compressibility (1/GPa) = 0.01645165
#
# Stress axis : x y z
#
# Youngs Moduli (GPa) = 59.05632 36.23748 67.22288
#
# Poissons Ratio (x) = 0.35141 0.20079
# Poissons Ratio (y) = 0.57270 0.59103
# Poissons Ratio (z) = 0.17640 0.31860
#
# Static dielectric constant tensor:
#      x y z
#    x 1.655940 0.000000 0.006610 
#    y 0.000000 1.651030 0.000000 
#    z 0.006610 0.000000 1.664610 
# 
# From -- ./inp_files/301834.got.cif
#   From: 2010.05.17/outbox.cif.g08.bks.cpg/sg12_151_cif.got.tgz:301834.got - 2010.06.03 13:09:07.
