data_PCOD9222779
_publ_section_title
;
Structure prediction by ZEFSAII (Michael W. Deem and Ramdas Pophale) SiO2 
 PCOD9222779
Probable space group: C 2/M
;
_chemical_formula_sum "Si O2"
_cell_formula_units_Z 26
_cell_length_a 9.408328
_cell_length_b 28.849162
_cell_length_c 4.912423
_cell_angle_alpha 90.000000
_cell_angle_beta 122.837008
_cell_angle_gamma 90.000000
_cell_volume 1120.295602
_symmetry_space_group_name_H-M "C 2/M"
_symmetry_group_IT_number 12
_symmetry_cell_setting 'monoclinic'
loop_
_space_group_symop_operation_xyz
x,y,z
-x,y,-z
-x,-y,-z
x,-y,z
1/2+x,1/2+y,z
1/2-x,1/2+y,-z
1/2-x,1/2-y,-z
1/2+x,1/2-y,z
loop_
_atom_site_type_symbol
_atom_site_label
_atom_site_fract_x
_atom_site_fract_y
_atom_site_fract_z
Si Si1 0.683393 0.201920 0.811282
Si Si2 0.000000 0.500000 0.500000
Si Si3 0.823863 0.951072 0.651471
Si Si4 0.315765 0.349417 0.428066
O O1 0.500000 0.209764 0.500000
O O2 0.804793 0.095948 0.469313
O O3 0.709838 0.320738 0.322302
O O4 0.685605 0.166441 0.063513
O O5 0.152877 0.460312 0.646166
O O6 0.830920 0.000000 0.493162
O O7 0.000000 0.947754 0.000000
O O8 0.500000 0.338838 0.500000
O O9 0.250000 0.250000 0.000000
#
# Coordination Sequence:
#
# PCOD9222779 Si02
#       4
#     8   2   8   8
#     4  12  28  51  77 113 149 199 253 318 381 461
#     4   8  18  40  74 108 166 192 272 306 382 454
#     4   9  20  41  73 112 155 205 256 315 383 451
#     4  12  26  48  79 109 156 199 252 313 390 452
#
# _framework density 23.208158999999998
#
# number of rings (size 3 to 8) (size 9 to 14) (size 15 to 20)
#    0.923    0.308    0.000    5.538    2.154    3.077 
#    5.538    1.538    0.000   12.000    0.000    0.000 
#    0.000    0.000    0.000    0.000    0.000    0.000 
#
# Total GULP energy -72447.555807 kJ/mol
# GULP energy per Si atom -5572.888908 kJ/mol
# Density = 2.315534 g / cm^3
# Si number density = 23.208159 Si / 1000 Ang^3
#
#
#
# Elastic Constant Matrix: (Units=GPa)
#
#
# Indices 1 2 3 4 5 6 
#
# 1 141.5891 79.1028 70.2571 0.0000 9.7623 0.0000
# 2 79.1028 232.0324 103.4074 0.0000 -18.2240 0.0000
# 3 70.2571 103.4074 181.3613 0.0000 13.1234 0.0000
# 4 0.0000 0.0000 0.0000 40.0619 0.0000 4.9698
# 5 9.7623 -18.2240 13.1234 0.0000 53.2689 0.0000
# 6 0.0000 0.0000 0.0000 4.9698 0.0000 32.5486
#
#
#
# Elastic Compliance Matrix: (Units=1/GPa)
#
#
# Indices 1 2 3 4 5 6 
#
# 1 0.009680 -0.002494 -0.002176 0.000000 -0.002091 0.000000
# 2 -0.002494 0.006876 -0.003215 0.000000 0.003601 0.000000
# 3 -0.002176 -0.003215 0.008390 0.000000 -0.002768 0.000000
# 4 0.000000 0.000000 0.000000 0.025443 0.000000 -0.003885
# 5 -0.002091 0.003601 -0.002768 0.000000 0.021070 0.000000
# 6 0.000000 0.000000 0.000000 -0.003885 0.000000 0.031316
#
#
# Mechanical properties :
#
#
# Convention : Reuss Voigt Hill
#
# Bulk Modulus (GPa) = 108.98966 117.83527 113.41246
# Shear Modulus (GPa) = 41.11666 45.32358 43.22012
#
# Velocity S-wave (km/s) = 4.21366 4.42397 4.32010
# Velocity P-wave (km/s) = 8.41053 8.77376 8.59406
#
# Compressibility (1/GPa) = 0.00917518
#
# Stress axis : x y z
#
# Youngs Moduli (GPa) = 103.30077 145.44221 119.18770
#
# Poissons Ratio (x) = 0.36280 0.25941
# Poissons Ratio (y) = 0.25768 0.38313
# Poissons Ratio (z) = 0.22483 0.46753
#
# Static dielectric constant tensor:
#      x y z
#    x 2.027950 0.000000 -0.022110 
#    y 0.000000 1.859730 0.000000 
#    z -0.022110 0.000000 1.887970 
# 
# From -- ./inp_files/49114.got.cif
#   From: 2010.05.17/outbox.cif.g08.bks.cpg/sg12_25_cif.got.tgz:49114.got - 2010.06.03 13:09:07.
