data_PCOD9222432
_publ_section_title
;
Structure prediction by ZEFSAII (Michael W. Deem and Ramdas Pophale) SiO2 
 PCOD9222432
Probable space group: C 2/M
;
_chemical_formula_sum "Si O2"
_cell_formula_units_Z 40
_cell_length_a 7.764837
_cell_length_b 27.813501
_cell_length_c 9.294942
_cell_angle_alpha 90.000000
_cell_angle_beta 88.806036
_cell_angle_gamma 90.000000
_cell_volume 2006.967704
_symmetry_space_group_name_H-M "C 2/M"
_symmetry_group_IT_number 12
_symmetry_cell_setting 'monoclinic'
loop_
_space_group_symop_operation_xyz
x,y,z
-x,y,-z
-x,-y,-z
x,-y,z
1/2+x,1/2+y,z
1/2-x,1/2+y,-z
1/2-x,1/2-y,-z
1/2+x,1/2-y,z
loop_
_atom_site_type_symbol
_atom_site_label
_atom_site_fract_x
_atom_site_fract_y
_atom_site_fract_z
Si Si1 0.834406 0.442907 0.605426
Si Si2 0.000000 0.884931 0.500000
Si Si3 0.628959 0.696332 0.281968
Si Si4 0.500000 0.654335 0.000000
Si Si5 0.520230 0.197102 0.336425
Si Si6 0.647690 0.880083 0.120320
O O1 0.805741 0.500000 0.606557
O O2 0.662632 0.416272 0.550088
O O3 0.871001 0.423613 0.766067
O O4 0.000000 0.433338 0.500000
O O5 0.935877 0.848491 0.623866
O O6 0.582036 0.748160 0.345995
O O7 0.833292 0.694706 0.270195
O O8 0.547397 0.688966 0.129425
O O9 0.666165 0.622462 0.957732
O O10 0.500000 0.178261 0.500000
O O11 0.637618 0.165877 0.228790
O O12 0.500000 0.879254 0.000000
#
# Coordination Sequence:
#
# PCOD9222432 Si02
#       6
#     8   4   8   4   8   8
#     4  11  26  48  77 105 131 173 231 292 347 403
#     4  12  23  46  70 102 138 182 225 282 340 406
#     4  12  25  40  68  98 142 186 233 276 336 404
#     4  12  26  44  63 100 138 188 227 276 338 410
#     4  12  25  42  65 103 138 188 233 284 332 398
#     4  12  25  45  69  98 142 183 227 280 342 407
#
# _framework density 19.930565000000001
#
# number of rings (size 3 to 8) (size 9 to 14) (size 15 to 20)
#    0.000    0.200    5.000    5.100    1.400    2.000 
#    0.000    0.500    0.000    0.000    0.000    0.000 
#    0.000    0.000    0.000    0.000    0.000    0.000 
#
# Total GULP energy -111877.232137 kJ/mol
# GULP energy per Si atom -5593.861607 kJ/mol
# Density = 1.988520 g / cm^3
# Si number density = 19.930565 Si / 1000 Ang^3
#
#
#
# Elastic Constant Matrix: (Units=GPa)
#
#
# Indices 1 2 3 4 5 6 
#
# 1 135.8090 38.9827 31.5232 0.0000 -15.2058 0.0000
# 2 38.9827 139.3485 36.9160 0.0000 -10.5032 0.0000
# 3 31.5232 36.9160 104.9158 0.0000 0.1233 0.0000
# 4 0.0000 0.0000 0.0000 18.0233 0.0000 4.4826
# 5 -15.2058 -10.5032 0.1233 0.0000 39.0068 0.0000
# 6 0.0000 0.0000 0.0000 4.4826 0.0000 11.7328
#
#
#
# Elastic Compliance Matrix: (Units=1/GPa)
#
#
# Indices 1 2 3 4 5 6 
#
# 1 0.008635 -0.001662 -0.002013 0.000000 0.002925 0.000000
# 2 -0.001662 0.008417 -0.002464 0.000000 0.001626 0.000000
# 3 -0.002013 -0.002464 0.011005 0.000000 -0.001483 0.000000
# 4 0.000000 0.000000 0.000000 0.061309 0.000000 -0.023423
# 5 0.002925 0.001626 -0.001483 0.000000 0.027219 0.000000
# 6 0.000000 0.000000 0.000000 -0.023423 0.000000 0.094180
#
#
# Mechanical properties :
#
#
# Convention : Reuss Voigt Hill
#
# Bulk Modulus (GPa) = 63.37749 66.10191 64.73970
# Shear Modulus (GPa) = 21.90072 31.92934 26.91503
#
# Velocity S-wave (km/s) = 3.31849 4.00688 3.67882
# Velocity P-wave (km/s) = 6.82285 7.39222 7.11323
#
# Compressibility (1/GPa) = 0.01577847
#
# Stress axis : x y z
#
# Youngs Moduli (GPa) = 115.80645 118.81414 90.86704
#
# Poissons Ratio (x) = 0.19745 0.18293
# Poissons Ratio (y) = 0.19245 0.22390
# Poissons Ratio (z) = 0.23314 0.29276
#
# Static dielectric constant tensor:
#      x y z
#    x 1.704270 0.000000 -0.015710 
#    y 0.000000 1.685420 0.000000 
#    z -0.015710 0.000000 1.724530 
# 
# From -- ./inp_files/40465.got.cif
#   From: 2010.05.17/outbox.cif.g08.bks.cpg/sg12_21_cif.got.tgz:40465.got - 2010.06.03 13:09:07.
