data_PCOD9222373
_publ_section_title
;
Structure prediction by ZEFSAII (Michael W. Deem and Ramdas Pophale) SiO2 
 PCOD9222373
Probable space group: C 2/M
;
_chemical_formula_sum "Si O2"
_cell_formula_units_Z 32
_cell_length_a 14.564465
_cell_length_b 16.620148
_cell_length_c 11.086449
_cell_angle_alpha 90.000000
_cell_angle_beta 150.458322
_cell_angle_gamma 90.000000
_cell_volume 1323.179039
_symmetry_space_group_name_H-M "C 2/M"
_symmetry_group_IT_number 12
_symmetry_cell_setting 'monoclinic'
loop_
_space_group_symop_operation_xyz
x,y,z
-x,y,-z
-x,-y,-z
x,-y,z
1/2+x,1/2+y,z
1/2-x,1/2+y,-z
1/2-x,1/2-y,-z
1/2+x,1/2-y,z
loop_
_atom_site_type_symbol
_atom_site_label
_atom_site_fract_x
_atom_site_fract_y
_atom_site_fract_z
Si Si1 0.223118 0.811124 0.248775
Si Si2 0.098340 0.590899 0.332373
Si Si3 0.124001 0.862524 0.539471
Si Si4 0.710836 0.404523 0.993933
O O1 0.302914 0.849109 0.462279
O O2 0.311045 0.723296 0.337613
O O3 0.272273 0.867502 0.191509
O O4 0.000000 0.805505 0.000000
O O5 0.127887 0.500000 0.411162
O O6 0.195262 0.598022 0.313701
O O7 0.878325 0.606218 0.090044
O O8 0.000000 0.905461 0.500000
O O9 0.972244 0.858276 0.258794
O O10 0.670441 0.500000 0.959290
#
# Coordination Sequence:
#
# PCOD9222373 Si02
#       4
#     8   8   8   8
#     4  12  26  44  76 107 142 183 237 294 352 412
#     4  11  25  47  74 105 141 184 237 291 350 418
#     4  12  28  45  71 104 148 186 234 286 353 417
#     4  11  26  49  76 104 139 185 236 293 353 413
#
# _framework density 24.184182
#
# number of rings (size 3 to 8) (size 9 to 14) (size 15 to 20)
#    0.000    0.500    2.500    4.500    3.500    7.000 
#    0.000    2.500    0.000    0.000    0.000    0.000 
#    0.000    0.000    0.000    0.000    0.000    0.000 
#
# Total GULP energy -89637.473809 kJ/mol
# GULP energy per Si atom -5602.342113 kJ/mol
# Density = 2.412914 g / cm^3
# Si number density = 24.184182 Si / 1000 Ang^3
#
#
#
# Elastic Constant Matrix: (Units=GPa)
#
#
# Indices 1 2 3 4 5 6 
#
# 1 151.6852 23.1097 16.6786 0.0000 35.4008 0.0000
# 2 23.1097 101.2206 33.4098 0.0000 7.7004 0.0000
# 3 16.6786 33.4098 84.7831 0.0000 25.3447 0.0000
# 4 0.0000 0.0000 0.0000 31.7535 0.0000 -61.5742
# 5 35.4008 7.7004 25.3447 0.0000 50.5712 0.0000
# 6 0.0000 0.0000 0.0000 -61.5742 0.0000 -8.0224
#
#
#
# Elastic Compliance Matrix: (Units=1/GPa)
#
#
# Indices 1 2 3 4 5 6 
#
# 1 0.008121 -0.001677 0.000807 0.000000 -0.005834 0.000000
# 2 -0.001677 0.011718 -0.004829 0.000000 0.001809 0.000000
# 3 0.000807 -0.004829 0.015865 0.000000 -0.007781 0.000000
# 4 0.000000 0.000000 0.000000 0.001983 0.000000 -0.015218
# 5 -0.005834 0.001809 -0.007781 0.000000 0.027482 0.000000
# 6 0.000000 0.000000 0.000000 -0.015218 0.000000 -0.007848
#
#
# Mechanical properties :
#
#
# Convention : Reuss Voigt Hill
#
# Bulk Modulus (GPa) = 41.13982 53.78722 47.46352
# Shear Modulus (GPa) = 65.08720 32.49318 48.79019
#
# Velocity S-wave (km/s) = 5.19341 3.66945 4.49647
# Velocity P-wave (km/s) = 7.28080 6.34367 6.82833
#
# Compressibility (1/GPa) = 0.02430735
#
# Stress axis : x y z
#
# Youngs Moduli (GPa) = 123.13989 85.33577 63.03254
#
# Poissons Ratio (x) = 0.14308 -0.05088
# Poissons Ratio (y) = 0.20646 0.30437
# Poissons Ratio (z) = -0.09939 0.41207
#
# Static dielectric constant tensor:
#      x y z
#    x 1.964490 0.000000 -0.000920 
#    y 0.000000 1.849570 0.000000 
#    z -0.000920 0.000000 1.910820 
# 
# From -- ./inp_files/130745.got.cif
#   From: 2010.05.17/outbox.cif.g08.bks.cpg/sg12_66_cif.got.tgz:130745.got - 2010.06.03 13:09:07.
