data_PCOD9222236
_publ_section_title
;
Structure prediction by ZEFSAII (Michael W. Deem and Ramdas Pophale) SiO2 
 PCOD9222236
Probable space group: C 2/M
;
_chemical_formula_sum "Si O2"
_cell_formula_units_Z 48
_cell_length_a 16.114241
_cell_length_b 28.658410
_cell_length_c 12.260734
_cell_angle_alpha 90.000000
_cell_angle_beta 154.394178
_cell_angle_gamma 90.000000
_cell_volume 2447.036534
_symmetry_space_group_name_H-M "C 2/M"
_symmetry_group_IT_number 12
_symmetry_cell_setting 'monoclinic'
loop_
_space_group_symop_operation_xyz
x,y,z
-x,y,-z
-x,-y,-z
x,-y,z
1/2+x,1/2+y,z
1/2-x,1/2+y,-z
1/2-x,1/2-y,-z
1/2+x,1/2-y,z
loop_
_atom_site_type_symbol
_atom_site_label
_atom_site_fract_x
_atom_site_fract_y
_atom_site_fract_z
Si Si1 0.500000 0.857079 0.500000
Si Si2 0.610771 0.384288 0.410965
Si Si3 0.495001 0.120023 0.247654
Si Si4 0.411505 0.685082 0.008098
Si Si5 0.640091 0.447373 0.772608
Si Si6 0.346905 0.779006 0.018056
Si Si7 0.000000 0.167908 0.500000
O O1 0.485181 0.885701 0.597108
O O2 0.314146 0.824468 0.267426
O O3 0.497042 0.432591 0.289794
O O4 0.590961 0.361853 0.508333
O O5 0.817594 0.391182 0.602160
O O6 0.495499 0.347596 0.200959
O O7 0.314221 0.090263 0.986507
O O8 0.462626 0.175741 0.193630
O O9 0.460162 0.739147 0.087400
O O10 0.500000 0.669527 0.000000
O O11 0.500000 0.446778 0.500000
O O12 0.715834 0.500000 0.871203
O O13 0.172295 0.800085 0.743818
O O14 0.250000 0.750000 0.000000
#
# Coordination Sequence:
#
# PCOD9222236 Si02
#       7
#     4   8   8   8   8   8   4
#     4  12  21  44  69  92 136 180 231 276 319 392
#     4  12  24  44  68  97 137 177 219 273 341 394
#     4  12  26  42  69 101 131 182 225 275 339 395
#     4  12  25  40  63  99 136 188 227 268 322 390
#     4  11  24  48  74  99 133 168 217 282 343 409
#     4  12  23  39  60  92 137 182 227 272 320 385
#     4  12  23  40  61  90 136 172 223 276 319 390
#
# _framework density 19.615562000000001
#
# number of rings (size 3 to 8) (size 9 to 14) (size 15 to 20)
#    0.000    0.167    9.167    0.500    2.333    3.333 
#    0.000    2.083    0.000    1.500    0.000    0.000 
#    0.000    0.000    0.000    0.000    0.000    0.000 
#
# Total GULP energy -133935.848593 kJ/mol
# GULP energy per Si atom -5580.660358 kJ/mol
# Density = 1.957092 g / cm^3
# Si number density = 19.615562 Si / 1000 Ang^3
#
#
#
# Elastic Constant Matrix: (Units=GPa)
#
#
# Indices 1 2 3 4 5 6 
#
# 1 130.7580 35.4224 51.0653 0.0004 1.0074 -0.0002
# 2 35.4224 105.1459 31.4847 0.0001 -1.9945 -0.0001
# 3 51.0653 31.4847 93.9269 0.0010 8.6625 -0.0006
# 4 0.0004 0.0001 0.0010 -25.3454 0.0005 27.0022
# 5 1.0074 -1.9945 8.6625 0.0005 41.3629 -0.0003
# 6 -0.0002 -0.0001 -0.0006 27.0022 -0.0003 -6.6800
#
#
#
# Elastic Compliance Matrix: (Units=1/GPa)
#
#
# Indices 1 2 3 4 5 6 
#
# 1 0.010074 -0.001914 -0.004899 0.000000 0.000688 0.000000
# 2 -0.001914 0.011002 -0.002754 0.000000 0.001154 0.000000
# 3 -0.004899 -0.002754 0.014515 0.000000 -0.003053 0.000000
# 4 0.000000 0.000000 0.000000 0.011933 0.000000 0.048234
# 5 0.000688 0.001154 -0.003053 0.000000 0.024855 0.000000
# 6 0.000000 0.000000 0.000000 0.048234 0.000000 0.045275
#
#
# Mechanical properties :
#
#
# Convention : Reuss Voigt Hill
#
# Bulk Modulus (GPa) = 60.76278 62.86396 61.81337
# Shear Modulus (GPa) = 35.14408 15.99140 25.56774
#
# Velocity S-wave (km/s) = 4.23737 2.85834 3.61424
# Velocity P-wave (km/s) = 7.41515 6.55828 6.99984
#
# Compressibility (1/GPa) = 0.01645744
#
# Stress axis : x y z
#
# Youngs Moduli (GPa) = 99.26473 90.89412 68.89594
#
# Poissons Ratio (x) = 0.17396 0.33752
# Poissons Ratio (y) = 0.18998 0.18972
# Poissons Ratio (z) = 0.48629 0.25030
#
# Static dielectric constant tensor:
#      x y z
#    x 1.710380 0.000000 -0.010650 
#    y 0.000000 1.731950 0.000000 
#    z -0.010650 0.000000 1.706730 
# 
# From -- ./inp_files/149907.got.cif
#   From: 2010.05.17/outbox.cif.g08.bks.cpg/sg12_75_cif.got.tgz:149907.got - 2010.06.03 13:09:07.
