data_PCOD9222591
_publ_section_title
;
Structure prediction by ZEFSAII (Michael W. Deem and Ramdas Pophale) SiO2 
 PCOD9222591
Probable space group: C 2/M
;
_chemical_formula_sum "Si O2"
_cell_formula_units_Z 42
_cell_length_a 15.168887
_cell_length_b 18.663664
_cell_length_c 14.145711
_cell_angle_alpha 90.000000
_cell_angle_beta 29.210226
_cell_angle_gamma 90.000000
_cell_volume 1954.379841
_symmetry_space_group_name_H-M "C 2/M"
_symmetry_group_IT_number 12
_symmetry_cell_setting 'monoclinic'
loop_
_space_group_symop_operation_xyz
x,y,z
-x,y,-z
-x,-y,-z
x,-y,z
1/2+x,1/2+y,z
1/2-x,1/2+y,-z
1/2-x,1/2-y,-z
1/2+x,1/2-y,z
loop_
_atom_site_type_symbol
_atom_site_label
_atom_site_fract_x
_atom_site_fract_y
_atom_site_fract_z
Si Si1 0.813447 0.180696 0.879073
Si Si2 0.281793 0.668560 0.502375
Si Si3 0.500000 0.500000 0.000000
Si Si4 0.569013 0.085418 0.213227
Si Si5 0.297339 0.116569 0.712428
Si Si6 0.209868 0.277471 0.773009
O O1 0.820300 0.202412 0.763180
O O2 0.012534 0.153096 0.718097
O O3 0.750000 0.250000 0.000000
O O4 0.666365 0.118873 0.031141
O O5 0.250000 0.750000 0.500000
O O6 0.250260 0.673112 0.645181
O O7 0.132775 0.616748 0.596604
O O8 0.642255 0.562160 0.831258
O O9 0.690844 0.116863 0.184332
O O10 0.572660 0.000000 0.214134
O O11 0.500000 0.091583 0.500000
O O12 0.261053 0.194865 0.704858
O O13 0.000000 0.279792 0.000000
#
# Coordination Sequence:
#
# PCOD9222591 Si02
#       6
#     8   8   2   8   8   8
#     4  12  23  44  69 102 136 181 237 284 341 416
#     4  12  24  44  72 102 135 184 239 288 346 411
#     4  12  26  40  60  94 140 190 220 270 360 434
#     4  12  27  45  67 103 147 184 226 293 355 411
#     4  12  25  44  65  99 140 179 232 288 350 420
#     4  12  22  42  75 100 131 179 236 298 343 405
#
# _framework density 21.490192
#
# number of rings (size 3 to 8) (size 9 to 14) (size 15 to 20)
#    0.000    0.000    7.619    3.143    0.000    2.286 
#    0.000    1.905    0.000    2.286    0.000    0.000 
#    0.000    0.000    0.000    0.000    0.000    0.000 
#
# Total GULP energy -117237.442888 kJ/mol
# GULP energy per Si atom -5582.735376 kJ/mol
# Density = 2.144128 g / cm^3
# Si number density = 21.490192 Si / 1000 Ang^3
#
#
#
# Elastic Constant Matrix: (Units=GPa)
#
#
# Indices 1 2 3 4 5 6 
#
# 1 59.8185 6.7456 -10.1165 -0.0167 8.8725 0.0097
# 2 6.7456 79.2282 10.9031 -0.0418 -7.6309 0.0288
# 3 -10.1165 10.9031 131.5978 -0.0554 -25.6300 0.0325
# 4 -0.0167 -0.0418 -0.0554 22.5804 0.0223 -0.5281
# 5 8.8725 -7.6309 -25.6300 0.0223 43.5149 -0.0123
# 6 0.0097 0.0288 0.0325 -0.5281 -0.0123 -7.5465
#
#
#
# Elastic Compliance Matrix: (Units=1/GPa)
#
#
# Indices 1 2 3 4 5 6 
#
# 1 0.017588 -0.001944 0.000845 0.000015 -0.003429 0.000023
# 2 -0.001944 0.013112 -0.000803 0.000020 0.002223 0.000039
# 3 0.000845 -0.000803 0.008663 0.000016 0.004789 0.000026
# 4 0.000015 0.000020 0.000016 0.044214 -0.000014 -0.003094
# 5 -0.003429 0.002223 0.004789 -0.000014 0.026891 -0.000018
# 6 0.000023 0.000039 0.000026 -0.003094 -0.000018 -0.132295
#
#
# Mechanical properties :
#
#
# Convention : Reuss Voigt Hill
#
# Bulk Modulus (GPa) = 28.12167 31.74543 29.93355
# Shear Modulus (GPa) = -810.29828 29.25057 -390.52385
#
# Velocity S-wave (km/s) = -19.43897 3.69333 -13.49505
# Velocity P-wave (km/s) = 22.15213 5.74384 15.12821
#
# Compressibility (1/GPa) = 0.03555977
#
# Stress axis : x y z
#
# Youngs Moduli (GPa) = 56.85673 76.26679 115.43071
#
# Poissons Ratio (x) = 0.14827 -0.09757
# Poissons Ratio (y) = 0.11053 0.09268
# Poissons Ratio (z) = -0.04806 0.06123
#
# Static dielectric constant tensor:
#      x y z
#    x 1.891260 0.000000 0.028390 
#    y 0.000000 1.723500 0.000000 
#    z 0.028390 0.000000 1.850200 
# 
# From -- ./inp_files/217592.got.cif
#   From: 2010.05.17/outbox.cif.g08.bks.cpg/sg12_109_cif.got.tgz:217592.got - 2010.06.03 13:09:07.
