data_PCOD9222155
_publ_section_title
;
Structure prediction by ZEFSAII (Michael W. Deem and Ramdas Pophale) SiO2 
 PCOD9222155
Probable space group: C 2/M
;
_chemical_formula_sum "Si O2"
_cell_formula_units_Z 56
_cell_length_a 19.559102
_cell_length_b 23.748944
_cell_length_c 16.617652
_cell_angle_alpha 90.000000
_cell_angle_beta 158.939899
_cell_angle_gamma 90.000000
_cell_volume 2773.811523
_symmetry_space_group_name_H-M "C 2/M"
_symmetry_group_IT_number 12
_symmetry_cell_setting 'monoclinic'
loop_
_space_group_symop_operation_xyz
x,y,z
-x,y,-z
-x,-y,-z
x,-y,z
1/2+x,1/2+y,z
1/2-x,1/2+y,-z
1/2-x,1/2-y,-z
1/2+x,1/2-y,z
loop_
_atom_site_type_symbol
_atom_site_label
_atom_site_fract_x
_atom_site_fract_y
_atom_site_fract_z
Si Si1 0.198237 0.389278 0.021477
Si Si2 0.455102 0.645746 0.863027
Si Si3 0.618359 0.782001 0.555602
Si Si4 0.745835 0.194861 0.938363
Si Si5 0.585811 0.561618 0.481197
Si Si6 0.723865 0.934237 0.484873
Si Si7 0.783035 0.335958 0.789877
O O1 0.275386 0.358241 0.027888
O O2 0.358191 0.433227 0.224819
O O3 0.200314 0.343777 0.096068
O O4 0.990177 0.412827 0.771182
O O5 0.314661 0.692846 0.742901
O O6 0.616927 0.679685 0.987893
O O7 0.337923 0.604011 0.674890
O O8 0.500000 0.616331 0.000000
O O9 0.500000 0.807227 0.500000
O O10 0.666239 0.718022 0.631780
O O11 0.471485 0.797837 0.325808
O O12 0.750000 0.250000 0.000000
O O13 0.641192 0.500000 0.572670
O O14 0.666909 0.568095 0.480254
O O15 0.678518 0.610225 0.636596
O O16 0.716193 0.000000 0.502059
O O17 0.000000 0.332779 0.000000
#
# Coordination Sequence:
#
# PCOD9222155 Si02
#       7
#     8   8   8   8   8   8   8
#     4  12  24  45  69 101 142 184 235 286 354 418
#     4  12  26  47  74 102 138 184 236 293 356 422
#     4  12  25  44  69 101 140 180 229 290 344 422
#     4  12  26  41  68 102 140 184 231 285 355 416
#     4  11  24  44  70  99 140 188 237 289 348 417
#     4  11  25  46  71 104 139 179 239 304 351 411
#     4  12  26  43  68 104 148 187 234 285 348 415
#
# _framework density 20.188825999999999
#
# number of rings (size 3 to 8) (size 9 to 14) (size 15 to 20)
#    0.000    0.286    5.714    3.857    2.000    2.857 
#    0.000    0.000    0.000    1.286    0.000    0.000 
#    0.000    0.000    0.000    0.000    0.000    0.000 
#
# Total GULP energy -156064.250325 kJ/mol
# GULP energy per Si atom -5573.723226 kJ/mol
# Density = 2.014288 g / cm^3
# Si number density = 20.188826 Si / 1000 Ang^3
#
#
#
# Elastic Constant Matrix: (Units=GPa)
#
#
# Indices 1 2 3 4 5 6 
#
# 1 124.0798 38.8462 24.3035 0.0000 6.7324 0.0000
# 2 38.8462 102.1808 48.8647 0.0000 -4.2671 0.0000
# 3 24.3035 48.8647 95.8579 -0.0001 4.9486 0.0001
# 4 0.0000 0.0000 -0.0001 18.3779 0.0000 1.5462
# 5 6.7324 -4.2671 4.9486 0.0000 40.5507 0.0000
# 6 0.0000 0.0000 0.0001 1.5462 0.0000 13.6018
#
#
#
# Elastic Compliance Matrix: (Units=1/GPa)
#
#
# Indices 1 2 3 4 5 6 
#
# 1 0.009317 -0.003351 -0.000559 0.000000 -0.001831 0.000000
# 2 -0.003351 0.014341 -0.006609 0.000000 0.002872 0.000000
# 3 -0.000559 -0.006609 0.014063 0.000000 -0.002319 0.000000
# 4 0.000000 0.000000 0.000000 0.054939 0.000000 -0.006245
# 5 -0.001831 0.002872 -0.002319 0.000000 0.025550 0.000000
# 6 0.000000 0.000000 0.000000 -0.006245 0.000000 0.074229
#
#
# Mechanical properties :
#
#
# Convention : Reuss Voigt Hill
#
# Bulk Modulus (GPa) = 59.94589 60.68303 60.31446
# Shear Modulus (GPa) = 22.82693 28.51301 25.66997
#
# Velocity S-wave (km/s) = 3.36619 3.76216 3.56967
# Velocity P-wave (km/s) = 6.69817 6.99962 6.85055
#
# Compressibility (1/GPa) = 0.01668171
#
# Stress axis : x y z
#
# Youngs Moduli (GPa) = 107.32563 69.72944 71.10970
#
# Poissons Ratio (x) = 0.23367 0.03979
# Poissons Ratio (y) = 0.35966 0.46998
# Poissons Ratio (z) = 0.06005 0.46086
#
# Static dielectric constant tensor:
#      x y z
#    x 1.762260 0.000000 -0.034860 
#    y 0.000000 1.712250 0.000000 
#    z -0.034860 0.000000 1.730840 
# 
# From -- ./inp_files/286046.got.cif
#   From: 2010.05.17/outbox.cif.g08.bks.cpg/sg12_144_cif.got.tgz:286046.got - 2010.06.03 13:09:07.
