data_PCOD9222911
_publ_section_title
;
Structure prediction by ZEFSAII (Michael W. Deem and Ramdas Pophale) SiO2 
 PCOD9222911
Probable space group: C 2/M
;
_chemical_formula_sum "Si O2"
_cell_formula_units_Z 64
_cell_length_a 22.285628
_cell_length_b 7.301924
_cell_length_c 21.566664
_cell_angle_alpha 90.000000
_cell_angle_beta 125.522264
_cell_angle_gamma 90.000000
_cell_volume 2856.345692
_symmetry_space_group_name_H-M "C 2/M"
_symmetry_group_IT_number 12
_symmetry_cell_setting 'monoclinic'
loop_
_space_group_symop_operation_xyz
x,y,z
-x,y,-z
-x,-y,-z
x,-y,z
1/2+x,1/2+y,z
1/2-x,1/2+y,-z
1/2-x,1/2-y,-z
1/2+x,1/2-y,z
loop_
_atom_site_type_symbol
_atom_site_label
_atom_site_fract_x
_atom_site_fract_y
_atom_site_fract_z
Si Si1 0.927315 0.291235 0.027966
Si Si2 0.617350 0.722917 0.585813
Si Si3 0.237413 0.723074 0.260270
Si Si4 0.350321 0.720991 0.110839
Si Si5 0.002358 0.779619 0.737062
Si Si6 0.477628 0.722990 0.584736
Si Si7 0.217877 0.723265 0.111046
Si Si8 0.572093 0.213223 0.176721
O O1 0.940306 0.500000 0.016034
O O2 0.881319 0.294005 0.064914
O O3 0.006516 0.209121 0.093675
O O4 0.866426 0.210875 0.945285
O O5 0.618249 0.500000 0.586047
O O6 0.697454 0.785658 0.655733
O O7 0.554323 0.775562 0.597554
O O8 0.587844 0.780570 0.500682
O O9 0.237054 0.500000 0.263846
O O10 0.252207 0.771413 0.197666
O O11 0.154493 0.788054 0.224013
O O12 0.348847 0.500000 0.104425
O O13 0.412537 0.769231 0.198960
O O14 0.271242 0.784168 0.087673
O O15 0.974902 0.714230 0.653917
O O16 0.957358 0.720172 0.770542
O O17 0.999024 0.000000 0.734780
O O18 0.477058 0.500000 0.585432
O O19 0.215458 0.500000 0.106942
O O20 0.577952 0.000000 0.162206
#
# Coordination Sequence:
#
# PCOD9222911 Si02
#       8
#     8   8   8   8   8   8   8   8
#     4   9  17  28  41  59  84 110 135 166 203 241
#     4   8  13  22  38  62  89 108 126 164 211 245
#     4   9  16  26  40  58  81 108 138 171 204 237
#     4   9  16  26  42  63  84 105 132 167 206 246
#     4   9  16  27  44  63  83 108 136 166 202 243
#     4   8  13  22  39  64  88 106 128 163 208 249
#     4   9  16  25  40  61  81 104 136 172 207 242
#     4   9  18  30  42  58  82 112 142 169 198 235
#
# _framework density 22.406251000000001
#
# number of rings (size 3 to 8) (size 9 to 14) (size 15 to 20)
#    0.000    3.250    0.000    1.875    0.000    3.500 
#    0.000    3.125    0.000    1.500    0.000    6.125 
#    0.000    0.000    0.000    0.000    0.000    0.000 
#
# Total GULP energy -178610.869774 kJ/mol
# GULP energy per Si atom -5581.589680 kJ/mol
# Density = 2.235525 g / cm^3
# Si number density = 22.406251 Si / 1000 Ang^3
#
#
#
# Elastic Constant Matrix: (Units=GPa)
#
#
# Indices 1 2 3 4 5 6 
#
# 1 90.7357 0.7502 38.3544 0.0000 27.5523 0.0000
# 2 0.7502 92.4676 5.7276 0.0000 4.6143 -0.0001
# 3 38.3544 5.7276 141.9894 0.0000 30.8699 0.0000
# 4 0.0000 0.0000 0.0000 -11.2652 0.0000 -5.1601
# 5 27.5523 4.6143 30.8699 0.0000 36.2574 0.0000
# 6 0.0000 -0.0001 0.0000 -5.1601 0.0000 -4.5286
#
#
#
# Elastic Compliance Matrix: (Units=1/GPa)
#
#
# Indices 1 2 3 4 5 6 
#
# 1 0.014753 0.000480 -0.001907 0.000000 -0.009648 0.000000
# 2 0.000480 0.010903 -0.000231 0.000000 -0.001555 -0.000001
# 3 -0.001907 -0.000231 0.008892 0.000000 -0.006092 0.000000
# 4 0.000000 0.000000 0.000000 -0.185684 0.000000 0.211576
# 5 -0.009648 -0.001555 -0.006092 0.000000 0.040297 0.000000
# 6 0.000000 -0.000001 0.000000 0.211576 0.000000 -0.461896
#
#
# Mechanical properties :
#
#
# Convention : Reuss Voigt Hill
#
# Bulk Modulus (GPa) = 32.01968 46.09524 39.05746
# Shear Modulus (GPa) = -8.94441 22.78341 6.91950
#
# Velocity S-wave (km/s) = -2.00015 3.19224 1.75923
# Velocity P-wave (km/s) = 2.99790 5.84845 4.64714
#
# Compressibility (1/GPa) = 0.03123079
#
# Stress axis : x y z
#
# Youngs Moduli (GPa) = 67.78362 91.72090 112.46529
#
# Poissons Ratio (x) = -0.04402 0.21444
# Poissons Ratio (y) = -0.03253 0.02601
# Poissons Ratio (z) = 0.12925 0.02121
#
# Static dielectric constant tensor:
#      x y z
#    x 1.794820 0.000000 0.013680 
#    y 0.000000 1.874520 0.000000 
#    z 0.013680 0.000000 1.831030 
# 
# From -- ./inp_files/320967.got.cif
#   From: 2010.05.17/outbox.cif.g08.bks.cpg/sg12_161_cif.got.tgz:320967.got - 2010.06.03 13:09:07.
