data_PCOD9222991
_publ_section_title
;
Structure prediction by ZEFSAII (Michael W. Deem and Ramdas Pophale) SiO2 
 PCOD9222991
Probable space group: C 2/M
;
_chemical_formula_sum "Si O2"
_cell_formula_units_Z 64
_cell_length_a 19.466463
_cell_length_b 7.454779
_cell_length_c 21.241124
_cell_angle_alpha 90.000000
_cell_angle_beta 94.621568
_cell_angle_gamma 90.000000
_cell_volume 3072.450950
_symmetry_space_group_name_H-M "C 2/M"
_symmetry_group_IT_number 12
_symmetry_cell_setting 'monoclinic'
loop_
_space_group_symop_operation_xyz
x,y,z
-x,y,-z
-x,-y,-z
x,-y,z
1/2+x,1/2+y,z
1/2-x,1/2+y,-z
1/2-x,1/2-y,-z
1/2+x,1/2-y,z
loop_
_atom_site_type_symbol
_atom_site_label
_atom_site_fract_x
_atom_site_fract_y
_atom_site_fract_z
Si Si1 0.124960 0.719563 0.102287
Si Si2 0.832253 0.782036 0.372812
Si Si3 0.923426 0.711237 0.502280
Si Si4 0.901505 0.291529 0.037805
Si Si5 0.217621 0.782413 0.882647
Si Si6 0.124210 0.211239 0.760175
Si Si7 0.993969 0.716321 0.160162
Si Si8 0.203777 0.714231 0.434668
O O1 0.125963 0.500000 0.100921
O O2 0.203658 0.777229 0.114788
O O3 0.072060 0.773310 0.152989
O O4 0.096183 0.781604 0.032346
O O5 0.882153 0.726907 0.433564
O O6 0.859770 0.716863 0.307706
O O7 0.753860 0.721435 0.382588
O O8 0.831997 0.000000 0.373355
O O9 0.931604 0.500000 0.517113
O O10 0.871864 0.785530 0.552537
O O11 0.000000 0.788156 0.500000
O O12 0.921233 0.500000 0.034008
O O13 0.823949 0.278910 0.058837
O O14 0.949224 0.215570 0.096851
O O15 0.173942 0.717306 0.819050
O O16 0.216513 0.000000 0.883429
O O17 0.046664 0.231464 0.780158
O O18 0.138777 0.000000 0.757945
O O19 0.992322 0.500000 0.158816
O O20 0.196925 0.500000 0.426522
O O21 0.250000 0.750000 0.500000
#
# Coordination Sequence:
#
# PCOD9222991 Si02
#       8
#     8   8   8   8   8   8   8   8
#     4   9  16  27  44  65  86 110 143 183 226 269
#     4   9  17  30  48  65  84 118 156 179 203 251
#     4   9  17  29  46  72 101 118 134 173 222 255
#     4   9  16  27  44  64  86 112 143 180 222 269
#     4   9  17  29  44  62  86 113 143 182 222 259
#     4   9  18  32  46  61  84 115 150 184 215 250
#     4   9  17  29  45  64  86 114 147 181 220 267
#     4   8  14  26  44  65  88 114 143 172 204 244
#
# _framework density 20.830275
#
# number of rings (size 3 to 8) (size 9 to 14) (size 15 to 20)
#    0.000    3.125    0.000    0.750    0.000    2.250 
#    0.000    2.500    0.000    7.500    0.000    0.000 
#    0.000    0.000    0.000    0.000    0.000    0.000 
#
# Total GULP energy -178343.794426 kJ/mol
# GULP energy per Si atom -5573.243576 kJ/mol
# Density = 2.078286 g / cm^3
# Si number density = 20.830275 Si / 1000 Ang^3
#
#
#
# Elastic Constant Matrix: (Units=GPa)
#
#
# Indices 1 2 3 4 5 6 
#
# 1 145.8822 -4.2045 44.6506 0.0000 -45.1544 0.0000
# 2 -4.2045 61.4019 -7.5824 0.0000 1.7028 0.0000
# 3 44.6506 -7.5824 84.2564 0.0000 -41.2910 0.0000
# 4 0.0000 0.0000 0.0000 20.0440 0.0000 24.2069
# 5 -45.1544 1.7028 -41.2910 0.0000 33.0977 0.0000
# 6 0.0000 0.0000 0.0000 24.2069 0.0000 90.7084
#
#
#
# Elastic Compliance Matrix: (Units=1/GPa)
#
#
# Indices 1 2 3 4 5 6 
#
# 1 0.012520 0.000794 0.004599 0.000000 0.022778 0.000000
# 2 0.000794 0.016605 0.003051 0.000000 0.004035 0.000000
# 3 0.004599 0.003051 0.032689 0.000000 0.046899 0.000000
# 4 0.000000 0.000000 0.000000 0.073616 0.000000 -0.019645
# 5 0.022778 0.004035 0.046899 0.000000 0.119590 0.000000
# 6 0.000000 0.000000 0.000000 -0.019645 0.000000 0.016267
#
#
# Mechanical properties :
#
#
# Convention : Reuss Voigt Hill
#
# Bulk Modulus (GPa) = 12.70610 39.69645 26.20128
# Shear Modulus (GPa) = 17.81677 46.01514 31.91596
#
# Velocity S-wave (km/s) = 2.92778 4.70515 3.91857
# Velocity P-wave (km/s) = 4.18835 6.97255 5.75146
#
# Compressibility (1/GPa) = 0.07870233
#
# Stress axis : x y z
#
# Youngs Moduli (GPa) = 79.86912 60.22151 30.59114
#
# Poissons Ratio (x) = -0.04779 -0.14069
# Poissons Ratio (y) = -0.06338 -0.09333
# Poissons Ratio (z) = -0.36732 -0.18374
#
# Static dielectric constant tensor:
#      x y z
#    x 1.777040 0.000000 -0.034600 
#    y 0.000000 1.813520 0.000000 
#    z -0.034600 0.000000 1.727560 
# 
# From -- ./inp_files/341980.got.cif
#   From: 2010.05.17/outbox.cif.g08.bks.cpg/sg12_171_cif.got.tgz:341980.got - 2010.06.03 13:09:07.
