data_PCOD9222285
_publ_section_title
;
Structure prediction by ZEFSAII (Michael W. Deem and Ramdas Pophale) SiO2 
 PCOD9222285
Probable space group: C 2/M
;
_chemical_formula_sum "Si O2"
_cell_formula_units_Z 50
_cell_length_a 24.161138
_cell_length_b 17.141029
_cell_length_c 6.878232
_cell_angle_alpha 90.000000
_cell_angle_beta 50.185295
_cell_angle_gamma 90.000000
_cell_volume 2188.062508
_symmetry_space_group_name_H-M "C 2/M"
_symmetry_group_IT_number 12
_symmetry_cell_setting 'monoclinic'
loop_
_space_group_symop_operation_xyz
x,y,z
-x,y,-z
-x,-y,-z
x,-y,z
1/2+x,1/2+y,z
1/2-x,1/2+y,-z
1/2-x,1/2-y,-z
1/2+x,1/2-y,z
loop_
_atom_site_type_symbol
_atom_site_label
_atom_site_fract_x
_atom_site_fract_y
_atom_site_fract_z
Si Si1 0.697931 0.907719 0.630604
Si Si2 0.663854 0.331082 0.842999
Si Si3 0.584844 0.582799 0.338854
Si Si4 0.500000 0.000000 0.500000
Si Si5 0.191261 0.308441 0.031444
Si Si6 0.434573 0.299691 0.278242
Si Si7 0.079967 0.372039 0.589938
O O1 0.755102 0.859697 0.371543
O O2 0.619537 0.898515 0.702139
O O3 0.714225 0.000000 0.597043
O O4 0.708264 0.871502 0.823563
O O5 0.634200 0.304415 0.704171
O O6 0.622308 0.398643 0.050774
O O7 0.647914 0.255995 0.009194
O O8 0.500000 0.577306 0.500000
O O9 0.612952 0.500000 0.352604
O O10 0.589819 0.650673 0.483365
O O11 0.471373 0.067925 0.407132
O O12 0.145177 0.353123 0.294482
O O13 0.250000 0.250000 0.000000
O O14 0.455176 0.212325 0.292118
O O15 0.500000 0.332958 0.000000
#
# Coordination Sequence:
#
# PCOD9222285 Si02
#       7
#     8   8   8   2   8   8   8
#     4  12  27  47  73 112 153 193 254 327 388 456
#     4  12  24  45  74 106 143 198 247 311 380 452
#     4  11  25  44  67 103 149 192 238 307 377 452
#     4  12  32  48  82 112 162 214 252 322 398 480
#     4  12  25  47  78 104 145 198 259 316 381 458
#     4  12  26  45  73 107 146 195 256 307 379 465
#     4  12  27  50  74 112 152 202 258 319 388 465
#
# _framework density 22.851265999999999
#
# number of rings (size 3 to 8) (size 9 to 14) (size 15 to 20)
#    0.000    0.160    7.200    1.920    4.480    1.600 
#    0.000    1.200    0.000    0.000    0.000    0.000 
#    0.000    0.000    0.000    0.000    0.000    0.000 
#
# Total GULP energy -139308.732595 kJ/mol
# GULP energy per Si atom -5572.349304 kJ/mol
# Density = 2.279926 g / cm^3
# Si number density = 22.851266 Si / 1000 Ang^3
#
#
#
# Elastic Constant Matrix: (Units=GPa)
#
#
# Indices 1 2 3 4 5 6 
#
# 1 89.1675 30.8489 5.5993 0.0000 35.5605 0.0000
# 2 30.8489 145.4045 23.6669 0.0000 28.7586 0.0000
# 3 5.5993 23.6669 96.8432 0.0000 17.4521 0.0000
# 4 0.0000 0.0000 0.0000 50.2851 0.0000 4.3682
# 5 35.5605 28.7586 17.4521 0.0000 31.0330 0.0000
# 6 0.0000 0.0000 0.0000 4.3682 0.0000 39.6069
#
#
#
# Elastic Compliance Matrix: (Units=1/GPa)
#
#
# Indices 1 2 3 4 5 6 
#
# 1 0.021725 0.000159 0.003581 0.000000 -0.027055 0.000000
# 2 0.000159 0.008468 -0.000703 0.000000 -0.007634 0.000000
# 3 0.003581 -0.000703 0.012143 0.000000 -0.010281 0.000000
# 4 0.000000 0.000000 0.000000 0.020079 0.000000 -0.002214
# 5 -0.027055 -0.007634 -0.010281 0.000000 0.076083 0.000000
# 6 0.000000 0.000000 0.000000 -0.002214 0.000000 0.025492
#
#
# Mechanical properties :
#
#
# Convention : Reuss Voigt Hill
#
# Bulk Modulus (GPa) = 20.65684 50.18282 35.41983
# Shear Modulus (GPa) = 28.72689 42.27166 35.49928
#
# Velocity S-wave (km/s) = 3.54944 4.30567 3.94571
# Velocity P-wave (km/s) = 5.08501 6.83569 6.02429
#
# Compressibility (1/GPa) = 0.04841011
#
# Stress axis : x y z
#
# Youngs Moduli (GPa) = 46.03045 118.09212 82.34923
#
# Poissons Ratio (x) = -0.01880 -0.29486
# Poissons Ratio (y) = -0.00733 0.05788
# Poissons Ratio (z) = -0.16482 0.08300
#
# Static dielectric constant tensor:
#      x y z
#    x 1.792720 0.000000 -0.065920 
#    y 0.000000 1.903810 0.000000 
#    z -0.065920 0.000000 1.855350 
# 
# From -- ./inp_files/28707.got.cif
#   From: 2010.05.17/outbox.cif.g08.bks.cpg/sg12_15_cif.got.tgz:28707.got - 2010.06.03 13:09:07.
