data_PCOD9222575
_publ_section_title
;
Structure prediction by ZEFSAII (Michael W. Deem and Ramdas Pophale) SiO2 
 PCOD9222575
Probable space group: C 2/M
;
_chemical_formula_sum "Si O2"
_cell_formula_units_Z 42
_cell_length_a 13.569451
_cell_length_b 13.334465
_cell_length_c 11.960366
_cell_angle_alpha 90.000000
_cell_angle_beta 128.332775
_cell_angle_gamma 90.000000
_cell_volume 1697.586633
_symmetry_space_group_name_H-M "C 2/M"
_symmetry_group_IT_number 12
_symmetry_cell_setting 'monoclinic'
loop_
_space_group_symop_operation_xyz
x,y,z
-x,y,-z
-x,-y,-z
x,-y,z
1/2+x,1/2+y,z
1/2-x,1/2+y,-z
1/2-x,1/2-y,-z
1/2+x,1/2-y,z
loop_
_atom_site_type_symbol
_atom_site_label
_atom_site_fract_x
_atom_site_fract_y
_atom_site_fract_z
Si Si1 0.853313 0.390073 0.844023
Si Si2 0.032444 0.615787 0.756760
Si Si3 0.500000 0.500000 0.000000
Si Si4 0.708046 0.322660 0.136733
Si Si5 0.614391 0.386210 0.516000
Si Si6 0.791465 0.378375 0.443753
O O1 0.861898 0.500000 0.906479
O O2 0.849220 0.288164 0.909671
O O3 0.724518 0.392948 0.683577
O O4 0.958498 0.382032 0.821673
O O5 0.063839 0.500000 0.753111
O O6 0.164072 0.671855 0.844295
O O7 0.927610 0.646182 0.590821
O O8 0.606303 0.410588 0.046221
O O9 0.757947 0.337443 0.299466
O O10 0.500000 0.335855 0.500000
O O11 0.572091 0.500000 0.455615
O O12 0.680748 0.346794 0.451425
O O13 0.787378 0.500000 0.436297
#
# Coordination Sequence:
#
# PCOD9222575 Si02
#       6
#     8   8   2   8   8   8
#     4   9  21  38  60  90 124 167 203 249 310 383
#     4   9  18  37  64  93 127 163 204 251 314 378
#     4  12  28  44  60 100 118 162 210 288 316 338
#     4  12  22  39  65  88 132 161 212 265 309 360
#     4   8  15  29  51  90 142 165 188 239 312 383
#     4   9  17  31  57  94 126 167 208 247 304 383
#
# _framework density 24.741005999999999
#
# number of rings (size 3 to 8) (size 9 to 14) (size 15 to 20)
#    0.000    2.476    1.905    2.857    0.000    7.619 
#    0.000    1.429    2.095    0.000    0.000    0.000 
#    0.000    0.000    0.000    0.000    0.000    0.000 
#
# Total GULP energy -117208.206068 kJ/mol
# GULP energy per Si atom -5581.343146 kJ/mol
# Density = 2.468469 g / cm^3
# Si number density = 24.741006 Si / 1000 Ang^3
#
#
#
# Elastic Constant Matrix: (Units=GPa)
#
#
# Indices 1 2 3 4 5 6 
#
# 1 144.0539 49.7611 54.9677 0.0000 40.0061 0.0000
# 2 49.7611 188.4748 29.2630 0.0000 5.0616 0.0000
# 3 54.9677 29.2630 88.9591 0.0000 21.4635 0.0000
# 4 0.0000 0.0000 0.0000 -2.8757 0.0000 11.0928
# 5 40.0061 5.0616 21.4635 0.0000 38.8479 0.0000
# 6 0.0000 0.0000 0.0000 11.0928 0.0000 33.0718
#
#
#
# Elastic Compliance Matrix: (Units=1/GPa)
#
#
# Indices 1 2 3 4 5 6 
#
# 1 0.012099 -0.002252 -0.004384 0.000000 -0.009744 0.000000
# 2 -0.002252 0.006014 -0.001105 0.000000 0.002146 0.000000
# 3 -0.004384 -0.001105 0.015218 0.000000 -0.003749 0.000000
# 4 0.000000 0.000000 0.000000 -0.151599 0.000000 0.050849
# 5 -0.009744 0.002146 -0.003749 0.000000 0.037568 0.000000
# 6 0.000000 0.000000 0.000000 0.050849 0.000000 0.013182
#
#
# Mechanical properties :
#
#
# Convention : Reuss Voigt Hill
#
# Bulk Modulus (GPa) = 56.02365 76.60792 66.31578
# Shear Modulus (GPa) = -108.48760 32.97521 -37.75619
#
# Velocity S-wave (km/s) = -6.62906 3.65474 -3.91072
# Velocity P-wave (km/s) = 5.99162 6.98861 2.54373
#
# Compressibility (1/GPa) = 0.01784960
#
# Stress axis : x y z
#
# Youngs Moduli (GPa) = 82.65446 166.27368 65.71179
#
# Poissons Ratio (x) = 0.37443 0.28808
# Poissons Ratio (y) = 0.18613 0.07259
# Poissons Ratio (z) = 0.36236 0.18367
#
# Static dielectric constant tensor:
#      x y z
#    x 1.940270 0.000000 -0.011670 
#    y 0.000000 2.009630 0.000000 
#    z -0.011670 0.000000 1.935940 
# 
# From -- ./inp_files/270003.got.cif
#   From: 2010.05.17/outbox.cif.g08.bks.cpg/sg12_136_cif.got.tgz:270003.got - 2010.06.03 13:09:07.
