data_PCOD9222527
_publ_section_title
;
Structure prediction by ZEFSAII (Michael W. Deem and Ramdas Pophale) SiO2 
 PCOD9222527
Probable space group: C 2/M
;
_chemical_formula_sum "Si O2"
_cell_formula_units_Z 48
_cell_length_a 9.390730
_cell_length_b 21.668825
_cell_length_c 12.221353
_cell_angle_alpha 90.000000
_cell_angle_beta 88.639368
_cell_angle_gamma 90.000000
_cell_volume 2486.174079
_symmetry_space_group_name_H-M "C 2/M"
_symmetry_group_IT_number 12
_symmetry_cell_setting 'monoclinic'
loop_
_space_group_symop_operation_xyz
x,y,z
-x,y,-z
-x,-y,-z
x,-y,z
1/2+x,1/2+y,z
1/2-x,1/2+y,-z
1/2-x,1/2-y,-z
1/2+x,1/2-y,z
loop_
_atom_site_type_symbol
_atom_site_label
_atom_site_fract_x
_atom_site_fract_y
_atom_site_fract_z
Si Si1 0.707855 0.702803 0.902332
Si Si2 0.761564 0.426525 0.972858
Si Si3 0.966468 0.737661 0.754128
Si Si4 0.943679 0.430141 0.164373
Si Si5 0.153115 0.802446 0.441262
Si Si6 0.588900 0.129222 0.605706
O O1 0.668112 0.632041 0.935146
O O2 0.851397 0.700491 0.826635
O O3 0.582421 0.732522 0.831790
O O4 0.750000 0.750000 0.000000
O O5 0.711148 0.500000 0.976444
O O6 0.899579 0.427127 0.890512
O O7 0.828063 0.399835 0.086000
O O8 0.877916 0.785833 0.683885
O O9 0.038040 0.694243 0.660631
O O10 0.899658 0.500000 0.152855
O O11 0.934158 0.413722 0.290390
O O12 0.250000 0.750000 0.500000
O O13 0.249941 0.862867 0.437053
O O14 0.000000 0.808863 0.500000
O O15 0.500000 0.114384 0.500000
#
# Coordination Sequence:
#
# PCOD9222527 Si02
#       6
#     8   8   8   8   8   8
#     4  12  24  36  59  92 129 155 197 257 307 360
#     4   9  19  37  62  86 118 162 205 248 300 364
#     4  12  22  36  56  86 125 157 191 241 307 358
#     4   9  19  36  59  86 114 151 201 257 302 347
#     4  12  21  37  54  81 116 155 198 236 299 362
#     4  12  22  35  59  86 123 154 195 250 302 371
#
# _framework density 19.306773
#
# number of rings (size 3 to 8) (size 9 to 14) (size 15 to 20)
#    0.000    1.000    6.667    2.500    2.333    0.333 
#    0.000    0.000    0.000    3.500    0.000    0.000 
#    0.000    0.667    0.000    0.000    0.000    0.000 
#
# Total GULP energy -133641.600695 kJ/mol
# GULP energy per Si atom -5568.400029 kJ/mol
# Density = 1.926283 g / cm^3
# Si number density = 19.306773 Si / 1000 Ang^3
#
#
#
# Elastic Constant Matrix: (Units=GPa)
#
#
# Indices 1 2 3 4 5 6 
#
# 1 74.9440 0.2023 25.1500 0.0000 2.6194 0.0000
# 2 0.2023 37.9165 3.0824 0.0000 4.1414 0.0000
# 3 25.1500 3.0824 108.1090 0.0000 6.8410 0.0000
# 4 0.0000 0.0000 0.0000 30.1362 0.0000 -1.2653
# 5 2.6194 4.1414 6.8410 0.0000 29.7694 0.0000
# 6 0.0000 0.0000 0.0000 -1.2653 0.0000 12.2268
#
#
#
# Elastic Compliance Matrix: (Units=1/GPa)
#
#
# Indices 1 2 3 4 5 6 
#
# 1 0.014483 0.000254 -0.003342 0.000000 -0.000542 0.000000
# 2 0.000254 0.026816 -0.000595 0.000000 -0.003616 0.000000
# 3 -0.003342 -0.000595 0.010168 0.000000 -0.001960 0.000000
# 4 0.000000 0.000000 0.000000 0.033328 0.000000 0.003449
# 5 -0.000542 -0.003616 -0.001960 0.000000 0.034593 0.000000
# 6 0.000000 0.000000 0.000000 0.003449 0.000000 0.082145
#
#
# Mechanical properties :
#
#
# Convention : Reuss Voigt Hill
#
# Bulk Modulus (GPa) = 22.67549 30.87098 26.77324
# Shear Modulus (GPa) = 22.36145 27.26212 24.81178
#
# Velocity S-wave (km/s) = 3.40695 3.76180 3.58877
# Velocity P-wave (km/s) = 5.21984 5.90700 5.57402
#
# Compressibility (1/GPa) = 0.04410048
#
# Stress axis : x y z
#
# Youngs Moduli (GPa) = 69.04577 37.29160 98.34358
#
# Poissons Ratio (x) = -0.00946 0.32869
# Poissons Ratio (y) = -0.01751 0.05849
# Poissons Ratio (z) = 0.23077 0.02218
#
# Static dielectric constant tensor:
#      x y z
#    x 1.576100 0.000000 -0.347930 
#    y 0.000000 1.827140 0.000000 
#    z -0.347930 0.000000 0.791120 
# 
# From -- ./inp_files/122048.got.cif
#   From: 2010.05.17/outbox.cif.g08.bks.cpg/sg12_62_cif.got.tgz:122048.got - 2010.06.03 13:09:07.
