data_PCOD9222041
_publ_section_title
;
Structure prediction by ZEFSAII (Michael W. Deem and Ramdas Pophale) SiO2 
 PCOD9222041
Probable space group: C 2/M
;
_chemical_formula_sum "Si O2"
_cell_formula_units_Z 32
_cell_length_a 22.098725
_cell_length_b 9.494679
_cell_length_c 17.033778
_cell_angle_alpha 90.000000
_cell_angle_beta 153.781244
_cell_angle_gamma 90.000000
_cell_volume 1579.005913
_symmetry_space_group_name_H-M "C 2/M"
_symmetry_group_IT_number 12
_symmetry_cell_setting 'monoclinic'
loop_
_space_group_symop_operation_xyz
x,y,z
-x,y,-z
-x,-y,-z
x,-y,z
1/2+x,1/2+y,z
1/2-x,1/2+y,-z
1/2-x,1/2-y,-z
1/2+x,1/2-y,z
loop_
_atom_site_type_symbol
_atom_site_label
_atom_site_fract_x
_atom_site_fract_y
_atom_site_fract_z
Si Si1 0.853129 0.263243 0.321586
Si Si2 0.606316 0.167927 0.340221
Si Si3 0.546344 0.656598 0.964510
Si Si4 0.980721 0.155351 0.616698
O O1 0.710793 0.339688 0.152605
O O2 0.863225 0.170834 0.412820
O O3 0.000000 0.344538 0.500000
O O4 0.882435 0.175776 0.276394
O O5 0.750000 0.250000 0.500000
O O6 0.538471 0.224719 0.341610
O O7 0.622732 0.000000 0.359354
O O8 0.514475 0.224079 0.161808
O O9 0.497882 0.500000 0.883565
O O10 0.500000 0.677773 0.000000
O O11 0.976267 0.000000 0.647057
#
# Coordination Sequence:
#
# PCOD9222041 Si02
#       4
#     8   8   8   8
#     4   8  20  38  65  99 127 169 205 261 314 376
#     4  12  26  42  63  92 128 169 212 261 320 378
#     4  11  24  42  66  95 127 166 214 265 317 377
#     4   9  19  39  66  92 126 166 209 258 312 371
#
# _framework density 20.265916000000001
#
# number of rings (size 3 to 8) (size 9 to 14) (size 15 to 20)
#    1.500    0.250    0.000    5.250    0.000    8.000 
#    0.000    0.000    0.000    0.000    0.000    0.000 
#    0.000    0.000    0.000    0.000    0.000    0.000 
#
# Total GULP energy -89097.077045 kJ/mol
# GULP energy per Si atom -5568.567315 kJ/mol
# Density = 2.021979 g / cm^3
# Si number density = 20.265916 Si / 1000 Ang^3
#
#
#
# Elastic Constant Matrix: (Units=GPa)
#
#
# Indices 1 2 3 4 5 6 
#
# 1 97.4533 63.5004 44.6800 0.0000 -15.0766 0.0000
# 2 63.5004 182.1848 48.9670 0.0000 -9.4576 0.0000
# 3 44.6800 48.9670 85.0634 0.0000 14.2268 0.0000
# 4 0.0000 0.0000 0.0000 27.3439 0.0000 -3.6779
# 5 -15.0766 -9.4576 14.2268 0.0000 25.7930 0.0000
# 6 0.0000 0.0000 0.0000 -3.6779 0.0000 95.0885
#
#
#
# Elastic Compliance Matrix: (Units=1/GPa)
#
#
# Indices 1 2 3 4 5 6 
#
# 1 0.020326 -0.003003 -0.011843 0.000000 0.017313 0.000000
# 2 -0.003003 0.007551 -0.003238 0.000000 0.002800 0.000000
# 3 -0.011843 -0.003238 0.023351 0.000000 -0.020990 0.000000
# 4 0.000000 0.000000 0.000000 0.036762 0.000000 0.001422
# 5 0.017313 0.002800 -0.020990 0.000000 0.061494 0.000000
# 6 0.000000 0.000000 0.000000 0.001422 0.000000 0.010572
#
#
# Mechanical properties :
#
#
# Convention : Reuss Voigt Hill
#
# Bulk Modulus (GPa) = 66.39892 75.44402 70.92147
# Shear Modulus (GPa) = 24.84540 43.48202 34.16371
#
# Velocity S-wave (km/s) = 3.50518 4.63706 4.11027
# Velocity P-wave (km/s) = 7.01546 8.12266 7.58928
#
# Compressibility (1/GPa) = 0.01506048
#
# Stress axis : x y z
#
# Youngs Moduli (GPa) = 49.19769 132.43074 42.82443
#
# Poissons Ratio (x) = 0.39765 0.50719
# Poissons Ratio (y) = 0.14773 0.13866
# Poissons Ratio (z) = 0.58267 0.42879
#
# Static dielectric constant tensor:
#      x y z
#    x 1.736840 0.000000 0.004070 
#    y 0.000000 1.728290 0.000000 
#    z 0.004070 0.000000 1.728020 
# 
# From -- ./inp_files/288006.got.cif
#   From: 2010.05.17/outbox.cif.g08.bks.cpg/sg12_145_cif.got.tgz:288006.got - 2010.06.03 13:09:07.
