data_PCOD9222869
_publ_section_title
;
Structure prediction by ZEFSAII (Michael W. Deem and Ramdas Pophale) SiO2 
 PCOD9222869
Probable space group: C 2/M
;
_chemical_formula_sum "Si O2"
_cell_formula_units_Z 56
_cell_length_a 15.263030
_cell_length_b 7.362834
_cell_length_c 19.747807
_cell_angle_alpha 90.000000
_cell_angle_beta 104.969185
_cell_angle_gamma 90.000000
_cell_volume 2143.931660
_symmetry_space_group_name_H-M "C 2/M"
_symmetry_group_IT_number 12
_symmetry_cell_setting 'monoclinic'
loop_
_space_group_symop_operation_xyz
x,y,z
-x,y,-z
-x,-y,-z
x,-y,z
1/2+x,1/2+y,z
1/2-x,1/2+y,-z
1/2-x,1/2-y,-z
1/2+x,1/2-y,z
loop_
_atom_site_type_symbol
_atom_site_label
_atom_site_fract_x
_atom_site_fract_y
_atom_site_fract_z
Si Si1 0.747285 0.793205 0.327811
Si Si2 0.128395 0.294290 0.041136
Si Si3 0.929350 0.212962 0.620579
Si Si4 0.837706 0.277743 0.094382
Si Si5 0.871374 0.277213 0.810656
Si Si6 0.158441 0.216723 0.525830
Si Si7 0.951893 0.716851 0.239884
O O1 0.651999 0.800027 0.351421
O O2 0.716578 0.712599 0.249556
O O3 0.818075 0.708668 0.395038
O O4 0.775685 0.000000 0.319713
O O5 0.094113 0.500000 0.037232
O O6 0.237651 0.296268 0.064435
O O7 0.111261 0.207868 0.110493
O O8 0.105507 0.222250 0.961638
O O9 0.920141 0.279028 0.541395
O O10 0.024244 0.230633 0.678764
O O11 0.907470 0.000000 0.615151
O O12 0.835640 0.500000 0.092633
O O13 0.873676 0.216706 0.174440
O O14 0.866186 0.500000 0.812273
O O15 0.958246 0.229558 0.783678
O O16 0.250000 0.250000 0.500000
O O17 0.146837 0.000000 0.533188
O O18 0.945355 0.500000 0.239374
#
# Coordination Sequence:
#
# PCOD9222869 Si02
#       7
#     8   8   8   8   8   8   8
#     4   8  13  23  37  54  80 111 138 164 199 243
#     4   9  17  30  47  65  84 106 135 171 207 244
#     4   9  15  22  34  56  83 108 136 169 204 239
#     4   9  18  31  46  63  83 109 139 169 203 246
#     4   8  14  25  43  65  85 107 136 169 204 241
#     4   8  13  20  32  51  77 108 136 163 197 238
#     4   9  17  29  43  60  84 112 140 169 204 245
#
# _framework density 26.120236999999999
#
# number of rings (size 3 to 8) (size 9 to 14) (size 15 to 20)
#    0.000    3.429    0.000    1.286    0.000    1.714 
#    0.000    5.714    0.000    0.000    0.000    9.000 
#    0.000    8.000    0.000    0.000    0.000    0.000 
#
# Total GULP energy -156118.375197 kJ/mol
# GULP energy per Si atom -5575.656257 kJ/mol
# Density = 2.606079 g / cm^3
# Si number density = 26.120237 Si / 1000 Ang^3
#
#
#
# Elastic Constant Matrix: (Units=GPa)
#
#
# Indices 1 2 3 4 5 6 
#
# 1 21.0650 -1.2871 114.1371 0.0000 -13.8555 0.0000
# 2 -1.2871 107.6315 9.7097 0.0000 6.3641 0.0000
# 3 114.1371 9.7097 153.4810 0.0000 57.1623 0.0000
# 4 0.0000 0.0000 0.0000 5.1741 0.0000 2.6459
# 5 -13.8555 6.3641 57.1623 0.0000 37.8745 0.0000
# 6 0.0000 0.0000 0.0000 2.6459 0.0000 -3.1056
#
#
#
# Elastic Compliance Matrix: (Units=1/GPa)
#
#
# Indices 1 2 3 4 5 6 
#
# 1 -0.003916 0.000031 0.007868 0.000000 -0.013313 0.000000
# 2 0.000031 0.009384 -0.000076 0.000000 -0.001451 0.000000
# 3 0.007868 -0.000076 -0.000931 0.000000 0.004297 0.000000
# 4 0.000000 0.000000 0.000000 0.134617 0.000000 0.114693
# 5 -0.013313 -0.001451 0.004297 0.000000 0.015291 0.000000
# 6 0.000000 0.000000 0.000000 0.114693 0.000000 -0.224282
#
#
# Mechanical properties :
#
#
# Convention : Reuss Voigt Hill
#
# Bulk Modulus (GPa) = 49.54771 58.58857 54.06814
# Shear Modulus (GPa) = -63.48777 18.62979 -22.42899
#
# Velocity S-wave (km/s) = -4.93546 2.67354 -2.93351
# Velocity P-wave (km/s) = 3.66988 5.65769 3.04478
#
# Compressibility (1/GPa) = 0.02018257
#
# Stress axis : x y z
#
# Youngs Moduli (GPa) = -255.37618 106.56466 -1073.64331
#
# Poissons Ratio (x) = -0.00325 8.44778
# Poissons Ratio (y) = 0.00780 -0.08155
# Poissons Ratio (z) = 2.00938 0.00809
#
# Static dielectric constant tensor:
#      x y z
#    x 2.046970 0.000000 0.000600 
#    y 0.000000 2.496780 0.000000 
#    z 0.000600 0.000000 2.185730 
# 
# From -- ./inp_files/323415.got.cif
#   From: 2010.05.17/outbox.cif.g08.bks.cpg/sg12_162_cif.got.tgz:323415.got - 2010.06.03 13:09:07.
