data_PCOD9222104
_publ_section_title
;
Structure prediction by ZEFSAII (Michael W. Deem and Ramdas Pophale) SiO2 
 PCOD9222104
Probable space group: C 2/M
;
_chemical_formula_sum "Si O2"
_cell_formula_units_Z 40
_cell_length_a 17.847620
_cell_length_b 13.798623
_cell_length_c 9.540960
_cell_angle_alpha 90.000000
_cell_angle_beta 132.925662
_cell_angle_gamma 90.000000
_cell_volume 1720.522523
_symmetry_space_group_name_H-M "C 2/M"
_symmetry_group_IT_number 12
_symmetry_cell_setting 'monoclinic'
loop_
_space_group_symop_operation_xyz
x,y,z
-x,y,-z
-x,-y,-z
x,-y,z
1/2+x,1/2+y,z
1/2-x,1/2+y,-z
1/2-x,1/2-y,-z
1/2+x,1/2-y,z
loop_
_atom_site_type_symbol
_atom_site_label
_atom_site_fract_x
_atom_site_fract_y
_atom_site_fract_z
Si Si1 0.252718 0.792459 0.311138
Si Si2 0.668118 0.392003 0.675187
Si Si3 0.112704 0.791013 0.892491
Si Si4 0.975669 0.612756 0.633957
Si Si5 0.421659 0.391297 0.736780
O O1 0.247687 0.676236 0.289093
O O2 0.363546 0.834825 0.494790
O O3 0.169149 0.830299 0.312083
O O4 0.218958 0.815139 0.107742
O O5 0.700742 0.500000 0.753945
O O6 0.623957 0.337134 0.753134
O O7 0.589278 0.396606 0.446406
O O8 0.061969 0.683772 0.811580
O O9 0.032238 0.845448 0.890452
O O10 0.972791 0.500000 0.681236
O O11 0.000000 0.608901 0.500000
O O12 0.412884 0.500000 0.779707
#
# Coordination Sequence:
#
# PCOD9222104 Si02
#       5
#     8   8   8   8   8
#     4  12  25  45  68 101 140 183 227 284 346 412
#     4  11  24  43  69  97 134 178 226 282 343 401
#     4  12  24  45  71 103 139 177 233 291 338 408
#     4  11  24  43  68 100 142 187 227 277 347 418
#     4  11  24  44  71  99 135 183 227 281 348 412
#
# _framework density 23.248750999999999
#
# number of rings (size 3 to 8) (size 9 to 14) (size 15 to 20)
#    0.000    0.600    4.000    3.600    0.000    6.400 
#    0.000    0.000    0.000    2.400    0.000    0.000 
#    0.000    0.000    0.000    0.000    0.000    0.000 
#
# Total GULP energy -111607.347315 kJ/mol
# GULP energy per Si atom -5580.367366 kJ/mol
# Density = 2.319584 g / cm^3
# Si number density = 23.248751 Si / 1000 Ang^3
#
#
#
# Elastic Constant Matrix: (Units=GPa)
#
#
# Indices 1 2 3 4 5 6 
#
# 1 116.0420 73.5804 21.7779 0.0000 -2.8227 0.0000
# 2 73.5804 205.0053 15.0936 0.0000 1.4497 0.0000
# 3 21.7779 15.0936 91.1554 0.0000 -15.0097 0.0000
# 4 0.0000 0.0000 0.0000 11.6217 0.0000 -3.1548
# 5 -2.8227 1.4497 -15.0097 0.0000 20.2947 0.0000
# 6 0.0000 0.0000 0.0000 -3.1548 0.0000 25.8388
#
#
#
# Elastic Compliance Matrix: (Units=1/GPa)
#
#
# Indices 1 2 3 4 5 6 
#
# 1 0.011542 -0.003996 -0.002032 0.000000 0.000388 0.000000
# 2 -0.003996 0.006343 -0.000298 0.000000 -0.001229 0.000000
# 3 -0.002032 -0.000298 0.013051 0.000000 0.009391 0.000000
# 4 0.000000 0.000000 0.000000 0.088996 0.000000 0.010866
# 5 0.000388 -0.001229 0.009391 0.000000 0.056361 0.000000
# 6 0.000000 0.000000 0.000000 0.010866 0.000000 0.040028
#
#
# Mechanical properties :
#
#
# Convention : Reuss Voigt Hill
#
# Bulk Modulus (GPa) = 54.69079 70.34517 62.51798
# Shear Modulus (GPa) = 21.27044 31.66776 26.46910
#
# Velocity S-wave (km/s) = 3.02802 3.69470 3.37785
# Velocity P-wave (km/s) = 5.98335 6.96595 6.49326
#
# Compressibility (1/GPa) = 0.01828462
#
# Stress axis : x y z
#
# Youngs Moduli (GPa) = 86.63990 157.66093 76.61973
#
# Poissons Ratio (x) = 0.62998 0.15569
# Poissons Ratio (y) = 0.34620 0.02283
# Poissons Ratio (z) = 0.17605 0.04698
#
# Static dielectric constant tensor:
#      x y z
#    x 1.835730 0.000000 0.038570 
#    y 0.000000 1.926500 0.000000 
#    z 0.038570 0.000000 2.045630 
# 
# From -- ./inp_files/73329.got.cif
#   From: 2010.05.17/outbox.cif.g08.bks.cpg/sg12_37_cif.got.tgz:73329.got - 2010.06.03 13:09:07.
