data_PCOD9222272
_publ_section_title
;
Structure prediction by ZEFSAII (Michael W. Deem and Ramdas Pophale) SiO2 
 PCOD9222272
Probable space group: C 2/M
;
_chemical_formula_sum "Si O2"
_cell_formula_units_Z 48
_cell_length_a 7.123058
_cell_length_b 14.624136
_cell_length_c 19.645310
_cell_angle_alpha 90.000000
_cell_angle_beta 122.258068
_cell_angle_gamma 90.000000
_cell_volume 1730.563782
_symmetry_space_group_name_H-M "C 2/M"
_symmetry_group_IT_number 12
_symmetry_cell_setting 'monoclinic'
loop_
_space_group_symop_operation_xyz
x,y,z
-x,y,-z
-x,-y,-z
x,-y,z
1/2+x,1/2+y,z
1/2-x,1/2+y,-z
1/2-x,1/2-y,-z
1/2+x,1/2-y,z
loop_
_atom_site_type_symbol
_atom_site_label
_atom_site_fract_x
_atom_site_fract_y
_atom_site_fract_z
Si Si1 0.127011 0.605815 0.421117
Si Si2 0.951511 0.107598 0.601141
Si Si3 0.266718 0.642867 0.987814
Si Si4 0.529994 0.598944 0.836695
Si Si5 0.696021 0.764118 0.715608
Si Si6 0.915682 0.601269 0.803203
O O1 0.066386 0.500000 0.414414
O O2 0.237449 0.631898 0.514516
O O3 0.334543 0.611734 0.408403
O O4 0.912943 0.659814 0.354336
O O5 0.999900 0.187619 0.664339
O O6 0.937257 0.000000 0.620366
O O7 0.093986 0.613602 0.897397
O O8 0.500000 0.620694 0.000000
O O9 0.250000 0.750000 0.000000
O O10 0.291089 0.602587 0.067498
O O11 0.420626 0.500000 0.817505
O O12 0.338957 0.675255 0.798968
O O13 0.686562 0.606452 0.801617
O O14 0.899965 0.686823 0.748878
O O15 0.932241 0.500000 0.775614
#
# Coordination Sequence:
#
# PCOD9222272 Si02
#       6
#     8   8   8   8   8   8
#     4   9  19  36  57  84 120 161 208 264 320 372
#     4   9  19  36  57  84 120 161 208 264 320 372
#     4  12  25  44  71  96 124 164 213 261 312 377
#     4  11  25  43  63  91 131 171 209 263 324 374
#     4  12  21  35  62  90 122 162 216 261 313 390
#     4  11  25  43  63  91 131 171 209 263 324 374
#
# _framework density 27.736623999999999
#
# number of rings (size 3 to 8) (size 9 to 14) (size 15 to 20)
#    0.000    1.333    1.667    5.500    0.000    4.000 
#    0.000    0.000    0.000    0.000    0.000   14.000 
#    0.000    0.000    0.000    0.000    0.000    0.000 
#
# Total GULP energy -134092.456278 kJ/mol
# GULP energy per Si atom -5587.185678 kJ/mol
# Density = 2.767349 g / cm^3
# Si number density = 27.736624 Si / 1000 Ang^3
#
#
#
# Elastic Constant Matrix: (Units=GPa)
#
#
# Indices 1 2 3 4 5 6 
#
# 1 72.5288 -2.7336 17.5764 0.0000 20.2423 0.0000
# 2 -2.7336 172.5724 100.8242 0.0000 -18.1403 0.0000
# 3 17.5764 100.8242 262.8681 0.0002 6.8476 -0.0001
# 4 0.0000 0.0000 0.0002 -409.6354 0.0001 345.8840
# 5 20.2423 -18.1403 6.8476 0.0001 51.2154 -0.0001
# 6 0.0000 0.0000 -0.0001 345.8840 -0.0001 -311.5080
#
#
#
# Elastic Compliance Matrix: (Units=1/GPa)
#
#
# Indices 1 2 3 4 5 6 
#
# 1 0.015707 0.000178 -0.000962 0.000000 -0.006016 0.000000
# 2 0.000178 0.007973 -0.003153 0.000000 0.003175 0.000000
# 3 -0.000962 -0.003153 0.005115 0.000000 -0.001420 0.000000
# 4 0.000000 0.000000 0.000000 -0.039090 0.000000 -0.043404
# 5 -0.006016 0.003175 -0.001420 0.000000 0.023218 0.000000
# 6 0.000000 0.000000 0.000000 -0.043404 0.000000 -0.051404
#
#
# Mechanical properties :
#
#
# Convention : Reuss Voigt Hill
#
# Bulk Modulus (GPa) = 47.79683 82.14480 64.97082
# Shear Modulus (GPa) = -211.54981 -107.83213 -159.69097
#
# Velocity S-wave (km/s) = -8.74280 -6.24192 -7.59599
# Velocity P-wave (km/s) = 9.20030 4.71895 7.31143
#
# Compressibility (1/GPa) = 0.02092189
#
# Stress axis : x y z
#
# Youngs Moduli (GPa) = 63.66791 125.41909 195.51162
#
# Poissons Ratio (x) = -0.02237 0.18806
# Poissons Ratio (y) = -0.01136 0.61641
# Poissons Ratio (z) = 0.06124 0.39542
#
# Static dielectric constant tensor:
#      x y z
#    x 2.495850 0.000000 -0.066690 
#    y 0.000000 2.151440 0.000000 
#    z -0.066690 0.000000 2.185840 
# 
# From -- ./inp_files/356357.got.cif
#   From: 2010.05.17/outbox.cif.g08.bks.cpg/sg12_179_cif.got.tgz:356357.got - 2010.06.03 13:09:07.
