data_PCOD9222240
_publ_section_title
;
Structure prediction by ZEFSAII (Michael W. Deem and Ramdas Pophale) SiO2 
 PCOD9222240
Probable space group: C 2/M
;
_chemical_formula_sum "Si O2"
_cell_formula_units_Z 40
_cell_length_a 14.428529
_cell_length_b 12.847274
_cell_length_c 13.566522
_cell_angle_alpha 90.000000
_cell_angle_beta 142.132389
_cell_angle_gamma 90.000000
_cell_volume 1543.675710
_symmetry_space_group_name_H-M "C 2/M"
_symmetry_group_IT_number 12
_symmetry_cell_setting 'monoclinic'
loop_
_space_group_symop_operation_xyz
x,y,z
-x,y,-z
-x,-y,-z
x,-y,z
1/2+x,1/2+y,z
1/2-x,1/2+y,-z
1/2-x,1/2-y,-z
1/2+x,1/2-y,z
loop_
_atom_site_type_symbol
_atom_site_label
_atom_site_fract_x
_atom_site_fract_y
_atom_site_fract_z
Si Si1 0.243977 0.122506 0.948710
Si Si2 0.054229 0.274115 0.644951
Si Si3 0.245913 0.382944 0.528466
Si Si4 0.156664 0.841086 0.104328
Si Si5 0.904609 0.300681 0.767908
O O1 0.182845 0.143859 0.008726
O O2 0.424783 0.153191 0.096199
O O3 0.230652 0.000000 0.916499
O O4 0.366309 0.234987 0.846663
O O5 0.175585 0.364462 0.718683
O O6 0.142699 0.193356 0.790186
O O7 0.000000 0.220965 0.500000
O O8 0.914177 0.335418 0.572354
O O9 0.273265 0.500000 0.580771
O O10 0.219302 0.374391 0.387952
O O11 0.129571 0.807514 0.320249
O O12 0.000000 0.894004 0.000000
#
# Coordination Sequence:
#
# PCOD9222240 Si02
#       5
#     8   8   8   8   8
#     4  12  28  53  87 125 168 225 283 339 416 500
#     4  12  25  49  84 117 176 218 275 349 416 484
#     4  11  25  48  82 123 168 224 278 340 421 497
#     4  12  24  47  83 117 163 216 274 343 413 484
#     4  11  24  48  82 119 175 215 272 353 414 488
#
# _framework density 25.912178999999998
#
# number of rings (size 3 to 8) (size 9 to 14) (size 15 to 20)
#    0.000    0.400    6.000    2.400    0.000    2.000 
#    0.000   13.000    0.000    6.000    0.000    0.000 
#    0.000    0.000    0.000    0.000    0.000    0.000 
#
# Total GULP energy -111371.476018 kJ/mol
# GULP energy per Si atom -5568.573801 kJ/mol
# Density = 2.585320 g / cm^3
# Si number density = 25.912179 Si / 1000 Ang^3
#
#
#
# Elastic Constant Matrix: (Units=GPa)
#
#
# Indices 1 2 3 4 5 6 
#
# 1 196.1756 28.5402 42.6011 0.0000 -0.7929 -0.0001
# 2 28.5402 174.1300 38.9765 0.0000 6.6629 0.0000
# 3 42.6011 38.9765 176.1122 0.0000 7.6589 0.0000
# 4 0.0000 0.0000 0.0000 9.9236 0.0000 0.9252
# 5 -0.7929 6.6629 7.6589 0.0000 52.5502 0.0000
# 6 -0.0001 0.0000 0.0000 0.9252 0.0000 7.6447
#
#
#
# Elastic Compliance Matrix: (Units=1/GPa)
#
#
# Indices 1 2 3 4 5 6 
#
# 1 0.005451 -0.000640 -0.001192 0.000000 0.000337 0.000000
# 2 -0.000640 0.006134 -0.001176 0.000000 -0.000616 0.000000
# 3 -0.001192 -0.001176 0.006261 0.000000 -0.000781 0.000000
# 4 0.000000 0.000000 0.000000 0.101920 0.000000 -0.012335
# 5 0.000337 -0.000616 -0.000781 0.000000 0.019226 0.000000
# 6 0.000000 0.000000 0.000000 -0.012335 0.000000 0.132303
#
#
# Mechanical properties :
#
#
# Convention : Reuss Voigt Hill
#
# Bulk Modulus (GPa) = 84.52206 85.18370 84.85288
# Shear Modulus (GPa) = 17.77755 43.11037 30.44396
#
# Velocity S-wave (km/s) = 2.62213 4.08329 3.43139
# Velocity P-wave (km/s) = 6.46969 7.42808 6.96539
#
# Compressibility (1/GPa) = 0.01183123
#
# Stress axis : x y z
#
# Youngs Moduli (GPa) = 183.46449 163.01248 159.72574
#
# Poissons Ratio (x) = 0.10425 0.19033
# Poissons Ratio (y) = 0.11733 0.18786
# Poissons Ratio (z) = 0.21862 0.19173
#
# Static dielectric constant tensor:
#      x y z
#    x 2.209960 0.000000 -0.070530 
#    y 0.000000 2.118820 0.000000 
#    z -0.070530 0.000000 2.192010 
# 
# From -- ./inp_files/129237.got.cif
#   From: 2010.05.17/outbox.cif.g08.bks.cpg/sg12_65_cif.got.tgz:129237.got - 2010.06.03 13:09:07.
