data_PCOD9222255
_publ_section_title
;
Structure prediction by ZEFSAII (Michael W. Deem and Ramdas Pophale) SiO2 
 PCOD9222255
Probable space group: C 2/M
;
_chemical_formula_sum "Si O2"
_cell_formula_units_Z 42
_cell_length_a 15.980047
_cell_length_b 16.586314
_cell_length_c 7.888661
_cell_angle_alpha 90.000000
_cell_angle_beta 66.610604
_cell_angle_gamma 90.000000
_cell_volume 1919.077812
_symmetry_space_group_name_H-M "C 2/M"
_symmetry_group_IT_number 12
_symmetry_cell_setting 'monoclinic'
loop_
_space_group_symop_operation_xyz
x,y,z
-x,y,-z
-x,-y,-z
x,-y,z
1/2+x,1/2+y,z
1/2-x,1/2+y,-z
1/2-x,1/2-y,-z
1/2+x,1/2-y,z
loop_
_atom_site_type_symbol
_atom_site_label
_atom_site_fract_x
_atom_site_fract_y
_atom_site_fract_z
Si Si1 0.892840 0.904479 0.092282
Si Si2 0.273386 0.842896 0.948945
Si Si3 0.329892 0.092568 0.250132
Si Si4 0.602361 0.179080 0.469886
Si Si5 0.368667 0.363731 0.471952
Si Si6 0.000000 0.000000 0.500000
O O1 0.825780 0.885651 0.989890
O O2 0.854842 0.855298 0.282146
O O3 0.885908 0.000000 0.126628
O O4 0.000000 0.884032 0.000000
O O5 0.329363 0.853152 0.729805
O O6 0.250000 0.750000 0.000000
O O7 0.334397 0.874383 0.055508
O O8 0.376236 0.144088 0.361405
O O9 0.222192 0.099300 0.376319
O O10 0.359692 0.000000 0.234852
O O11 0.500000 0.158729 0.500000
O O12 0.612769 0.276077 0.467295
O O13 0.447859 0.428615 0.433982
#
# Coordination Sequence:
#
# PCOD9222255 Si02
#       6
#     8   8   8   8   8   2
#     4  11  25  41  68 107 147 184 231 296 365 432
#     4  12  26  46  69 105 145 188 236 296 360 431
#     4  12  26  47  76 104 140 192 245 302 362 427
#     4  12  28  49  73 104 147 195 243 298 359 430
#     4  12  23  44  69 108 151 187 229 293 375 434
#     4  12  24  36  74 112 144 178 234 288 358 452
#
# _framework density 21.88551
#
# number of rings (size 3 to 8) (size 9 to 14) (size 15 to 20)
#    0.000    0.190    6.667    2.286    5.333    1.905 
#    0.000    0.952    0.000    0.000    0.000    0.000 
#    0.000    0.000    0.000    0.000    0.000    0.000 
#
# Total GULP energy -117204.886818 kJ/mol
# GULP energy per Si atom -5581.185087 kJ/mol
# Density = 2.183570 g / cm^3
# Si number density = 21.885510 Si / 1000 Ang^3
#
#
#
# Elastic Constant Matrix: (Units=GPa)
#
#
# Indices 1 2 3 4 5 6 
#
# 1 144.0015 38.4315 50.2505 0.0000 27.5117 0.0000
# 2 38.4315 103.3426 14.2438 0.0000 13.5334 0.0000
# 3 50.2505 14.2438 77.9871 0.0000 16.7120 0.0000
# 4 0.0000 0.0000 0.0000 23.9579 0.0000 14.7672
# 5 27.5117 13.5334 16.7120 0.0000 34.0661 0.0000
# 6 0.0000 0.0000 0.0000 14.7672 0.0000 41.6857
#
#
#
# Elastic Compliance Matrix: (Units=1/GPa)
#
#
# Indices 1 2 3 4 5 6 
#
# 1 0.010337 -0.002500 -0.005171 0.000000 -0.004818 0.000000
# 2 -0.002500 0.010900 0.000129 0.000000 -0.002374 0.000000
# 3 -0.005171 0.000129 0.017038 0.000000 -0.004234 0.000000
# 4 0.000000 0.000000 0.000000 0.053400 0.000000 -0.018917
# 5 -0.004818 -0.002374 -0.004234 0.000000 0.036265 0.000000
# 6 0.000000 0.000000 0.000000 -0.018917 0.000000 0.030690
#
#
# Mechanical properties :
#
#
# Convention : Reuss Voigt Hill
#
# Bulk Modulus (GPa) = 43.12308 59.02029 51.07169
# Shear Modulus (GPa) = 27.55651 34.76895 31.16273
#
# Velocity S-wave (km/s) = 3.55226 3.99014 3.77755
# Velocity P-wave (km/s) = 6.04743 6.94655 6.51253
#
# Compressibility (1/GPa) = 0.02318944
#
# Stress axis : x y z
#
# Youngs Moduli (GPa) = 96.74299 91.74725 58.69104
#
# Poissons Ratio (x) = 0.22940 0.30351
# Poissons Ratio (y) = 0.24189 -0.00758
# Poissons Ratio (z) = 0.50029 -0.01185
#
# Static dielectric constant tensor:
#      x y z
#    x 1.832680 0.000000 0.023440 
#    y 0.000000 1.755730 0.000000 
#    z 0.023440 0.000000 1.865650 
# 
# From -- ./inp_files/61622.got.cif
#   From: 2010.05.17/outbox.cif.g08.bks.cpg/sg12_31_cif.got.tgz:61622.got - 2010.06.03 13:09:07.
