data_PCOD9222538
_publ_section_title
;
Structure prediction by ZEFSAII (Michael W. Deem and Ramdas Pophale) SiO2 
 PCOD9222538
Probable space group: C 2/M
;
_chemical_formula_sum "Si O2"
_cell_formula_units_Z 32
_cell_length_a 7.634111
_cell_length_b 17.546998
_cell_length_c 11.053517
_cell_angle_alpha 90.000000
_cell_angle_beta 69.872193
_cell_angle_gamma 90.000000
_cell_volume 1390.252782
_symmetry_space_group_name_H-M "C 2/M"
_symmetry_group_IT_number 12
_symmetry_cell_setting 'monoclinic'
loop_
_space_group_symop_operation_xyz
x,y,z
-x,y,-z
-x,-y,-z
x,-y,z
1/2+x,1/2+y,z
1/2-x,1/2+y,-z
1/2-x,1/2-y,-z
1/2+x,1/2-y,z
loop_
_atom_site_type_symbol
_atom_site_label
_atom_site_fract_x
_atom_site_fract_y
_atom_site_fract_z
Si Si1 0.352964 0.087665 0.716309
Si Si2 0.181402 0.700757 0.629394
Si Si3 0.009300 0.152421 0.260798
Si Si4 0.704468 0.840080 0.007810
O O1 0.525786 0.139248 0.634581
O O2 0.168976 0.099305 0.678983
O O3 0.405749 0.000000 0.711291
O O4 0.294758 0.120779 0.861750
O O5 0.250000 0.750000 0.500000
O O6 0.353169 0.663734 0.659015
O O7 0.081414 0.763584 0.739264
O O8 0.137902 0.127050 0.119101
O O9 0.500000 0.851656 0.000000
O O10 0.750000 0.750000 0.000000
#
# Coordination Sequence:
#
# PCOD9222538 Si02
#       4
#     8   8   8   8
#     4  12  28  46  73 117 157 192 247 324 387 441
#     4  12  25  46  77 108 141 201 263 312 365 456
#     4  12  23  43  75 107 141 199 255 303 371 454
#     4  12  21  41  72 109 151 197 250 303 370 460
#
# _framework density 23.017398
#
# number of rings (size 3 to 8) (size 9 to 14) (size 15 to 20)
#    0.000    0.000    7.500    3.000    0.000    3.500 
#    0.000    2.500    0.000    3.000    0.000    0.000 
#    0.000    0.000    0.000    0.000    0.000    0.000 
#
# Total GULP energy -89677.632005 kJ/mol
# GULP energy per Si atom -5604.852000 kJ/mol
# Density = 2.296501 g / cm^3
# Si number density = 23.017398 Si / 1000 Ang^3
#
#
#
# Elastic Constant Matrix: (Units=GPa)
#
#
# Indices 1 2 3 4 5 6 
#
# 1 193.0433 37.9948 67.1865 0.0000 -9.0345 0.0000
# 2 37.9948 122.6347 43.6984 0.0000 -18.6825 0.0000
# 3 67.1865 43.6984 133.5423 0.0000 -11.4880 0.0000
# 4 0.0000 0.0000 0.0000 18.7226 0.0000 -1.7082
# 5 -9.0345 -18.6825 -11.4880 0.0000 37.7607 0.0000
# 6 0.0000 0.0000 0.0000 -1.7082 0.0000 19.6458
#
#
#
# Elastic Compliance Matrix: (Units=1/GPa)
#
#
# Indices 1 2 3 4 5 6 
#
# 1 0.006376 -0.000916 -0.002892 0.000000 0.000193 0.000000
# 2 -0.000916 0.009909 -0.002443 0.000000 0.003940 0.000000
# 3 -0.002892 -0.002443 0.009836 0.000000 0.001092 0.000000
# 4 0.000000 0.000000 0.000000 0.053839 0.000000 0.004681
# 5 0.000193 0.003940 0.001092 0.000000 0.028810 0.000000
# 6 0.000000 0.000000 0.000000 0.004681 0.000000 0.051308
#
#
# Mechanical properties :
#
#
# Convention : Reuss Voigt Hill
#
# Bulk Modulus (GPa) = 73.41647 82.99774 78.20711
# Shear Modulus (GPa) = 28.22973 35.24853 31.73913
#
# Velocity S-wave (km/s) = 3.50587 3.91754 3.71741
# Velocity P-wave (km/s) = 6.95367 7.52328 7.24408
#
# Compressibility (1/GPa) = 0.01362092
#
# Stress axis : x y z
#
# Youngs Moduli (GPa) = 156.84349 100.92179 101.66436
#
# Poissons Ratio (x) = 0.09241 0.29396
# Poissons Ratio (y) = 0.14361 0.24834
# Poissons Ratio (z) = 0.45352 0.24653
#
# Static dielectric constant tensor:
#      x y z
#    x 1.876220 0.000000 0.017380 
#    y 0.000000 1.820760 0.000000 
#    z 0.017380 0.000000 1.951110 
# 
# From -- ./inp_files/118129.got.cif
#   From: 2010.05.17/outbox.cif.g08.bks.cpg/sg12_60_cif.got.tgz:118129.got - 2010.06.03 13:09:07.
