data_PCOD9222012
_publ_section_title
;
Structure prediction by ZEFSAII (Michael W. Deem and Ramdas Pophale) SiO2 
 PCOD9222012
Probable space group: C 2/M
;
_chemical_formula_sum "Si O2"
_cell_formula_units_Z 48
_cell_length_a 16.539524
_cell_length_b 18.439849
_cell_length_c 11.809547
_cell_angle_alpha 90.000000
_cell_angle_beta 145.017486
_cell_angle_gamma 90.000000
_cell_volume 2064.978607
_symmetry_space_group_name_H-M "C 2/M"
_symmetry_group_IT_number 12
_symmetry_cell_setting 'monoclinic'
loop_
_space_group_symop_operation_xyz
x,y,z
-x,y,-z
-x,-y,-z
x,-y,z
1/2+x,1/2+y,z
1/2-x,1/2+y,-z
1/2-x,1/2-y,-z
1/2+x,1/2-y,z
loop_
_atom_site_type_symbol
_atom_site_label
_atom_site_fract_x
_atom_site_fract_y
_atom_site_fract_z
Si Si1 0.033558 0.339144 0.878750
Si Si2 0.853557 0.818878 0.974175
Si Si3 0.224320 0.746884 0.337358
Si Si4 0.796929 0.080464 0.253262
Si Si5 0.535239 0.647231 0.380002
Si Si6 0.420954 0.086136 0.289974
O O1 0.127469 0.265736 0.967598
O O2 0.992782 0.375300 0.712243
O O3 0.901711 0.312154 0.800632
O O4 0.137069 0.397739 0.052234
O O5 0.169731 0.807931 0.188111
O O6 0.990713 0.851270 0.197440
O O7 0.723483 0.867667 0.866006
O O8 0.250000 0.750000 0.500000
O O9 0.378822 0.718170 0.479574
O O10 0.855282 0.087504 0.447920
O O11 0.893487 0.132440 0.286750
O O12 0.822795 0.000000 0.241522
O O13 0.500000 0.091493 0.500000
O O14 0.396846 0.000000 0.239641
#
# Coordination Sequence:
#
# PCOD9222012 Si02
#       6
#     8   8   8   8   8   8
#     4  12  24  43  73 108 143 188 241 305 366 427
#     4  12  25  43  74 107 142 188 244 301 356 431
#     4  12  26  45  67 108 150 184 237 302 372 434
#     4  11  25  46  69 104 148 190 246 301 360 437
#     4  11  24  41  71 101 144 186 237 303 361 428
#     4  11  26  46  72 106 146 192 241 297 359 436
#
# _framework density 23.244790999999999
#
# number of rings (size 3 to 8) (size 9 to 14) (size 15 to 20)
#    0.000    0.500    5.000    3.500    0.000    0.667 
#    0.000    4.167    0.000    4.000    0.000    0.000 
#    0.000    0.000    0.000    0.000    0.000    0.000 
#
# Total GULP energy -133738.990145 kJ/mol
# GULP energy per Si atom -5572.457923 kJ/mol
# Density = 2.319189 g / cm^3
# Si number density = 23.244791 Si / 1000 Ang^3
#
#
#
# Elastic Constant Matrix: (Units=GPa)
#
#
# Indices 1 2 3 4 5 6 
#
# 1 74.8117 27.0204 29.9777 0.0000 -22.5183 0.0000
# 2 27.0204 76.8367 15.8905 0.0000 -4.4743 0.0000
# 3 29.9777 15.8905 160.6763 0.0000 -25.6942 0.0000
# 4 0.0000 0.0000 0.0000 25.6788 0.0000 -4.5219
# 5 -22.5183 -4.4743 -25.6942 0.0000 49.4851 0.0000
# 6 0.0000 0.0000 0.0000 -4.5219 0.0000 19.1871
#
#
#
# Elastic Compliance Matrix: (Units=1/GPa)
#
#
# Indices 1 2 3 4 5 6 
#
# 1 0.018157 -0.005627 -0.001735 0.000000 0.006853 0.000000
# 2 -0.005627 0.015045 -0.000687 0.000000 -0.001557 0.000000
# 3 -0.001735 -0.000687 0.007066 0.000000 0.002817 0.000000
# 4 0.000000 0.000000 0.000000 0.040629 0.000000 0.009575
# 5 0.006853 -0.001557 0.002817 0.000000 0.024648 0.000000
# 6 0.000000 0.000000 0.000000 0.009575 0.000000 0.054375
#
#
# Mechanical properties :
#
#
# Convention : Reuss Voigt Hill
#
# Bulk Modulus (GPa) = 41.37539 50.90020 46.13780
# Shear Modulus (GPa) = 27.16272 34.83261 30.99767
#
# Velocity S-wave (km/s) = 3.42212 3.87526 3.65572
# Velocity P-wave (km/s) = 5.78386 6.47831 6.14091
#
# Compressibility (1/GPa) = 0.02416896
#
# Stress axis : x y z
#
# Youngs Moduli (GPa) = 55.07402 66.46765 141.52527
#
# Poissons Ratio (x) = 0.37403 0.24559
# Poissons Ratio (y) = 0.30992 0.09723
# Poissons Ratio (z) = 0.09557 0.04566
#
# Static dielectric constant tensor:
#      x y z
#    x 1.993570 0.000000 -0.094690 
#    y 0.000000 1.904540 0.000000 
#    z -0.094690 0.000000 2.021190 
# 
# From -- ./inp_files/234339.got.cif
#   From: 2010.05.17/outbox.cif.g08.bks.cpg/sg12_118_cif.got.tgz:234339.got - 2010.06.03 13:09:07.
