data_PCOD9222478
_publ_section_title
;
Structure prediction by ZEFSAII (Michael W. Deem and Ramdas Pophale) SiO2 
 PCOD9222478
Probable space group: C 2/M
;
_chemical_formula_sum "Si O2"
_cell_formula_units_Z 40
_cell_length_a 25.876322
_cell_length_b 10.097305
_cell_length_c 19.284192
_cell_angle_alpha 90.000000
_cell_angle_beta 22.654609
_cell_angle_gamma 90.000000
_cell_volume 1940.741238
_symmetry_space_group_name_H-M "C 2/M"
_symmetry_group_IT_number 12
_symmetry_cell_setting 'monoclinic'
loop_
_space_group_symop_operation_xyz
x,y,z
-x,y,-z
-x,-y,-z
x,-y,z
1/2+x,1/2+y,z
1/2-x,1/2+y,-z
1/2-x,1/2-y,-z
1/2+x,1/2-y,z
loop_
_atom_site_type_symbol
_atom_site_label
_atom_site_fract_x
_atom_site_fract_y
_atom_site_fract_z
Si Si1 0.126288 0.500000 0.180169
Si Si2 0.744027 0.220019 0.325251
Si Si3 0.494238 0.222043 0.267085
Si Si4 0.842380 0.500000 0.373034
Si Si5 0.600805 0.500000 0.077643
Si Si6 0.344097 0.000000 0.207053
Si Si7 0.103753 0.000000 0.779667
Si Si8 0.891157 0.500000 0.576744
O O1 0.116595 0.632935 0.146082
O O2 0.979584 0.500000 0.397093
O O3 0.243092 0.500000 0.092575
O O4 0.621882 0.239155 0.531163
O O5 0.788269 0.363531 0.247171
O O6 0.855519 0.129783 0.226359
O O7 0.694590 0.131924 0.322377
O O8 0.425909 0.130175 0.292560
O O9 0.541546 0.364526 0.183144
O O10 0.816989 0.500000 0.323242
O O11 0.707282 0.500000 0.586211
O O12 0.544379 0.500000 0.068752
O O13 0.500000 0.000000 0.000000
O O14 0.000000 0.500000 0.500000
#
# Coordination Sequence:
#
# PCOD9222478 Si02
#       8
#     4   8   8   4   4   4   4   4
#     4   9  20  34  48  78 109 135 173 230 274 313
#     4   9  19  38  58  79 107 139 189 223 267 317
#     4   9  18  33  57  76 105 141 178 226 265 315
#     4   9  18  36  54  76 110 145 180 211 267 326
#     4  12  18  26  49  88 113 129 166 211 293 331
#     4  12  23  35  51  84 126 148 165 214 283 337
#     4   9  18  33  60  87 101 137 183 235 262 320
#     4   9  19  42  62  72  93 147 199 233 248 301
#
# _framework density 20.610682000000001
#
# number of rings (size 3 to 8) (size 9 to 14) (size 15 to 20)
#    0.000    2.400    0.000    6.000    0.000    3.200 
#    7.200    1.500    0.000    0.000    0.000    0.000 
#    0.000    0.000    0.000    0.000    0.000    0.000 
#
# Total GULP energy -111665.234179 kJ/mol
# GULP energy per Si atom -5583.261709 kJ/mol
# Density = 2.056377 g / cm^3
# Si number density = 20.610682 Si / 1000 Ang^3
#
#
#
# Elastic Constant Matrix: (Units=GPa)
#
#
# Indices 1 2 3 4 5 6 
#
# 1 69.6381 39.9465 14.6932 0.0000 -32.7608 0.0000
# 2 39.9465 206.5298 49.9885 0.0000 -25.3168 0.0001
# 3 14.6932 49.9885 65.4167 0.0000 -21.2870 0.0000
# 4 0.0000 0.0000 0.0000 1.3114 0.0000 -10.6040
# 5 -32.7608 -25.3168 -21.2870 0.0000 35.8659 0.0000
# 6 0.0000 0.0001 0.0000 -10.6040 0.0000 10.0420
#
#
#
# Elastic Compliance Matrix: (Units=1/GPa)
#
#
# Indices 1 2 3 4 5 6 
#
# 1 0.027117 -0.003272 0.004608 0.000000 0.025195 0.000000
# 2 -0.003272 0.006437 -0.004558 0.000000 -0.001150 0.000000
# 3 0.004608 -0.004558 0.022380 0.000000 0.014274 0.000000
# 4 0.000000 0.000000 0.000000 -0.101154 0.000000 -0.106814
# 5 0.025195 -0.001150 0.014274 0.000000 0.058555 0.000000
# 6 0.000000 0.000000 0.000000 -0.106814 0.000000 -0.013210
#
#
# Mechanical properties :
#
#
# Convention : Reuss Voigt Hill
#
# Bulk Modulus (GPa) = 20.20613 61.20457 40.70535
# Shear Modulus (GPa) = 216.76097 25.24096 121.00096
#
# Velocity S-wave (km/s) = 10.26633 3.50330 7.67042
# Velocity P-wave (km/s) = 12.26194 6.79148 9.91159
#
# Compressibility (1/GPa) = 0.04948992
#
# Stress axis : x y z
#
# Youngs Moduli (GPa) = 36.87665 155.35073 44.68317
#
# Poissons Ratio (x) = 0.50829 -0.20590
# Poissons Ratio (y) = 0.12066 0.20368
# Poissons Ratio (z) = -0.16993 0.70814
#
# Static dielectric constant tensor:
#      x y z
#    x 1.764450 0.000000 0.015290 
#    y 0.000000 1.650500 0.000000 
#    z 0.015290 0.000000 1.755610 
# 
# From -- ./inp_files/162575.got.cif
#   From: 2010.05.17/outbox.cif.g08.bks.cpg/sg12_82_cif.got.tgz:162575.got - 2010.06.03 13:09:07.
