data_PCOD9222099
_publ_section_title
;
Structure prediction by ZEFSAII (Michael W. Deem and Ramdas Pophale) SiO2 
 PCOD9222099
Probable space group: C 2/M
;
_chemical_formula_sum "Si O2"
_cell_formula_units_Z 40
_cell_length_a 19.381416
_cell_length_b 11.588091
_cell_length_c 16.742842
_cell_angle_alpha 90.000000
_cell_angle_beta 149.587611
_cell_angle_gamma 90.000000
_cell_volume 1903.557919
_symmetry_space_group_name_H-M "C 2/M"
_symmetry_group_IT_number 12
_symmetry_cell_setting 'monoclinic'
loop_
_space_group_symop_operation_xyz
x,y,z
-x,y,-z
-x,-y,-z
x,-y,z
1/2+x,1/2+y,z
1/2-x,1/2+y,-z
1/2-x,1/2-y,-z
1/2+x,1/2-y,z
loop_
_atom_site_type_symbol
_atom_site_label
_atom_site_fract_x
_atom_site_fract_y
_atom_site_fract_z
Si Si1 0.252970 0.257899 0.657302
Si Si2 0.976314 0.635655 0.125487
Si Si3 0.981858 0.271662 0.302915
Si Si4 0.091816 0.500000 0.671672
Si Si5 0.655244 0.500000 0.183362
Si Si6 0.695385 0.633714 0.756298
O O1 0.381265 0.176281 0.769140
O O2 0.307686 0.385890 0.729640
O O3 0.175036 0.212797 0.658623
O O4 0.142875 0.255458 0.477128
O O5 0.982733 0.500000 0.152866
O O6 0.949703 0.709862 0.178370
O O7 0.851533 0.650846 0.940176
O O8 0.941404 0.387810 0.309877
O O9 0.899218 0.171157 0.264589
O O10 0.246524 0.500000 0.795726
O O11 0.000000 0.500000 0.500000
O O12 0.500000 0.500000 0.000000
O O13 0.673998 0.500000 0.714798
#
# Coordination Sequence:
#
# PCOD9222099 Si02
#       6
#     8   8   8   4   4   8
#     4  12  24  42  67  95 131 171 220 269 321 390
#     4  11  25  44  65  93 135 174 212 268 336 388
#     4  12  23  43  67  96 131 168 218 273 324 392
#     4  12  20  42  70  94 127 171 217 267 323 387
#     4  12  24  40  66 102 128 167 221 270 317 383
#     4  11  24  43  67  96 127 171 222 266 323 393
#
# _framework density 21.013282
#
# number of rings (size 3 to 8) (size 9 to 14) (size 15 to 20)
#    0.000    0.400    5.000    4.200    0.000    4.000 
#    1.800    0.000    0.000    0.000    0.000    0.000 
#    0.000    0.000    0.000    0.000    0.000    0.000 
#
# Total GULP energy -112002.076466 kJ/mol
# GULP energy per Si atom -5600.103823 kJ/mol
# Density = 2.096545 g / cm^3
# Si number density = 21.013282 Si / 1000 Ang^3
#
#
#
# Elastic Constant Matrix: (Units=GPa)
#
#
# Indices 1 2 3 4 5 6 
#
# 1 64.0846 -11.7812 -2.0555 0.0000 4.3641 0.0000
# 2 -11.7812 60.8116 9.6659 0.0000 -0.9732 0.0000
# 3 -2.0555 9.6659 62.5290 0.0000 21.2179 0.0000
# 4 0.0000 0.0000 0.0000 -2.2160 0.0000 -1.4010
# 5 4.3641 -0.9732 21.2179 0.0000 42.4958 0.0000
# 6 0.0000 0.0000 0.0000 -1.4010 0.0000 38.0329
#
#
#
# Elastic Compliance Matrix: (Units=1/GPa)
#
#
# Indices 1 2 3 4 5 6 
#
# 1 0.016316 0.003011 0.000742 0.000000 -0.001977 0.000000
# 2 0.003011 0.017561 -0.003187 0.000000 0.001684 0.000000
# 3 0.000742 -0.003187 0.019938 0.000000 -0.010104 0.000000
# 4 0.000000 0.000000 0.000000 -0.440989 0.000000 -0.016245
# 5 -0.001977 0.001684 -0.010104 0.000000 0.028818 0.000000
# 6 0.000000 0.000000 0.000000 -0.016245 0.000000 0.025695
#
#
# Mechanical properties :
#
#
# Convention : Reuss Voigt Hill
#
# Bulk Modulus (GPa) = 18.19904 19.89817 19.04860
# Shear Modulus (GPa) = -15.84908 28.43558 6.29325
#
# Velocity S-wave (km/s) = -2.74932 3.68260 1.73245
# Velocity P-wave (km/s) = 1.18273 5.25090 3.61754
#
# Compressibility (1/GPa) = 0.05494797
#
# Stress axis : x y z
#
# Youngs Moduli (GPa) = 61.28799 56.94368 50.15465
#
# Poissons Ratio (x) = -0.17149 -0.03720
# Poissons Ratio (y) = -0.18457 0.15985
# Poissons Ratio (z) = -0.04546 0.18149
#
# Static dielectric constant tensor:
#      x y z
#    x 1.733370 0.000000 0.013580 
#    y 0.000000 1.723420 0.000000 
#    z 0.013580 0.000000 1.740160 
# 
# From -- ./inp_files/283420.got.cif
#   From: 2010.05.17/outbox.cif.g08.bks.cpg/sg12_142_cif.got.tgz:283420.got - 2010.06.03 13:09:07.
