data_PCOD9222484
_publ_section_title
;
Structure prediction by ZEFSAII (Michael W. Deem and Ramdas Pophale) SiO2 
 PCOD9222484
Probable space group: C 2/M
;
_chemical_formula_sum "Si O2"
_cell_formula_units_Z 40
_cell_length_a 16.774968
_cell_length_b 18.694529
_cell_length_c 13.950717
_cell_angle_alpha 90.000000
_cell_angle_beta 25.303664
_cell_angle_gamma 90.000000
_cell_volume 1869.920768
_symmetry_space_group_name_H-M "C 2/M"
_symmetry_group_IT_number 12
_symmetry_cell_setting 'monoclinic'
loop_
_space_group_symop_operation_xyz
x,y,z
-x,y,-z
-x,-y,-z
x,-y,z
1/2+x,1/2+y,z
1/2-x,1/2+y,-z
1/2-x,1/2-y,-z
1/2+x,1/2-y,z
loop_
_atom_site_type_symbol
_atom_site_label
_atom_site_fract_x
_atom_site_fract_y
_atom_site_fract_z
Si Si1 0.758691 0.420598 0.621397
Si Si2 0.188940 0.918767 0.918418
Si Si3 0.378520 0.183284 0.332820
Si Si4 0.384339 0.315276 0.542922
Si Si5 0.255835 0.241021 0.862984
O O1 0.816985 0.500000 0.531175
O O2 0.775528 0.414531 0.717375
O O3 0.869676 0.367812 0.433308
O O4 0.536253 0.414404 0.844597
O O5 0.242100 0.842061 0.904623
O O6 0.231227 0.000000 0.909344
O O7 0.250000 0.250000 0.500000
O O8 0.263862 0.150124 0.366420
O O9 0.577318 0.212390 0.084124
O O10 0.500000 0.358634 0.500000
O O11 0.282555 0.254309 0.718649
O O12 0.555462 0.277003 0.302396
#
# Coordination Sequence:
#
# PCOD9222484 Si02
#       5
#     8   8   8   8   8
#     4   9  19  30  51  84 112 145 186 220 269 339
#     4   9  16  32  53  76 116 154 176 212 276 344
#     4  12  19  31  60  83 106 147 185 232 282 315
#     4   8  22  35  50  81 111 138 182 236 269 333
#     4   9  19  35  54  80 111 142 186 222 277 323
#
# _framework density 21.391279999999998
#
# number of rings (size 3 to 8) (size 9 to 14) (size 15 to 20)
#    1.200    1.200    2.000    3.000    2.800    0.800 
#    0.000    2.000    0.000    6.600    0.000    0.000 
#    0.000    0.000    0.000    0.000    0.000    0.000 
#
# Total GULP energy -111420.596556 kJ/mol
# GULP energy per Si atom -5571.029828 kJ/mol
# Density = 2.134259 g / cm^3
# Si number density = 21.391280 Si / 1000 Ang^3
#
#
#
# Elastic Constant Matrix: (Units=GPa)
#
#
# Indices 1 2 3 4 5 6 
#
# 1 66.9909 11.1506 46.8418 -0.0044 -12.3754 0.0032
# 2 11.1506 90.9369 63.8297 -0.0120 -6.0189 0.0105
# 3 46.8418 63.8297 150.4638 -0.0026 -22.9668 0.0034
# 4 -0.0044 -0.0120 -0.0026 28.0397 0.0037 13.3916
# 5 -12.3754 -6.0189 -22.9668 0.0037 24.8892 -0.0023
# 6 0.0032 0.0105 0.0034 13.3916 -0.0023 14.1088
#
#
#
# Elastic Compliance Matrix: (Units=1/GPa)
#
#
# Indices 1 2 3 4 5 6 
#
# 1 0.019934 0.002463 -0.006573 0.000009 0.004442 -0.000013
# 2 0.002463 0.016125 -0.007944 0.000022 -0.002206 -0.000032
# 3 -0.006573 -0.007944 0.013118 -0.000012 0.006916 0.000017
# 4 0.000009 0.000022 -0.000012 0.065237 -0.000017 -0.061921
# 5 0.004442 -0.002206 0.006916 -0.000017 0.048235 0.000023
# 6 -0.000013 -0.000032 0.000017 -0.061921 0.000023 0.129651
#
#
# Mechanical properties :
#
#
# Convention : Reuss Voigt Hill
#
# Bulk Modulus (GPa) = 39.88925 61.33731 50.61328
# Shear Modulus (GPa) = 15.39591 25.84550 20.62070
#
# Velocity S-wave (km/s) = 2.68569 3.47973 3.10817
# Velocity P-wave (km/s) = 5.32026 6.69932 6.04921
#
# Compressibility (1/GPa) = 0.02506941
#
# Stress axis : x y z
#
# Youngs Moduli (GPa) = 50.16623 62.01738 76.23234
#
# Poissons Ratio (x) = -0.15276 0.50104
# Poissons Ratio (y) = -0.12357 0.60558
# Poissons Ratio (z) = 0.32972 0.49266
#
# Static dielectric constant tensor:
#      x y z
#    x 1.975750 -0.000010 0.011240 
#    y -0.000010 1.776650 0.000000 
#    z 0.011240 0.000000 1.769610 
# 
# From -- ./inp_files/234591.got.cif
#   From: 2010.05.17/outbox.cif.g08.bks.cpg/sg12_118_cif.got.tgz:234591.got - 2010.06.03 13:09:07.
