data_PCOD9222540
_publ_section_title
;
Structure prediction by ZEFSAII (Michael W. Deem and Ramdas Pophale) SiO2 
 PCOD9222540
Probable space group: C 2/M
;
_chemical_formula_sum "Si O2"
_cell_formula_units_Z 42
_cell_length_a 19.155145
_cell_length_b 18.601820
_cell_length_c 5.007832
_cell_angle_alpha 90.000000
_cell_angle_beta 66.127715
_cell_angle_gamma 90.000000
_cell_volume 1631.738319
_symmetry_space_group_name_H-M "C 2/M"
_symmetry_group_IT_number 12
_symmetry_cell_setting 'monoclinic'
loop_
_space_group_symop_operation_xyz
x,y,z
-x,y,-z
-x,-y,-z
x,-y,z
1/2+x,1/2+y,z
1/2-x,1/2+y,-z
1/2-x,1/2-y,-z
1/2+x,1/2-y,z
loop_
_atom_site_type_symbol
_atom_site_label
_atom_site_fract_x
_atom_site_fract_y
_atom_site_fract_z
Si Si1 0.665013 0.000000 0.522144
Si Si2 0.500000 0.500000 0.500000
Si Si3 0.277482 0.615940 0.122705
Si Si4 0.930177 0.661935 0.946392
Si Si5 0.653400 0.781967 0.438671
Si Si6 0.076395 0.500000 0.167853
Si Si7 0.372397 0.612262 0.475217
O O1 0.710880 0.933519 0.335548
O O2 0.651540 0.000000 0.856138
O O3 0.587427 0.000000 0.469732
O O4 0.443896 0.563948 0.452347
O O5 0.370719 0.698892 0.502498
O O6 0.349170 0.600526 0.204268
O O7 0.303499 0.595086 0.787675
O O8 0.862082 0.678233 0.257191
O O9 0.951391 0.579132 0.864291
O O10 0.902985 0.689462 0.704078
O O11 0.000000 0.697250 0.000000
O O12 0.760046 0.694906 0.778492
#
# Coordination Sequence:
#
# PCOD9222540 Si02
#       7
#     4   2   8   8   8   4   8
#     4  12  22  38  73  97 146 178 232 296 374 438
#     4  12  32  56  76 112 160 208 274 298 388 474
#     4  12  23  47  75 111 143 192 254 318 392 429
#     4  12  25  42  70 105 149 196 238 286 380 467
#     4  12  25  47  73 112 146 192 251 322 378 450
#     4  12  21  43  60 103 140 187 222 290 342 459
#     4  12  28  48  77 105 147 197 253 324 373 458
#
# _framework density 25.739419000000002
#
# number of rings (size 3 to 8) (size 9 to 14) (size 15 to 20)
#    0.000    0.000    3.810    6.571    2.667    1.524 
#    0.000    2.857    0.000    0.000    0.000    0.000 
#    0.000    0.000    0.000    0.000    0.000    0.000 
#
# Total GULP energy -117168.998238 kJ/mol
# GULP energy per Si atom -5579.476107 kJ/mol
# Density = 2.568083 g / cm^3
# Si number density = 25.739419 Si / 1000 Ang^3
#
#
#
# Elastic Constant Matrix: (Units=GPa)
#
#
# Indices 1 2 3 4 5 6 
#
# 1 115.1281 37.5306 -6.9165 0.0000 28.4825 0.0000
# 2 37.5306 134.5906 27.6220 0.0000 14.1360 0.0000
# 3 -6.9165 27.6220 95.4208 0.0000 11.0685 0.0000
# 4 0.0000 0.0000 0.0000 19.3728 0.0000 14.3328
# 5 28.4825 14.1360 11.0685 0.0000 36.2996 0.0000
# 6 0.0000 0.0000 0.0000 14.3328 0.0000 41.8475
#
#
#
# Elastic Compliance Matrix: (Units=1/GPa)
#
#
# Indices 1 2 3 4 5 6 
#
# 1 0.012101 -0.002985 0.002807 0.000000 -0.009188 0.000000
# 2 -0.002985 0.008855 -0.002749 0.000000 -0.000268 0.000000
# 3 0.002807 -0.002749 0.012036 0.000000 -0.004802 0.000000
# 4 0.000000 0.000000 0.000000 0.069138 0.000000 -0.023680
# 5 -0.009188 -0.000268 -0.004802 0.000000 0.036327 0.000000
# 6 0.000000 0.000000 0.000000 -0.023680 0.000000 0.032007
#
#
# Mechanical properties :
#
#
# Convention : Reuss Voigt Hill
#
# Bulk Modulus (GPa) = 36.84853 51.29018 44.06935
# Shear Modulus (GPa) = 26.97409 38.63087 32.80248
#
# Velocity S-wave (km/s) = 3.24075 3.87828 3.57376
# Velocity P-wave (km/s) = 5.32450 6.32651 5.84701
#
# Compressibility (1/GPa) = 0.02713812
#
# Stress axis : x y z
#
# Youngs Moduli (GPa) = 82.63745 112.93541 83.08357
#
# Poissons Ratio (x) = 0.33716 -0.23323
# Poissons Ratio (y) = 0.24671 0.22836
# Poissons Ratio (z) = -0.23198 0.31041
#
# Static dielectric constant tensor:
#      x y z
#    x 2.090390 0.000000 -0.048870 
#    y 0.000000 2.086670 0.000000 
#    z -0.048870 0.000000 2.009320 
# 
# From -- ./inp_files/20373.got.cif
#   From: 2010.05.17/outbox.cif.g08.bks.cpg/sg12_11_cif.got.tgz:20373.got - 2010.06.03 13:09:07.
