data_PCOD9222408
_publ_section_title
;
Structure prediction by ZEFSAII (Michael W. Deem and Ramdas Pophale) SiO2 
 PCOD9222408
Probable space group: C 2/M
;
_chemical_formula_sum "Si O2"
_cell_formula_units_Z 44
_cell_length_a 21.151753
_cell_length_b 18.914825
_cell_length_c 5.249093
_cell_angle_alpha 90.000000
_cell_angle_beta 74.338429
_cell_angle_gamma 90.000000
_cell_volume 2022.096984
_symmetry_space_group_name_H-M "C 2/M"
_symmetry_group_IT_number 12
_symmetry_cell_setting 'monoclinic'
loop_
_space_group_symop_operation_xyz
x,y,z
-x,y,-z
-x,-y,-z
x,-y,z
1/2+x,1/2+y,z
1/2-x,1/2+y,-z
1/2-x,1/2-y,-z
1/2+x,1/2-y,z
loop_
_atom_site_type_symbol
_atom_site_label
_atom_site_fract_x
_atom_site_fract_y
_atom_site_fract_z
Si Si1 0.000000 0.786672 0.000000
Si Si2 0.932036 0.325278 0.442047
Si Si3 0.678058 0.580879 0.490168
Si Si4 0.120610 0.855353 0.035986
Si Si5 0.326752 0.083002 0.277978
Si Si6 0.677705 0.781278 0.045846
O O1 0.040590 0.732859 0.781238
O O2 0.044130 0.837206 0.127911
O O3 0.889729 0.388591 0.363468
O O4 0.877851 0.286438 0.676590
O O5 0.000000 0.351030 0.500000
O O6 0.674578 0.500000 0.407230
O O7 0.636598 0.591317 0.791309
O O8 0.754686 0.593770 0.482333
O O9 0.652634 0.625057 0.272948
O O10 0.150965 0.781547 0.898581
O O11 0.333300 0.000000 0.207515
O O12 0.321101 0.138898 0.054912
O O13 0.750000 0.750000 0.000000
#
# Coordination Sequence:
#
# PCOD9222408 Si02
#       6
#     4   8   8   8   8   8
#     4  12  26  42  72 110 144 194 248 314 370 448
#     4  12  24  45  68 102 150 193 248 307 379 444
#     4  11  26  47  73 109 153 194 243 311 386 448
#     4  12  24  44  75 107 145 197 250 314 367 446
#     4  11  26  44  68 106 149 193 244 308 381 448
#     4  12  24  41  74 108 139 187 260 314 363 437
#
# _framework density 21.759589999999999
#
# number of rings (size 3 to 8) (size 9 to 14) (size 15 to 20)
#    0.000    0.364    5.455    2.727    0.000    2.545 
#    0.000    5.909    0.000    0.000    0.000    0.000 
#    0.000    0.000    0.000    0.000    0.000    0.000 
#
# Total GULP energy -122592.704036 kJ/mol
# GULP energy per Si atom -5572.395638 kJ/mol
# Density = 2.171006 g / cm^3
# Si number density = 21.759590 Si / 1000 Ang^3
#
#
#
# Elastic Constant Matrix: (Units=GPa)
#
#
# Indices 1 2 3 4 5 6 
#
# 1 322.7116 7.9271 242.0386 0.0000 -90.5464 0.0000
# 2 7.9271 157.1609 -62.4976 0.0000 44.0935 0.0000
# 3 242.0386 -62.4976 373.2628 0.0000 -158.8938 0.0000
# 4 0.0000 0.0000 0.0000 87.5354 0.0000 -58.8801
# 5 -90.5464 44.0935 -158.8938 0.0000 104.9295 0.0000
# 6 0.0000 0.0000 0.0000 -58.8801 0.0000 101.7629
#
#
#
# Elastic Compliance Matrix: (Units=1/GPa)
#
#
# Indices 1 2 3 4 5 6 
#
# 1 0.006735 -0.002071 -0.005260 0.000000 -0.001284 0.000000
# 2 -0.002071 0.007858 0.001385 0.000000 -0.002992 0.000000
# 3 -0.005260 0.001385 0.011655 0.000000 0.012527 0.000000
# 4 0.000000 0.000000 0.000000 0.018703 0.000000 0.010822
# 5 -0.001284 -0.002992 0.012527 0.000000 0.028650 0.000000
# 6 0.000000 0.000000 0.000000 0.010822 0.000000 0.016088
#
#
# Mechanical properties :
#
#
# Convention : Reuss Voigt Hill
#
# Bulk Modulus (GPa) = 69.66531 136.45235 103.05883
# Shear Modulus (GPa) = 47.00758 103.22340 75.11549
#
# Velocity S-wave (km/s) = 4.65296 6.89501 5.88180
# Velocity P-wave (km/s) = 7.80719 11.23536 9.67433
#
# Compressibility (1/GPa) = 0.01435435
#
# Stress axis : x y z
#
# Youngs Moduli (GPa) = 148.48132 127.26483 85.80111
#
# Poissons Ratio (x) = 0.26362 0.45135
# Poissons Ratio (y) = 0.30757 -0.11887
# Poissons Ratio (z) = 0.78108 -0.17631
#
# Static dielectric constant tensor:
#      x y z
#    x 2.155490 0.000000 -0.005820 
#    y 0.000000 1.802580 0.000000 
#    z -0.005820 0.000000 1.831320 
# 
# From -- ./inp_files/20346.got.cif
#   From: 2010.05.17/outbox.cif.g08.bks.cpg/sg12_11_cif.got.tgz:20346.got - 2010.06.03 13:09:07.
