data_PCOD9222023
_publ_section_title
;
Structure prediction by ZEFSAII (Michael W. Deem and Ramdas Pophale) SiO2 
 PCOD9222023
Probable space group: C 2/M
;
_chemical_formula_sum "Si O2"
_cell_formula_units_Z 48
_cell_length_a 9.287253
_cell_length_b 16.846264
_cell_length_c 16.811993
_cell_angle_alpha 90.000000
_cell_angle_beta 85.004281
_cell_angle_gamma 90.000000
_cell_volume 2620.336963
_symmetry_space_group_name_H-M "C 2/M"
_symmetry_group_IT_number 12
_symmetry_cell_setting 'monoclinic'
loop_
_space_group_symop_operation_xyz
x,y,z
-x,y,-z
-x,-y,-z
x,-y,z
1/2+x,1/2+y,z
1/2-x,1/2+y,-z
1/2-x,1/2-y,-z
1/2+x,1/2-y,z
loop_
_atom_site_type_symbol
_atom_site_label
_atom_site_fract_x
_atom_site_fract_y
_atom_site_fract_z
Si Si1 0.214199 0.813679 0.215986
Si Si2 0.237776 0.909476 0.682205
Si Si3 0.535996 0.407890 0.845794
Si Si4 0.505930 0.813831 0.693832
Si Si5 0.874016 0.757996 0.057920
Si Si6 0.118961 0.208817 0.553258
O O1 0.117795 0.885223 0.186489
O O2 0.335402 0.828457 0.277132
O O3 0.312420 0.782531 0.139275
O O4 0.094995 0.748905 0.251634
O O5 0.404785 0.890012 0.690761
O O6 0.179181 0.851269 0.616833
O O7 0.150969 0.896062 0.768600
O O8 0.215893 0.000000 0.659392
O O9 0.540308 0.500000 0.870678
O O10 0.572834 0.344485 0.913249
O O11 0.532972 0.775343 0.606966
O O12 0.750000 0.750000 0.000000
O O13 0.000000 0.718811 0.000000
O O14 0.250000 0.250000 0.500000
O O15 0.000000 0.171518 0.500000
#
# Coordination Sequence:
#
# PCOD9222023 Si02
#       6
#     8   8   8   8   8   8
#     4  12  20  39  66  90 119 163 218 244 295 376
#     4  11  24  42  63  92 126 162 207 263 313 360
#     4  11  24  42  64  93 127 162 207 262 311 360
#     4  12  20  39  66  89 120 166 213 253 289 380
#     4  12  22  37  63  94 119 161 204 253 303 369
#     4  12  22  37  64  94 119 162 208 256 308 369
#
# _framework density 18.318255000000001
#
# number of rings (size 3 to 8) (size 9 to 14) (size 15 to 20)
#    0.000    0.333   10.000    0.000    0.000    1.333 
#    0.000    1.667    0.000    1.000    0.000    0.000 
#    0.000    0.000    0.000    0.000    0.000    0.000 
#
# Total GULP energy -133827.478015 kJ/mol
# GULP energy per Si atom -5576.144917 kJ/mol
# Density = 1.827656 g / cm^3
# Si number density = 18.318255 Si / 1000 Ang^3
#
#
#
# Elastic Constant Matrix: (Units=GPa)
#
#
# Indices 1 2 3 4 5 6 
#
# 1 115.5246 10.7409 16.5408 0.0000 8.4372 0.0000
# 2 10.7409 47.8185 11.5135 0.0000 -6.3550 0.0000
# 3 16.5408 11.5135 68.9169 0.0000 -7.8069 0.0000
# 4 0.0000 0.0000 0.0000 21.6811 0.0000 3.8402
# 5 8.4372 -6.3550 -7.8069 0.0000 56.0582 0.0000
# 6 0.0000 0.0000 0.0000 3.8402 0.0000 19.3602
#
#
#
# Elastic Compliance Matrix: (Units=1/GPa)
#
#
# Indices 1 2 3 4 5 6 
#
# 1 0.009270 -0.001820 -0.002136 0.000000 -0.001899 0.000000
# 2 -0.001820 0.022368 -0.003029 0.000000 0.002388 0.000000
# 3 -0.002136 -0.003029 0.015775 0.000000 0.002175 0.000000
# 4 0.000000 0.000000 0.000000 0.047802 0.000000 -0.009482
# 5 -0.001899 0.002388 0.002175 0.000000 0.018698 0.000000
# 6 0.000000 0.000000 0.000000 -0.009482 0.000000 0.053533
#
#
# Mechanical properties :
#
#
# Convention : Reuss Voigt Hill
#
# Bulk Modulus (GPa) = 29.90257 34.42782 32.16520
# Shear Modulus (GPa) = 25.96517 32.31755 29.14136
#
# Velocity S-wave (km/s) = 3.76899 4.20483 3.99286
# Velocity P-wave (km/s) = 5.94135 6.51223 6.23333
#
# Compressibility (1/GPa) = 0.03344194
#
# Stress axis : x y z
#
# Youngs Moduli (GPa) = 107.87580 44.70663 63.39002
#
# Poissons Ratio (x) = 0.08138 0.13539
# Poissons Ratio (y) = 0.19637 0.19204
# Poissons Ratio (z) = 0.23041 0.13544
#
# Static dielectric constant tensor:
#      x y z
#    x 1.792520 0.000000 0.284060 
#    y 0.000000 1.623730 0.000000 
#    z 0.284060 0.000000 2.049230 
# 
# From -- ./inp_files/195980.got.cif
#   From: 2010.05.17/outbox.cif.g08.bks.cpg/sg12_98_cif.got.tgz:195980.got - 2010.06.03 13:09:07.
