data_PCOD9222648
_publ_section_title
;
Structure prediction by ZEFSAII (Michael W. Deem and Ramdas Pophale) SiO2 
 PCOD9222648
Probable space group: C 2/M
;
_chemical_formula_sum "Si O2"
_cell_formula_units_Z 48
_cell_length_a 8.872458
_cell_length_b 18.285045
_cell_length_c 15.041194
_cell_angle_alpha 90.000000
_cell_angle_beta 66.325696
_cell_angle_gamma 90.000000
_cell_volume 2234.823442
_symmetry_space_group_name_H-M "C 2/M"
_symmetry_group_IT_number 12
_symmetry_cell_setting 'monoclinic'
loop_
_space_group_symop_operation_xyz
x,y,z
-x,y,-z
-x,-y,-z
x,-y,z
1/2+x,1/2+y,z
1/2-x,1/2+y,-z
1/2-x,1/2-y,-z
1/2+x,1/2-y,z
loop_
_atom_site_type_symbol
_atom_site_label
_atom_site_fract_x
_atom_site_fract_y
_atom_site_fract_z
Si Si1 0.118917 0.852033 0.549771
Si Si2 0.130269 0.000000 0.131138
Si Si3 0.934765 0.000000 0.644991
Si Si4 0.063863 0.345048 0.644647
Si Si5 0.829738 0.500000 0.916123
Si Si6 0.282575 0.274380 0.293410
Si Si7 0.061183 0.500000 0.710081
Si Si8 0.096465 0.873061 0.893734
O O1 0.300711 0.851965 0.464294
O O2 0.137867 0.811313 0.638446
O O3 0.000000 0.821183 0.500000
O O4 0.039731 0.929907 0.592492
O O5 0.117312 0.000000 0.239723
O O6 0.028704 0.071391 0.124574
O O7 0.294086 0.000000 0.030296
O O8 0.755291 0.000000 0.643006
O O9 0.163157 0.309801 0.705254
O O10 0.996067 0.425352 0.683105
O O11 0.908520 0.295054 0.658958
O O12 0.736609 0.427763 0.899174
O O13 0.006480 0.500000 0.826419
O O14 0.345880 0.311937 0.188576
O O15 0.000000 0.839600 0.000000
#
# Coordination Sequence:
#
# PCOD9222648 Si02
#       8
#     8   4   4   8   4   8   4   8
#     4  12  24  44  66  99 136 187 231 283 343 409
#     4   9  18  35  67 103 133 178 225 283 345 413
#     4  12  23  40  70  99 141 180 233 287 350 396
#     4  12  27  44  69  99 139 184 233 287 339 411
#     4   9  18  38  67 102 135 173 231 280 340 412
#     4  12  25  45  71 101 136 184 232 286 351 410
#     4  12  24  44  69  98 139 183 225 287 341 411
#     4   9  18  38  70 102 133 174 227 284 343 415
#
# _framework density 21.478207000000001
#
# number of rings (size 3 to 8) (size 9 to 14) (size 15 to 20)
#    0.000    1.000    5.000    3.750    0.000    1.000 
#    0.000    2.500    3.667    0.000    0.000    0.000 
#    0.000    0.000    0.000    0.000    0.000    0.000 
#
# Total GULP energy -134026.983018 kJ/mol
# GULP energy per Si atom -5584.457626 kJ/mol
# Density = 2.142932 g / cm^3
# Si number density = 21.478207 Si / 1000 Ang^3
#
#
#
# Elastic Constant Matrix: (Units=GPa)
#
#
# Indices 1 2 3 4 5 6 
#
# 1 92.4967 29.1108 32.8813 0.0000 -12.3026 0.0000
# 2 29.1108 94.2449 47.5890 0.0000 -6.2266 0.0000
# 3 32.8813 47.5890 173.3585 0.0000 -7.9367 0.0000
# 4 0.0000 0.0000 0.0000 44.5969 0.0000 13.3313
# 5 -12.3026 -6.2266 -7.9367 0.0000 36.1535 0.0000
# 6 0.0000 0.0000 0.0000 13.3313 0.0000 23.1032
#
#
#
# Elastic Compliance Matrix: (Units=1/GPa)
#
#
# Indices 1 2 3 4 5 6 
#
# 1 0.012723 -0.002973 -0.001437 0.000000 0.003502 0.000000
# 2 -0.002973 0.013083 -0.003001 0.000000 0.000583 0.000000
# 3 -0.001437 -0.003001 0.006888 0.000000 0.000506 0.000000
# 4 0.000000 0.000000 0.000000 0.027097 0.000000 -0.015636
# 5 0.003502 0.000583 0.000506 0.000000 0.029063 0.000000
# 6 0.000000 0.000000 0.000000 -0.015636 0.000000 0.052306
#
#
# Mechanical properties :
#
#
# Convention : Reuss Voigt Hill
#
# Bulk Modulus (GPa) = 55.95155 64.36247 60.15701
# Shear Modulus (GPa) = 30.87567 37.47199 34.17383
#
# Velocity S-wave (km/s) = 3.79560 4.18143 3.99318
# Velocity P-wave (km/s) = 6.73169 7.30370 7.02352
#
# Compressibility (1/GPa) = 0.01787260
#
# Stress axis : x y z
#
# Youngs Moduli (GPa) = 78.59475 76.43644 145.18346
#
# Poissons Ratio (x) = 0.22726 0.20860
# Poissons Ratio (y) = 0.23368 0.43566
# Poissons Ratio (z) = 0.11292 0.22937
#
# Static dielectric constant tensor:
#      x y z
#    x 1.801910 0.000000 -0.016390 
#    y 0.000000 1.833190 0.000000 
#    z -0.016390 0.000000 1.782200 
# 
# From -- ./inp_files/196988.got.cif
#   From: 2010.05.17/outbox.cif.g08.bks.cpg/sg12_99_cif.got.tgz:196988.got - 2010.06.03 13:09:07.
