data_PCOD9222343
_publ_section_title
;
Structure prediction by ZEFSAII (Michael W. Deem and Ramdas Pophale) SiO2 
 PCOD9222343
Probable space group: C 2/M
;
_chemical_formula_sum "Si O2"
_cell_formula_units_Z 40
_cell_length_a 8.798627
_cell_length_b 28.659783
_cell_length_c 14.544648
_cell_angle_alpha 90.000000
_cell_angle_beta 34.775340
_cell_angle_gamma 90.000000
_cell_volume 2091.896300
_symmetry_space_group_name_H-M "C 2/M"
_symmetry_group_IT_number 12
_symmetry_cell_setting 'monoclinic'
loop_
_space_group_symop_operation_xyz
x,y,z
-x,y,-z
-x,-y,-z
x,-y,z
1/2+x,1/2+y,z
1/2-x,1/2+y,-z
1/2-x,1/2-y,-z
1/2+x,1/2-y,z
loop_
_atom_site_type_symbol
_atom_site_label
_atom_site_fract_x
_atom_site_fract_y
_atom_site_fract_z
Si Si1 0.552064 0.074773 0.217249
Si Si2 0.191130 0.500000 0.994109
Si Si3 0.486704 0.287678 0.373218
Si Si4 0.500000 0.372804 0.500000
Si Si5 0.500000 0.651580 0.000000
Si Si6 0.329942 0.000000 0.680485
Si Si7 0.015078 0.224891 0.834483
O O1 0.254526 0.094423 0.360790
O O2 0.604814 0.044261 0.284199
O O3 0.620333 0.043285 0.095301
O O4 0.748189 0.118488 0.112888
O O5 0.511284 0.500000 0.817046
O O6 0.000000 0.500000 0.000000
O O7 0.443865 0.336617 0.444735
O O8 0.526630 0.295141 0.245582
O O9 0.747569 0.262379 0.283948
O O10 0.250000 0.250000 0.500000
O O11 0.568841 0.684555 0.880401
O O12 0.500000 0.000000 0.500000
O O13 0.750000 0.250000 0.000000
#
# Coordination Sequence:
#
# PCOD9222343 Si02
#       7
#     8   4   8   4   4   4   8
#     4  11  25  46  69 102 144 176 224 284 347 408
#     4  11  25  48  79 103 139 176 216 276 350 430
#     4  12  23  43  62  92 134 181 234 288 334 385
#     4  12  26  39  70 104 138 180 244 287 334 396
#     4  12  22  41  70  94 134 180 232 285 334 404
#     4  11  25  48  79 103 139 176 216 272 360 424
#     4  12  23  39  66  90 126 183 236 280 338 387
#
# _framework density 19.121407000000001
#
# number of rings (size 3 to 8) (size 9 to 14) (size 15 to 20)
#    0.000    0.400    6.000    3.000    2.800    4.000 
#    0.000    0.000    0.000    0.000    0.000    0.000 
#    0.000    0.000    0.000    0.000    0.000    0.000 
#
# Total GULP energy -111786.282679 kJ/mol
# GULP energy per Si atom -5589.314134 kJ/mol
# Density = 1.907789 g / cm^3
# Si number density = 19.121407 Si / 1000 Ang^3
#
#
#
# Elastic Constant Matrix: (Units=GPa)
#
#
# Indices 1 2 3 4 5 6 
#
# 1 110.7865 29.0194 49.7774 0.0000 17.9213 0.0000
# 2 29.0194 94.4736 42.2402 0.0000 -2.4128 0.0000
# 3 49.7774 42.2402 144.7850 0.0000 -17.6068 0.0000
# 4 0.0000 0.0000 0.0000 57.3769 0.0000 -10.8999
# 5 17.9213 -2.4128 -17.6068 0.0000 61.0242 0.0000
# 6 0.0000 0.0000 0.0000 -10.8999 0.0000 22.3788
#
#
#
# Elastic Compliance Matrix: (Units=1/GPa)
#
#
# Indices 1 2 3 4 5 6 
#
# 1 0.012236 -0.001997 -0.004219 0.000000 -0.004890 0.000000
# 2 -0.001997 0.012517 -0.002937 0.000000 0.000234 0.000000
# 3 -0.004219 -0.002937 0.009691 0.000000 0.003919 0.000000
# 4 0.000000 0.000000 0.000000 0.019206 0.000000 0.009354
# 5 -0.004890 0.000234 0.003919 0.000000 0.018963 0.000000
# 6 0.000000 0.000000 0.000000 0.009354 0.000000 0.049241
#
#
# Mechanical properties :
#
#
# Convention : Reuss Voigt Hill
#
# Bulk Modulus (GPa) = 61.96303 65.79101 63.87702
# Shear Modulus (GPa) = 34.35518 43.42319 38.88918
#
# Velocity S-wave (km/s) = 4.24333 4.77059 4.51466
# Velocity P-wave (km/s) = 7.51553 8.05148 7.78812
#
# Compressibility (1/GPa) = 0.01613866
#
# Stress axis : x y z
#
# Youngs Moduli (GPa) = 81.72637 79.88821 103.19355
#
# Poissons Ratio (x) = 0.15955 0.43534
# Poissons Ratio (y) = 0.16322 0.30306
# Poissons Ratio (z) = 0.34478 0.23462
#
# Static dielectric constant tensor:
#      x y z
#    x 1.667670 0.000000 0.010510 
#    y 0.000000 1.527700 0.000000 
#    z 0.010510 0.000000 1.628490 
# 
# From -- ./inp_files/201159.got.cif
#   From: 2010.05.17/outbox.cif.g08.bks.cpg/sg12_101_cif.got.tgz:201159.got - 2010.06.03 13:09:07.
