data_PCOD9222400
_publ_section_title
;
Structure prediction by ZEFSAII (Michael W. Deem and Ramdas Pophale) SiO2 
 PCOD9222400
Probable space group: C 2/M
;
_chemical_formula_sum "Si O2"
_cell_formula_units_Z 32
_cell_length_a 13.411126
_cell_length_b 5.677654
_cell_length_c 15.894671
_cell_angle_alpha 90.000000
_cell_angle_beta 86.505728
_cell_angle_gamma 90.000000
_cell_volume 1208.029553
_symmetry_space_group_name_H-M "C 2/M"
_symmetry_group_IT_number 12
_symmetry_cell_setting 'monoclinic'
loop_
_space_group_symop_operation_xyz
x,y,z
-x,y,-z
-x,-y,-z
x,-y,z
1/2+x,1/2+y,z
1/2-x,1/2+y,-z
1/2-x,1/2-y,-z
1/2+x,1/2-y,z
loop_
_atom_site_type_symbol
_atom_site_label
_atom_site_fract_x
_atom_site_fract_y
_atom_site_fract_z
Si Si1 0.184480 0.000000 0.498614
Si Si2 0.289182 0.750372 0.205926
Si Si3 0.491600 0.500000 0.628923
Si Si4 0.380562 0.750091 0.013780
Si Si5 0.050627 0.750011 0.208136
O O1 0.250000 0.250000 0.500000
O O2 0.111205 0.000000 0.420170
O O3 0.095257 0.000000 0.573293
O O4 0.315267 0.500000 0.246375
O O5 0.339489 0.751422 0.111081
O O6 0.170053 0.748662 0.201607
O O7 0.313086 0.000000 0.247737
O O8 0.483189 0.280979 0.693817
O O9 0.347873 0.500000 0.977451
O O10 0.349335 0.000000 0.976041
O O11 0.500000 0.750307 0.000000
O O12 0.015800 0.500000 0.175740
O O13 0.018677 0.000000 0.170009
#
# Coordination Sequence:
#
# PCOD9222400 Si02
#       5
#     4   8   4   8   8
#     4  11  26  39  58  84 106 135 170 207 250 304
#     4   8  12  19  29  50  73  99 150 186 217 281
#     4   9  22  38  60  74 111 134 168 208 255 296
#     4   8  12  16  23  36  63 100 136 178 222 265
#     4   8  15  25  46  66  86 123 157 195 241 285
#
# _framework density 26.489417
#
# number of rings (size 3 to 8) (size 9 to 14) (size 15 to 20)
#    0.750    2.750    0.000    0.000    3.500    1.000 
#    0.000    0.000    0.000    0.000    0.000    0.000 
#    0.000    0.000    0.000    0.000    0.000   10.000 
#
# Total GULP energy -89251.715672 kJ/mol
# GULP energy per Si atom -5578.232229 kJ/mol
# Density = 2.642913 g / cm^3
# Si number density = 26.489417 Si / 1000 Ang^3
#
#
#
# Elastic Constant Matrix: (Units=GPa)
#
#
# Indices 1 2 3 4 5 6 
#
# 1 218.6781 50.4689 43.7096 0.0000 -48.6024 0.0000
# 2 50.4689 364.3570 40.6177 0.0000 13.6806 0.0000
# 3 43.7096 40.6177 114.1640 0.0000 -23.0280 0.0000
# 4 0.0000 0.0000 0.0000 18.8329 0.0000 -9.0911
# 5 -48.6024 13.6806 -23.0280 0.0000 49.3404 0.0000
# 6 0.0000 0.0000 0.0000 -9.0911 0.0000 -24.8426
#
#
#
# Elastic Compliance Matrix: (Units=1/GPa)
#
#
# Indices 1 2 3 4 5 6 
#
# 1 0.006337 -0.001016 -0.000827 0.000000 0.006138 0.000000
# 2 -0.001016 0.003111 -0.001207 0.000000 -0.002427 0.000000
# 3 -0.000827 -0.001207 0.010386 0.000000 0.004368 0.000000
# 4 0.000000 0.000000 0.000000 0.045127 0.000000 -0.016514
# 5 0.006138 -0.002427 0.004368 0.000000 0.029025 0.000000
# 6 0.000000 0.000000 0.000000 -0.016514 0.000000 -0.034210
#
#
# Mechanical properties :
#
#
# Convention : Reuss Voigt Hill
#
# Bulk Modulus (GPa) = 72.81043 107.42130 90.11586
# Shear Modulus (GPa) = 70.96801 46.15967 58.56384
#
# Velocity S-wave (km/s) = 5.18163 4.17894 4.70706
# Velocity P-wave (km/s) = 7.95897 7.99533 7.97717
#
# Compressibility (1/GPa) = 0.01373430
#
# Stress axis : x y z
#
# Youngs Moduli (GPa) = 157.80694 321.43769 96.27928
#
# Poissons Ratio (x) = 0.32660 0.07958
# Poissons Ratio (y) = 0.16034 0.11625
# Poissons Ratio (z) = 0.13044 0.38810
#
# Static dielectric constant tensor:
#      x y z
#    x 2.036190 0.000000 -0.044380 
#    y 0.000000 2.140560 0.000000 
#    z -0.044380 0.000000 2.009660 
# 
# From -- ./inp_files/307733.got.cif
#   From: 2010.05.17/outbox.cif.g08.bks.cpg/sg12_154_cif.got.tgz:307733.got - 2010.06.03 13:09:07.
