data_PCOD9222313
_publ_section_title
;
Structure prediction by ZEFSAII (Michael W. Deem and Ramdas Pophale) SiO2 
 PCOD9222313
Probable space group: C 2/M
;
_chemical_formula_sum "Si O2"
_cell_formula_units_Z 36
_cell_length_a 9.988236
_cell_length_b 15.478905
_cell_length_c 10.896521
_cell_angle_alpha 90.000000
_cell_angle_beta 71.294648
_cell_angle_gamma 90.000000
_cell_volume 1595.693803
_symmetry_space_group_name_H-M "C 2/M"
_symmetry_group_IT_number 12
_symmetry_cell_setting 'monoclinic'
loop_
_space_group_symop_operation_xyz
x,y,z
-x,y,-z
-x,-y,-z
x,-y,z
1/2+x,1/2+y,z
1/2-x,1/2+y,-z
1/2-x,1/2-y,-z
1/2+x,1/2-y,z
loop_
_atom_site_type_symbol
_atom_site_label
_atom_site_fract_x
_atom_site_fract_y
_atom_site_fract_z
Si Si1 0.917623 0.867265 0.148956
Si Si2 0.102063 0.000000 0.631948
Si Si3 0.139958 0.672327 0.825380
Si Si4 0.337083 0.672993 0.540169
Si Si5 0.844779 0.402469 0.923059
O O1 0.952520 0.925499 0.253545
O O2 0.930451 0.766185 0.169783
O O3 0.752617 0.882367 0.164010
O O4 0.000000 0.890018 0.000000
O O5 0.160216 0.921439 0.524680
O O6 0.265104 0.661950 0.693753
O O7 0.009692 0.607313 0.844618
O O8 0.187731 0.658986 0.951884
O O9 0.500000 0.700797 0.500000
O O10 0.250000 0.750000 0.500000
O O11 0.814858 0.500000 0.971274
#
# Coordination Sequence:
#
# PCOD9222313 Si02
#       5
#     8   4   8   8   8
#     4  12  25  45  75 110 148 189 250 314 375 445
#     4  12  28  50  69 114 148 206 247 302 377 442
#     4  11  25  45  74 104 147 192 248 303 380 440
#     4  12  30  51  78 108 153 204 250 306 370 457
#     4  11  25  44  73 111 143 190 247 319 379 433
#
# _framework density 22.560718999999999
#
# number of rings (size 3 to 8) (size 9 to 14) (size 15 to 20)
#    0.000    0.444    5.556    2.667    9.333    0.000 
#    0.000    1.667    0.000    0.000    0.000    0.000 
#    0.000    0.000    0.000    0.000    0.000    0.000 
#
# Total GULP energy -100222.852304 kJ/mol
# GULP energy per Si atom -5567.936239 kJ/mol
# Density = 2.250937 g / cm^3
# Si number density = 22.560719 Si / 1000 Ang^3
#
#
#
# Elastic Constant Matrix: (Units=GPa)
#
#
# Indices 1 2 3 4 5 6 
#
# 1 78.4652 18.8387 28.5595 0.0000 -10.4568 0.0000
# 2 18.8387 167.8631 28.6809 0.0000 7.6925 0.0000
# 3 28.5595 28.6809 153.8835 0.0000 -37.0306 0.0000
# 4 0.0000 0.0000 0.0000 30.2737 0.0000 -12.3359
# 5 -10.4568 7.6925 -37.0306 0.0000 18.6643 0.0000
# 6 0.0000 0.0000 0.0000 -12.3359 0.0000 2.5309
#
#
#
# Elastic Compliance Matrix: (Units=1/GPa)
#
#
# Indices 1 2 3 4 5 6 
#
# 1 0.014427 -0.001936 -0.000344 0.000000 0.008199 0.000000
# 2 -0.001936 0.007368 -0.003838 0.000000 -0.011737 0.000000
# 3 -0.000344 -0.003838 0.014567 0.000000 0.030290 0.000000
# 4 0.000000 0.000000 0.000000 -0.033497 0.000000 -0.163271
# 5 0.008199 -0.011737 0.030290 0.000000 0.123105 0.000000
# 6 0.000000 0.000000 0.000000 -0.163271 0.000000 -0.400687
#
#
# Mechanical properties :
#
#
# Convention : Reuss Voigt Hill
#
# Bulk Modulus (GPa) = 41.44980 61.37445 51.41212
# Shear Modulus (GPa) = -19.65108 31.90263 6.12578
#
# Velocity S-wave (km/s) = -2.95452 3.76450 1.64959
# Velocity P-wave (km/s) = 2.60259 6.79400 5.14451
#
# Compressibility (1/GPa) = 0.02412557
#
# Stress axis : x y z
#
# Youngs Moduli (GPa) = 69.31407 135.71887 68.65035
#
# Poissons Ratio (x) = 0.26276 0.02360
# Poissons Ratio (y) = 0.13420 0.26350
# Poissons Ratio (z) = 0.02383 0.52093
#
# Static dielectric constant tensor:
#      x y z
#    x 1.914740 0.000000 0.028860 
#    y 0.000000 1.811730 0.000000 
#    z 0.028860 0.000000 1.820620 
# 
# From -- ./inp_files/128970.got.cif
#   From: 2010.05.17/outbox.cif.g08.bks.cpg/sg12_65_cif.got.tgz:128970.got - 2010.06.03 13:09:07.
