data_PCOD9222969
_publ_section_title
;
Structure prediction by ZEFSAII (Michael W. Deem and Ramdas Pophale) SiO2 
 PCOD9222969
Probable space group: C 2/M
;
_chemical_formula_sum "Si O2"
_cell_formula_units_Z 48
_cell_length_a 15.910307
_cell_length_b 7.431200
_cell_length_c 16.504311
_cell_angle_alpha 90.000000
_cell_angle_beta 61.975100
_cell_angle_gamma 90.000000
_cell_volume 1722.540447
_symmetry_space_group_name_H-M "C 2/M"
_symmetry_group_IT_number 12
_symmetry_cell_setting 'monoclinic'
loop_
_space_group_symop_operation_xyz
x,y,z
-x,y,-z
-x,-y,-z
x,-y,z
1/2+x,1/2+y,z
1/2-x,1/2+y,-z
1/2-x,1/2-y,-z
1/2+x,1/2-y,z
loop_
_atom_site_type_symbol
_atom_site_label
_atom_site_fract_x
_atom_site_fract_y
_atom_site_fract_z
Si Si1 0.007621 0.786505 0.108467
Si Si2 0.696021 0.211037 0.939194
Si Si3 0.882230 0.221728 0.779017
Si Si4 0.110512 0.791736 0.396902
Si Si5 0.668224 0.718577 0.722879
Si Si6 0.136975 0.785157 0.559925
O O1 0.062950 0.723960 0.164771
O O2 0.900239 0.717664 0.173039
O O3 0.997216 0.000000 0.117793
O O4 0.085780 0.761870 0.002205
O O5 0.772709 0.286261 0.840612
O O6 0.695613 0.000000 0.928592
O O7 0.750000 0.250000 0.000000
O O8 0.923107 0.283883 0.674316
O O9 0.884083 0.000000 0.777241
O O10 0.225235 0.790292 0.331744
O O11 0.093664 0.714687 0.494560
O O12 0.081871 0.000000 0.411470
O O13 0.675768 0.500000 0.719753
O O14 0.617483 0.771938 0.660687
O O15 0.250000 0.750000 0.500000
O O16 0.121863 0.000000 0.565661
#
# Coordination Sequence:
#
# PCOD9222969 Si02
#       6
#     8   8   8   8   8   8
#     4   9  17  30  46  63  87 116 144 176 212 252
#     4   9  16  28  46  65  86 113 145 177 210 253
#     4   8  15  28  45  64  85 110 140 176 215 251
#     4   9  16  28  46  65  85 111 144 177 210 255
#     4   9  17  29  44  64  89 114 141 176 216 251
#     4   8  14  25  42  62  83 110 142 172 206 252
#
# _framework density 27.865821
#
# number of rings (size 3 to 8) (size 9 to 14) (size 15 to 20)
#    0.000    3.333    0.000    1.500    0.000    0.667 
#    0.000    5.833    0.000   10.000    0.000    0.000 
#    0.000   18.667    0.000    0.000    0.000    0.000 
#
# Total GULP energy -134093.405459 kJ/mol
# GULP energy per Si atom -5587.225227 kJ/mol
# Density = 2.780240 g / cm^3
# Si number density = 27.865821 Si / 1000 Ang^3
#
#
#
# Elastic Constant Matrix: (Units=GPa)
#
#
# Indices 1 2 3 4 5 6 
#
# 1 100.9427 5.3662 17.6179 0.0000 -23.8735 0.0001
# 2 5.3662 105.1864 5.1662 0.0000 -5.8229 0.0002
# 3 17.6179 5.1662 228.4700 0.0000 -17.8621 0.0000
# 4 0.0000 0.0000 0.0000 3.5824 0.0000 6.3500
# 5 -23.8735 -5.8229 -17.8621 0.0000 64.0272 0.0000
# 6 0.0001 0.0002 0.0000 6.3500 0.0000 0.1291
#
#
#
# Elastic Compliance Matrix: (Units=1/GPa)
#
#
# Indices 1 2 3 4 5 6 
#
# 1 0.010939 -0.000316 -0.000531 0.000000 0.003902 0.000000
# 2 -0.000316 0.009569 -0.000136 0.000000 0.000714 0.000000
# 3 -0.000531 -0.000136 0.004503 0.000000 0.001046 0.000000
# 4 0.000000 0.000000 0.000000 -0.003239 0.000000 0.159309
# 5 0.003902 0.000714 0.001046 0.000000 0.017430 0.000000
# 6 0.000000 0.000000 0.000000 0.159309 0.000000 -0.089875
#
#
# Mechanical properties :
#
#
# Convention : Reuss Voigt Hill
#
# Bulk Modulus (GPa) = 43.39520 54.54442 48.96981
# Shear Modulus (GPa) = -121.87696 40.64432 -40.61632
#
# Velocity S-wave (km/s) = -6.62058 3.82327 -3.82195
# Velocity P-wave (km/s) = 6.54492 6.25350 1.36559
#
# Compressibility (1/GPa) = 0.02304403
#
# Stress axis : x y z
#
# Youngs Moduli (GPa) = 91.41654 104.50097 222.08676
#
# Poissons Ratio (x) = 0.03302 0.11800
# Poissons Ratio (y) = 0.02889 0.03024
# Poissons Ratio (z) = 0.04857 0.01423
#
# Static dielectric constant tensor:
#      x y z
#    x 2.310700 0.000000 0.009370 
#    y 0.000000 2.140150 0.000000 
#    z 0.009370 0.000000 2.195880 
# 
# From -- ./inp_files/274011.got.cif
#   From: 2010.05.17/outbox.cif.g08.bks.cpg/sg12_138_cif.got.tgz:274011.got - 2010.06.03 13:09:07.
