data_PCOD9222282
_publ_section_title
;
Structure prediction by ZEFSAII (Michael W. Deem and Ramdas Pophale) SiO2 
 PCOD9222282
Probable space group: C 2/M
;
_chemical_formula_sum "Si O2"
_cell_formula_units_Z 58
_cell_length_a 8.939508
_cell_length_b 23.931135
_cell_length_c 21.967163
_cell_angle_alpha 90.000000
_cell_angle_beta 142.793374
_cell_angle_gamma 90.000000
_cell_volume 2841.741396
_symmetry_space_group_name_H-M "C 2/M"
_symmetry_group_IT_number 12
_symmetry_cell_setting 'monoclinic'
loop_
_space_group_symop_operation_xyz
x,y,z
-x,y,-z
-x,-y,-z
x,-y,z
1/2+x,1/2+y,z
1/2-x,1/2+y,-z
1/2-x,1/2-y,-z
1/2+x,1/2-y,z
loop_
_atom_site_type_symbol
_atom_site_label
_atom_site_fract_x
_atom_site_fract_y
_atom_site_fract_z
Si Si1 0.109250 0.784563 0.602744
Si Si2 0.739647 0.726927 0.927669
Si Si3 0.019397 0.117733 0.147862
Si Si4 0.590495 0.165198 0.812762
Si Si5 0.000000 0.000000 0.000000
Si Si6 0.024145 0.937377 0.744185
Si Si7 0.403931 0.085212 0.078250
Si Si8 0.225024 0.170547 0.395510
O O1 0.344487 0.822369 0.695604
O O2 0.212086 0.720758 0.631784
O O3 0.000000 0.796108 0.500000
O O4 0.909840 0.798414 0.591078
O O5 0.529453 0.681601 0.848340
O O6 0.719258 0.776593 0.872391
O O7 0.750000 0.750000 0.000000
O O8 0.000000 0.698036 0.000000
O O9 0.078110 0.076686 0.221716
O O10 0.233287 0.124476 0.167883
O O11 0.764133 0.098471 0.034308
O O12 0.542817 0.139039 0.863164
O O13 0.785951 0.952852 0.945407
O O14 0.323179 0.937620 0.845940
O O15 0.934256 0.883225 0.676622
O O16 0.948479 0.000000 0.699241
O O17 0.500000 0.149043 0.500000
#
# Coordination Sequence:
#
# PCOD9222282 Si02
#       8
#     8   8   8   8   2   8   8   8
#     4  11  25  43  75 109 138 179 227 294 365 435
#     4  12  22  38  58  94 137 179 221 272 345 421
#     4  12  26  39  63  95 141 182 233 275 341 416
#     4  12  24  40  66  97 138 178 228 280 355 420
#     4  12  24  40  74  88 140 188 248 282 340 396
#     4  12  28  45  70 102 138 190 242 293 345 411
#     4  12  23  45  64  98 132 189 231 287 335 410
#     4  11  25  48  75 104 142 179 230 295 364 424
#
# _framework density 20.410019999999999
#
# number of rings (size 3 to 8) (size 9 to 14) (size 15 to 20)
#    0.000    0.276    6.207    3.724    6.759    0.828 
#    0.000    0.000    0.000    0.414    0.000    0.000 
#    0.000    0.000    0.000    0.000    0.000    0.000 
#
# Total GULP energy -161568.964353 kJ/mol
# GULP energy per Si atom -5571.343598 kJ/mol
# Density = 2.036357 g / cm^3
# Si number density = 20.410020 Si / 1000 Ang^3
#
#
#
# Elastic Constant Matrix: (Units=GPa)
#
#
# Indices 1 2 3 4 5 6 
#
# 1 104.3524 35.8565 29.8897 0.0001 11.1573 -0.0003
# 2 35.8565 107.2752 35.0443 0.0001 -6.3050 -0.0001
# 3 29.8897 35.0443 101.0909 0.0005 1.0258 -0.0014
# 4 0.0001 0.0001 0.0005 64.6321 0.0003 -51.6590
# 5 11.1573 -6.3050 1.0258 0.0003 27.3356 -0.0008
# 6 -0.0003 -0.0001 -0.0014 -51.6590 -0.0008 108.9530
#
#
#
# Elastic Compliance Matrix: (Units=1/GPa)
#
#
# Indices 1 2 3 4 5 6 
#
# 1 0.012087 -0.003638 -0.002255 0.000000 -0.005688 0.000000
# 2 -0.003638 0.011790 -0.003055 0.000000 0.004319 0.000000
# 3 -0.002255 -0.003055 0.011620 0.000000 -0.000220 0.000000
# 4 0.000000 0.000000 0.000000 0.024914 0.000000 0.011813
# 5 -0.005688 0.004319 -0.000220 0.000000 0.039908 0.000000
# 6 0.000000 0.000000 0.000000 0.011813 0.000000 0.014779
#
#
# Mechanical properties :
#
#
# Convention : Reuss Voigt Hill
#
# Bulk Modulus (GPa) = 56.81543 57.14438 56.97991
# Shear Modulus (GPa) = 36.00735 54.31269 45.16002
#
# Velocity S-wave (km/s) = 4.20479 5.16416 4.70897
# Velocity P-wave (km/s) = 7.17434 7.97603 7.58578
#
# Compressibility (1/GPa) = 0.01760085
#
# Stress axis : x y z
#
# Youngs Moduli (GPa) = 82.73429 84.82042 86.05696
#
# Poissons Ratio (x) = 0.30855 0.19406
# Poissons Ratio (y) = 0.30096 0.26293
# Poissons Ratio (z) = 0.18657 0.25915
#
# Static dielectric constant tensor:
#      x y z
#    x 1.814930 0.000000 -0.036920 
#    y 0.000000 1.746990 0.000000 
#    z -0.036920 0.000000 1.748050 
# 
# From -- ./inp_files/302491.got.cif
#   From: 2010.05.17/outbox.cif.g08.bks.cpg/sg12_152_cif.got.tgz:302491.got - 2010.06.03 13:09:07.
