data_PCOD9222881
_publ_section_title
;
Structure prediction by ZEFSAII (Michael W. Deem and Ramdas Pophale) SiO2 
 PCOD9222881
Probable space group: C 2/M
;
_chemical_formula_sum "Si O2"
_cell_formula_units_Z 64
_cell_length_a 15.678164
_cell_length_b 7.455778
_cell_length_c 19.617188
_cell_angle_alpha 90.000000
_cell_angle_beta 100.430567
_cell_angle_gamma 90.000000
_cell_volume 2255.216607
_symmetry_space_group_name_H-M "C 2/M"
_symmetry_group_IT_number 12
_symmetry_cell_setting 'monoclinic'
loop_
_space_group_symop_operation_xyz
x,y,z
-x,y,-z
-x,-y,-z
x,-y,z
1/2+x,1/2+y,z
1/2-x,1/2+y,-z
1/2-x,1/2-y,-z
1/2+x,1/2-y,z
loop_
_atom_site_type_symbol
_atom_site_label
_atom_site_fract_x
_atom_site_fract_y
_atom_site_fract_z
Si Si1 0.818196 0.708305 0.672158
Si Si2 0.492735 0.212979 0.835936
Si Si3 0.426830 0.217620 0.288728
Si Si4 0.545407 0.220028 0.421739
Si Si5 0.241925 0.290685 0.197840
Si Si6 0.592090 0.286789 0.042416
Si Si7 0.322067 0.786687 0.451781
Si Si8 0.818889 0.209941 0.073730
O O1 0.842651 0.500000 0.685379
O O2 0.883106 0.778683 0.624392
O O3 0.811724 0.789296 0.746553
O O4 0.724242 0.713439 0.622031
O O5 0.501021 0.267711 0.758277
O O6 0.415388 0.257740 0.877538
O O7 0.582007 0.279706 0.882956
O O8 0.496536 0.000000 0.836165
O O9 0.458454 0.271757 0.368507
O O10 0.338120 0.291740 0.246068
O O11 0.419044 0.000000 0.288229
O O12 0.588060 0.276567 0.499845
O O13 0.544283 0.000000 0.425221
O O14 0.217409 0.500000 0.184924
O O15 0.260924 0.206100 0.126113
O O16 0.592154 0.500000 0.032816
O O17 0.500000 0.214886 0.000000
O O18 0.666169 0.216656 0.001178
O O19 0.250000 0.750000 0.500000
O O20 0.330349 0.000000 0.442757
O O21 0.800462 0.000000 0.068878
#
# Coordination Sequence:
#
# PCOD9222881 Si02
#       8
#     8   8   8   8   8   8   8   8
#     4   9  17  30  48  67  86 109 139 176 212 246
#     4   9  15  21  33  54  77 101 131 168 204 237
#     4   9  17  29  43  60  85 114 141 169 205 251
#     4   8  15  29  47  64  82 108 141 172 203 244
#     4   9  17  29  44  63  87 112 139 173 212 249
#     4   8  13  21  33  49  72 103 134 164 199 240
#     4   9  16  28  47  67  86 109 139 176 212 245
#     4   8  14  24  36  51  75 106 135 163 200 244
#
# _framework density 28.378647000000001
#
# number of rings (size 3 to 8) (size 9 to 14) (size 15 to 20)
#    0.000    3.375    0.000    2.250    0.000    3.250 
#    0.000    3.750    0.000    3.750    0.000    0.875 
#    0.000    0.000    0.000    0.000    0.000    0.000 
#
# Total GULP energy -178892.876626 kJ/mol
# GULP energy per Si atom -5590.402395 kJ/mol
# Density = 2.831406 g / cm^3
# Si number density = 28.378647 Si / 1000 Ang^3
#
#
#
# Elastic Constant Matrix: (Units=GPa)
#
#
# Indices 1 2 3 4 5 6 
#
# 1 96.8655 8.9772 3.3244 0.0000 -11.6599 0.0000
# 2 8.9772 95.1271 3.4274 0.0000 -3.3714 0.0000
# 3 3.3244 3.4274 252.9124 0.0000 -12.5432 0.0000
# 4 0.0000 0.0000 0.0000 27.2357 0.0000 11.2563
# 5 -11.6599 -3.3714 -12.5432 0.0000 62.4889 0.0000
# 6 0.0000 0.0000 0.0000 11.2563 0.0000 24.0469
#
#
#
# Elastic Compliance Matrix: (Units=1/GPa)
#
#
# Indices 1 2 3 4 5 6 
#
# 1 0.010644 -0.000935 -0.000032 0.000000 0.001929 0.000000
# 2 -0.000935 0.010618 -0.000113 0.000000 0.000376 0.000000
# 3 -0.000032 -0.000113 0.003995 0.000000 0.000790 0.000000
# 4 0.000000 0.000000 0.000000 0.045524 0.000000 -0.021310
# 5 0.001929 0.000376 0.000790 0.000000 0.016542 0.000000
# 6 0.000000 0.000000 0.000000 -0.021310 0.000000 0.051561
#
#
# Mechanical properties :
#
#
# Convention : Reuss Voigt Hill
#
# Bulk Modulus (GPa) = 43.29460 52.92923 48.11191
# Shear Modulus (GPa) = 33.61561 51.36601 42.49081
#
# Velocity S-wave (km/s) = 3.44545 4.25905 3.87367
# Velocity P-wave (km/s) = 5.57829 6.54810 6.08255
#
# Compressibility (1/GPa) = 0.02309757
#
# Stress axis : x y z
#
# Youngs Moduli (GPa) = 93.95370 94.18088 250.30908
#
# Poissons Ratio (x) = 0.08805 0.00790
# Poissons Ratio (y) = 0.08784 0.02828
# Poissons Ratio (z) = 0.00296 0.01064
#
# Static dielectric constant tensor:
#      x y z
#    x 2.452770 0.000000 -0.079390 
#    y 0.000000 2.087220 0.000000 
#    z -0.079390 0.000000 2.288230 
# 
# From -- ./inp_files/319204.got.cif
#   From: 2010.05.17/outbox.cif.g08.bks.cpg/sg12_160_cif.got.tgz:319204.got - 2010.06.03 13:09:07.
