data_PCOD9222268
_publ_section_title
;
Structure prediction by ZEFSAII (Michael W. Deem and Ramdas Pophale) SiO2 
 PCOD9222268
Probable space group: C 2/M
;
_chemical_formula_sum "Si O2"
_cell_formula_units_Z 40
_cell_length_a 19.454028
_cell_length_b 9.096309
_cell_length_c 13.707071
_cell_angle_alpha 90.000000
_cell_angle_beta 46.194187
_cell_angle_gamma 90.000000
_cell_volume 1750.532156
_symmetry_space_group_name_H-M "C 2/M"
_symmetry_group_IT_number 12
_symmetry_cell_setting 'monoclinic'
loop_
_space_group_symop_operation_xyz
x,y,z
-x,y,-z
-x,-y,-z
x,-y,z
1/2+x,1/2+y,z
1/2-x,1/2+y,-z
1/2-x,1/2-y,-z
1/2+x,1/2-y,z
loop_
_atom_site_type_symbol
_atom_site_label
_atom_site_fract_x
_atom_site_fract_y
_atom_site_fract_z
Si Si1 0.621738 0.829490 0.289820
Si Si2 0.381974 0.825785 0.924950
Si Si3 0.779333 0.172831 0.628926
Si Si4 0.889218 0.174470 0.113307
Si Si5 0.068440 0.668693 0.633676
O O1 0.658634 0.796056 0.143382
O O2 0.662530 0.724231 0.331516
O O3 0.507816 0.822131 0.381554
O O4 0.644615 0.000000 0.291508
O O5 0.495692 0.800216 0.793243
O O6 0.368813 0.000000 0.958617
O O7 0.351436 0.727162 0.044635
O O8 0.676957 0.248469 0.741893
O O9 0.843662 0.228910 0.476476
O O10 0.768264 0.000000 0.637279
O O11 0.882769 0.000000 0.130624
O O12 0.000000 0.217112 0.000000
O O13 0.100741 0.500000 0.608876
#
# Coordination Sequence:
#
# PCOD9222268 Si02
#       5
#     8   8   8   8   8
#     4   8  17  34  58  85 118 151 178 218 275 331
#     4   8  18  37  61  85 112 146 181 225 280 327
#     4  12  23  33  55  88 117 149 187 226 271 326
#     4  11  25  43  60  77 104 146 192 237 283 330
#     4   8  17  35  58  85 118 150 179 218 275 332
#
# _framework density 22.850193000000001
#
# number of rings (size 3 to 8) (size 9 to 14) (size 15 to 20)
#    1.200    1.400    0.000    3.000    0.000    7.200 
#    0.000    1.000    0.000    0.000    0.000    0.000 
#    0.000    0.000    0.000    0.000    0.000    0.000 
#
# Total GULP energy -111652.654398 kJ/mol
# GULP energy per Si atom -5582.632720 kJ/mol
# Density = 2.279818 g / cm^3
# Si number density = 22.850193 Si / 1000 Ang^3
#
#
#
# Elastic Constant Matrix: (Units=GPa)
#
#
# Indices 1 2 3 4 5 6 
#
# 1 72.5125 11.3969 15.2732 0.0000 -10.4747 0.0000
# 2 11.3969 62.9014 56.5488 -0.0002 -0.7480 -0.0001
# 3 15.2732 56.5488 97.8108 -0.0001 -5.9296 0.0000
# 4 0.0000 -0.0002 -0.0001 35.5554 0.0000 -4.9542
# 5 -10.4747 -0.7480 -5.9296 0.0000 33.5917 0.0000
# 6 0.0000 -0.0001 0.0000 -4.9542 0.0000 7.7090
#
#
#
# Elastic Compliance Matrix: (Units=1/GPa)
#
#
# Indices 1 2 3 4 5 6 
#
# 1 0.014923 -0.001660 -0.001102 0.000000 0.004422 0.000000
# 2 -0.001660 0.033527 -0.019317 0.000000 -0.003181 0.000000
# 3 -0.001102 -0.019317 0.021750 0.000000 0.003065 0.000000
# 4 0.000000 0.000000 0.000000 0.030891 0.000000 0.019852
# 5 0.004422 -0.003181 0.003065 0.000000 0.031618 0.000000
# 6 0.000000 0.000000 0.000000 0.019852 0.000000 0.142477
#
#
# Mechanical properties :
#
#
# Convention : Reuss Voigt Hill
#
# Bulk Modulus (GPa) = 38.40203 44.40695 41.40449
# Shear Modulus (GPa) = 15.24271 25.37160 20.30716
#
# Velocity S-wave (km/s) = 2.58557 3.33580 2.98436
# Velocity P-wave (km/s) = 5.07504 5.85772 5.48037
#
# Compressibility (1/GPa) = 0.02604029
#
# Stress axis : x y z
#
# Youngs Moduli (GPa) = 67.01264 29.82658 45.97731
#
# Poissons Ratio (x) = 0.04952 0.05068
# Poissons Ratio (y) = 0.11126 0.88815
# Poissons Ratio (z) = 0.07386 0.57616
#
# Static dielectric constant tensor:
#      x y z
#    x 1.919690 0.000000 -0.023970 
#    y 0.000000 1.747180 0.000000 
#    z -0.023970 0.000000 1.919540 
# 
# From -- ./inp_files/328879.got.cif
#   From: 2010.05.17/outbox.cif.g08.bks.cpg/sg12_165_cif.got.tgz:328879.got - 2010.06.03 13:09:07.
