data_PCOD9222873
_publ_section_title
;
Structure prediction by ZEFSAII (Michael W. Deem and Ramdas Pophale) SiO2 
 PCOD9222873
Probable space group: C 2/M
;
_chemical_formula_sum "Si O2"
_cell_formula_units_Z 48
_cell_length_a 13.371600
_cell_length_b 24.997687
_cell_length_c 9.151709
_cell_angle_alpha 90.000000
_cell_angle_beta 44.896924
_cell_angle_gamma 90.000000
_cell_volume 2159.174274
_symmetry_space_group_name_H-M "C 2/M"
_symmetry_group_IT_number 12
_symmetry_cell_setting 'monoclinic'
loop_
_space_group_symop_operation_xyz
x,y,z
-x,y,-z
-x,-y,-z
x,-y,z
1/2+x,1/2+y,z
1/2-x,1/2+y,-z
1/2-x,1/2-y,-z
1/2+x,1/2-y,z
loop_
_atom_site_type_symbol
_atom_site_label
_atom_site_fract_x
_atom_site_fract_y
_atom_site_fract_z
Si Si1 0.942574 0.440742 0.392481
Si Si2 0.566375 0.833471 0.729513
Si Si3 0.830533 0.058005 0.158622
Si Si4 0.309446 0.672568 0.228383
Si Si5 0.266945 0.710066 0.751662
Si Si6 0.513686 0.715794 0.250260
O O1 0.984970 0.500000 0.298816
O O2 0.993792 0.392291 0.238350
O O3 0.770566 0.442003 0.592292
O O4 0.000000 0.433590 0.500000
O O5 0.681065 0.830119 0.478493
O O6 0.648172 0.826289 0.798543
O O7 0.477026 0.779172 0.799196
O O8 0.800958 0.118956 0.140862
O O9 0.794527 0.000000 0.123826
O O10 0.000000 0.056919 0.000000
O O11 0.287794 0.729202 0.173370
O O12 0.447863 0.680767 0.187989
O O13 0.388380 0.713901 0.501264
O O14 0.348503 0.693548 0.812045
#
# Coordination Sequence:
#
# PCOD9222873 Si02
#       6
#     8   8   8   8   8   8
#     4   9  17  26  39  60  82 103 129 163 199 231
#     4   8  14  21  34  55  79 102 126 157 196 232
#     4   9  17  28  41  56  78 108 134 159 195 235
#     4   8  14  23  35  55  75 100 132 161 192 227
#     4   8  13  21  34  56  76 101 130 157 192 233
#     4   8  13  20  35  55  79 100 126 162 194 229
#
# _framework density 22.230722
#
# number of rings (size 3 to 8) (size 9 to 14) (size 15 to 20)
#    0.000    3.667    0.000    2.000    7.000    0.000 
#    0.000    0.000    0.000    2.000    0.000    7.000 
#    0.000    0.000    0.000    8.333    0.000    8.667 
#
# Total GULP energy -133655.124156 kJ/mol
# GULP energy per Si atom -5568.963506 kJ/mol
# Density = 2.218012 g / cm^3
# Si number density = 22.230722 Si / 1000 Ang^3
#
#
#
# Elastic Constant Matrix: (Units=GPa)
#
#
# Indices 1 2 3 4 5 6 
#
# 1 95.9126 41.8866 25.1966 0.0000 1.9288 0.0000
# 2 41.8866 183.2816 34.4614 0.0000 13.1008 0.0000
# 3 25.1966 34.4614 65.5716 0.0000 -2.6638 0.0000
# 4 0.0000 0.0000 0.0000 30.1261 0.0000 1.9204
# 5 1.9288 13.1008 -2.6638 0.0000 33.1546 0.0000
# 6 0.0000 0.0000 0.0000 1.9204 0.0000 16.4723
#
#
#
# Elastic Compliance Matrix: (Units=1/GPa)
#
#
# Indices 1 2 3 4 5 6 
#
# 1 0.012307 -0.002119 -0.003622 0.000000 -0.000169 0.000000
# 2 -0.002119 0.006662 -0.002798 0.000000 -0.002734 0.000000
# 3 -0.003622 -0.002798 0.018226 0.000000 0.002781 0.000000
# 4 0.000000 0.000000 0.000000 0.033442 0.000000 -0.003899
# 5 -0.000169 -0.002734 0.002781 0.000000 0.031475 0.000000
# 6 0.000000 0.000000 0.000000 -0.003899 0.000000 0.061162
#
#
# Mechanical properties :
#
#
# Convention : Reuss Voigt Hill
#
# Bulk Modulus (GPa) = 49.71225 60.87278 55.29252
# Shear Modulus (GPa) = 26.72968 32.16536 29.44752
#
# Velocity S-wave (km/s) = 3.47129 3.80792 3.64350
# Velocity P-wave (km/s) = 6.20298 6.83926 6.52888
#
# Compressibility (1/GPa) = 0.02011576
#
# Stress axis : x y z
#
# Youngs Moduli (GPa) = 81.25685 150.10681 54.86768
#
# Poissons Ratio (x) = 0.31813 0.19873
# Poissons Ratio (y) = 0.17221 0.15351
# Poissons Ratio (z) = 0.29431 0.41998
#
# Static dielectric constant tensor:
#      x y z
#    x 1.809760 0.000000 -0.062820 
#    y 0.000000 1.846950 0.000000 
#    z -0.062820 0.000000 1.983080 
# 
# From -- ./inp_files/148287.got.cif
#   From: 2010.05.17/outbox.cif.g08.bks.cpg/sg12_75_cif.got.tgz:148287.got - 2010.06.03 13:09:07.
