data_PCOD9222376
_publ_section_title
;
Structure prediction by ZEFSAII (Michael W. Deem and Ramdas Pophale) SiO2 
 PCOD9222376
Probable space group: C 2/M
;
_chemical_formula_sum "Si O2"
_cell_formula_units_Z 40
_cell_length_a 12.678156
_cell_length_b 32.860969
_cell_length_c 4.867496
_cell_angle_alpha 90.000000
_cell_angle_beta 116.097459
_cell_angle_gamma 90.000000
_cell_volume 1821.130920
_symmetry_space_group_name_H-M "C 2/M"
_symmetry_group_IT_number 12
_symmetry_cell_setting 'monoclinic'
loop_
_space_group_symop_operation_xyz
x,y,z
-x,y,-z
-x,-y,-z
x,-y,z
1/2+x,1/2+y,z
1/2-x,1/2+y,-z
1/2-x,1/2-y,-z
1/2+x,1/2-y,z
loop_
_atom_site_type_symbol
_atom_site_label
_atom_site_fract_x
_atom_site_fract_y
_atom_site_fract_z
Si Si1 0.860905 0.751643 0.350864
Si Si2 0.921268 0.872617 0.171065
Si Si3 0.749307 0.321870 0.401954
Si Si4 0.766860 0.407713 0.687808
Si Si5 0.637504 0.046114 0.720865
O O1 0.859375 0.704051 0.433062
O O2 0.819527 0.786688 0.513912
O O3 0.000000 0.760420 0.500000
O O4 0.750000 0.750000 0.000000
O O5 0.000000 0.853075 0.500000
O O6 0.146559 0.907005 0.730351
O O7 0.830492 0.840807 0.932585
O O8 0.000000 0.886136 0.000000
O O9 0.781519 0.360952 0.618602
O O10 0.784957 0.434254 0.434894
O O11 0.856013 0.425343 0.008122
O O12 0.500000 0.044107 0.500000
O O13 0.678325 0.000000 0.825772
#
# Coordination Sequence:
#
# PCOD9222376 Si02
#       5
#     8   8   8   8   8
#     4  11  28  47  70 104 157 203 258 324 390 454
#     4  12  24  42  75 106 140 189 252 308 368 446
#     4  11  26  44  71 109 143 200 256 314 380 444
#     4  12  23  44  72 111 141 189 244 304 358 452
#     4  11  25  47  75 108 148 191 235 298 382 463
#
# _framework density 21.964372000000001
#
# number of rings (size 3 to 8) (size 9 to 14) (size 15 to 20)
#    0.000    0.600    4.000    2.400    5.600    4.800 
#    7.200    0.000    0.000   13.200    0.000    0.000 
#    0.000    0.000    0.000    0.000    0.000    0.000 
#
# Total GULP energy -111395.350597 kJ/mol
# GULP energy per Si atom -5569.767530 kJ/mol
# Density = 2.191438 g / cm^3
# Si number density = 21.964372 Si / 1000 Ang^3
#
#
#
# Elastic Constant Matrix: (Units=GPa)
#
#
# Indices 1 2 3 4 5 6 
#
# 1 100.4579 47.3113 36.1820 0.0000 -3.0943 0.0000
# 2 47.3113 125.9138 63.1503 0.0000 -0.8074 0.0000
# 3 36.1820 63.1503 148.5264 0.0000 -16.1970 0.0000
# 4 0.0000 0.0000 0.0000 59.9220 0.0000 -67.6140
# 5 -3.0943 -0.8074 -16.1970 0.0000 35.0847 0.0000
# 6 0.0000 0.0000 0.0000 -67.6140 0.0000 160.0401
#
#
#
# Elastic Compliance Matrix: (Units=1/GPa)
#
#
# Indices 1 2 3 4 5 6 
#
# 1 0.012298 -0.003989 -0.001255 0.000000 0.000414 0.000000
# 2 -0.003989 0.011503 -0.004137 0.000000 -0.001997 0.000000
# 3 -0.001255 -0.004137 0.009240 0.000000 0.004060 0.000000
# 4 0.000000 0.000000 0.000000 0.031892 0.000000 0.013474
# 5 0.000414 -0.001997 0.004060 0.000000 0.030367 0.000000
# 6 0.000000 0.000000 0.000000 0.013474 0.000000 0.011941
#
#
# Mechanical properties :
#
#
# Convention : Reuss Voigt Hill
#
# Bulk Modulus (GPa) = 70.02913 74.24281 72.13597
# Shear Modulus (GPa) = 38.23791 66.22633 52.23212
#
# Velocity S-wave (km/s) = 4.17694 5.49701 4.88180
# Velocity P-wave (km/s) = 7.43066 8.61188 8.04298
#
# Compressibility (1/GPa) = 0.01427977
#
# Stress axis : x y z
#
# Youngs Moduli (GPa) = 81.31655 86.93671 108.22453
#
# Poissons Ratio (x) = 0.34677 0.13579
# Poissons Ratio (y) = 0.32436 0.44770
# Poissons Ratio (z) = 0.10203 0.35963
#
# Static dielectric constant tensor:
#      x y z
#    x 1.969330 0.000000 0.000620 
#    y 0.000000 1.803600 0.000000 
#    z 0.000620 0.000000 1.887410 
# 
# From -- ./inp_files/13017.got.cif
#   From: 2010.05.17/outbox.cif.g08.bks.cpg/sg12_7_cif.got.tgz:13017.got - 2010.06.03 13:09:07.
