data_PCOD9222763
_publ_section_title
;
Structure prediction by ZEFSAII (Michael W. Deem and Ramdas Pophale) SiO2 
 PCOD9222763
Probable space group: C 2/M
;
_chemical_formula_sum "Si O2"
_cell_formula_units_Z 34
_cell_length_a 21.873764
_cell_length_b 16.680223
_cell_length_c 8.800686
_cell_angle_alpha 90.000000
_cell_angle_beta 26.703370
_cell_angle_gamma 90.000000
_cell_volume 1442.937327
_symmetry_space_group_name_H-M "C 2/M"
_symmetry_group_IT_number 12
_symmetry_cell_setting 'monoclinic'
loop_
_space_group_symop_operation_xyz
x,y,z
-x,y,-z
-x,-y,-z
x,-y,z
1/2+x,1/2+y,z
1/2-x,1/2+y,-z
1/2-x,1/2-y,-z
1/2+x,1/2-y,z
loop_
_atom_site_type_symbol
_atom_site_label
_atom_site_fract_x
_atom_site_fract_y
_atom_site_fract_z
Si Si1 0.058528 0.174398 0.526943
Si Si2 0.206625 0.166657 0.679072
Si Si3 0.786864 0.408732 0.209859
Si Si4 0.000000 0.500000 0.500000
Si Si5 0.083073 0.353884 0.516465
O O1 0.185252 0.127161 0.313012
O O2 0.101632 0.266461 0.402798
O O3 0.000000 0.140738 0.500000
O O4 0.939251 0.174009 0.917389
O O5 0.250000 0.250000 0.500000
O O6 0.211267 0.099602 0.538245
O O7 0.315080 0.144448 0.568288
O O8 0.830640 0.500000 0.073773
O O9 0.926372 0.360410 0.918230
O O10 0.089717 0.428055 0.388175
#
# Coordination Sequence:
#
# PCOD9222763 Si02
#       5
#     8   8   8   2   8
#     4  12  27  47  76 109 152 205 252 313 389 461
#     4  12  26  46  78 109 149 200 256 310 384 462
#     4  12  28  48  74 113 153 197 259 323 382 455
#     4  12  28  44  74 122 162 192 258 326 392 440
#     4  12  25  46  77 108 152 197 253 314 380 461
#
# _framework density 23.563047999999998
#
# number of rings (size 3 to 8) (size 9 to 14) (size 15 to 20)
#    0.000    0.000    7.059    1.412    4.941    5.176 
#    0.000    0.000    0.000    0.000    0.000    0.000 
#    0.000    0.000    0.000    0.000    0.000    0.000 
#
# Total GULP energy -95060.873066 kJ/mol
# GULP energy per Si atom -5591.816063 kJ/mol
# Density = 2.350942 g / cm^3
# Si number density = 23.563048 Si / 1000 Ang^3
#
#
#
# Elastic Constant Matrix: (Units=GPa)
#
#
# Indices 1 2 3 4 5 6 
#
# 1 169.2322 59.4927 21.3481 0.0001 -30.6840 0.0000
# 2 59.4927 92.9956 38.7202 0.0000 -33.2880 0.0000
# 3 21.3481 38.7202 145.4365 0.0002 -6.9059 -0.0001
# 4 0.0001 0.0000 0.0002 21.4377 -0.0001 9.4223
# 5 -30.6840 -33.2880 -6.9059 -0.0001 40.5167 0.0000
# 6 0.0000 0.0000 -0.0001 9.4223 0.0000 46.6831
#
#
#
# Elastic Compliance Matrix: (Units=1/GPa)
#
#
# Indices 1 2 3 4 5 6 
#
# 1 0.007808 -0.004113 0.000070 0.000000 0.002546 0.000000
# 2 -0.004113 0.019385 -0.003981 0.000000 0.012133 0.000000
# 3 0.000070 -0.003981 0.007836 0.000000 -0.001882 0.000000
# 4 0.000000 0.000000 0.000000 0.051188 0.000000 -0.010332
# 5 0.002546 0.012133 -0.001882 0.000000 0.036257 0.000000
# 6 0.000000 0.000000 0.000000 -0.010332 0.000000 0.023506
#
#
# Mechanical properties :
#
#
# Convention : Reuss Voigt Hill
#
# Bulk Modulus (GPa) = 52.68477 71.86512 62.27495
# Shear Modulus (GPa) = 29.69925 40.93439 35.31682
#
# Velocity S-wave (km/s) = 3.55409 4.17253 3.87566
# Velocity P-wave (km/s) = 6.26495 7.33339 6.82013
#
# Compressibility (1/GPa) = 0.01898082
#
# Stress axis : x y z
#
# Youngs Moduli (GPa) = 128.08062 51.58656 127.61375
#
# Poissons Ratio (x) = 0.21215 -0.00890
# Poissons Ratio (y) = 0.52673 0.50805
# Poissons Ratio (z) = -0.00893 0.20537
#
# Static dielectric constant tensor:
#      x y z
#    x 1.851110 0.000000 -0.020440 
#    y 0.000000 1.858680 0.000000 
#    z -0.020440 0.000000 1.706300 
# 
# From -- ./inp_files/88322.got.cif
#   From: 2010.05.17/outbox.cif.g08.bks.cpg/sg12_45_cif.got.tgz:88322.got - 2010.06.03 13:09:07.
