data_PCOD9222186
_publ_section_title
;
Structure prediction by ZEFSAII (Michael W. Deem and Ramdas Pophale) SiO2 
 PCOD9222186
Probable space group: C 2/M
;
_chemical_formula_sum "Si O2"
_cell_formula_units_Z 34
_cell_length_a 19.912004
_cell_length_b 7.956489
_cell_length_c 18.608349
_cell_angle_alpha 90.000000
_cell_angle_beta 150.019118
_cell_angle_gamma 90.000000
_cell_volume 1473.205030
_symmetry_space_group_name_H-M "C 2/M"
_symmetry_group_IT_number 12
_symmetry_cell_setting 'monoclinic'
loop_
_space_group_symop_operation_xyz
x,y,z
-x,y,-z
-x,-y,-z
x,-y,z
1/2+x,1/2+y,z
1/2-x,1/2+y,-z
1/2-x,1/2-y,-z
1/2+x,1/2-y,z
loop_
_atom_site_type_symbol
_atom_site_label
_atom_site_fract_x
_atom_site_fract_y
_atom_site_fract_z
Si Si1 0.112206 0.298940 0.331851
Si Si2 0.662319 0.800956 0.852172
Si Si3 0.642690 0.684877 0.689603
Si Si4 0.500000 0.000000 0.500000
Si Si5 0.610914 0.300649 0.164620
O O1 0.109206 0.500000 0.322303
O O2 0.250000 0.250000 0.500000
O O3 0.087120 0.229397 0.227501
O O4 0.989404 0.247370 0.269641
O O5 0.718474 0.708841 0.834658
O O6 0.670152 0.000000 0.850214
O O7 0.750000 0.750000 0.000000
O O8 0.581387 0.500000 0.633465
O O9 0.751075 0.706617 0.727342
O O10 0.546618 0.847252 0.597879
O O11 0.637881 0.500000 0.180120
O O12 0.500000 0.256403 0.000000
#
# Coordination Sequence:
#
# PCOD9222186 Si02
#       5
#     8   8   8   2   8
#     4  11  26  43  67 100 139 179 228 289 351 411
#     4  11  24  45  69 101 142 183 233 291 346 418
#     4  12  26  44  73 102 137 185 232 287 349 412
#     4  12  26  48  66 102 144 176 240 286 340 418
#     4  11  24  45  71 101 140 183 229 288 349 417
#
# _framework density 23.078931999999998
#
# number of rings (size 3 to 8) (size 9 to 14) (size 15 to 20)
#    0.000    0.706    2.353    3.882    3.294    9.412 
#    0.000    0.000    0.000    0.000    0.000    0.000 
#    0.000    0.000    0.000    0.000    0.000    0.000 
#
# Total GULP energy -94733.140600 kJ/mol
# GULP energy per Si atom -5572.537682 kJ/mol
# Density = 2.302640 g / cm^3
# Si number density = 23.078932 Si / 1000 Ang^3
#
#
#
# Elastic Constant Matrix: (Units=GPa)
#
#
# Indices 1 2 3 4 5 6 
#
# 1 81.0191 16.3419 -4.4087 0.0000 -11.3306 0.0000
# 2 16.3419 144.9551 28.8426 0.0000 -5.5791 0.0000
# 3 -4.4087 28.8426 91.5157 0.0000 -11.6321 0.0000
# 4 0.0000 0.0000 0.0000 16.4062 0.0000 -14.9844
# 5 -11.3306 -5.5791 -11.6321 0.0000 40.1529 0.0000
# 6 0.0000 0.0000 0.0000 -14.9844 0.0000 27.7659
#
#
#
# Elastic Compliance Matrix: (Units=1/GPa)
#
#
# Indices 1 2 3 4 5 6 
#
# 1 0.013336 -0.001684 0.001684 0.000000 0.004017 0.000000
# 2 -0.001684 0.007578 -0.002488 0.000000 -0.000143 0.000000
# 3 0.001684 -0.002488 0.012260 0.000000 0.003681 0.000000
# 4 0.000000 0.000000 0.000000 0.120198 0.000000 0.064867
# 5 0.004017 -0.000143 0.003681 0.000000 0.027085 0.000000
# 6 0.000000 0.000000 0.000000 0.064867 0.000000 0.071022
#
#
# Mechanical properties :
#
#
# Convention : Reuss Voigt Hill
#
# Bulk Modulus (GPa) = 35.46297 44.33794 39.90046
# Shear Modulus (GPa) = 18.80727 35.31261 27.05994
#
# Velocity S-wave (km/s) = 2.85776 3.91587 3.42789
# Velocity P-wave (km/s) = 5.12722 6.30067 5.74399
#
# Compressibility (1/GPa) = 0.02819842
#
# Stress axis : x y z
#
# Youngs Moduli (GPa) = 74.98602 131.96103 81.56539
#
# Poissons Ratio (x) = 0.22220 -0.13733
# Poissons Ratio (y) = 0.12627 0.20290
# Poissons Ratio (z) = -0.12626 0.32827
#
# Static dielectric constant tensor:
#      x y z
#    x 0.950530 0.000000 -0.487820 
#    y 0.000000 1.829120 0.000000 
#    z -0.487820 0.000000 1.931040 
# 
# From -- ./inp_files/282337.got.cif
#   From: 2010.05.17/outbox.cif.g08.bks.cpg/sg12_142_cif.got.tgz:282337.got - 2010.06.03 13:09:07.
