data_PCOD9222446
_publ_section_title
;
Structure prediction by ZEFSAII (Michael W. Deem and Ramdas Pophale) SiO2 
 PCOD9222446
Probable space group: C 2/M
;
_chemical_formula_sum "Si O2"
_cell_formula_units_Z 40
_cell_length_a 16.015016
_cell_length_b 21.237091
_cell_length_c 10.252333
_cell_angle_alpha 90.000000
_cell_angle_beta 148.006136
_cell_angle_gamma 90.000000
_cell_volume 1847.482681
_symmetry_space_group_name_H-M "C 2/M"
_symmetry_group_IT_number 12
_symmetry_cell_setting 'monoclinic'
loop_
_space_group_symop_operation_xyz
x,y,z
-x,y,-z
-x,-y,-z
x,-y,z
1/2+x,1/2+y,z
1/2-x,1/2+y,-z
1/2-x,1/2-y,-z
1/2+x,1/2-y,z
loop_
_atom_site_type_symbol
_atom_site_label
_atom_site_fract_x
_atom_site_fract_y
_atom_site_fract_z
Si Si1 0.890268 0.375481 0.656514
Si Si2 0.775835 0.379373 0.028194
Si Si3 0.793549 0.000000 0.590875
Si Si4 0.500000 0.223312 0.000000
Si Si5 0.834245 0.000000 0.955751
Si Si6 0.213957 0.291851 0.718587
Si Si7 0.000000 0.182916 0.500000
O O1 0.795625 0.437204 0.572070
O O2 0.812307 0.344085 0.425981
O O3 0.895044 0.322293 0.772619
O O4 0.070937 0.391235 0.857298
O O5 0.733118 0.439181 0.059778
O O6 0.624937 0.358259 0.744945
O O7 0.816921 0.322694 0.182066
O O8 0.975535 0.000000 0.789805
O O9 0.787298 0.000000 0.741235
O O10 0.391024 0.266477 0.945189
O O11 0.102738 0.231570 0.549988
#
# Coordination Sequence:
#
# PCOD9222446 Si02
#       7
#     8   8   4   4   4   8   4
#     4  12  25  46  70 101 137 183 224 279 335 402
#     4  12  25  45  73  99 136 181 231 275 333 403
#     4  11  27  46  71 100 135 173 229 284 339 396
#     4  12  28  41  66 109 144 176 218 276 352 394
#     4  11  27  46  71 102 129 179 229 282 337 396
#     4  12  24  44  72 101 140 179 226 276 333 406
#     4  12  24  43  68 105 140 172 224 278 336 404
#
# _framework density 21.651081999999999
#
# number of rings (size 3 to 8) (size 9 to 14) (size 15 to 20)
#    0.000    0.200    6.000    3.000    5.600    1.600 
#    0.000    0.000    0.000    0.000    0.000    0.000 
#    0.000    0.000    0.000    0.000    0.000    0.000 
#
# Total GULP energy -112000.106721 kJ/mol
# GULP energy per Si atom -5600.005336 kJ/mol
# Density = 2.160180 g / cm^3
# Si number density = 21.651082 Si / 1000 Ang^3
#
#
#
# Elastic Constant Matrix: (Units=GPa)
#
#
# Indices 1 2 3 4 5 6 
#
# 1 46.7285 11.0444 -7.5521 0.0000 17.1655 0.0000
# 2 11.0444 78.8394 23.9890 0.0000 16.0274 0.0000
# 3 -7.5521 23.9890 75.0816 0.0000 -2.4965 0.0000
# 4 0.0000 0.0000 0.0000 55.8533 0.0000 -29.7045
# 5 17.1655 16.0274 -2.4965 0.0000 37.0989 0.0000
# 6 0.0000 0.0000 0.0000 -29.7045 0.0000 130.9448
#
#
#
# Elastic Compliance Matrix: (Units=1/GPa)
#
#
# Indices 1 2 3 4 5 6 
#
# 1 0.026514 -0.002408 0.003070 0.000000 -0.011021 0.000000
# 2 -0.002408 0.015960 -0.005546 0.000000 -0.006154 0.000000
# 3 0.003070 -0.005546 0.015467 0.000000 0.002016 0.000000
# 4 0.000000 0.000000 0.000000 0.020360 0.000000 0.004619
# 5 -0.011021 -0.006154 0.002016 0.000000 0.034849 0.000000
# 6 0.000000 0.000000 0.000000 0.004619 0.000000 0.008685
#
#
# Mechanical properties :
#
#
# Convention : Reuss Voigt Hill
#
# Bulk Modulus (GPa) = 20.75882 28.40132 24.58007
# Shear Modulus (GPa) = 33.86155 56.32394 45.09275
#
# Velocity S-wave (km/s) = 3.95899 5.10596 4.56861
# Velocity P-wave (km/s) = 5.52330 6.92151 6.26156
#
# Compressibility (1/GPa) = 0.04817230
#
# Stress axis : x y z
#
# Youngs Moduli (GPa) = 37.71594 62.65682 64.65508
#
# Poissons Ratio (x) = 0.15087 -0.19848
# Poissons Ratio (y) = 0.09081 0.35858
# Poissons Ratio (z) = -0.11578 0.34750
#
# Static dielectric constant tensor:
#      x y z
#    x 1.761610 0.000000 -0.001350 
#    y 0.000000 1.749730 0.000000 
#    z -0.001350 0.000000 1.781970 
# 
# From -- ./inp_files/158516.got.cif
#   From: 2010.05.17/outbox.cif.g08.bks.cpg/sg12_80_cif.got.tgz:158516.got - 2010.06.03 13:09:07.
