data_PCOD9222219
_publ_section_title
;
Structure prediction by ZEFSAII (Michael W. Deem and Ramdas Pophale) SiO2 
 PCOD9222219
Probable space group: C 2/M
;
_chemical_formula_sum "Si O2"
_cell_formula_units_Z 28
_cell_length_a 13.039276
_cell_length_b 18.614016
_cell_length_c 6.183551
_cell_angle_alpha 90.000000
_cell_angle_beta 58.395848
_cell_angle_gamma 90.000000
_cell_volume 1278.240360
_symmetry_space_group_name_H-M "C 2/M"
_symmetry_group_IT_number 12
_symmetry_cell_setting 'monoclinic'
loop_
_space_group_symop_operation_xyz
x,y,z
-x,y,-z
-x,-y,-z
x,-y,z
1/2+x,1/2+y,z
1/2-x,1/2+y,-z
1/2-x,1/2-y,-z
1/2+x,1/2-y,z
loop_
_atom_site_type_symbol
_atom_site_label
_atom_site_fract_x
_atom_site_fract_y
_atom_site_fract_z
Si Si1 0.105509 0.337012 0.712583
Si Si2 0.827997 0.776033 0.717771
Si Si3 0.889088 0.500000 0.451238
Si Si4 0.391802 0.500000 0.292034
Si Si5 0.000000 0.110393 0.500000
O O1 0.110979 0.287620 0.490127
O O2 0.234688 0.318671 0.670370
O O3 0.094983 0.422467 0.681639
O O4 0.000000 0.316838 0.000000
O O5 0.917552 0.834384 0.719909
O O6 0.750000 0.750000 0.000000
O O7 0.742711 0.500000 0.661545
O O8 0.000000 0.500000 0.500000
O O9 0.419587 0.565310 0.424990
O O10 0.500000 0.500000 0.000000
#
# Coordination Sequence:
#
# PCOD9222219 Si02
#       5
#     8   8   4   4   4
#     4  11  26  47  70 107 148 190 250 304 371 451
#     4  11  25  44  76 107 147 189 243 303 381 445
#     4  12  28  49  74 106 151 208 250 311 378 456
#     4  11  27  47  75 107 143 194 250 309 378 439
#     4  11  24  46  74 103 146 184 244 309 368 444
#
# _framework density 21.905114999999999
#
# number of rings (size 3 to 8) (size 9 to 14) (size 15 to 20)
#    0.000    0.857    2.857    2.143   10.000    1.143 
#    0.000    0.000    0.000    0.000    0.000    0.000 
#    0.000    0.000    0.000    0.000    0.000    0.000 
#
# Total GULP energy -78030.925811 kJ/mol
# GULP energy per Si atom -5573.637558 kJ/mol
# Density = 2.185526 g / cm^3
# Si number density = 21.905115 Si / 1000 Ang^3
#
#
#
# Elastic Constant Matrix: (Units=GPa)
#
#
# Indices 1 2 3 4 5 6 
#
# 1 139.8386 55.9362 29.8315 0.0000 -11.3602 0.0000
# 2 55.9362 176.6383 76.5711 0.0000 -5.5451 0.0000
# 3 29.8315 76.5711 145.6541 0.0000 -25.6112 0.0000
# 4 0.0000 0.0000 0.0000 24.0811 0.0000 -22.2668
# 5 -11.3602 -5.5451 -25.6112 0.0000 36.2844 0.0000
# 6 0.0000 0.0000 0.0000 -22.2668 0.0000 13.6746
#
#
#
# Elastic Compliance Matrix: (Units=1/GPa)
#
#
# Indices 1 2 3 4 5 6 
#
# 1 0.008363 -0.002600 0.000050 0.000000 0.002257 0.000000
# 2 -0.002600 0.008248 -0.004253 0.000000 -0.002555 0.000000
# 3 0.000050 -0.004253 0.010252 0.000000 0.006602 0.000000
# 4 0.000000 0.000000 0.000000 -0.082124 0.000000 -0.133725
# 5 0.002257 -0.002555 0.006602 0.000000 0.032536 0.000000
# 6 0.000000 0.000000 0.000000 -0.133725 0.000000 -0.144621
#
#
# Mechanical properties :
#
#
# Convention : Reuss Voigt Hill
#
# Bulk Modulus (GPa) = 75.41776 87.42319 81.42047
# Shear Modulus (GPa) = -33.48459 34.79418 0.65480
#
# Velocity S-wave (km/s) = -3.91400 3.98980 0.54733
# Velocity P-wave (km/s) = 3.75209 7.82440 6.13594
#
# Compressibility (1/GPa) = 0.01325948
#
# Stress axis : x y z
#
# Youngs Moduli (GPa) = 119.56729 121.24424 97.54329
#
# Poissons Ratio (x) = 0.31518 -0.00492
# Poissons Ratio (y) = 0.31082 0.41483
# Poissons Ratio (z) = -0.00604 0.51563
#
# Static dielectric constant tensor:
#      x y z
#    x 1.871870 0.000000 0.028640 
#    y 0.000000 1.838940 0.000000 
#    z 0.028640 0.000000 1.806570 
# 
# From -- ./inp_files/5983.got.cif
#   From: 2010.05.17/outbox.cif.g08.bks.cpg/sg12_3_cif.got.tgz:5983.got - 2010.06.03 13:09:07.
