data_PCOD9222227
_publ_section_title
;
Structure prediction by ZEFSAII (Michael W. Deem and Ramdas Pophale) SiO2 
 PCOD9222227
Probable space group: C 2/M
;
_chemical_formula_sum "Si O2"
_cell_formula_units_Z 48
_cell_length_a 17.630966
_cell_length_b 28.779609
_cell_length_c 9.144054
_cell_angle_alpha 90.000000
_cell_angle_beta 29.894058
_cell_angle_gamma 90.000000
_cell_volume 2312.469030
_symmetry_space_group_name_H-M "C 2/M"
_symmetry_group_IT_number 12
_symmetry_cell_setting 'monoclinic'
loop_
_space_group_symop_operation_xyz
x,y,z
-x,y,-z
-x,-y,-z
x,-y,z
1/2+x,1/2+y,z
1/2-x,1/2+y,-z
1/2-x,1/2-y,-z
1/2+x,1/2-y,z
loop_
_atom_site_type_symbol
_atom_site_label
_atom_site_fract_x
_atom_site_fract_y
_atom_site_fract_z
Si Si1 0.354294 0.500000 0.126885
Si Si2 0.343728 0.083015 0.067793
Si Si3 0.195024 0.414429 0.536641
Si Si4 0.673805 0.000000 0.135776
Si Si5 0.908070 0.159342 0.507002
Si Si6 0.625508 0.329814 0.888161
Si Si7 0.157113 0.262422 0.300732
O O1 0.267012 0.453665 0.317434
O O2 0.316548 0.500000 0.012676
O O3 0.500000 0.500000 0.000000
O O4 0.303049 0.066568 0.300651
O O5 0.243484 0.129356 0.224592
O O6 0.522209 0.094052 0.777077
O O7 0.316168 0.045107 0.987840
O O8 0.289147 0.367530 0.353605
O O9 0.500000 0.000000 0.500000
O O10 0.875480 0.214592 0.558029
O O11 0.000000 0.151319 0.500000
O O12 0.023011 0.146253 0.184910
O O13 0.747032 0.297131 0.761574
O O14 0.500000 0.303598 0.000000
O O15 0.000000 0.282475 0.500000
O O16 0.250000 0.250000 0.000000
#
# Coordination Sequence:
#
# PCOD9222227 Si02
#       7
#     4   8   8   4   8   8   8
#     4  12  27  45  75 107 147 185 237 291 365 424
#     4  11  25  46  72 106 146 187 250 297 357 434
#     4  11  25  46  72 102 146 198 233 305 367 423
#     4  12  25  47  75 114 141 192 247 289 359 446
#     4  11  25  44  69 103 145 191 244 302 360 432
#     4  12  25  46  71 105 146 189 248 297 369 437
#     4  11  24  47  70 102 144 197 242 299 370 430
#
# _framework density 20.757033
#
# number of rings (size 3 to 8) (size 9 to 14) (size 15 to 20)
#    0.000    0.667    6.667    1.000    4.667    2.000 
#    3.000    1.250    0.000    0.000    0.000    0.000 
#    0.000    0.000    0.000    0.000    0.000    0.000 
#
# Total GULP energy -133904.880493 kJ/mol
# GULP energy per Si atom -5579.370021 kJ/mol
# Density = 2.070979 g / cm^3
# Si number density = 20.757033 Si / 1000 Ang^3
#
#
#
# Elastic Constant Matrix: (Units=GPa)
#
#
# Indices 1 2 3 4 5 6 
#
# 1 175.9959 59.4467 62.1600 -0.0001 -17.2648 0.0001
# 2 59.4467 56.7171 22.4511 0.0000 -15.3019 0.0000
# 3 62.1600 22.4511 95.7386 -0.0002 -1.9690 0.0003
# 4 -0.0001 0.0000 -0.0002 39.4888 0.0001 -4.3629
# 5 -17.2648 -15.3019 -1.9690 0.0001 34.5471 -0.0001
# 6 0.0001 0.0000 0.0003 -4.3629 -0.0001 24.6415
#
#
#
# Elastic Compliance Matrix: (Units=1/GPa)
#
#
# Indices 1 2 3 4 5 6 
#
# 1 0.010395 -0.008763 -0.004673 0.000000 0.001047 0.000000
# 2 -0.008763 0.029575 -0.001068 0.000000 0.008660 0.000000
# 3 -0.004673 -0.001068 0.013688 0.000000 -0.002028 0.000000
# 4 0.000000 0.000000 0.000000 0.025829 0.000000 0.004573
# 5 0.001047 0.008660 -0.002028 0.000000 0.033189 0.000000
# 6 0.000000 0.000000 0.000000 0.004573 0.000000 0.041392
#
#
# Mechanical properties :
#
#
# Convention : Reuss Voigt Hill
#
# Bulk Modulus (GPa) = 40.56685 68.50748 54.53716
# Shear Modulus (GPa) = 26.13817 32.02839 29.08328
#
# Velocity S-wave (km/s) = 3.55243 3.93238 3.74723
# Velocity P-wave (km/s) = 6.03427 7.32764 6.71218
#
# Compressibility (1/GPa) = 0.02465067
#
# Stress axis : x y z
#
# Youngs Moduli (GPa) = 96.20115 33.81223 73.05908
#
# Poissons Ratio (x) = 0.29630 0.34137
# Poissons Ratio (y) = 0.84301 0.07801
# Poissons Ratio (z) = 0.44951 0.03611
#
# Static dielectric constant tensor:
#      x y z
#    x 1.788650 0.000000 0.006620 
#    y 0.000000 1.433650 0.000000 
#    z 0.006620 0.000000 1.803630 
# 
# From -- ./inp_files/80639.got.cif
#   From: 2010.05.17/outbox.cif.g08.bks.cpg/sg12_41_cif.got.tgz:80639.got - 2010.06.03 13:09:07.
