data_PCOD9222077
_publ_section_title
;
Structure prediction by ZEFSAII (Michael W. Deem and Ramdas Pophale) SiO2 
 PCOD9222077
Probable space group: C 2/M
;
_chemical_formula_sum "Si O2"
_cell_formula_units_Z 56
_cell_length_a 9.250502
_cell_length_b 18.821776
_cell_length_c 26.562820
_cell_angle_alpha 90.000000
_cell_angle_beta 41.099964
_cell_angle_gamma 90.000000
_cell_volume 3040.276724
_symmetry_space_group_name_H-M "C 2/M"
_symmetry_group_IT_number 12
_symmetry_cell_setting 'monoclinic'
loop_
_space_group_symop_operation_xyz
x,y,z
-x,y,-z
-x,-y,-z
x,-y,z
1/2+x,1/2+y,z
1/2-x,1/2+y,-z
1/2-x,1/2-y,-z
1/2+x,1/2-y,z
loop_
_atom_site_type_symbol
_atom_site_label
_atom_site_fract_x
_atom_site_fract_y
_atom_site_fract_z
Si Si1 0.052096 0.414103 0.848172
Si Si2 0.123121 0.319892 0.301684
Si Si3 0.707700 0.677331 0.481054
Si Si4 0.495589 0.670192 0.718099
Si Si5 0.264047 0.582917 0.432666
Si Si6 0.274055 0.085498 0.819759
Si Si7 0.359037 0.582358 0.985117
O O1 0.077055 0.500000 0.845714
O O2 0.281603 0.374111 0.790398
O O3 0.936676 0.400340 0.824210
O O4 0.878536 0.388875 0.936587
O O5 0.341204 0.316767 0.278329
O O6 0.147790 0.377195 0.251105
O O7 0.920794 0.338364 0.391499
O O8 0.074359 0.244272 0.288757
O O9 0.500000 0.687464 0.500000
O O10 0.750000 0.750000 0.500000
O O11 0.663057 0.616668 0.533715
O O12 0.625684 0.625457 0.641679
O O13 0.319281 0.500000 0.414666
O O14 0.000000 0.590920 0.500000
O O15 0.264868 0.000000 0.816731
O O16 0.028792 0.112352 0.899754
O O17 0.322426 0.500000 0.980808
O O18 0.500000 0.581897 0.000000
#
# Coordination Sequence:
#
# PCOD9222077 Si02
#       7
#     8   8   8   8   8   8   8
#     4   9  18  35  62  90 120 158 195 237 292 356
#     4  12  25  39  61  86 117 156 199 245 300 348
#     4  12  24  42  66  87 116 159 203 241 290 352
#     4  12  24  40  59  86 117 157 201 245 290 355
#     4  11  24  43  64  89 120 153 192 243 298 348
#     4   9  19  36  60  92 123 151 193 247 295 348
#     4   7  12  29  57  86 117 155 193 231 288 354
#
# _framework density 18.419376
#
# number of rings (size 3 to 8) (size 9 to 14) (size 15 to 20)
#    0.000    1.714    2.857    4.286    2.000    2.000 
#    0.000    1.429    0.000    2.571    0.000    0.000 
#    0.000    0.000    0.000    0.000    0.000    0.000 
#
# Total GULP energy -156305.989622 kJ/mol
# GULP energy per Si atom -5582.356772 kJ/mol
# Density = 1.837745 g / cm^3
# Si number density = 18.419376 Si / 1000 Ang^3
#
#
#
# Elastic Constant Matrix: (Units=GPa)
#
#
# Indices 1 2 3 4 5 6 
#
# 1 109.4477 45.8733 35.8431 0.0827 -12.1684 0.0417
# 2 45.8733 65.2367 32.1384 0.0615 -1.2281 0.0301
# 3 35.8431 32.1384 114.9332 0.0858 -5.6742 0.0461
# 4 0.0827 0.0615 0.0858 -222.8299 0.0899 -113.7146
# 5 -12.1684 -1.2281 -5.6742 0.0899 27.8785 0.0394
# 6 0.0417 0.0301 0.0461 -113.7146 0.0394 -28.3444
#
#
#
# Elastic Compliance Matrix: (Units=1/GPa)
#
#
# Indices 1 2 3 4 5 6 
#
# 1 0.014020 -0.008970 -0.001597 0.000004 0.005399 0.000001
# 2 -0.008970 0.023518 -0.003961 0.000000 -0.003685 0.000000
# 3 -0.001597 -0.003961 0.010368 0.000003 0.001238 -0.000001
# 4 0.000004 0.000000 0.000003 0.004285 0.000013 -0.017190
# 5 0.005399 -0.003685 0.001238 0.000013 0.038316 0.000008
# 6 0.000001 0.000000 -0.000001 -0.017190 0.000008 0.033685
#
#
# Mechanical properties :
#
#
# Convention : Reuss Voigt Hill
#
# Bulk Modulus (GPa) = 53.05288 57.48080 55.26684
# Shear Modulus (GPa) = 31.34178 -32.94164 -0.79993
#
# Velocity S-wave (km/s) = 4.12948 -4.23356 -0.65972
# Velocity P-wave (km/s) = 7.18346 2.71607 5.43043
#
# Compressibility (1/GPa) = 0.01884912
#
# Stress axis : x y z
#
# Youngs Moduli (GPa) = 71.32780 42.52028 96.45428
#
# Poissons Ratio (x) = 0.38140 0.15408
# Poissons Ratio (y) = 0.63980 0.38205
# Poissons Ratio (z) = 0.11394 0.16842
#
# Static dielectric constant tensor:
#      x y z
#    x 1.621030 0.000000 -0.004090 
#    y 0.000000 1.613430 0.000000 
#    z -0.004090 0.000000 1.661420 
# 
# From -- ./inp_files/356684.got.cif
#   From: 2010.05.17/outbox.cif.g08.bks.cpg/sg12_179_cif.got.tgz:356684.got - 2010.06.03 13:09:07.
