data_PCOD9222355
_publ_section_title
;
Structure prediction by ZEFSAII (Michael W. Deem and Ramdas Pophale) SiO2 
 PCOD9222355
Probable space group: C 2/M
;
_chemical_formula_sum "Si O2"
_cell_formula_units_Z 64
_cell_length_a 15.749077
_cell_length_b 30.657424
_cell_length_c 8.632066
_cell_angle_alpha 90.000000
_cell_angle_beta 134.016617
_cell_angle_gamma 90.000000
_cell_volume 2997.215298
_symmetry_space_group_name_H-M "C 2/M"
_symmetry_group_IT_number 12
_symmetry_cell_setting 'monoclinic'
loop_
_space_group_symop_operation_xyz
x,y,z
-x,y,-z
-x,-y,-z
x,-y,z
1/2+x,1/2+y,z
1/2-x,1/2+y,-z
1/2-x,1/2-y,-z
1/2+x,1/2-y,z
loop_
_atom_site_type_symbol
_atom_site_label
_atom_site_fract_x
_atom_site_fract_y
_atom_site_fract_z
Si Si1 0.262076 0.450744 0.165937
Si Si2 0.076186 0.129698 0.735739
Si Si3 0.753737 0.452461 0.483984
Si Si4 0.733806 0.200058 0.932258
Si Si5 0.393587 0.627144 0.752164
Si Si6 0.482183 0.840577 0.156807
Si Si7 0.991816 0.433613 0.308490
Si Si8 0.286017 0.794813 0.463089
O O1 0.307936 0.500000 0.192385
O O2 0.340162 0.410725 0.202748
O O3 0.254637 0.445354 0.342050
O O4 0.131712 0.447532 0.924803
O O5 0.000000 0.149661 0.500000
O O6 0.971385 0.111253 0.707715
O O7 0.153908 0.167967 0.909183
O O8 0.702815 0.500000 0.380963
O O9 0.689562 0.413565 0.309800
O O10 0.892027 0.452636 0.622478
O O11 0.638953 0.180003 0.933518
O O12 0.704389 0.202516 0.711801
O O13 0.750000 0.250000 0.000000
O O14 0.308406 0.667697 0.611023
O O15 0.500000 0.640212 0.000000
O O16 0.501958 0.882016 0.291034
O O17 0.585529 0.806274 0.311699
O O18 0.500000 0.854848 0.000000
O O19 0.000000 0.443657 0.500000
O O20 0.250000 0.750000 0.500000
#
# Coordination Sequence:
#
# PCOD9222355 Si02
#       8
#     8   8   8   8   8   8   8   8
#     4  11  25  46  73 106 141 186 241 297 355 424
#     4  12  27  46  74 103 143 190 238 291 357 423
#     4  11  25  46  73 105 141 188 240 293 357 428
#     4  12  28  48  74 109 143 185 239 296 355 428
#     4  12  27  48  71 101 145 191 234 293 356 426
#     4  12  26  45  75 105 139 185 236 292 357 421
#     4  12  25  43  70 105 142 182 235 295 360 418
#     4  12  28  48  75 106 145 187 236 297 356 425
#
# _framework density 21.353154
#
# number of rings (size 3 to 8) (size 9 to 14) (size 15 to 20)
#    0.000    0.250    5.000    3.375    7.000    3.500 
#    0.000    0.000    0.000    0.000    0.000    0.000 
#    0.000    0.000    0.000    0.000    0.000    0.000 
#
# Total GULP energy -178759.964025 kJ/mol
# GULP energy per Si atom -5586.248876 kJ/mol
# Density = 2.130455 g / cm^3
# Si number density = 21.353154 Si / 1000 Ang^3
#
#
#
# Elastic Constant Matrix: (Units=GPa)
#
#
# Indices 1 2 3 4 5 6 
#
# 1 100.7295 30.7942 16.5991 0.0000 8.2435 0.0000
# 2 30.7942 133.2004 1.4698 0.0000 15.0252 0.0000
# 3 16.5991 1.4698 53.6251 0.0000 15.2011 0.0000
# 4 0.0000 0.0000 0.0000 23.8857 0.0000 -1.2836
# 5 8.2435 15.0252 15.2011 0.0000 29.9449 0.0000
# 6 0.0000 0.0000 0.0000 -1.2836 0.0000 13.1790
#
#
#
# Elastic Compliance Matrix: (Units=1/GPa)
#
#
# Indices 1 2 3 4 5 6 
#
# 1 0.011277 -0.002559 -0.003393 0.000000 -0.000098 0.000000
# 2 -0.002559 0.008591 0.001844 0.000000 -0.004542 0.000000
# 3 -0.003393 0.001844 0.022947 0.000000 -0.011640 0.000000
# 4 0.000000 0.000000 0.000000 0.042086 0.000000 0.004099
# 5 -0.000098 -0.004542 -0.011640 0.000000 0.041610 0.000000
# 6 0.000000 0.000000 0.000000 0.004099 0.000000 0.076278
#
#
# Mechanical properties :
#
#
# Convention : Reuss Voigt Hill
#
# Bulk Modulus (GPa) = 28.90074 42.80901 35.85487
# Shear Modulus (GPa) = 22.46820 29.31471 25.89146
#
# Velocity S-wave (km/s) = 3.24731 3.70922 3.48593
# Velocity P-wave (km/s) = 5.25586 6.19968 5.74718
#
# Compressibility (1/GPa) = 0.03460119
#
# Stress axis : x y z
#
# Youngs Moduli (GPa) = 88.67712 116.40049 43.57819
#
# Poissons Ratio (x) = 0.29781 0.14784
# Poissons Ratio (y) = 0.22688 -0.08036
# Poissons Ratio (z) = 0.30085 -0.21466
#
# Static dielectric constant tensor:
#      x y z
#    x 1.765990 0.000000 -0.000180 
#    y 0.000000 1.761790 0.000000 
#    z -0.000180 0.000000 1.710530 
# 
# From -- ./inp_files/68627.got.cif
#   From: 2010.05.17/outbox.cif.g08.bks.cpg/sg12_35_cif.got.tgz:68627.got - 2010.06.03 13:09:07.
