data_PCOD9222592
_publ_section_title
;
Structure prediction by ZEFSAII (Michael W. Deem and Ramdas Pophale) SiO2 
 PCOD9222592
Probable space group: C 2/M
;
_chemical_formula_sum "Si O2"
_cell_formula_units_Z 28
_cell_length_a 16.956946
_cell_length_b 12.512722
_cell_length_c 9.185154
_cell_angle_alpha 90.000000
_cell_angle_beta 30.690864
_cell_angle_gamma 90.000000
_cell_volume 994.721444
_symmetry_space_group_name_H-M "C 2/M"
_symmetry_group_IT_number 12
_symmetry_cell_setting 'monoclinic'
loop_
_space_group_symop_operation_xyz
x,y,z
-x,y,-z
-x,-y,-z
x,-y,z
1/2+x,1/2+y,z
1/2-x,1/2+y,-z
1/2-x,1/2-y,-z
1/2+x,1/2-y,z
loop_
_atom_site_type_symbol
_atom_site_label
_atom_site_fract_x
_atom_site_fract_y
_atom_site_fract_z
Si Si1 0.170522 0.000000 0.478779
Si Si2 0.669331 0.290339 0.780328
Si Si3 0.427923 0.318435 0.768100
Si Si4 0.308256 0.000000 0.958726
Si Si5 0.846695 0.500000 0.506886
O O1 0.284008 0.000000 0.437258
O O2 0.060543 0.102268 0.623578
O O3 0.288311 0.000000 0.162585
O O4 0.750000 0.250000 0.500000
O O5 0.770033 0.389118 0.670602
O O6 0.500000 0.324648 0.000000
O O7 0.624147 0.241736 0.013813
O O8 0.500000 0.275449 0.500000
O O9 0.289159 0.398123 0.943937
O O10 0.508244 0.000000 0.333242
#
# Coordination Sequence:
#
# PCOD9222592 Si02
#       5
#     4   8   8   4   4
#     4   9  16  35  73 112 143 200 255 301 385 461
#     4  12  27  48  77 112 155 205 260 314 383 469
#     4   9  19  42  72 110 154 199 251 314 388 458
#     4   9  20  34  75 125 148 189 258 326 387 461
#     4  12  22  42  81 113 157 199 256 319 393 452
#
# _framework density 28.148584
#
# number of rings (size 3 to 8) (size 9 to 14) (size 15 to 20)
#    0.000    1.714    2.857    4.286    0.000    4.571 
#    0.000    1.429    0.000    0.000    0.000    1.000 
#    0.000    0.000    0.000    0.000    0.000    0.000 
#
# Total GULP energy -77989.698925 kJ/mol
# GULP energy per Si atom -5570.692780 kJ/mol
# Density = 2.808452 g / cm^3
# Si number density = 28.148584 Si / 1000 Ang^3
#
#
#
# Elastic Constant Matrix: (Units=GPa)
#
#
# Indices 1 2 3 4 5 6 
#
# 1 215.9141 18.2525 116.5305 0.0000 1.0251 0.0000
# 2 18.2525 50.0603 50.5490 0.0000 0.7319 0.0000
# 3 116.5305 50.5490 233.8947 0.0000 48.1093 0.0000
# 4 0.0000 0.0000 0.0000 14.5250 0.0000 -21.3767
# 5 1.0251 0.7319 48.1093 0.0000 115.9750 0.0000
# 6 0.0000 0.0000 0.0000 -21.3767 0.0000 30.9566
#
#
#
# Elastic Compliance Matrix: (Units=1/GPa)
#
#
# Indices 1 2 3 4 5 6 
#
# 1 0.006633 0.001564 -0.003967 0.000000 0.001577 0.000000
# 2 0.001564 0.026509 -0.007075 0.000000 0.002754 0.000000
# 3 -0.003967 -0.007075 0.008489 0.000000 -0.003442 0.000000
# 4 0.000000 0.000000 0.000000 -4.229283 0.000000 -2.920482
# 5 0.001577 0.002754 -0.003442 0.000000 0.010019 0.000000
# 6 0.000000 0.000000 0.000000 -2.920482 0.000000 -1.984401
#
#
# Mechanical properties :
#
#
# Convention : Reuss Voigt Hill
#
# Bulk Modulus (GPa) = 44.10036 96.72590 70.41313
# Shear Modulus (GPa) = -0.81493 53.26047 26.22277
#
# Velocity S-wave (km/s) = -0.53864 4.35457 3.05550
# Velocity P-wave (km/s) = 3.91333 7.72789 6.12513
#
# Compressibility (1/GPa) = 0.02267555
#
# Stress axis : x y z
#
# Youngs Moduli (GPa) = 150.76619 37.72270 117.80219
#
# Poissons Ratio (x) = -0.05901 0.46733
# Poissons Ratio (y) = -0.23585 0.83344
# Poissons Ratio (z) = 0.59810 0.26689
#
# Static dielectric constant tensor:
#      x y z
#    x 2.165590 0.000000 0.085630 
#    y 0.000000 2.235920 0.000000 
#    z 0.085630 0.000000 2.299210 
# 
# From -- ./inp_files/36682.got.cif
#   From: 2010.05.17/outbox.cif.g08.bks.cpg/sg12_19_cif.got.tgz:36682.got - 2010.06.03 13:09:07.
