data_PCOD9222103
_publ_section_title
;
Structure prediction by ZEFSAII (Michael W. Deem and Ramdas Pophale) SiO2 
 PCOD9222103
Probable space group: C 2/M
;
_chemical_formula_sum "Si O2"
_cell_formula_units_Z 64
_cell_length_a 8.084896
_cell_length_b 16.111660
_cell_length_c 22.527062
_cell_angle_alpha 90.000000
_cell_angle_beta 88.380798
_cell_angle_gamma 90.000000
_cell_volume 2933.228072
_symmetry_space_group_name_H-M "C 2/M"
_symmetry_group_IT_number 12
_symmetry_cell_setting 'monoclinic'
loop_
_space_group_symop_operation_xyz
x,y,z
-x,y,-z
-x,-y,-z
x,-y,z
1/2+x,1/2+y,z
1/2-x,1/2+y,-z
1/2-x,1/2-y,-z
1/2+x,1/2-y,z
loop_
_atom_site_type_symbol
_atom_site_label
_atom_site_fract_x
_atom_site_fract_y
_atom_site_fract_z
Si Si1 0.211085 0.407350 0.639467
Si Si2 0.921786 0.094667 0.305053
Si Si3 0.921016 0.213898 0.778680
Si Si4 0.355391 0.782291 0.134709
Si Si5 0.114145 0.695484 0.342751
Si Si6 0.649169 0.690660 0.458202
Si Si7 0.752337 0.407273 0.043472
Si Si8 0.134374 0.904703 0.912690
O O1 0.149355 0.500000 0.647021
O O2 0.394449 0.404397 0.667122
O O3 0.243439 0.382293 0.571057
O O4 0.063500 0.348514 0.662866
O O5 0.947200 0.146349 0.244540
O O6 0.776303 0.137249 0.344930
O O7 0.876666 0.000000 0.294600
O O8 0.991525 0.282623 0.822234
O O9 0.780993 0.175948 0.821097
O O10 0.859905 0.254017 0.718272
O O11 0.354562 0.835265 0.074954
O O12 0.334808 0.683575 0.120484
O O13 0.101725 0.753241 0.401106
O O14 0.500000 0.658956 0.500000
O O15 0.750000 0.750000 0.500000
O O16 0.814624 0.500000 0.057333
O O17 0.561066 0.402033 0.067805
O O18 0.738535 0.399367 0.972797
O O19 0.162553 0.000000 0.887984
#
# Coordination Sequence:
#
# PCOD9222103 Si02
#       8
#     8   8   8   8   8   8   8   8
#     4  11  24  43  68 100 130 165 219 274 325 389
#     4  11  24  43  68  95 129 175 220 271 332 392
#     4  12  24  40  64  90 128 174 213 265 324 404
#     4  12  22  38  62  96 126 165 220 270 326 386
#     4  12  23  47  68  92 136 175 221 267 332 401
#     4  12  23  41  71  98 127 176 219 265 328 393
#     4   9  19  38  63  90 125 170 214 270 329 389
#     4   9  19  38  63  90 126 170 216 264 328 399
#
# _framework density 21.818963
#
# number of rings (size 3 to 8) (size 9 to 14) (size 15 to 20)
#    0.000    1.000    5.000    3.750    0.000    1.250 
#    0.000    3.750    0.000    1.500    0.000    0.000 
#    0.000    0.000    0.000    0.000    0.000    0.000 
#
# Total GULP energy -178427.560832 kJ/mol
# GULP energy per Si atom -5575.861276 kJ/mol
# Density = 2.176930 g / cm^3
# Si number density = 21.818963 Si / 1000 Ang^3
#
#
#
# Elastic Constant Matrix: (Units=GPa)
#
#
# Indices 1 2 3 4 5 6 
#
# 1 54.9360 16.9438 12.9525 0.0000 -7.1810 0.0000
# 2 16.9438 111.1594 37.7902 0.0000 7.4071 0.0000
# 3 12.9525 37.7902 86.3917 0.0000 15.0932 0.0000
# 4 0.0000 0.0000 0.0000 12.6254 0.0000 -2.9544
# 5 -7.1810 7.4071 15.0932 0.0000 41.9845 0.0000
# 6 0.0000 0.0000 0.0000 -2.9544 0.0000 18.0017
#
#
#
# Elastic Compliance Matrix: (Units=1/GPa)
#
#
# Indices 1 2 3 4 5 6 
#
# 1 0.020269 -0.002457 -0.002823 0.000000 0.004915 0.000000
# 2 -0.002457 0.010867 -0.004243 0.000000 -0.000812 0.000000
# 3 -0.002823 -0.004243 0.014733 0.000000 -0.005031 0.000000
# 4 0.000000 0.000000 0.000000 0.082369 0.000000 0.013518
# 5 0.004915 -0.000812 -0.005031 0.000000 0.026611 0.000000
# 6 0.000000 0.000000 0.000000 0.013518 0.000000 0.057769
#
#
# Mechanical properties :
#
#
# Convention : Reuss Voigt Hill
#
# Bulk Modulus (GPa) = 37.28162 43.09556 40.18859
# Shear Modulus (GPa) = 20.78083 26.84235 23.81159
#
# Velocity S-wave (km/s) = 3.08948 3.51127 3.30711
# Velocity P-wave (km/s) = 5.46355 6.01938 5.74819
#
# Compressibility (1/GPa) = 0.02682287
#
# Stress axis : x y z
#
# Youngs Moduli (GPa) = 49.33661 92.01843 67.87282
#
# Poissons Ratio (x) = 0.22613 0.19158
# Poissons Ratio (y) = 0.12124 0.28801
# Poissons Ratio (z) = 0.13926 0.39047
#
# Static dielectric constant tensor:
#      x y z
#    x 1.994120 0.000000 -0.082130 
#    y 0.000000 1.837910 0.000000 
#    z -0.082130 0.000000 1.898990 
# 
# From -- ./inp_files/332940.got.cif
#   From: 2010.05.17/outbox.cif.g08.bks.cpg/sg12_167_cif.got.tgz:332940.got - 2010.06.03 13:09:07.
