data_PCOD9222433
_publ_section_title
;
Structure prediction by ZEFSAII (Michael W. Deem and Ramdas Pophale) SiO2 
 PCOD9222433
Probable space group: C 2/M
;
_chemical_formula_sum "Si O2"
_cell_formula_units_Z 32
_cell_length_a 10.615630
_cell_length_b 30.844551
_cell_length_c 5.062335
_cell_angle_alpha 90.000000
_cell_angle_beta 55.122519
_cell_angle_gamma 90.000000
_cell_volume 1359.841890
_symmetry_space_group_name_H-M "C 2/M"
_symmetry_group_IT_number 12
_symmetry_cell_setting 'monoclinic'
loop_
_space_group_symop_operation_xyz
x,y,z
-x,y,-z
-x,-y,-z
x,-y,z
1/2+x,1/2+y,z
1/2-x,1/2+y,-z
1/2-x,1/2-y,-z
1/2+x,1/2-y,z
loop_
_atom_site_type_symbol
_atom_site_label
_atom_site_fract_x
_atom_site_fract_y
_atom_site_fract_z
Si Si1 0.179888 0.225381 0.837914
Si Si2 0.341596 0.047233 0.024831
Si Si3 0.675185 0.866196 0.311905
Si Si4 0.104446 0.909724 0.611794
O O1 0.250000 0.250000 0.500000
O O2 0.222295 0.175702 0.860084
O O3 0.250000 0.250000 0.000000
O O4 0.000000 0.227403 0.000000
O O5 0.322819 0.088538 0.854635
O O6 0.345914 0.000000 0.883505
O O7 0.500000 0.051274 0.000000
O O8 0.191897 0.048586 0.392727
O O9 0.500000 0.851609 0.500000
O O10 0.747712 0.880017 0.504843
O O11 0.000000 0.892384 0.500000
O O12 0.000000 0.914340 0.000000
#
# Coordination Sequence:
#
# PCOD9222433 Si02
#       4
#     8   8   8   8
#     4  12  29  52  83 119 156 200 256 320 394 474
#     4  11  26  48  77 113 157 213 271 322 385 465
#     4  12  26  48  81 112 157 206 263 320 390 461
#     4  12  26  46  73 110 151 199 256 324 390 451
#
# _framework density 23.532150000000001
#
# number of rings (size 3 to 8) (size 9 to 14) (size 15 to 20)
#    0.000    0.250    5.000    3.000    3.500    3.500 
#    0.000    0.000    0.000    0.000    0.000    0.000 
#    0.000    0.000    0.000    0.000    0.000    0.000 
#
# Total GULP energy -89291.926101 kJ/mol
# GULP energy per Si atom -5580.745381 kJ/mol
# Density = 2.347859 g / cm^3
# Si number density = 23.532150 Si / 1000 Ang^3
#
#
#
# Elastic Constant Matrix: (Units=GPa)
#
#
# Indices 1 2 3 4 5 6 
#
# 1 253.2937 67.4381 68.6221 0.0000 -4.8483 0.0000
# 2 67.4381 173.6509 30.1945 0.0000 16.1403 0.0000
# 3 68.6221 30.1945 113.2275 0.0000 -1.5091 0.0000
# 4 0.0000 0.0000 0.0000 27.8846 0.0000 5.4339
# 5 -4.8483 16.1403 -1.5091 0.0000 55.4829 0.0000
# 6 0.0000 0.0000 0.0000 5.4339 0.0000 8.5423
#
#
#
# Elastic Compliance Matrix: (Units=1/GPa)
#
#
# Indices 1 2 3 4 5 6 
#
# 1 0.005111 -0.001600 -0.002659 0.000000 0.000840 0.000000
# 2 -0.001600 0.006725 -0.000852 0.000000 -0.002119 0.000000
# 3 -0.002659 -0.000852 0.010675 0.000000 0.000306 0.000000
# 4 0.000000 0.000000 0.000000 0.040937 0.000000 -0.026040
# 5 0.000840 -0.002119 0.000306 0.000000 0.018722 0.000000
# 6 0.000000 0.000000 0.000000 -0.026040 0.000000 0.133630
#
#
# Mechanical properties :
#
#
# Convention : Reuss Voigt Hill
#
# Bulk Modulus (GPa) = 81.38272 96.96461 89.17367
# Shear Modulus (GPa) = 21.72800 43.30976 32.51888
#
# Velocity S-wave (km/s) = 3.04194 4.29470 3.72141
# Velocity P-wave (km/s) = 6.85540 8.11710 7.51278
#
# Compressibility (1/GPa) = 0.01228762
#
# Stress axis : x y z
#
# Youngs Moduli (GPa) = 195.67084 148.69229 93.67935
#
# Poissons Ratio (x) = 0.23796 0.24913
# Poissons Ratio (y) = 0.31315 0.07979
# Poissons Ratio (z) = 0.52036 0.12665
#
# Static dielectric constant tensor:
#      x y z
#    x 1.875320 0.000000 0.010590 
#    y 0.000000 2.059210 0.000000 
#    z 0.010590 0.000000 2.038220 
# 
# From -- ./inp_files/3743.got.cif
#   From: 2010.05.17/outbox.cif.g08.bks.cpg/sg12_2_cif.got.tgz:3743.got - 2010.06.03 13:09:07.
