data_PCOD9222963
_publ_section_title
;
Structure prediction by ZEFSAII (Michael W. Deem and Ramdas Pophale) SiO2 
 PCOD9222963
Probable space group: C 2/M
;
_chemical_formula_sum "Si O2"
_cell_formula_units_Z 64
_cell_length_a 14.989962
_cell_length_b 25.094854
_cell_length_c 7.077147
_cell_angle_alpha 90.000000
_cell_angle_beta 75.160886
_cell_angle_gamma 90.000000
_cell_volume 2573.428630
_symmetry_space_group_name_H-M "C 2/M"
_symmetry_group_IT_number 12
_symmetry_cell_setting 'monoclinic'
loop_
_space_group_symop_operation_xyz
x,y,z
-x,y,-z
-x,-y,-z
x,-y,z
1/2+x,1/2+y,z
1/2-x,1/2+y,-z
1/2-x,1/2-y,-z
1/2+x,1/2-y,z
loop_
_atom_site_type_symbol
_atom_site_label
_atom_site_fract_x
_atom_site_fract_y
_atom_site_fract_z
Si Si1 0.086044 0.105797 0.690150
Si Si2 0.259349 0.058306 0.499999
Si Si3 0.200693 0.440251 0.065931
Si Si4 0.380237 0.276403 0.382893
Si Si5 0.116317 0.889356 0.105175
Si Si6 0.408179 0.272465 0.817470
Si Si7 0.417629 0.158275 0.812487
Si Si8 0.128673 0.660816 0.612426
O O1 0.149103 0.065191 0.543040
O O2 0.142620 0.161976 0.641070
O O3 0.975934 0.108975 0.715914
O O4 0.091021 0.092508 0.908325
O O5 0.278469 0.060489 0.717916
O O6 0.311946 0.108523 0.383340
O O7 0.290173 0.000000 0.418805
O O8 0.170886 0.500000 0.036912
O O9 0.127235 0.393731 0.076779
O O10 0.293569 0.423722 0.904382
O O11 0.393909 0.273987 0.600258
O O12 0.480438 0.274432 0.224996
O O13 0.330975 0.220028 0.363996
O O14 0.137147 0.825896 0.079785
O O15 0.379165 0.214817 0.908074
O O16 0.528170 0.157419 0.762481
O O17 0.392504 0.159603 0.601965
#
# Coordination Sequence:
#
# PCOD9222963 Si02
#       8
#     8   8   8   8   8   8   8   8
#     4   9  17  28  42  62  88 114 139 170 206 244
#     4   9  17  27  39  58  83 111 144 176 205 243
#     4   9  17  27  39  58  83 111 144 176 205 243
#     4   8  14  26  44  64  85 109 137 169 208 253
#     4   9  17  28  42  62  88 114 139 170 206 244
#     4   8  14  26  44  64  85 109 137 169 208 253
#     4   8  14  25  41  61  84 108 135 171 213 252
#     4   8  14  25  41  61  84 108 135 171 213 252
#
# _framework density 24.869544999999999
#
# number of rings (size 3 to 8) (size 9 to 14) (size 15 to 20)
#    0.000    3.500    0.000    1.500    0.000    2.000 
#    0.000    5.000    0.000    0.750    0.000    3.500 
#    0.000    0.000    0.000   12.000    0.000   12.500 
#
# Total GULP energy -178647.095408 kJ/mol
# GULP energy per Si atom -5582.721731 kJ/mol
# Density = 2.481294 g / cm^3
# Si number density = 24.869545 Si / 1000 Ang^3
#
#
#
# Elastic Constant Matrix: (Units=GPa)
#
#
# Indices 1 2 3 4 5 6 
#
# 1 36.9392 5.1256 10.1632 0.0000 0.5892 0.0000
# 2 5.1256 71.2780 12.7621 0.0000 -12.9383 0.0000
# 3 10.1632 12.7621 92.6088 0.0000 9.9531 0.0000
# 4 0.0000 0.0000 0.0000 21.8276 0.0000 -8.6045
# 5 0.5892 -12.9383 9.9531 0.0000 28.3181 0.0000
# 6 0.0000 0.0000 0.0000 -8.6045 0.0000 23.7766
#
#
#
# Elastic Compliance Matrix: (Units=1/GPa)
#
#
# Indices 1 2 3 4 5 6 
#
# 1 0.028073 -0.001567 -0.002832 0.000000 -0.000305 0.000000
# 2 -0.001567 0.016215 -0.002975 0.000000 0.008487 0.000000
# 3 -0.002832 -0.002975 0.012116 0.000000 -0.005559 0.000000
# 4 0.000000 0.000000 0.000000 0.053437 0.000000 0.019338
# 5 -0.000305 0.008487 -0.005559 0.000000 0.041151 0.000000
# 6 0.000000 0.000000 0.000000 0.019338 0.000000 0.049056
#
#
# Mechanical properties :
#
#
# Convention : Reuss Voigt Hill
#
# Bulk Modulus (GPa) = 24.00555 28.54753 26.27654
# Shear Modulus (GPa) = 21.86446 26.30281 24.08364
#
# Velocity S-wave (km/s) = 2.96829 3.25565 3.11529
# Velocity P-wave (km/s) = 4.62830 5.06322 4.85064
#
# Compressibility (1/GPa) = 0.04165703
#
# Stress axis : x y z
#
# Youngs Moduli (GPa) = 35.62141 61.66988 82.53355
#
# Poissons Ratio (x) = 0.09663 0.23375
# Poissons Ratio (y) = 0.05582 0.24552
# Poissons Ratio (z) = 0.10088 0.18345
#
# Static dielectric constant tensor:
#      x y z
#    x 1.991020 0.000000 0.028530 
#    y 0.000000 1.944480 0.000000 
#    z 0.028530 0.000000 1.994430 
# 
# From -- ./inp_files/170026.got.cif
#   From: 2010.05.17/outbox.cif.g08.bks.cpg/sg12_86_cif.got.tgz:170026.got - 2010.06.03 13:09:07.
