data_PCOD9222295
_publ_section_title
;
Structure prediction by ZEFSAII (Michael W. Deem and Ramdas Pophale) SiO2 
 PCOD9222295
Probable space group: C 2/M
;
_chemical_formula_sum "Si O2"
_cell_formula_units_Z 34
_cell_length_a 9.057857
_cell_length_b 21.097037
_cell_length_c 8.111266
_cell_angle_alpha 90.000000
_cell_angle_beta 87.611279
_cell_angle_gamma 90.000000
_cell_volume 1548.666935
_symmetry_space_group_name_H-M "C 2/M"
_symmetry_group_IT_number 12
_symmetry_cell_setting 'monoclinic'
loop_
_space_group_symop_operation_xyz
x,y,z
-x,y,-z
-x,-y,-z
x,-y,z
1/2+x,1/2+y,z
1/2-x,1/2+y,-z
1/2-x,1/2-y,-z
1/2+x,1/2-y,z
loop_
_atom_site_type_symbol
_atom_site_label
_atom_site_fract_x
_atom_site_fract_y
_atom_site_fract_z
Si Si1 0.317984 0.318719 0.339662
Si Si2 0.522872 0.218374 0.187243
Si Si3 0.512875 0.573313 0.195350
Si Si4 0.184221 0.616987 0.656089
Si Si5 0.500000 0.000000 0.500000
O O1 0.453719 0.270768 0.311744
O O2 0.384858 0.386079 0.284635
O O3 0.240135 0.332263 0.516837
O O4 0.192343 0.293759 0.222270
O O5 0.433437 0.153655 0.225011
O O6 0.500000 0.239123 0.000000
O O7 0.494858 0.500000 0.239519
O O8 0.672062 0.596470 0.249158
O O9 0.500000 0.580704 0.000000
O O10 0.106745 0.556611 0.575518
#
# Coordination Sequence:
#
# PCOD9222295 Si02
#       5
#     8   8   8   8   2
#     4  12  25  43  69 102 138 182 232 281 348 404
#     4  12  25  45  70 101 141 181 231 289 344 406
#     4  11  25  44  69 102 140 183 232 285 342 406
#     4  12  25  46  72 102 139 182 231 280 345 414
#     4  12  24  48  70 104 146 176 230 280 346 408
#
# _framework density 21.954364999999999
#
# number of rings (size 3 to 8) (size 9 to 14) (size 15 to 20)
#    0.000    0.235    3.529    5.647    1.647    2.824 
#    0.000    0.588    0.000    0.000    0.000    0.000 
#    0.000    0.000    0.000    0.000    0.000    0.000 
#
# Total GULP energy -94997.896822 kJ/mol
# GULP energy per Si atom -5588.111578 kJ/mol
# Density = 2.190440 g / cm^3
# Si number density = 21.954365 Si / 1000 Ang^3
#
#
#
# Elastic Constant Matrix: (Units=GPa)
#
#
# Indices 1 2 3 4 5 6 
#
# 1 105.6894 18.6864 27.3764 0.0000 21.6731 0.0000
# 2 18.6864 66.0213 34.9082 0.0000 0.0116 0.0000
# 3 27.3764 34.9082 53.0309 0.0000 15.4715 0.0000
# 4 0.0000 0.0000 0.0000 23.8204 0.0000 -0.1566
# 5 21.6731 0.0116 15.4715 0.0000 46.6685 0.0000
# 6 0.0000 0.0000 0.0000 -0.1566 0.0000 42.4810
#
#
#
# Elastic Compliance Matrix: (Units=1/GPa)
#
#
# Indices 1 2 3 4 5 6 
#
# 1 0.011531 -0.001127 -0.004039 0.000000 -0.004016 0.000000
# 2 -0.001127 0.024748 -0.017558 0.000000 0.006338 0.000000
# 3 -0.004039 -0.017558 0.035372 0.000000 -0.009847 0.000000
# 4 0.000000 0.000000 0.000000 0.041982 0.000000 0.000155
# 5 -0.004016 0.006338 -0.009847 0.000000 0.026555 0.000000
# 6 0.000000 0.000000 0.000000 0.000155 0.000000 0.023540
#
#
# Mechanical properties :
#
#
# Convention : Reuss Voigt Hill
#
# Bulk Modulus (GPa) = 38.16382 42.96485 40.56433
# Shear Modulus (GPa) = 22.94507 32.17871 27.56189
#
# Velocity S-wave (km/s) = 3.23635 3.83261 3.54703
# Velocity P-wave (km/s) = 5.60234 6.26081 5.94071
#
# Compressibility (1/GPa) = 0.02620283
#
# Stress axis : x y z
#
# Youngs Moduli (GPa) = 86.72539 40.40691 28.27061
#
# Poissons Ratio (x) = 0.04555 0.11418
# Poissons Ratio (y) = 0.09777 0.49638
# Poissons Ratio (z) = 0.35027 0.70946
#
# Static dielectric constant tensor:
#      x y z
#    x 1.785510 0.000000 -0.019630 
#    y 0.000000 1.792460 0.000000 
#    z -0.019630 0.000000 1.814610 
# 
# From -- ./inp_files/37999.got.cif
#   From: 2010.05.17/outbox.cif.g08.bks.cpg/sg12_19_cif.got.tgz:37999.got - 2010.06.03 13:09:07.
