data_PCOD9222007
_publ_section_title
;
Structure prediction by ZEFSAII (Michael W. Deem and Ramdas Pophale) SiO2 
 PCOD9222007
Probable space group: C 2/M
;
_chemical_formula_sum "Si O2"
_cell_formula_units_Z 38
_cell_length_a 10.901372
_cell_length_b 27.190938
_cell_length_c 5.072205
_cell_angle_alpha 90.000000
_cell_angle_beta 95.003067
_cell_angle_gamma 90.000000
_cell_volume 1497.767280
_symmetry_space_group_name_H-M "C 2/M"
_symmetry_group_IT_number 12
_symmetry_cell_setting 'monoclinic'
loop_
_space_group_symop_operation_xyz
x,y,z
-x,y,-z
-x,-y,-z
x,-y,z
1/2+x,1/2+y,z
1/2-x,1/2+y,-z
1/2-x,1/2-y,-z
1/2+x,1/2-y,z
loop_
_atom_site_type_symbol
_atom_site_label
_atom_site_fract_x
_atom_site_fract_y
_atom_site_fract_z
Si Si1 0.719751 0.402797 0.649648
Si Si2 0.883783 0.299543 0.175081
Si Si3 0.865496 0.593171 0.183424
Si Si4 0.881100 0.193905 0.167414
Si Si5 0.584586 0.500000 0.767661
Si Si6 0.500000 0.000000 0.000000
O O1 0.752080 0.416881 0.358519
O O2 0.637586 0.354004 0.655776
O O3 0.662771 0.450821 0.770996
O O4 0.834167 0.395046 0.871141
O O5 0.902044 0.353132 0.303266
O O6 0.885132 0.246468 0.318198
O O7 0.745773 0.302879 0.026117
O O8 0.000000 0.294841 0.000000
O O9 0.945285 0.544072 0.184401
O O10 0.000000 0.187888 0.000000
O O11 0.500000 0.500000 0.500000
O O12 0.500000 0.500000 0.000000
#
# Coordination Sequence:
#
# PCOD9222007 Si02
#       6
#     8   8   8   8   4   2
#     4  11  24  43  63  98 131 181 223 292 340 422
#     4   9  18  39  62  99 135 182 229 298 343 415
#     4  11  24  41  67  94 137 172 232 279 356 408
#     4   9  19  37  67  95 138 183 237 280 356 416
#     4  12  24  41  66  93 134 177 227 286 345 415
#     4  12  24  44  68 102 132 190 218 296 346 430
#
# _framework density 25.371096000000001
#
# number of rings (size 3 to 8) (size 9 to 14) (size 15 to 20)
#    0.000    1.684    1.053    3.158    0.000    4.211 
#    0.000    0.000    0.000   17.684    0.000    0.000 
#    0.000    0.000    0.000    0.000    0.000    0.000 
#
# Total GULP energy -105783.318863 kJ/mol
# GULP energy per Si atom -5567.543098 kJ/mol
# Density = 2.531335 g / cm^3
# Si number density = 25.371096 Si / 1000 Ang^3
#
#
#
# Elastic Constant Matrix: (Units=GPa)
#
#
# Indices 1 2 3 4 5 6 
#
# 1 127.3269 44.2407 39.4850 0.0000 -14.0004 0.0000
# 2 44.2407 297.0110 25.3770 0.0000 -36.6477 0.0000
# 3 39.4850 25.3770 93.9766 0.0000 -11.5973 0.0000
# 4 0.0000 0.0000 0.0000 133.8004 0.0000 -37.1973
# 5 -14.0004 -36.6477 -11.5973 0.0000 66.3481 0.0000
# 6 0.0000 0.0000 0.0000 -37.1973 0.0000 49.3651
#
#
#
# Elastic Compliance Matrix: (Units=1/GPa)
#
#
# Indices 1 2 3 4 5 6 
#
# 1 0.009399 -0.000994 -0.003581 0.000000 0.000808 0.000000
# 2 -0.000994 0.003770 -0.000377 0.000000 0.001807 0.000000
# 3 -0.003581 -0.000377 0.012396 0.000000 0.001203 0.000000
# 4 0.000000 0.000000 0.000000 0.009454 0.000000 0.007124
# 5 0.000808 0.001807 0.001203 0.000000 0.016451 0.000000
# 6 0.000000 0.000000 0.000000 0.007124 0.000000 0.025625
#
#
# Mechanical properties :
#
#
# Convention : Reuss Voigt Hill
#
# Bulk Modulus (GPa) = 63.85777 81.83552 72.84665
# Shear Modulus (GPa) = 54.21869 77.18350 65.70109
#
# Velocity S-wave (km/s) = 4.62781 5.52158 5.09434
# Velocity P-wave (km/s) = 7.33346 8.54259 7.96102
#
# Compressibility (1/GPa) = 0.01565980
#
# Stress axis : x y z
#
# Youngs Moduli (GPa) = 106.39984 265.24169 80.67318
#
# Poissons Ratio (x) = 0.26373 0.28886
# Poissons Ratio (y) = 0.10579 0.03044
# Poissons Ratio (z) = 0.38098 0.10009
#
# Static dielectric constant tensor:
#      x y z
#    x 2.263920 0.000000 0.287200 
#    y 0.000000 1.956610 0.000000 
#    z 0.287200 0.000000 2.279620 
# 
# From -- ./inp_files/8169.got.cif
#   From: 2010.05.17/outbox.cif.g08.bks.cpg/sg12_5_cif.got.tgz:8169.got - 2010.06.03 13:09:07.
