data_PCOD9222542
_publ_section_title
;
Structure prediction by ZEFSAII (Michael W. Deem and Ramdas Pophale) SiO2 
 PCOD9222542
Probable space group: C 2/M
;
_chemical_formula_sum "Si O2"
_cell_formula_units_Z 48
_cell_length_a 17.489821
_cell_length_b 15.467081
_cell_length_c 17.288536
_cell_angle_alpha 90.000000
_cell_angle_beta 149.801031
_cell_angle_gamma 90.000000
_cell_volume 2352.467989
_symmetry_space_group_name_H-M "C 2/M"
_symmetry_group_IT_number 12
_symmetry_cell_setting 'monoclinic'
loop_
_space_group_symop_operation_xyz
x,y,z
-x,y,-z
-x,-y,-z
x,-y,z
1/2+x,1/2+y,z
1/2-x,1/2+y,-z
1/2-x,1/2-y,-z
1/2+x,1/2-y,z
loop_
_atom_site_type_symbol
_atom_site_label
_atom_site_fract_x
_atom_site_fract_y
_atom_site_fract_z
Si Si1 0.788621 0.339823 0.079654
Si Si2 0.050834 0.097559 0.214731
Si Si3 0.039724 0.404574 0.185817
Si Si4 0.567727 0.227686 0.638243
Si Si5 0.327192 0.331779 0.523802
Si Si6 0.620308 0.258585 0.162469
O O1 0.880568 0.324996 0.240134
O O2 0.897078 0.393068 0.117772
O O3 0.750000 0.250000 0.000000
O O4 0.627371 0.384160 0.954319
O O5 0.084541 0.114539 0.334180
O O6 0.144191 0.170489 0.249896
O O7 0.090796 0.000000 0.227800
O O8 0.041029 0.500000 0.152649
O O9 0.193360 0.386951 0.368720
O O10 0.039934 0.325660 0.126453
O O11 0.500000 0.185241 0.500000
O O12 0.444207 0.295265 0.562479
O O13 0.726464 0.266606 0.746811
O O14 0.250000 0.250000 0.500000
O O15 0.500000 0.301391 0.000000
#
# Coordination Sequence:
#
# PCOD9222542 Si02
#       6
#     8   8   8   8   8   8
#     4  12  21  44  70  97 133 177 229 277 328 396
#     4  12  25  43  70  99 131 178 231 277 327 399
#     4  12  25  43  69  99 132 175 227 279 327 395
#     4  12  22  39  71  97 129 180 218 270 343 400
#     4  12  21  44  71  94 131 177 226 272 333 395
#     4  12  24  43  67  95 137 177 214 273 341 405
#
# _framework density 20.404102999999999
#
# number of rings (size 3 to 8) (size 9 to 14) (size 15 to 20)
#    0.000    0.000   10.000    1.000    0.000    0.667 
#    0.000    2.500    0.000    3.500    0.000    0.000 
#    0.000    0.000    0.000    0.000    0.000    0.000 
#
# Total GULP energy -134052.022295 kJ/mol
# GULP energy per Si atom -5585.500929 kJ/mol
# Density = 2.035766 g / cm^3
# Si number density = 20.404103 Si / 1000 Ang^3
#
#
#
# Elastic Constant Matrix: (Units=GPa)
#
#
# Indices 1 2 3 4 5 6 
#
# 1 112.7859 29.2995 9.2078 -0.0005 21.8149 -0.0002
# 2 29.2995 101.7991 -8.1631 -0.0011 7.5792 -0.0004
# 3 9.2078 -8.1631 78.1970 -0.0015 -2.5052 -0.0006
# 4 -0.0005 -0.0011 -0.0015 19.4144 -0.0006 3.5367
# 5 21.8149 7.5792 -2.5052 -0.0006 50.4084 -0.0002
# 6 -0.0002 -0.0004 -0.0006 3.5367 -0.0002 -3.6614
#
#
#
# Elastic Compliance Matrix: (Units=1/GPa)
#
#
# Indices 1 2 3 4 5 6 
#
# 1 0.010564 -0.002860 -0.001678 0.000000 -0.004225 0.000000
# 2 -0.002860 0.010786 0.001453 0.000001 -0.000312 -0.000001
# 3 -0.001678 0.001453 0.013175 0.000001 0.001162 -0.000001
# 4 0.000000 0.000001 0.000001 0.043801 0.000001 0.042309
# 5 -0.004225 -0.000312 0.001162 0.000001 0.021771 0.000000
# 6 0.000000 -0.000001 -0.000001 0.042309 0.000000 -0.232252
#
#
# Mechanical properties :
#
#
# Convention : Reuss Voigt Hill
#
# Bulk Modulus (GPa) = 35.26871 39.27448 37.27159
# Shear Modulus (GPa) = -42.90591 30.72813 -6.08889
#
# Velocity S-wave (km/s) = -4.59061 3.88490 -1.72934
# Velocity P-wave (km/s) = 3.28263 6.27801 3.78403
#
# Compressibility (1/GPa) = 0.02835375
#
# Stress axis : x y z
#
# Youngs Moduli (GPa) = 94.66511 92.71076 75.90314
#
# Poissons Ratio (x) = 0.26519 0.12735
# Poissons Ratio (y) = 0.27078 -0.11027
# Poissons Ratio (z) = 0.15883 -0.13469
#
# Static dielectric constant tensor:
#      x y z
#    x 1.724570 0.000000 -0.033510 
#    y 0.000000 1.726820 0.000000 
#    z -0.033510 0.000000 1.755750 
# 
# From -- ./inp_files/278242.got.cif
#   From: 2010.05.17/outbox.cif.g08.bks.cpg/sg12_140_cif.got.tgz:278242.got - 2010.06.03 13:09:07.
