data_PCOD9222721
_publ_section_title
;
Structure prediction by ZEFSAII (Michael W. Deem and Ramdas Pophale) SiO2 
 PCOD9222721
Probable space group: C 2/M
;
_chemical_formula_sum "Si O2"
_cell_formula_units_Z 24
_cell_length_a 11.479110
_cell_length_b 18.797594
_cell_length_c 4.934437
_cell_angle_alpha 90.000000
_cell_angle_beta 103.627836
_cell_angle_gamma 90.000000
_cell_volume 1034.774772
_symmetry_space_group_name_H-M "C 2/M"
_symmetry_group_IT_number 12
_symmetry_cell_setting 'monoclinic'
loop_
_space_group_symop_operation_xyz
x,y,z
-x,y,-z
-x,-y,-z
x,-y,z
1/2+x,1/2+y,z
1/2-x,1/2+y,-z
1/2-x,1/2-y,-z
1/2+x,1/2-y,z
loop_
_atom_site_type_symbol
_atom_site_label
_atom_site_fract_x
_atom_site_fract_y
_atom_site_fract_z
Si Si1 0.908288 0.000000 0.202805
Si Si2 0.000000 0.684310 0.000000
Si Si3 0.384527 0.695859 0.561244
Si Si4 0.743870 0.639885 0.985315
O O1 0.818505 0.067490 0.146279
O O2 0.000000 0.000000 0.500000
O O3 0.000000 0.000000 0.000000
O O4 0.055731 0.735861 0.261788
O O5 0.112429 0.640409 0.946066
O O6 0.500000 0.656697 0.500000
O O7 0.199636 0.798956 0.747759
O O8 0.312216 0.655075 0.752261
#
# Coordination Sequence:
#
# PCOD9222721 Si02
#       4
#     4   4   8   8
#     4  12  26  49  70  95 132 178 233 279 324 404
#     4  12  28  41  72 101 144 176 218 282 344 398
#     4  12  24  43  69 103 136 176 224 277 336 396
#     4  12  27  44  70 102 137 180 227 273 338 399
#
# _framework density 23.193453999999999
#
# number of rings (size 3 to 8) (size 9 to 14) (size 15 to 20)
#    0.000    0.000    3.333    7.000    4.667    0.667 
#    0.000    0.000    0.000    6.000    0.000    0.000 
#    0.000    0.000    0.000    0.000    0.000    0.000 
#
# Total GULP energy -67146.095537 kJ/mol
# GULP energy per Si atom -5595.507961 kJ/mol
# Density = 2.314066 g / cm^3
# Si number density = 23.193454 Si / 1000 Ang^3
#
#
#
# Elastic Constant Matrix: (Units=GPa)
#
#
# Indices 1 2 3 4 5 6 
#
# 1 283.8899 79.7481 75.7563 0.0000 -21.1848 0.0000
# 2 79.7481 104.4724 20.6516 0.0000 -9.2167 0.0000
# 3 75.7563 20.6516 174.2286 0.0000 -26.2535 0.0000
# 4 0.0000 0.0000 0.0000 10.3265 0.0000 15.1244
# 5 -21.1848 -9.2167 -26.2535 0.0000 35.1672 0.0000
# 6 0.0000 0.0000 0.0000 15.1244 0.0000 30.6574
#
#
#
# Elastic Compliance Matrix: (Units=1/GPa)
#
#
# Indices 1 2 3 4 5 6 
#
# 1 0.004978 -0.003400 -0.001627 0.000000 0.000893 0.000000
# 2 -0.003400 0.012239 0.000228 0.000000 0.001330 0.000000
# 3 -0.001627 0.000228 0.007077 0.000000 0.004363 0.000000
# 4 0.000000 0.000000 0.000000 0.349024 0.000000 -0.172186
# 5 0.000893 0.001330 0.004363 0.000000 0.032579 0.000000
# 6 0.000000 0.000000 0.000000 -0.172186 0.000000 0.117564
#
#
# Mechanical properties :
#
#
# Convention : Reuss Voigt Hill
#
# Bulk Modulus (GPa) = 68.03946 101.65590 84.84768
# Shear Modulus (GPa) = 9.29437 40.99254 25.14346
#
# Velocity S-wave (km/s) = 2.00400 4.20863 3.29610
# Velocity P-wave (km/s) = 5.89525 8.21836 7.15176
#
# Compressibility (1/GPa) = 0.01469735
#
# Stress axis : x y z
#
# Youngs Moduli (GPa) = 200.86898 81.70363 141.29288
#
# Poissons Ratio (x) = 0.27777 0.22989
# Poissons Ratio (y) = 0.68291 -0.03220
# Poissons Ratio (z) = 0.32683 -0.01862
#
# Static dielectric constant tensor:
#      x y z
#    x 1.912200 0.000000 0.023220 
#    y 0.000000 1.936830 0.000000 
#    z 0.023220 0.000000 1.832380 
# 
# From -- ./inp_files/5269.got.cif
#   From: 2010.05.17/outbox.cif.g08.bks.cpg/sg12_3_cif.got.tgz:5269.got - 2010.06.03 13:09:07.
