data_PCOD9222207
_publ_section_title
;
Structure prediction by ZEFSAII (Michael W. Deem and Ramdas Pophale) SiO2 
 PCOD9222207
Probable space group: C 2/M
;
_chemical_formula_sum "Si O2"
_cell_formula_units_Z 56
_cell_length_a 9.174166
_cell_length_b 22.861244
_cell_length_c 16.169740
_cell_angle_alpha 90.000000
_cell_angle_beta 53.761650
_cell_angle_gamma 90.000000
_cell_volume 2735.323929
_symmetry_space_group_name_H-M "C 2/M"
_symmetry_group_IT_number 12
_symmetry_cell_setting 'monoclinic'
loop_
_space_group_symop_operation_xyz
x,y,z
-x,y,-z
-x,-y,-z
x,-y,z
1/2+x,1/2+y,z
1/2-x,1/2+y,-z
1/2-x,1/2-y,-z
1/2+x,1/2-y,z
loop_
_atom_site_type_symbol
_atom_site_label
_atom_site_fract_x
_atom_site_fract_y
_atom_site_fract_z
Si Si1 0.909740 0.067443 0.873783
Si Si2 0.171280 0.436487 0.250409
Si Si3 0.239290 0.155453 0.198842
Si Si4 0.884145 0.610096 0.895741
Si Si5 0.461328 0.176522 0.608864
Si Si6 0.804740 0.206089 0.610288
Si Si7 0.291043 0.271999 0.077463
O O1 0.897948 0.112815 0.801793
O O2 0.114127 0.068547 0.837544
O O3 0.867165 0.000000 0.865230
O O4 0.770299 0.088927 0.990427
O O5 0.137352 0.500000 0.300918
O O6 0.081391 0.433691 0.190442
O O7 0.108099 0.382058 0.325343
O O8 0.433736 0.125985 0.118537
O O9 0.212369 0.162875 0.305825
O O10 0.246954 0.219379 0.154129
O O11 0.823430 0.670083 0.870561
O O12 0.500000 0.163192 0.500000
O O13 0.638860 0.198581 0.601257
O O14 0.316615 0.229399 0.648216
O O15 0.000000 0.198680 0.500000
O O16 0.500000 0.287799 0.000000
O O17 0.250000 0.250000 0.000000
#
# Coordination Sequence:
#
# PCOD9222207 Si02
#       7
#     8   8   8   8   8   8   8
#     4  11  25  42  65  92 130 183 225 270 321 390
#     4  11  25  44  68  98 131 179 228 268 329 393
#     4  12  25  40  64  95 135 172 220 273 337 395
#     4  12  23  42  62  94 134 175 220 276 320 396
#     4  11  24  45  75 101 132 171 215 281 336 400
#     4  11  25  44  69 106 133 169 215 276 349 402
#     4  12  22  37  58  94 133 171 217 263 333 393
#
# _framework density 20.472895000000001
#
# number of rings (size 3 to 8) (size 9 to 14) (size 15 to 20)
#    0.000    0.571    4.286    4.714    4.000    3.143 
#    0.000    0.000    0.000    0.857    0.000    0.000 
#    0.000    0.000    0.000    0.000    0.000    0.000 
#
# Total GULP energy -156501.057676 kJ/mol
# GULP energy per Si atom -5589.323488 kJ/mol
# Density = 2.042630 g / cm^3
# Si number density = 20.472895 Si / 1000 Ang^3
#
#
#
# Elastic Constant Matrix: (Units=GPa)
#
#
# Indices 1 2 3 4 5 6 
#
# 1 72.8372 22.6935 16.3359 0.0000 8.9966 0.0000
# 2 22.6935 114.3419 43.0125 0.0000 -0.3517 0.0000
# 3 16.3359 43.0125 90.3260 0.0000 25.3725 0.0000
# 4 0.0000 0.0000 0.0000 42.2626 0.0000 22.7101
# 5 8.9966 -0.3517 25.3725 0.0000 32.5207 0.0000
# 6 0.0000 0.0000 0.0000 22.7101 0.0000 62.0115
#
#
#
# Elastic Compliance Matrix: (Units=1/GPa)
#
#
# Indices 1 2 3 4 5 6 
#
# 1 0.015198 -0.002956 -0.000193 0.000000 -0.004086 0.000000
# 2 -0.002956 0.011968 -0.006955 0.000000 0.006373 0.000000
# 3 -0.000193 -0.006955 0.018472 0.000000 -0.014434 0.000000
# 4 0.000000 0.000000 0.000000 0.029459 0.000000 -0.010789
# 5 -0.004086 0.006373 -0.014434 0.000000 0.043210 0.000000
# 6 0.000000 0.000000 0.000000 -0.010789 0.000000 0.020077
#
#
# Mechanical properties :
#
#
# Convention : Reuss Voigt Hill
#
# Bulk Modulus (GPa) = 39.32361 49.06544 44.19452
# Shear Modulus (GPa) = 29.92759 40.38984 35.15871
#
# Velocity S-wave (km/s) = 3.82752 4.44649 4.14856
# Velocity P-wave (km/s) = 6.22756 7.09787 6.67691
#
# Compressibility (1/GPa) = 0.02543002
#
# Stress axis : x y z
#
# Youngs Moduli (GPa) = 65.79680 83.55437 54.13553
#
# Poissons Ratio (x) = 0.24701 0.01046
# Poissons Ratio (y) = 0.19451 0.37650
# Poissons Ratio (z) = 0.01272 0.58110
#
# Static dielectric constant tensor:
#      x y z
#    x 1.741750 0.000000 0.032600 
#    y 0.000000 1.744270 0.000000 
#    z 0.032600 0.000000 1.740950 
# 
# From -- ./inp_files/198795.got.cif
#   From: 2010.05.17/outbox.cif.g08.bks.cpg/sg12_100_cif.got.tgz:198795.got - 2010.06.03 13:09:07.
