data_PCOD9222508
_publ_section_title
;
Structure prediction by ZEFSAII (Michael W. Deem and Ramdas Pophale) SiO2 
 PCOD9222508
Probable space group: C 2/M
;
_chemical_formula_sum "Si O2"
_cell_formula_units_Z 40
_cell_length_a 17.114171
_cell_length_b 21.006091
_cell_length_c 9.489464
_cell_angle_alpha 90.000000
_cell_angle_beta 145.845013
_cell_angle_gamma 90.000000
_cell_volume 1915.318750
_symmetry_space_group_name_H-M "C 2/M"
_symmetry_group_IT_number 12
_symmetry_cell_setting 'monoclinic'
loop_
_space_group_symop_operation_xyz
x,y,z
-x,y,-z
-x,-y,-z
x,-y,z
1/2+x,1/2+y,z
1/2-x,1/2+y,-z
1/2-x,1/2-y,-z
1/2+x,1/2-y,z
loop_
_atom_site_type_symbol
_atom_site_label
_atom_site_fract_x
_atom_site_fract_y
_atom_site_fract_z
Si Si1 0.000000 0.223940 0.000000
Si Si2 0.500000 0.276137 0.500000
Si Si3 0.054754 0.313562 0.813940
Si Si4 0.540959 0.500000 0.400372
Si Si5 0.234419 0.366980 0.576454
Si Si6 0.147517 0.000000 0.141816
Si Si7 0.788382 0.870489 0.336613
O O1 0.020312 0.267015 0.893090
O O2 0.864372 0.179333 0.796835
O O3 0.408603 0.230545 0.263827
O O4 0.404768 0.319598 0.459914
O O5 0.908044 0.346757 0.563020
O O6 0.171098 0.362960 0.041204
O O7 0.500000 0.500000 0.500000
O O8 0.633191 0.436903 0.520584
O O9 0.404549 0.500000 0.097691
O O10 0.274184 0.436888 0.690569
O O11 0.216583 0.360056 0.380691
O O12 0.000000 0.000000 0.000000
#
# Coordination Sequence:
#
# PCOD9222508 Si02
#       7
#     4   4   8   4   8   4   8
#     4  12  20  39  68  91 132 182 216 264 328 402
#     4  12  26  43  66 101 140 180 224 268 338 412
#     4  12  26  41  66 102 139 173 220 278 343 392
#     4  12  26  45  71 101 133 176 226 275 336 396
#     4  12  23  43  72  99 135 175 228 281 327 392
#     4  12  24  43  71 101 125 176 232 273 320 406
#     4  12  23  44  69 101 134 179 224 278 330 399
#
# _framework density 20.884250999999999
#
# number of rings (size 3 to 8) (size 9 to 14) (size 15 to 20)
#    0.000    0.000    8.000    2.400    0.000    2.400 
#    0.000    2.000    0.000    2.400    0.000    0.000 
#    0.000    0.000    0.000    0.000    0.000    0.000 
#
# Total GULP energy -111777.293448 kJ/mol
# GULP energy per Si atom -5588.864672 kJ/mol
# Density = 2.083672 g / cm^3
# Si number density = 20.884251 Si / 1000 Ang^3
#
#
#
# Elastic Constant Matrix: (Units=GPa)
#
#
# Indices 1 2 3 4 5 6 
#
# 1 44.7804 6.5973 10.5272 0.0000 -17.7017 0.0000
# 2 6.5973 100.3642 48.7479 0.0000 -11.2391 0.0000
# 3 10.5272 48.7479 113.1966 0.0000 -2.6591 0.0000
# 4 0.0000 0.0000 0.0000 30.2065 0.0000 -23.3761
# 5 -17.7017 -11.2391 -2.6591 0.0000 40.2166 0.0000
# 6 0.0000 0.0000 0.0000 -23.3761 0.0000 -17.3291
#
#
#
# Elastic Compliance Matrix: (Units=1/GPa)
#
#
# Indices 1 2 3 4 5 6 
#
# 1 0.027667 0.000837 -0.002646 0.000000 0.012237 0.000000
# 2 0.000837 0.013040 -0.005608 0.000000 0.003642 0.000000
# 3 -0.002646 -0.005608 0.011449 0.000000 -0.001975 0.000000
# 4 0.000000 0.000000 0.000000 0.016197 0.000000 -0.021849
# 5 0.012237 0.003642 -0.001975 0.000000 0.031139 0.000000
# 6 0.000000 0.000000 0.000000 -0.021849 0.000000 -0.028233
#
#
# Mechanical properties :
#
#
# Convention : Reuss Voigt Hill
#
# Bulk Modulus (GPa) = 26.79376 43.34290 35.06833
# Shear Modulus (GPa) = 50.74371 23.45005 37.09688
#
# Velocity S-wave (km/s) = 4.93461 3.35454 4.21920
# Velocity P-wave (km/s) = 6.73236 5.98355 6.36897
#
# Compressibility (1/GPa) = 0.03732212
#
# Stress axis : x y z
#
# Youngs Moduli (GPa) = 36.14391 76.68454 87.34400
#
# Poissons Ratio (x) = -0.06417 0.23111
# Poissons Ratio (y) = -0.03025 0.48983
# Poissons Ratio (z) = 0.09563 0.43006
#
# Static dielectric constant tensor:
#      x y z
#    x 1.724390 0.000000 -0.096250 
#    y 0.000000 1.432510 0.000000 
#    z -0.096250 0.000000 1.575740 
# 
# From -- ./inp_files/77828.got.cif
#   From: 2010.05.17/outbox.cif.g08.bks.cpg/sg12_39_cif.got.tgz:77828.got - 2010.06.03 13:09:07.
