data_PCOD9222386
_publ_section_title
;
Structure prediction by ZEFSAII (Michael W. Deem and Ramdas Pophale) SiO2 
 PCOD9222386
Probable space group: C 2/M
;
_chemical_formula_sum "Si O2"
_cell_formula_units_Z 40
_cell_length_a 9.342078
_cell_length_b 27.846344
_cell_length_c 9.877342
_cell_angle_alpha 90.000000
_cell_angle_beta 47.805574
_cell_angle_gamma 90.000000
_cell_volume 1903.679087
_symmetry_space_group_name_H-M "C 2/M"
_symmetry_group_IT_number 12
_symmetry_cell_setting 'monoclinic'
loop_
_space_group_symop_operation_xyz
x,y,z
-x,y,-z
-x,-y,-z
x,-y,z
1/2+x,1/2+y,z
1/2-x,1/2+y,-z
1/2-x,1/2-y,-z
1/2+x,1/2-y,z
loop_
_atom_site_type_symbol
_atom_site_label
_atom_site_fract_x
_atom_site_fract_y
_atom_site_fract_z
Si Si1 0.507140 0.942774 0.335893
Si Si2 0.363981 0.798661 0.958466
Si Si3 0.861771 0.109325 0.961703
Si Si4 0.117260 0.892325 0.562757
Si Si5 0.355816 0.200190 0.465669
O O1 0.500000 0.927888 0.500000
O O2 0.302182 0.924782 0.410146
O O3 0.684296 0.919805 0.140433
O O4 0.524170 0.000000 0.320280
O O5 0.505107 0.811451 0.746735
O O6 0.500000 0.791861 0.000000
O O7 0.250000 0.750000 0.000000
O O8 0.219971 0.843215 0.059513
O O9 0.986956 0.084184 0.764164
O O10 0.000000 0.122036 0.000000
O O11 0.203229 0.842929 0.571170
O O12 0.000000 0.882610 0.500000
O O13 0.500000 0.204685 0.500000
O O14 0.250000 0.250000 0.500000
#
# Coordination Sequence:
#
# PCOD9222386 Si02
#       5
#     8   8   8   8   8
#     4  11  25  48  74 104 138 179 233 292 350 421
#     4  12  24  41  64 100 141 181 232 283 334 407
#     4  12  24  43  72 101 137 183 232 285 345 412
#     4  12  25  44  69 102 141 181 227 288 349 411
#     4  12  23  41  65  96 140 182 231 284 338 406
#
# _framework density 21.011945000000001
#
# number of rings (size 3 to 8) (size 9 to 14) (size 15 to 20)
#    0.000    0.200    4.000    6.600    0.000    1.600 
#    0.000    1.000    0.000    0.000    0.000    0.000 
#    0.000    0.000    0.000    0.000    0.000    0.000 
#
# Total GULP energy -111917.813950 kJ/mol
# GULP energy per Si atom -5595.890698 kJ/mol
# Density = 2.096412 g / cm^3
# Si number density = 21.011945 Si / 1000 Ang^3
#
#
#
# Elastic Constant Matrix: (Units=GPa)
#
#
# Indices 1 2 3 4 5 6 
#
# 1 201.9531 41.8915 42.4173 0.0000 1.7402 0.0000
# 2 41.8915 87.8964 24.6537 0.0000 -15.5487 0.0000
# 3 42.4173 24.6537 148.2656 0.0000 -12.6867 0.0000
# 4 0.0000 0.0000 0.0000 28.1903 0.0000 0.6213
# 5 1.7402 -15.5487 -12.6867 0.0000 37.4173 0.0000
# 6 0.0000 0.0000 0.0000 0.6213 0.0000 18.8954
#
#
#
# Elastic Compliance Matrix: (Units=1/GPa)
#
#
# Indices 1 2 3 4 5 6 
#
# 1 0.005820 -0.002719 -0.001373 0.000000 -0.001866 0.000000
# 2 -0.002719 0.013956 -0.001067 0.000000 0.005564 0.000000
# 3 -0.001373 -0.001067 0.007500 0.000000 0.002163 0.000000
# 4 0.000000 0.000000 0.000000 0.035499 0.000000 -0.001167
# 5 -0.001866 0.005564 0.002163 0.000000 0.029858 0.000000
# 6 0.000000 0.000000 0.000000 -0.001167 0.000000 0.052961
#
#
# Mechanical properties :
#
#
# Convention : Reuss Voigt Hill
#
# Bulk Modulus (GPa) = 58.96294 72.89335 65.92815
# Shear Modulus (GPa) = 30.94747 38.84414 34.89580
#
# Velocity S-wave (km/s) = 3.84194 4.30428 4.07966
# Velocity P-wave (km/s) = 6.91399 7.71162 7.32367
#
# Compressibility (1/GPa) = 0.01695980
#
# Stress axis : x y z
#
# Youngs Moduli (GPa) = 171.82121 71.65186 133.33628
#
# Poissons Ratio (x) = 0.19481 0.18302
# Poissons Ratio (y) = 0.46716 0.14223
# Poissons Ratio (z) = 0.23584 0.07643
#
# Static dielectric constant tensor:
#      x y z
#    x 1.738040 0.000000 -0.034160 
#    y 0.000000 1.777840 0.000000 
#    z -0.034160 0.000000 1.834930 
# 
# From -- ./inp_files/124715.got.cif
#   From: 2010.05.17/outbox.cif.g08.bks.cpg/sg12_63_cif.got.tgz:124715.got - 2010.06.03 13:09:07.
