data_PCOD9222712
_publ_section_title
;
Structure prediction by ZEFSAII (Michael W. Deem and Ramdas Pophale) SiO2 
 PCOD9222712
Probable space group: C 2/M
;
_chemical_formula_sum "Si O2"
_cell_formula_units_Z 42
_cell_length_a 15.443451
_cell_length_b 25.674396
_cell_length_c 4.952174
_cell_angle_alpha 90.000000
_cell_angle_beta 97.120712
_cell_angle_gamma 90.000000
_cell_volume 1948.398880
_symmetry_space_group_name_H-M "C 2/M"
_symmetry_group_IT_number 12
_symmetry_cell_setting 'monoclinic'
loop_
_space_group_symop_operation_xyz
x,y,z
-x,y,-z
-x,-y,-z
x,-y,z
1/2+x,1/2+y,z
1/2-x,1/2+y,-z
1/2-x,1/2-y,-z
1/2+x,1/2-y,z
loop_
_atom_site_type_symbol
_atom_site_label
_atom_site_fract_x
_atom_site_fract_y
_atom_site_fract_z
Si Si1 0.091776 0.694645 0.378319
Si Si2 0.850815 0.247089 0.112213
Si Si3 0.500000 0.000000 0.500000
Si Si4 0.221337 0.940983 0.899015
Si Si5 0.062013 0.135657 0.783915
Si Si6 0.840698 0.580938 0.448686
O O1 0.144656 0.735945 0.575745
O O2 0.130470 0.637687 0.439899
O O3 0.000000 0.695402 0.500000
O O4 0.099180 0.713494 0.072991
O O5 0.894869 0.190563 0.112612
O O6 0.750000 0.250000 0.000000
O O7 0.575238 0.954517 0.582136
O O8 0.140200 0.905353 0.781537
O O9 0.287843 0.943180 0.676168
O O10 0.194600 0.000000 0.961144
O O11 0.275644 0.916988 0.169377
O O12 0.000000 0.142581 0.500000
O O13 0.000000 0.117003 0.000000
#
# Coordination Sequence:
#
# PCOD9222712 Si02
#       6
#     8   8   2   8   8   8
#     4  12  24  41  66  97 133 173 222 271 334 417
#     4  12  25  44  67  98 135 176 221 286 352 411
#     4  12  24  46  72 106 148 186 232 286 346 438
#     4  12  26  47  71 100 141 184 235 298 349 416
#     4  12  26  46  73 102 139 186 241 291 352 414
#     4  12  25  45  69 107 142 185 231 283 358 417
#
# _framework density 21.556159000000001
#
# number of rings (size 3 to 8) (size 9 to 14) (size 15 to 20)
#    0.000    0.000    2.857    8.571    0.000    2.286 
#    0.000    0.000    0.000    0.000    0.000    0.000 
#    0.000    0.000    0.000    0.000    0.000    0.000 
#
# Total GULP energy -117240.556299 kJ/mol
# GULP energy per Si atom -5582.883633 kJ/mol
# Density = 2.150710 g / cm^3
# Si number density = 21.556159 Si / 1000 Ang^3
#
#
#
# Elastic Constant Matrix: (Units=GPa)
#
#
# Indices 1 2 3 4 5 6 
#
# 1 112.9538 46.2040 29.2311 0.0000 22.7578 0.0000
# 2 46.2040 90.4144 -5.6294 0.0000 21.1201 0.0000
# 3 29.2311 -5.6294 105.2609 0.0000 9.4871 0.0000
# 4 0.0000 0.0000 0.0000 12.4547 0.0000 -6.1327
# 5 22.7578 21.1201 9.4871 0.0000 33.5867 0.0000
# 6 0.0000 0.0000 0.0000 -6.1327 0.0000 26.9452
#
#
#
# Elastic Compliance Matrix: (Units=1/GPa)
#
#
# Indices 1 2 3 4 5 6 
#
# 1 0.013022 -0.005920 -0.003564 0.000000 -0.004094 0.000000
# 2 -0.005920 0.015880 0.003111 0.000000 -0.006853 0.000000
# 3 -0.003564 0.003111 0.010892 0.000000 -0.002618 0.000000
# 4 0.000000 0.000000 0.000000 0.090425 0.000000 0.020580
# 5 -0.004094 -0.006853 -0.002618 0.000000 0.037597 0.000000
# 6 0.000000 0.000000 0.000000 0.020580 0.000000 0.041796
#
#
# Mechanical properties :
#
#
# Convention : Reuss Voigt Hill
#
# Bulk Modulus (GPa) = 36.97089 49.80450 43.38769
# Shear Modulus (GPa) = 21.61001 30.51888 26.06444
#
# Velocity S-wave (km/s) = 3.16966 3.76677 3.48104
# Velocity P-wave (km/s) = 5.53027 6.48635 6.02730
#
# Compressibility (1/GPa) = 0.02704831
#
# Stress axis : x y z
#
# Youngs Moduli (GPa) = 76.79341 62.97219 91.80854
#
# Poissons Ratio (x) = 0.37280 0.32719
# Poissons Ratio (y) = 0.45462 -0.28561
# Poissons Ratio (z) = 0.27368 -0.19590
#
# Static dielectric constant tensor:
#      x y z
#    x 1.797020 0.000000 0.015440 
#    y 0.000000 1.954990 0.000000 
#    z 0.015440 0.000000 1.769870 
# 
# From -- ./inp_files/11672.got.cif
#   From: 2010.05.17/outbox.cif.g08.bks.cpg/sg12_6_cif.got.tgz:11672.got - 2010.06.03 13:09:07.
