data_PCOD9222347
_publ_section_title
;
Structure prediction by ZEFSAII (Michael W. Deem and Ramdas Pophale) SiO2 
 PCOD9222347
Probable space group: C 2/M
;
_chemical_formula_sum "Si O2"
_cell_formula_units_Z 40
_cell_length_a 17.271185
_cell_length_b 14.924096
_cell_length_c 14.840797
_cell_angle_alpha 90.000000
_cell_angle_beta 29.656921
_cell_angle_gamma 90.000000
_cell_volume 1892.787468
_symmetry_space_group_name_H-M "C 2/M"
_symmetry_group_IT_number 12
_symmetry_cell_setting 'monoclinic'
loop_
_space_group_symop_operation_xyz
x,y,z
-x,y,-z
-x,-y,-z
x,-y,z
1/2+x,1/2+y,z
1/2-x,1/2+y,-z
1/2-x,1/2-y,-z
1/2+x,1/2-y,z
loop_
_atom_site_type_symbol
_atom_site_label
_atom_site_fract_x
_atom_site_fract_y
_atom_site_fract_z
Si Si1 0.253349 0.903081 0.752272
Si Si2 0.936076 0.270339 0.815676
Si Si3 0.891152 0.775129 0.538823
Si Si4 0.583041 0.892472 0.817973
Si Si5 0.502909 0.405414 0.844568
O O1 0.332740 0.809243 0.656088
O O2 0.125746 0.905095 0.801294
O O3 0.334569 0.000000 0.664049
O O4 0.164408 0.901634 0.937131
O O5 0.019584 0.182330 0.771242
O O6 0.014688 0.271437 0.638205
O O7 0.979973 0.350620 0.840024
O O8 0.750000 0.250000 0.000000
O O9 0.746422 0.837210 0.654580
O O10 0.000000 0.828077 0.500000
O O11 0.603038 0.000000 0.786745
O O12 0.500000 0.876958 0.000000
O O13 0.517980 0.500000 0.779167
#
# Coordination Sequence:
#
# PCOD9222347 Si02
#       5
#     8   8   8   8   8
#     4   9  18  35  62  93 124 159 202 259 325 384
#     4  12  25  42  66  97 130 173 221 272 330 391
#     4  12  25  42  66  97 132 176 220 272 331 387
#     4  11  25  46  69  95 133 178 223 272 326 394
#     4   9  18  35  62  91 122 161 203 257 322 382
#
# _framework density 21.132853000000001
#
# number of rings (size 3 to 8) (size 9 to 14) (size 15 to 20)
#    0.000    1.400    2.000    5.400    0.000    3.200 
#    0.000    0.000    0.000    0.000    0.000    0.000 
#    0.000    0.000    0.000    0.000    0.000    0.000 
#
# Total GULP energy -111532.321232 kJ/mol
# GULP energy per Si atom -5576.616062 kJ/mol
# Density = 2.108475 g / cm^3
# Si number density = 21.132853 Si / 1000 Ang^3
#
#
#
# Elastic Constant Matrix: (Units=GPa)
#
#
# Indices 1 2 3 4 5 6 
#
# 1 103.9497 38.9794 42.3758 0.0015 -3.4884 -0.0007
# 2 38.9794 121.8060 23.9189 0.0018 0.2895 -0.0008
# 3 42.3758 23.9189 80.9447 0.0026 -8.9969 -0.0012
# 4 0.0015 0.0018 0.0026 236.3427 -0.0015 -92.7099
# 5 -3.4884 0.2895 -8.9969 -0.0015 35.6314 0.0007
# 6 -0.0007 -0.0008 -0.0012 -92.7099 0.0007 60.0062
#
#
#
# Elastic Compliance Matrix: (Units=1/GPa)
#
#
# Indices 1 2 3 4 5 6 
#
# 1 0.013218 -0.003043 -0.006044 0.000000 -0.000207 0.000000
# 2 -0.003043 0.009435 -0.001273 0.000000 -0.000696 0.000000
# 3 -0.006044 -0.001273 0.016287 0.000000 0.003531 0.000000
# 4 0.000000 0.000000 0.000000 0.010741 0.000000 0.016594
# 5 -0.000207 -0.000696 0.003531 0.000000 0.028942 0.000000
# 6 0.000000 0.000000 0.000000 0.016594 0.000000 0.042303
#
#
# Mechanical properties :
#
#
# Convention : Reuss Voigt Hill
#
# Bulk Modulus (GPa) = 54.87938 57.47208 56.17573
# Shear Modulus (GPa) = 33.84866 79.82448 56.83657
#
# Velocity S-wave (km/s) = 4.00648 6.15262 5.19165
# Velocity P-wave (km/s) = 6.88677 8.81632 7.91060
#
# Compressibility (1/GPa) = 0.01822178
#
# Stress axis : x y z
#
# Youngs Moduli (GPa) = 75.65603 105.98873 61.40033
#
# Poissons Ratio (x) = 0.32248 0.37108
# Poissons Ratio (y) = 0.23019 0.07813
# Poissons Ratio (z) = 0.45724 0.13487
#
# Static dielectric constant tensor:
#      x y z
#    x 1.874030 0.000000 0.026490 
#    y 0.000000 1.771790 0.000000 
#    z 0.026490 0.000000 1.844160 
# 
# From -- ./inp_files/112121.got.cif
#   From: 2010.05.17/outbox.cif.g08.bks.cpg/sg12_57_cif.got.tgz:112121.got - 2010.06.03 13:09:07.
