data_PCOD9222200
_publ_section_title
;
Structure prediction by ZEFSAII (Michael W. Deem and Ramdas Pophale) SiO2 
 PCOD9222200
Probable space group: C 2/M
;
_chemical_formula_sum "Si O2"
_cell_formula_units_Z 40
_cell_length_a 9.007705
_cell_length_b 21.319542
_cell_length_c 17.100198
_cell_angle_alpha 90.000000
_cell_angle_beta 147.286503
_cell_angle_gamma 90.000000
_cell_volume 1774.759357
_symmetry_space_group_name_H-M "C 2/M"
_symmetry_group_IT_number 12
_symmetry_cell_setting 'monoclinic'
loop_
_space_group_symop_operation_xyz
x,y,z
-x,y,-z
-x,-y,-z
x,-y,z
1/2+x,1/2+y,z
1/2-x,1/2+y,-z
1/2-x,1/2-y,-z
1/2+x,1/2-y,z
loop_
_atom_site_type_symbol
_atom_site_label
_atom_site_fract_x
_atom_site_fract_y
_atom_site_fract_z
Si Si1 0.350679 0.068648 0.351797
Si Si2 0.246671 0.070525 0.048175
Si Si3 0.321866 0.358874 0.127937
Si Si4 0.683305 0.120364 0.355267
Si Si5 0.706790 0.736589 0.388636
O O1 0.500000 0.066755 0.500000
O O2 0.510025 0.110602 0.358584
O O3 0.041537 0.086211 0.238774
O O4 0.352768 0.000000 0.315168
O O5 0.526479 0.084401 0.217698
O O6 0.268355 0.000000 0.020956
O O7 0.179125 0.132772 0.966781
O O8 0.000000 0.067032 0.000000
O O9 0.458687 0.303484 0.240626
O O10 0.000000 0.366854 0.000000
O O11 0.690288 0.194874 0.342299
O O12 0.000000 0.099630 0.500000
O O13 0.750000 0.750000 0.500000
O O14 0.000000 0.704942 0.500000
#
# Coordination Sequence:
#
# PCOD9222200 Si02
#       5
#     8   8   8   8   8
#     4  11  24  45  72 103 145 194 243 299 362 431
#     4  11  25  46  71 102 147 194 240 303 369 432
#     4  12  27  45  72 106 148 188 245 301 370 434
#     4  11  25  45  73 103 141 192 247 300 362 438
#     4  11  26  48  75 102 144 191 245 307 362 436
#
# _framework density 22.538267999999999
#
# number of rings (size 3 to 8) (size 9 to 14) (size 15 to 20)
#    0.000    0.800    2.000    4.200    8.400    4.800 
#    0.000    0.000    0.000    0.000    0.000    0.000 
#    0.000    0.000    0.000    0.000    0.000    0.000 
#
# Total GULP energy -111390.358187 kJ/mol
# GULP energy per Si atom -5569.517909 kJ/mol
# Density = 2.248697 g / cm^3
# Si number density = 22.538268 Si / 1000 Ang^3
#
#
#
# Elastic Constant Matrix: (Units=GPa)
#
#
# Indices 1 2 3 4 5 6 
#
# 1 75.9980 24.9532 50.4888 0.0017 4.4473 -0.0011
# 2 24.9532 89.5731 42.1320 0.0015 6.1996 -0.0019
# 3 50.4888 42.1320 214.3205 0.0045 15.1784 -0.0077
# 4 0.0017 0.0015 0.0045 21.3965 0.0027 -0.9214
# 5 4.4473 6.1996 15.1784 0.0027 49.1310 0.0021
# 6 -0.0011 -0.0019 -0.0077 -0.9214 0.0021 33.7811
#
#
#
# Elastic Compliance Matrix: (Units=1/GPa)
#
#
# Indices 1 2 3 4 5 6 
#
# 1 0.016307 -0.003011 -0.003243 0.000000 -0.000094 0.000000
# 2 -0.003011 0.012890 -0.001767 0.000000 -0.000808 0.000000
# 3 -0.003243 -0.001767 0.005869 -0.000001 -0.001297 0.000001
# 4 0.000000 0.000000 -0.000001 0.046791 -0.000002 0.001276
# 5 -0.000094 -0.000808 -0.001297 -0.000002 0.020865 -0.000002
# 6 0.000000 0.000000 0.000001 0.001276 -0.000002 0.029637
#
#
# Mechanical properties :
#
#
# Convention : Reuss Voigt Hill
#
# Bulk Modulus (GPa) = 52.56655 68.33775 60.45215
# Shear Modulus (GPa) = 32.31161 38.34957 35.33059
#
# Velocity S-wave (km/s) = 3.79044 4.12944 3.96357
# Velocity P-wave (km/s) = 6.52154 7.28855 6.91569
#
# Compressibility (1/GPa) = 0.01902350
#
# Stress axis : x y z
#
# Youngs Moduli (GPa) = 61.32429 77.57885 170.38229
#
# Poissons Ratio (x) = 0.23358 0.55254
# Poissons Ratio (y) = 0.18464 0.30115
# Poissons Ratio (z) = 0.19887 0.13712
#
# Static dielectric constant tensor:
#      x y z
#    x 1.893050 0.000000 -0.046120 
#    y 0.000000 1.857390 0.000000 
#    z -0.046120 0.000000 1.799220 
# 
# From -- ./inp_files/259352.got.cif
#   From: 2010.05.17/outbox.cif.g08.bks.cpg/sg12_130_cif.got.tgz:259352.got - 2010.06.03 13:09:07.
