data_PCOD9222934
_publ_section_title
;
Structure prediction by ZEFSAII (Michael W. Deem and Ramdas Pophale) SiO2 
 PCOD9222934
Probable space group: C 2/M
;
_chemical_formula_sum "Si O2"
_cell_formula_units_Z 64
_cell_length_a 13.661686
_cell_length_b 8.883638
_cell_length_c 22.112881
_cell_angle_alpha 90.000000
_cell_angle_beta 87.339159
_cell_angle_gamma 90.000000
_cell_volume 2680.846749
_symmetry_space_group_name_H-M "C 2/M"
_symmetry_group_IT_number 12
_symmetry_cell_setting 'monoclinic'
loop_
_space_group_symop_operation_xyz
x,y,z
-x,y,-z
-x,-y,-z
x,-y,z
1/2+x,1/2+y,z
1/2-x,1/2+y,-z
1/2-x,1/2-y,-z
1/2+x,1/2-y,z
loop_
_atom_site_type_symbol
_atom_site_label
_atom_site_fract_x
_atom_site_fract_y
_atom_site_fract_z
Si Si1 0.355865 0.682197 0.515042
Si Si2 0.802246 0.833092 0.641161
Si Si3 0.360843 0.181651 0.890135
Si Si4 0.575487 0.681044 0.857697
Si Si5 0.189397 0.668978 0.234651
Si Si6 0.921208 0.671164 0.396433
Si Si7 0.956780 0.671735 0.263397
Si Si8 0.381040 0.325030 0.012584
O O1 0.353667 0.500000 0.516031
O O2 0.250000 0.750000 0.500000
O O3 0.368568 0.734646 0.584884
O O4 0.424904 0.736059 0.458308
O O5 0.785214 0.752753 0.704872
O O6 0.695006 0.842677 0.614742
O O7 0.840111 0.000000 0.653294
O O8 0.466339 0.257005 0.874591
O O9 0.296079 0.229039 0.833755
O O10 0.336182 0.230512 0.958905
O O11 0.367034 0.000000 0.887428
O O12 0.574983 0.500000 0.856267
O O13 0.597159 0.742931 0.789680
O O14 0.632916 0.724832 0.917526
O O15 0.229229 0.500000 0.236132
O O16 0.070729 0.661581 0.242947
O O17 0.959630 0.500000 0.403392
O O18 0.957060 0.737674 0.331213
O O19 0.917863 0.500000 0.268488
O O20 0.352096 0.500000 0.007707
O O21 0.500000 0.319881 0.000000
#
# Coordination Sequence:
#
# PCOD9222934 Si02
#       8
#     8   8   8   8   8   8   8   8
#     4   9  17  30  48  70  92 115 148 186 224 264
#     4   9  18  31  48  69  90 115 147 183 222 264
#     4   9  16  25  38  58  84 115 151 185 219 261
#     4   9  16  25  38  59  87 116 147 182 222 267
#     4   9  18  30  44  65  92 121 150 181 221 267
#     4   9  18  33  51  70  91 116 150 188 223 263
#     4   9  18  32  47  65  92 122 151 184 222 266
#     4   8  14  23  35  55  83 113 145 182 222 263
#
# _framework density 23.873055000000001
#
# number of rings (size 3 to 8) (size 9 to 14) (size 15 to 20)
#    0.000    3.125    0.000    3.375    0.000    8.250 
#    0.000    0.625    0.000    3.750    0.000    0.875 
#    0.000    0.000    0.000    0.000    0.000    0.000 
#
# Total GULP energy -178523.907670 kJ/mol
# GULP energy per Si atom -5578.872115 kJ/mol
# Density = 2.381872 g / cm^3
# Si number density = 23.873055 Si / 1000 Ang^3
#
#
#
# Elastic Constant Matrix: (Units=GPa)
#
#
# Indices 1 2 3 4 5 6 
#
# 1 51.3013 5.9604 43.3240 0.0000 -6.2189 0.0000
# 2 5.9604 63.6823 84.5247 0.0000 15.5100 0.0000
# 3 43.3240 84.5247 304.3907 0.0000 0.5216 0.0000
# 4 0.0000 0.0000 0.0000 47.1057 0.0000 -1.0946
# 5 -6.2189 15.5100 0.5216 0.0000 58.4393 0.0000
# 6 0.0000 0.0000 0.0000 -1.0946 0.0000 6.7957
#
#
#
# Elastic Compliance Matrix: (Units=1/GPa)
#
#
# Indices 1 2 3 4 5 6 
#
# 1 0.022770 0.002779 -0.004016 0.000000 0.001721 0.000000
# 2 0.002779 0.027986 -0.008155 0.000000 -0.007059 0.000000
# 3 -0.004016 -0.008155 0.006118 0.000000 0.001682 0.000000
# 4 0.000000 0.000000 0.000000 0.021309 0.000000 0.003432
# 5 0.001721 -0.007059 0.001682 0.000000 0.019153 0.000000
# 6 0.000000 0.000000 0.000000 0.003432 0.000000 0.147705
#
#
# Mechanical properties :
#
#
# Convention : Reuss Voigt Hill
#
# Bulk Modulus (GPa) = 26.25221 76.33248 51.29235
# Shear Modulus (GPa) = 18.08193 41.50581 29.79387
#
# Velocity S-wave (km/s) = 2.75511 4.17418 3.53655
# Velocity P-wave (km/s) = 4.59797 7.43475 6.18129
#
# Compressibility (1/GPa) = 0.03809203
#
# Stress axis : x y z
#
# Youngs Moduli (GPa) = 43.91827 35.73251 163.44274
#
# Poissons Ratio (x) = -0.09932 0.65632
# Poissons Ratio (y) = -0.12207 1.33283
# Poissons Ratio (z) = 0.17636 0.29139
#
# Static dielectric constant tensor:
#      x y z
#    x 2.100650 0.000000 -0.066000 
#    y 0.000000 1.848220 0.000000 
#    z -0.066000 0.000000 1.986090 
# 
# From -- ./inp_files/319169.got.cif
#   From: 2010.05.17/outbox.cif.g08.bks.cpg/sg12_160_cif.got.tgz:319169.got - 2010.06.03 13:09:07.
