data_PCOD9222649
_publ_section_title
;
Structure prediction by ZEFSAII (Michael W. Deem and Ramdas Pophale) SiO2 
 PCOD9222649
Probable space group: C 2/M
;
_chemical_formula_sum "Si O2"
_cell_formula_units_Z 24
_cell_length_a 12.808422
_cell_length_b 15.123657
_cell_length_c 5.458277
_cell_angle_alpha 90.000000
_cell_angle_beta 64.776678
_cell_angle_gamma 90.000000
_cell_volume 956.511875
_symmetry_space_group_name_H-M "C 2/M"
_symmetry_group_IT_number 12
_symmetry_cell_setting 'monoclinic'
loop_
_space_group_symop_operation_xyz
x,y,z
-x,y,-z
-x,-y,-z
x,-y,z
1/2+x,1/2+y,z
1/2-x,1/2+y,-z
1/2-x,1/2-y,-z
1/2+x,1/2-y,z
loop_
_atom_site_type_symbol
_atom_site_label
_atom_site_fract_x
_atom_site_fract_y
_atom_site_fract_z
Si Si1 0.368535 0.806425 0.881465
Si Si2 0.805245 0.394471 0.444755
Si Si3 0.539922 0.641495 0.710078
O O1 0.365078 0.863918 0.636981
O O2 0.469621 0.733882 0.780379
O O3 0.250000 0.750000 0.000000
O O4 0.365078 0.863918 0.132863
O O5 0.792248 0.500000 0.457752
O O6 0.677164 0.351298 0.572836
O O7 0.500000 0.596827 0.500000
O O8 0.500000 0.596827 0.000000
#
# Coordination Sequence:
#
# PCOD9222649 Si02
#       3
#     8   8   8
#     4  12  23  44  70 103 141 189 229 279 349 431
#     4  12  26  45  71 109 142 174 231 305 350 390
#     4  12  23  40  71 105 134 185 234 282 337 427
#
# _framework density 25.091169000000001
#
# number of rings (size 3 to 8) (size 9 to 14) (size 15 to 20)
#    0.000    0.000    6.667    4.000    0.000    1.333 
#    0.000    0.000    0.000   20.000    0.000    0.000 
#    0.000    0.000    0.000    0.000    0.000    0.000 
#
# Total GULP energy -67299.691691 kJ/mol
# GULP energy per Si atom -5608.307641 kJ/mol
# Density = 2.503406 g / cm^3
# Si number density = 25.091169 Si / 1000 Ang^3
#
#
#
# Elastic Constant Matrix: (Units=GPa)
#
#
# Indices 1 2 3 4 5 6 
#
# 1 160.2305 82.6478 93.1326 0.0000 2.6106 0.0000
# 2 82.6478 171.7637 83.0933 0.0000 0.2992 0.0000
# 3 93.1326 83.0933 243.6936 0.0000 53.4304 0.0000
# 4 0.0000 0.0000 0.0000 -34.3754 0.0000 -6.1216
# 5 2.6106 0.2992 53.4304 0.0000 69.6159 0.0000
# 6 0.0000 0.0000 0.0000 -6.1216 0.0000 -25.2586
#
#
#
# Elastic Compliance Matrix: (Units=1/GPa)
#
#
# Indices 1 2 3 4 5 6 
#
# 1 0.009595 -0.003158 -0.003023 0.000000 0.001974 0.000000
# 2 -0.003158 0.008292 -0.001970 0.000000 0.001595 0.000000
# 3 -0.003023 -0.001970 0.007098 0.000000 -0.005326 0.000000
# 4 0.000000 0.000000 0.000000 -0.030403 0.000000 0.007368
# 5 0.001974 0.001595 -0.005326 0.000000 0.018371 0.000000
# 6 0.000000 0.000000 0.000000 0.007368 0.000000 -0.041376
#
#
# Mechanical properties :
#
#
# Convention : Reuss Voigt Hill
#
# Bulk Modulus (GPa) = 115.16550 121.49279 118.32915
# Shear Modulus (GPa) = -541.88662 23.11731 -259.38466
#
# Velocity S-wave (km/s) = -14.71176 3.03864 -10.17847
# Velocity P-wave (km/s) = 15.57507 7.79979 9.53273
#
# Compressibility (1/GPa) = 0.00868316
#
# Stress axis : x y z
#
# Youngs Moduli (GPa) = 104.22491 120.60287 140.87917
#
# Poissons Ratio (x) = 0.38083 0.42585
# Poissons Ratio (y) = 0.32912 0.27755
# Poissons Ratio (z) = 0.31505 0.23760
#
# Static dielectric constant tensor:
#      x y z
#    x 1.978880 0.000000 0.033390 
#    y 0.000000 1.924960 0.000000 
#    z 0.033390 0.000000 2.028610 
# 
# From -- ./inp_files/5171.got.cif
#   From: 2010.05.17/outbox.cif.g08.bks.cpg/sg12_3_cif.got.tgz:5171.got - 2010.06.03 13:09:07.
