data_PCOD9222736
_publ_section_title
;
Structure prediction by ZEFSAII (Michael W. Deem and Ramdas Pophale) SiO2 
 PCOD9222736
Probable space group: C 2/M
;
_chemical_formula_sum "Si O2"
_cell_formula_units_Z 40
_cell_length_a 18.192419
_cell_length_b 15.272798
_cell_length_c 15.461860
_cell_angle_alpha 90.000000
_cell_angle_beta 157.940925
_cell_angle_gamma 90.000000
_cell_volume 1613.440170
_symmetry_space_group_name_H-M "C 2/M"
_symmetry_group_IT_number 12
_symmetry_cell_setting 'monoclinic'
loop_
_space_group_symop_operation_xyz
x,y,z
-x,y,-z
-x,-y,-z
x,-y,z
1/2+x,1/2+y,z
1/2-x,1/2+y,-z
1/2-x,1/2-y,-z
1/2+x,1/2-y,z
loop_
_atom_site_type_symbol
_atom_site_label
_atom_site_fract_x
_atom_site_fract_y
_atom_site_fract_z
Si Si1 0.496498 0.903101 0.360548
Si Si2 0.736015 0.103661 0.164071
Si Si3 0.714337 0.898087 0.348683
Si Si4 0.451599 0.277924 0.264125
Si Si5 0.331149 0.597149 0.868862
O O1 0.560486 0.815224 0.385042
O O2 0.285048 0.877469 0.171881
O O3 0.655806 0.911544 0.609608
O O4 0.479389 0.000000 0.300893
O O5 0.737067 0.114731 0.268921
O O6 0.875006 0.172273 0.267612
O O7 0.784473 0.000000 0.200006
O O8 0.515851 0.120130 0.889135
O O9 0.878791 0.844812 0.579526
O O10 0.745403 0.000000 0.400341
O O11 0.250000 0.250000 0.000000
O O12 0.412079 0.500000 0.978932
O O13 0.500000 0.647149 0.000000
#
# Coordination Sequence:
#
# PCOD9222736 Si02
#       5
#     8   8   8   8   8
#     4   9  20  35  49  76 114 149 189 226 267 335
#     4   9  20  41  68  93 115 148 204 267 313 352
#     4   9  20  41  68  93 115 148 204 267 313 352
#     4  12  25  36  55  88 127 163 194 234 302 371
#     4   8  15  31  54  75  97 132 182 234 274 312
#
# _framework density 24.791746
#
# number of rings (size 3 to 8) (size 9 to 14) (size 15 to 20)
#    0.000    2.600    0.000    3.600    5.600    5.600 
#    0.000    0.000    0.000    4.800    0.000    0.000 
#    0.000    0.000    0.000    0.000    0.000    0.000 
#
# Total GULP energy -111394.848981 kJ/mol
# GULP energy per Si atom -5569.742449 kJ/mol
# Density = 2.473532 g / cm^3
# Si number density = 24.791746 Si / 1000 Ang^3
#
#
#
# Elastic Constant Matrix: (Units=GPa)
#
#
# Indices 1 2 3 4 5 6 
#
# 1 67.7033 29.6566 6.2823 0.0017 21.9961 0.0001
# 2 29.6566 126.7572 50.9620 0.0019 8.3898 0.0009
# 3 6.2823 50.9620 126.3601 0.0039 17.6426 0.0019
# 4 0.0017 0.0019 0.0039 64.6247 0.0031 22.8078
# 5 21.9961 8.3898 17.6426 0.0031 34.9096 0.0005
# 6 0.0001 0.0009 0.0019 22.8078 0.0005 25.0100
#
#
#
# Elastic Compliance Matrix: (Units=1/GPa)
#
#
# Indices 1 2 3 4 5 6 
#
# 1 0.021217 -0.005255 0.002964 0.000000 -0.013603 0.000000
# 2 -0.005255 0.010722 -0.004482 0.000000 0.002999 0.000000
# 3 0.002964 -0.004482 0.010420 0.000000 -0.006056 0.000000
# 4 0.000000 0.000000 0.000000 0.022818 -0.000002 -0.020809
# 5 -0.013603 0.002999 -0.006056 -0.000002 0.039557 0.000001
# 6 0.000000 0.000000 0.000000 -0.020809 0.000001 0.058961
#
#
# Mechanical properties :
#
#
# Convention : Reuss Voigt Hill
#
# Bulk Modulus (GPa) = 34.70722 54.95806 44.83264
# Shear Modulus (GPa) = 26.76028 40.50349 33.63188
#
# Velocity S-wave (km/s) = 3.28899 4.04635 3.68717
# Velocity P-wave (km/s) = 5.33415 6.63676 6.02079
#
# Compressibility (1/GPa) = 0.02881245
#
# Stress axis : x y z
#
# Youngs Moduli (GPa) = 47.13221 93.26635 95.97246
#
# Poissons Ratio (x) = 0.49014 -0.28446
# Poissons Ratio (y) = 0.24769 0.43013
# Poissons Ratio (z) = -0.13970 0.41800
#
# Static dielectric constant tensor:
#      x y z
#    x 2.086750 0.000000 0.007520 
#    y 0.000000 1.989300 0.000000 
#    z 0.007520 0.000000 1.950810 
# 
# From -- ./inp_files/284407.got.cif
#   From: 2010.05.17/outbox.cif.g08.bks.cpg/sg12_143_cif.got.tgz:284407.got - 2010.06.03 13:09:07.
