data_PCOD9222889
_publ_section_title
;
Structure prediction by ZEFSAII (Michael W. Deem and Ramdas Pophale) SiO2 
 PCOD9222889
Probable space group: C 2/M
;
_chemical_formula_sum "Si O2"
_cell_formula_units_Z 40
_cell_length_a 10.682890
_cell_length_b 28.787823
_cell_length_c 7.032302
_cell_angle_alpha 90.000000
_cell_angle_beta 138.306188
_cell_angle_gamma 90.000000
_cell_volume 1438.515354
_symmetry_space_group_name_H-M "C 2/M"
_symmetry_group_IT_number 12
_symmetry_cell_setting 'monoclinic'
loop_
_space_group_symop_operation_xyz
x,y,z
-x,y,-z
-x,-y,-z
x,-y,z
1/2+x,1/2+y,z
1/2-x,1/2+y,-z
1/2-x,1/2-y,-z
1/2+x,1/2-y,z
loop_
_atom_site_type_symbol
_atom_site_label
_atom_site_fract_x
_atom_site_fract_y
_atom_site_fract_z
Si Si1 0.721486 0.749907 0.695809
Si Si2 0.772648 0.050661 0.276991
Si Si3 0.278453 0.349347 0.300366
Si Si4 0.212469 0.651948 0.679602
Si Si5 0.721576 0.549010 0.268374
O O1 0.500000 0.748180 0.500000
O O2 0.750000 0.750000 0.500000
O O3 0.802458 0.700378 0.858209
O O4 0.804864 0.799638 0.856869
O O5 0.699883 0.101621 0.133710
O O6 0.732966 0.050401 0.457153
O O7 0.000000 0.050937 0.500000
O O8 0.706558 0.000000 0.130770
O O9 0.500000 0.349841 0.500000
O O10 0.253892 0.349768 0.500920
O O11 0.248572 0.599438 0.787263
O O12 0.000000 0.658742 0.500000
O O13 0.798690 0.500000 0.279390
O O14 0.500000 0.545010 0.000000
#
# Coordination Sequence:
#
# PCOD9222889 Si02
#       5
#     8   8   8   8   8
#     4   8  13  21  34  55  79 103 134 173 208 243
#     4   8  13  22  38  61  82 101 136 181 209 233
#     4   8  13  22  37  59  81 106 137 174 208 245
#     4   9  16  25  39  62  86 107 138 182 218 246
#     4   9  17  28  41  60  88 118 143 170 212 263
#
# _framework density 27.806445
#
# number of rings (size 3 to 8) (size 9 to 14) (size 15 to 20)
#    0.000    3.600    0.000    0.000    0.000    0.400 
#    0.000    0.000    0.000    0.000    0.000  162.400 
#    0.000   73.600    0.000    0.000    0.000    0.000 
#
# Total GULP energy -111533.434048 kJ/mol
# GULP energy per Si atom -5576.671702 kJ/mol
# Density = 2.774316 g / cm^3
# Si number density = 27.806445 Si / 1000 Ang^3
#
#
#
# Elastic Constant Matrix: (Units=GPa)
#
#
# Indices 1 2 3 4 5 6 
#
# 1 192.0083 2.2104 64.1693 0.0000 -14.1776 0.0000
# 2 2.2104 451.1477 22.7061 0.0000 -2.8767 0.0000
# 3 64.1693 22.7061 42.1580 0.0000 -13.0564 0.0000
# 4 0.0000 0.0000 0.0000 5.5276 0.0000 -16.7929
# 5 -14.1776 -2.8767 -13.0564 0.0000 79.2500 0.0000
# 6 0.0000 0.0000 0.0000 -16.7929 0.0000 63.8176
#
#
#
# Elastic Compliance Matrix: (Units=1/GPa)
#
#
# Indices 1 2 3 4 5 6 
#
# 1 0.010932 0.000814 -0.017349 0.000000 -0.000873 0.000000
# 2 0.000814 0.002340 -0.002559 0.000000 -0.000191 0.000000
# 3 -0.017349 -0.002559 0.053232 0.000000 0.005573 0.000000
# 4 0.000000 0.000000 0.000000 0.901898 0.000000 0.237324
# 5 -0.000873 -0.000191 0.005573 0.000000 0.013373 0.000000
# 6 0.000000 0.000000 0.000000 0.237324 0.000000 0.078119
#
#
# Mechanical properties :
#
#
# Convention : Reuss Voigt Hill
#
# Bulk Modulus (GPa) = 35.31452 95.94284 65.62868
# Shear Modulus (GPa) = 4.51459 69.46759 36.99109
#
# Velocity S-wave (km/s) = 1.27558 5.00368 3.65129
# Velocity P-wave (km/s) = 3.85968 8.24385 6.43655
#
# Compressibility (1/GPa) = 0.02831696
#
# Stress axis : x y z
#
# Youngs Moduli (GPa) = 91.47142 427.32557 18.78575
#
# Poissons Ratio (x) = -0.34786 0.32592
# Poissons Ratio (y) = -0.07446 0.04807
# Poissons Ratio (z) = 1.58695 1.09335
#
# Static dielectric constant tensor:
#      x y z
#    x 2.092930 0.000000 0.032380 
#    y 0.000000 2.380850 0.000000 
#    z 0.032380 0.000000 2.072680 
# 
# From -- ./inp_files/53515.got.cif
#   From: 2010.05.17/outbox.cif.g08.bks.cpg/sg12_27_cif.got.tgz:53515.got - 2010.06.03 13:09:07.
