data_PCOD9222115
_publ_section_title
;
Structure prediction by ZEFSAII (Michael W. Deem and Ramdas Pophale) SiO2 
 PCOD9222115
Probable space group: C 2/M
;
_chemical_formula_sum "Si O2"
_cell_formula_units_Z 34
_cell_length_a 27.347354
_cell_length_b 16.246497
_cell_length_c 21.546138
_cell_angle_alpha 90.000000
_cell_angle_beta 11.338998
_cell_angle_gamma 90.000000
_cell_volume 1882.166001
_symmetry_space_group_name_H-M "C 2/M"
_symmetry_group_IT_number 12
_symmetry_cell_setting 'monoclinic'
loop_
_space_group_symop_operation_xyz
x,y,z
-x,y,-z
-x,-y,-z
x,-y,z
1/2+x,1/2+y,z
1/2-x,1/2+y,-z
1/2-x,1/2-y,-z
1/2+x,1/2-y,z
loop_
_atom_site_type_symbol
_atom_site_label
_atom_site_fract_x
_atom_site_fract_y
_atom_site_fract_z
Si Si1 0.595442 0.777111 0.752529
Si Si2 0.293315 0.147082 0.706924
Si Si3 0.792270 0.092825 0.811739
Si Si4 0.987926 0.776734 0.663924
Si Si5 0.500000 0.500000 0.000000
O O1 0.750000 0.750000 0.500000
O O2 0.783888 0.793594 0.574115
O O3 0.406210 0.705731 0.009799
O O4 0.437627 0.856451 0.929530
O O5 0.500000 0.120835 0.500000
O O6 0.428464 0.205132 0.487613
O O7 0.154473 0.072530 0.846203
O O8 0.907063 0.144148 0.725313
O O9 0.000000 0.090418 0.500000
O O10 0.724149 0.000000 0.914301
O O11 0.750000 0.750000 0.000000
#
# Coordination Sequence:
#
# PCOD9222115 Si02
#       5
#     8   8   8   8   2
#     4  12  22  42  71  94 130 177 216 265 336 390
#     4  12  23  45  67  97 134 173 221 271 330 395
#     4  11  24  43  69  99 132 170 222 275 319 391
#     4  12  22  42  71  94 130 177 216 265 336 390
#     4  12  26  40  72 106 130 174 222 276 324 390
#
# _framework density 18.064294
#
# number of rings (size 3 to 8) (size 9 to 14) (size 15 to 20)
#    0.000    0.235    9.412    0.353    0.000    0.941 
#    8.471    2.353    0.000    0.000    0.000    0.000 
#    0.000    0.000    0.000    0.000    0.000    0.000 
#
# Total GULP energy -94765.492569 kJ/mol
# GULP energy per Si atom -5574.440739 kJ/mol
# Density = 1.802318 g / cm^3
# Si number density = 18.064294 Si / 1000 Ang^3
#
#
#
# Elastic Constant Matrix: (Units=GPa)
#
#
# Indices 1 2 3 4 5 6 
#
# 1 156.5612 88.4570 77.0164 -0.0015 -41.1569 -0.0284
# 2 88.4570 194.5620 74.9184 -0.0232 -20.5610 -0.0738
# 3 77.0164 74.9184 120.4753 0.0970 -16.4990 0.0005
# 4 -0.0015 -0.0232 0.0970 20.8967 0.0194 -12.0917
# 5 -41.1569 -20.5610 -16.4990 0.0194 70.9709 -0.0663
# 6 -0.0284 -0.0738 0.0005 -12.0917 -0.0663 27.3629
#
#
#
# Elastic Compliance Matrix: (Units=1/GPa)
#
#
# Indices 1 2 3 4 5 6 
#
# 1 0.011785 -0.002895 -0.005074 0.000035 0.004816 0.000032
# 2 -0.002895 0.007541 -0.002860 0.000042 -0.000159 0.000036
# 3 -0.005074 -0.002860 0.013227 -0.000098 -0.000696 -0.000058
# 4 0.000035 0.000042 -0.000098 0.064296 0.000019 0.028413
# 5 0.004816 -0.000159 -0.000696 0.000019 0.016675 0.000053
# 6 0.000032 0.000036 -0.000058 0.028413 0.000053 0.049102
#
#
# Mechanical properties :
#
#
# Convention : Reuss Voigt Hill
#
# Bulk Modulus (GPa) = 91.79001 105.82023 98.80512
# Shear Modulus (GPa) = 26.60762 39.25987 32.93374
#
# Velocity S-wave (km/s) = 3.84205 4.66697 4.27446
# Velocity P-wave (km/s) = 8.40268 9.36738 8.89811
#
# Compressibility (1/GPa) = 0.01089443
#
# Stress axis : x y z
#
# Youngs Moduli (GPa) = 84.85232 132.61501 75.60067
#
# Poissons Ratio (x) = 0.38397 0.38359
# Poissons Ratio (y) = 0.24568 0.21623
# Poissons Ratio (z) = 0.43053 0.37930
#
# Static dielectric constant tensor:
#      x y z
#    x 1.593480 0.000140 -0.020190 
#    y 0.000140 1.594120 0.000320 
#    z -0.020190 0.000320 1.584540 
# 
# From -- ./inp_files/354210.got.cif
#   From: 2010.05.17/outbox.cif.g08.bks.cpg/sg12_178_cif.got.tgz:354210.got - 2010.06.03 13:09:07.
