data_PCOD9222217
_publ_section_title
;
Structure prediction by ZEFSAII (Michael W. Deem and Ramdas Pophale) SiO2 
 PCOD9222217
Probable space group: C 2/M
;
_chemical_formula_sum "Si O2"
_cell_formula_units_Z 50
_cell_length_a 14.254859
_cell_length_b 11.919454
_cell_length_c 13.575420
_cell_angle_alpha 90.000000
_cell_angle_beta 68.035197
_cell_angle_gamma 90.000000
_cell_volume 2139.174029
_symmetry_space_group_name_H-M "C 2/M"
_symmetry_group_IT_number 12
_symmetry_cell_setting 'monoclinic'
loop_
_space_group_symop_operation_xyz
x,y,z
-x,y,-z
-x,-y,-z
x,-y,z
1/2+x,1/2+y,z
1/2-x,1/2+y,-z
1/2-x,1/2-y,-z
1/2+x,1/2-y,z
loop_
_atom_site_type_symbol
_atom_site_label
_atom_site_fract_x
_atom_site_fract_y
_atom_site_fract_z
Si Si1 0.282567 0.268282 0.850868
Si Si2 0.000000 0.500000 0.500000
Si Si3 0.832738 0.500000 0.068656
Si Si4 0.671923 0.809844 0.390460
Si Si5 0.491837 0.000000 0.836449
Si Si6 0.873970 0.130187 0.433033
Si Si7 0.006453 0.743146 0.771094
Si Si8 0.106380 0.873359 0.901705
O O1 0.231589 0.388915 0.884105
O O2 0.304720 0.224475 0.730766
O O3 0.394365 0.271692 0.850631
O O4 0.202604 0.176170 0.920839
O O5 0.084158 0.401364 0.437237
O O6 0.923517 0.500000 0.112243
O O7 0.886695 0.500000 0.939543
O O8 0.772514 0.855696 0.406515
O O9 0.644055 0.696223 0.459454
O O10 0.508086 0.109445 0.764257
O O11 0.962655 0.193384 0.339340
O O12 0.896088 0.000000 0.437710
O O13 0.083781 0.786766 0.822926
O O14 0.127980 0.000000 0.858422
O O15 0.000000 0.876916 0.000000
#
# Coordination Sequence:
#
# PCOD9222217 Si02
#       8
#     8   2   4   8   4   8   8   8
#     4  12  27  45  72 106 144 192 237 297 362 433
#     4  12  24  46  68 114 140 186 232 298 352 426
#     4  11  24  46  73 100 144 187 242 305 357 414
#     4  11  25  45  73 104 146 186 235 299 358 434
#     4  11  24  47  72 101 141 189 243 304 353 423
#     4  11  24  47  73 103 142 190 237 295 361 427
#     4  12  26  45  72 105 141 190 240 297 357 431
#     4  11  25  46  71 100 141 188 239 296 361 433
#
# _framework density 23.373507
#
# number of rings (size 3 to 8) (size 9 to 14) (size 15 to 20)
#    0.000    0.640    4.000    2.400    5.600    4.480 
#    1.440    1.200    0.000    0.000    0.000    0.000 
#    0.000    0.000    0.000    0.000    0.000    0.000 
#
# Total GULP energy -139736.378566 kJ/mol
# GULP energy per Si atom -5589.455143 kJ/mol
# Density = 2.332031 g / cm^3
# Si number density = 23.373507 Si / 1000 Ang^3
#
#
#
# Elastic Constant Matrix: (Units=GPa)
#
#
# Indices 1 2 3 4 5 6 
#
# 1 122.9424 47.8366 22.9243 0.0000 -29.9997 0.0000
# 2 47.8366 240.4762 57.5841 0.0000 -28.7079 0.0000
# 3 22.9243 57.5841 100.3900 0.0000 -15.6977 0.0000
# 4 0.0000 0.0000 0.0000 18.4569 0.0000 -11.8890
# 5 -29.9997 -28.7079 -15.6977 0.0000 34.5360 0.0000
# 6 0.0000 0.0000 0.0000 -11.8890 0.0000 28.1121
#
#
#
# Elastic Compliance Matrix: (Units=1/GPa)
#
#
# Indices 1 2 3 4 5 6 
#
# 1 0.010614 -0.001003 -0.000578 0.000000 0.008123 0.000000
# 2 -0.001003 0.005214 -0.002390 0.000000 0.002376 0.000000
# 3 -0.000578 -0.002390 0.011922 0.000000 0.002930 0.000000
# 4 0.000000 0.000000 0.000000 0.074466 0.000000 0.031493
# 5 0.008123 0.002376 0.002930 0.000000 0.039319 0.000000
# 6 0.000000 0.000000 0.000000 0.031493 0.000000 0.048891
#
#
# Mechanical properties :
#
#
# Convention : Reuss Voigt Hill
#
# Bulk Modulus (GPa) = 50.48556 80.05542 65.27049
# Shear Modulus (GPa) = 24.39361 38.58525 31.48943
#
# Velocity S-wave (km/s) = 3.23405 4.06743 3.67444
# Velocity P-wave (km/s) = 5.96589 7.50889 6.78142
#
# Compressibility (1/GPa) = 0.01980764
#
# Stress axis : x y z
#
# Youngs Moduli (GPa) = 94.21289 191.79152 83.87634
#
# Poissons Ratio (x) = 0.19241 0.04849
# Poissons Ratio (y) = 0.09452 0.20047
# Poissons Ratio (z) = 0.05447 0.45840
#
# Static dielectric constant tensor:
#      x y z
#    x 1.881700 0.000000 0.009170 
#    y 0.000000 1.816730 0.000000 
#    z 0.009170 0.000000 1.892030 
# 
# From -- ./inp_files/213373.got.cif
#   From: 2010.05.17/outbox.cif.g08.bks.cpg/sg12_107_cif.got.tgz:213373.got - 2010.06.03 13:09:07.
