data_PCOD9222979
_publ_section_title
;
Structure prediction by ZEFSAII (Michael W. Deem and Ramdas Pophale) SiO2 
 PCOD9222979
Probable space group: C 2/M
;
_chemical_formula_sum "Si O2"
_cell_formula_units_Z 48
_cell_length_a 14.386021
_cell_length_b 7.366504
_cell_length_c 29.212288
_cell_angle_alpha 90.000000
_cell_angle_beta 43.733282
_cell_angle_gamma 90.000000
_cell_volume 2140.107871
_symmetry_space_group_name_H-M "C 2/M"
_symmetry_group_IT_number 12
_symmetry_cell_setting 'monoclinic'
loop_
_space_group_symop_operation_xyz
x,y,z
-x,y,-z
-x,-y,-z
x,-y,z
1/2+x,1/2+y,z
1/2-x,1/2+y,-z
1/2-x,1/2-y,-z
1/2+x,1/2-y,z
loop_
_atom_site_type_symbol
_atom_site_label
_atom_site_fract_x
_atom_site_fract_y
_atom_site_fract_z
Si Si1 0.533836 0.780369 0.346152
Si Si2 0.120200 0.283729 0.513827
Si Si3 0.110250 0.719705 0.996781
Si Si4 0.825349 0.777702 0.254887
Si Si5 0.279341 0.289778 0.373702
Si Si6 0.410205 0.712657 0.889615
O O1 0.499434 0.720248 0.410629
O O2 0.685299 0.726457 0.280387
O O3 0.417385 0.714937 0.353857
O O4 0.525712 0.000000 0.348680
O O5 0.103352 0.500000 0.514294
O O6 0.250000 0.250000 0.500000
O O7 0.164042 0.211658 0.448491
O O8 0.113652 0.500000 0.994358
O O9 0.073169 0.771053 0.061718
O O10 0.261240 0.786989 0.932512
O O11 0.000000 0.782529 0.000000
O O12 0.810724 0.715320 0.312582
O O13 0.960931 0.712071 0.182642
O O14 0.829312 0.000000 0.253305
O O15 0.241347 0.500000 0.379748
O O16 0.404742 0.500000 0.879802
#
# Coordination Sequence:
#
# PCOD9222979 Si02
#       6
#     8   8   8   8   8   8
#     4   9  17  30  46  65  91 122 156 193 232 271
#     4   8  14  25  43  64  86 115 153 195 230 264
#     4   9  18  33  53  74  94 119 151 186 225 268
#     4   9  18  31  47  68  95 125 153 185 228 275
#     4   9  17  30  47  67  91 121 157 193 231 272
#     4   9  18  33  50  70  97 123 150 186 225 269
#
# _framework density 22.428775999999999
#
# number of rings (size 3 to 8) (size 9 to 14) (size 15 to 20)
#    0.000    3.167    0.000    0.000    0.000    2.333 
#    0.000    7.500    0.000    0.000    0.000   11.667 
#    0.000    0.000    0.000    0.000    0.000    0.000 
#
# Total GULP energy -133905.309746 kJ/mol
# GULP energy per Si atom -5579.387906 kJ/mol
# Density = 2.237773 g / cm^3
# Si number density = 22.428776 Si / 1000 Ang^3
#
#
#
# Elastic Constant Matrix: (Units=GPa)
#
#
# Indices 1 2 3 4 5 6 
#
# 1 97.2207 -10.7318 54.7703 0.0008 -16.3999 -0.0023
# 2 -10.7318 82.4782 1.4503 0.0028 -4.0570 -0.0099
# 3 54.7703 1.4503 160.9358 -0.0003 -39.5222 0.0001
# 4 0.0008 0.0028 -0.0003 6.4707 -0.0003 4.4971
# 5 -16.3999 -4.0570 -39.5222 -0.0003 19.8411 0.0002
# 6 -0.0023 -0.0099 0.0001 4.4971 0.0002 -7.8857
#
#
#
# Elastic Compliance Matrix: (Units=1/GPa)
#
#
# Indices 1 2 3 4 5 6 
#
# 1 0.013183 0.001999 -0.003383 0.000001 0.004566 -0.000006
# 2 0.001999 0.012632 0.000481 0.000004 0.005194 -0.000014
# 3 -0.003383 0.000481 0.013112 0.000001 0.023421 0.000002
# 4 0.000001 0.000004 0.000001 0.110677 0.000004 0.063118
# 5 0.004566 0.005194 0.023421 0.000004 0.101890 -0.000002
# 6 -0.000006 -0.000014 0.000002 0.063118 -0.000002 -0.090817
#
#
# Mechanical properties :
#
#
# Convention : Reuss Voigt Hill
#
# Bulk Modulus (GPa) = 26.93814 47.95692 37.44753
# Shear Modulus (GPa) = 28.59506 23.36161 25.97834
#
# Velocity S-wave (km/s) = 3.57449 3.23087 3.40701
# Velocity P-wave (km/s) = 5.39190 5.94528 5.67533
#
# Compressibility (1/GPa) = 0.03712209
#
# Stress axis : x y z
#
# Youngs Moduli (GPa) = 75.85675 79.16653 76.26398
#
# Poissons Ratio (x) = -0.15829 0.25800
# Poissons Ratio (y) = -0.15167 -0.03671
# Poissons Ratio (z) = 0.25662 -0.03810
#
# Static dielectric constant tensor:
#      x y z
#    x 1.820570 0.000000 -0.023460 
#    y 0.000000 2.573320 0.000000 
#    z -0.023460 0.000000 1.817320 
# 
# From -- ./inp_files/261628.got.cif
#   From: 2010.05.17/outbox.cif.g08.bks.cpg/sg12_131_cif.got.tgz:261628.got - 2010.06.03 13:09:07.
