data_PCOD9222835
_publ_section_title
;
Structure prediction by ZEFSAII (Michael W. Deem and Ramdas Pophale) SiO2 
 PCOD9222835
Probable space group: C 2/M
;
_chemical_formula_sum "Si O2"
_cell_formula_units_Z 56
_cell_length_a 30.415147
_cell_length_b 7.300864
_cell_length_c 14.262133
_cell_angle_alpha 90.000000
_cell_angle_beta 75.871941
_cell_angle_gamma 90.000000
_cell_volume 3071.210692
_symmetry_space_group_name_H-M "C 2/M"
_symmetry_group_IT_number 12
_symmetry_cell_setting 'monoclinic'
loop_
_space_group_symop_operation_xyz
x,y,z
-x,y,-z
-x,-y,-z
x,-y,z
1/2+x,1/2+y,z
1/2-x,1/2+y,-z
1/2-x,1/2-y,-z
1/2+x,1/2-y,z
loop_
_atom_site_type_symbol
_atom_site_label
_atom_site_fract_x
_atom_site_fract_y
_atom_site_fract_z
Si Si1 0.445896 0.221694 0.921224
Si Si2 0.605560 0.777908 0.241685
Si Si3 0.016213 0.723566 0.389671
Si Si4 0.108350 0.723533 0.867407
Si Si5 0.302587 0.215289 0.080316
Si Si6 0.964975 0.276999 0.229781
Si Si7 0.299636 0.220413 0.867058
O O1 0.413624 0.270990 0.851091
O O2 0.496112 0.279068 0.864997
O O3 0.447067 0.000000 0.924762
O O4 0.424104 0.280618 0.029523
O O5 0.567222 0.717854 0.334994
O O6 0.657627 0.716599 0.216625
O O7 0.605714 0.000000 0.246231
O O8 0.016257 0.500000 0.389627
O O9 0.000000 0.783535 0.500000
O O10 0.982648 0.780641 0.322694
O O11 0.108794 0.500000 0.864338
O O12 0.158634 0.785780 0.870240
O O13 0.083557 0.782068 0.784835
O O14 0.250858 0.234441 0.140099
O O15 0.312139 0.000000 0.065500
O O16 0.304578 0.288726 0.972350
O O17 0.965294 0.500000 0.231416
O O18 0.301774 0.000000 0.869534
#
# Coordination Sequence:
#
# PCOD9222835 Si02
#       7
#     8   8   8   8   8   8   8
#     4   8  11  16  25  40  62  86 109 132 162 203
#     4   8  12  19  31  45  63  89 115 139 170 205
#     4   8  13  20  29  44  67  91 113 138 170 209
#     4   9  13  18  27  42  65  90 112 136 169 204
#     4   9  16  23  33  49  71  95 119 149 177 198
#     4   8  13  17  25  41  62  88 112 134 166 209
#     4   9  15  24  35  48  68  95 124 147 170 204
#
# _framework density 18.23385
#
# number of rings (size 3 to 8) (size 9 to 14) (size 15 to 20)
#    0.000    3.571    1.429    2.143    0.000    1.714 
#    0.000    0.000    0.000    0.000    0.000    1.000 
#    0.000    7.429    0.000    0.000    0.000    0.143 
#
# Total GULP energy -155972.245374 kJ/mol
# GULP energy per Si atom -5570.437335 kJ/mol
# Density = 1.819235 g / cm^3
# Si number density = 18.233850 Si / 1000 Ang^3
#
#
#
# Elastic Constant Matrix: (Units=GPa)
#
#
# Indices 1 2 3 4 5 6 
#
# 1 185.5529 -0.3939 77.8966 0.0000 7.7242 0.0000
# 2 -0.3939 71.5240 -0.9232 0.0000 2.9100 0.0000
# 3 77.8966 -0.9232 95.0919 0.0000 -4.9363 0.0000
# 4 0.0000 0.0000 0.0000 -13.8868 0.0000 -2.8792
# 5 7.7242 2.9100 -4.9363 0.0000 11.9428 0.0000
# 6 0.0000 0.0000 0.0000 -2.8792 0.0000 3.9454
#
#
#
# Elastic Compliance Matrix: (Units=1/GPa)
#
#
# Indices 1 2 3 4 5 6 
#
# 1 0.009107 0.000324 -0.007937 0.000000 -0.009250 0.000000
# 2 0.000324 0.014133 -0.000325 0.000000 -0.003788 0.000000
# 3 -0.007937 -0.000325 0.017665 0.000000 0.012514 0.000000
# 4 0.000000 0.000000 0.000000 -0.062547 0.000000 -0.045645
# 5 -0.009250 -0.003788 0.012514 0.000000 0.095810 0.000000
# 6 0.000000 0.000000 0.000000 -0.045645 0.000000 0.220151
#
#
# Mechanical properties :
#
#
# Convention : Reuss Voigt Hill
#
# Bulk Modulus (GPa) = 39.95443 56.14751 48.05097
# Shear Modulus (GPa) = 15.69668 18.77289 17.23479
#
# Velocity S-wave (km/s) = 2.93721 3.21216 3.07776
# Velocity P-wave (km/s) = 5.78470 6.67961 6.24820
#
# Compressibility (1/GPa) = 0.02502851
#
# Stress axis : x y z
#
# Youngs Moduli (GPa) = 109.80281 70.75631 56.61001
#
# Poissons Ratio (x) = -0.02293 0.44934
# Poissons Ratio (y) = -0.03558 0.01839
# Poissons Ratio (z) = 0.87155 0.02299
#
# Static dielectric constant tensor:
#      x y z
#    x 1.664220 0.000000 -0.001800 
#    y 0.000000 1.766370 0.000000 
#    z -0.001800 0.000000 1.585990 
# 
# From -- ./inp_files/247744.got.cif
#   From: 2010.05.17/outbox.cif.g08.bks.cpg/sg12_124_cif.got.tgz:247744.got - 2010.06.03 13:09:07.
