data_PCOD9222472
_publ_section_title
;
Structure prediction by ZEFSAII (Michael W. Deem and Ramdas Pophale) SiO2 
 PCOD9222472
Probable space group: C 2/M
;
_chemical_formula_sum "Si O2"
_cell_formula_units_Z 44
_cell_length_a 18.831175
_cell_length_b 11.668597
_cell_length_c 9.803953
_cell_angle_alpha 90.000000
_cell_angle_beta 97.616654
_cell_angle_gamma 90.000000
_cell_volume 2135.248970
_symmetry_space_group_name_H-M "C 2/M"
_symmetry_group_IT_number 12
_symmetry_cell_setting 'monoclinic'
loop_
_space_group_symop_operation_xyz
x,y,z
-x,y,-z
-x,-y,-z
x,-y,z
1/2+x,1/2+y,z
1/2-x,1/2+y,-z
1/2-x,1/2-y,-z
1/2+x,1/2-y,z
loop_
_atom_site_type_symbol
_atom_site_label
_atom_site_fract_x
_atom_site_fract_y
_atom_site_fract_z
Si Si1 0.116409 0.500000 0.539325
Si Si2 0.545712 0.000000 0.796846
Si Si3 0.441107 0.363206 0.372244
Si Si4 0.063371 0.257685 0.911706
Si Si5 0.121708 0.500000 0.208773
Si Si6 0.203150 0.272669 0.619628
Si Si7 0.306068 0.765605 0.892163
O O1 0.049752 0.500000 0.631651
O O2 0.119058 0.500000 0.374446
O O3 0.159899 0.388551 0.592293
O O4 0.583037 0.884399 0.860055
O O5 0.535493 0.000000 0.164643
O O6 0.500000 0.322270 0.500000
O O7 0.443606 0.500000 0.371612
O O8 0.458039 0.313299 0.227172
O O9 0.359723 0.321815 0.379551
O O10 0.125889 0.205328 0.020413
O O11 0.000000 0.271460 0.000000
O O12 0.161564 0.388170 0.155257
O O13 0.250000 0.250000 0.500000
O O14 0.260476 0.280179 0.754766
O O15 0.250000 0.750000 0.000000
#
# Coordination Sequence:
#
# PCOD9222472 Si02
#       7
#     4   4   8   8   4   8   8
#     4  12  25  45  74 112 142 189 245 301 368 425
#     4  12  23  44  73 116 146 178 237 317 366 431
#     4  11  28  51  74 100 141 194 244 292 353 434
#     4  12  25  45  73 106 146 186 236 300 365 429
#     4  12  26  42  76 109 149 186 239 304 374 420
#     4  12  27  46  72 106 144 189 240 298 356 428
#     4  12  25  45  69 106 144 192 233 291 369 426
#
# _framework density 20.606497000000001
#
# number of rings (size 3 to 8) (size 9 to 14) (size 15 to 20)
#    0.000    0.182    7.273    1.091    7.636    1.091 
#    1.636    0.000    0.000    0.000    0.000    0.000 
#    0.000    0.000    0.000    0.000    0.000    0.000 
#
# Total GULP energy -122680.292395 kJ/mol
# GULP energy per Si atom -5576.376927 kJ/mol
# Density = 2.055960 g / cm^3
# Si number density = 20.606497 Si / 1000 Ang^3
#
#
#
# Elastic Constant Matrix: (Units=GPa)
#
#
# Indices 1 2 3 4 5 6 
#
# 1 80.3821 9.9933 59.9494 0.0000 -12.0631 0.0000
# 2 9.9933 73.6324 30.0052 0.0000 -1.9564 0.0000
# 3 59.9494 30.0052 210.9798 0.0000 2.1417 0.0000
# 4 0.0000 0.0000 0.0000 47.3636 0.0000 22.1437
# 5 -12.0631 -1.9564 2.1417 0.0000 62.6027 0.0000
# 6 0.0000 0.0000 0.0000 22.1437 0.0000 77.9251
#
#
#
# Elastic Compliance Matrix: (Units=1/GPa)
#
#
# Indices 1 2 3 4 5 6 
#
# 1 0.016456 -0.000240 -0.004676 0.000000 0.003323 0.000000
# 2 -0.000240 0.014437 -0.001990 0.000000 0.000473 0.000000
# 3 -0.004676 -0.001990 0.006363 0.000000 -0.001181 0.000000
# 4 0.000000 0.000000 0.000000 0.024348 0.000000 -0.006919
# 5 0.003323 0.000473 -0.001181 0.000000 0.016669 0.000000
# 6 0.000000 0.000000 0.000000 -0.006919 0.000000 0.014799
#
#
# Mechanical properties :
#
#
# Convention : Reuss Voigt Hill
#
# Bulk Modulus (GPa) = 42.65125 62.76557 52.70841
# Shear Modulus (GPa) = 43.59241 55.24804 49.42023
#
# Velocity S-wave (km/s) = 4.60441 5.18355 4.90254
# Velocity P-wave (km/s) = 7.00074 8.14560 7.59477
#
# Compressibility (1/GPa) = 0.02344597
#
# Stress axis : x y z
#
# Youngs Moduli (GPa) = 60.76706 69.26662 157.14995
#
# Poissons Ratio (x) = 0.01661 0.73478
# Poissons Ratio (y) = 0.01457 0.31271
# Poissons Ratio (z) = 0.28413 0.13783
#
# Static dielectric constant tensor:
#      x y z
#    x 1.743260 0.000000 0.018770 
#    y 0.000000 1.676110 0.000000 
#    z 0.018770 0.000000 1.755470 
# 
# From -- ./inp_files/84209.got.cif
#   From: 2010.05.17/outbox.cif.g08.bks.cpg/sg12_43_cif.got.tgz:84209.got - 2010.06.03 13:09:07.
