data_PCOD9222612
_publ_section_title
;
Structure prediction by ZEFSAII (Michael W. Deem and Ramdas Pophale) SiO2 
 PCOD9222612
Probable space group: C 2/M
;
_chemical_formula_sum "Si O2"
_cell_formula_units_Z 48
_cell_length_a 32.209576
_cell_length_b 8.821989
_cell_length_c 9.850423
_cell_angle_alpha 90.000000
_cell_angle_beta 102.618554
_cell_angle_gamma 90.000000
_cell_volume 2731.415174
_symmetry_space_group_name_H-M "C 2/M"
_symmetry_group_IT_number 12
_symmetry_cell_setting 'monoclinic'
loop_
_space_group_symop_operation_xyz
x,y,z
-x,y,-z
-x,-y,-z
x,-y,z
1/2+x,1/2+y,z
1/2-x,1/2+y,-z
1/2-x,1/2-y,-z
1/2+x,1/2-y,z
loop_
_atom_site_type_symbol
_atom_site_label
_atom_site_fract_x
_atom_site_fract_y
_atom_site_fract_z
Si Si1 0.548225 0.815327 0.051618
Si Si2 0.379294 0.817223 0.107913
Si Si3 0.264749 0.819916 0.367032
Si Si4 0.643064 0.320115 0.623548
Si Si5 0.186940 0.679948 0.170589
Si Si6 0.889180 0.681035 0.669717
O O1 0.571188 0.770518 0.208250
O O2 0.547984 0.000000 0.052194
O O3 0.500000 0.762472 0.000000
O O4 0.579492 0.771642 0.950941
O O5 0.376516 0.738826 0.250238
O O6 0.380227 0.000000 0.124554
O O7 0.338053 0.781768 0.985316
O O8 0.250000 0.750000 0.500000
O O9 0.310406 0.753839 0.360506
O O10 0.229103 0.772710 0.232401
O O11 0.267560 0.000000 0.382075
O O12 0.647063 0.500000 0.626939
O O13 0.615927 0.266239 0.474667
O O14 0.196552 0.500000 0.176356
O O15 0.152905 0.705586 0.267794
O O16 0.891963 0.500000 0.647668
#
# Coordination Sequence:
#
# PCOD9222612 Si02
#       6
#     8   8   8   8   8   8
#     4   8  15  32  61  91 110 132 175 225 272 326
#     4   9  19  36  57  81 111 144 177 224 276 321
#     4  12  23  35  54  79 108 143 185 229 268 316
#     4  12  24  36  52  77 110 149 186 226 269 319
#     4   9  18  34  55  78 105 142 186 227 268 316
#     4   9  17  32  56  81 108 141 177 224 272 321
#
# _framework density 17.573308000000001
#
# number of rings (size 3 to 8) (size 9 to 14) (size 15 to 20)
#    0.000    2.167    1.667    5.000    0.000    1.333 
#    0.000    3.333    0.000    7.000    0.000    0.000 
#    0.000    0.000    0.000    0.000    0.000    0.000 
#
# Total GULP energy -133979.972814 kJ/mol
# GULP energy per Si atom -5582.498867 kJ/mol
# Density = 1.753331 g / cm^3
# Si number density = 17.573308 Si / 1000 Ang^3
#
#
#
# Elastic Constant Matrix: (Units=GPa)
#
#
# Indices 1 2 3 4 5 6 
#
# 1 127.7462 48.8687 75.4893 0.0000 20.0026 0.0000
# 2 48.8687 74.2705 67.8758 0.0000 6.3809 0.0000
# 3 75.4893 67.8758 153.9404 0.0000 5.8710 0.0000
# 4 0.0000 0.0000 0.0000 20.1454 0.0000 2.7080
# 5 20.0026 6.3809 5.8710 0.0000 19.6530 0.0000
# 6 0.0000 0.0000 0.0000 2.7080 0.0000 15.7676
#
#
#
# Elastic Compliance Matrix: (Units=1/GPa)
#
#
# Indices 1 2 3 4 5 6 
#
# 1 0.013851 -0.003889 -0.004641 0.000000 -0.011448 0.000000
# 2 -0.003889 0.024026 -0.008639 0.000000 -0.001262 0.000000
# 3 -0.004641 -0.008639 0.012435 0.000000 0.003813 0.000000
# 4 0.000000 0.000000 0.000000 0.050812 0.000000 -0.008727
# 5 -0.011448 -0.001262 0.003813 0.000000 0.061805 0.000000
# 6 0.000000 0.000000 0.000000 -0.008727 0.000000 0.064920
#
#
# Mechanical properties :
#
#
# Convention : Reuss Voigt Hill
#
# Bulk Modulus (GPa) = 62.59423 82.26941 72.43182
# Shear Modulus (GPa) = 18.69081 22.02810 20.35945
#
# Velocity S-wave (km/s) = 3.26481 3.54432 3.40743
# Velocity P-wave (km/s) = 7.06458 7.97911 7.53573
#
# Compressibility (1/GPa) = 0.01597591
#
# Stress axis : x y z
#
# Youngs Moduli (GPa) = 72.19914 41.62108 80.41574
#
# Poissons Ratio (x) = 0.16185 0.37320
# Poissons Ratio (y) = 0.28075 0.69469
# Poissons Ratio (z) = 0.33507 0.35955
#
# Static dielectric constant tensor:
#      x y z
#    x 1.587670 0.000000 0.014560 
#    y 0.000000 1.586470 0.000000 
#    z 0.014560 0.000000 1.595080 
# 
# From -- ./inp_files/108781.got.cif
#   From: 2010.05.17/outbox.cif.g08.bks.cpg/sg12_55_cif.got.tgz:108781.got - 2010.06.03 13:09:07.
