data_PCOD9222454
_publ_section_title
;
Structure prediction by ZEFSAII (Michael W. Deem and Ramdas Pophale) SiO2 
 PCOD9222454
Probable space group: C 2/M
;
_chemical_formula_sum "Si O2"
_cell_formula_units_Z 36
_cell_length_a 9.582253
_cell_length_b 18.751624
_cell_length_c 8.291529
_cell_angle_alpha 90.000000
_cell_angle_beta 112.112045
_cell_angle_gamma 90.000000
_cell_volume 1380.266360
_symmetry_space_group_name_H-M "C 2/M"
_symmetry_group_IT_number 12
_symmetry_cell_setting 'monoclinic'
loop_
_space_group_symop_operation_xyz
x,y,z
-x,y,-z
-x,-y,-z
x,-y,z
1/2+x,1/2+y,z
1/2-x,1/2+y,-z
1/2-x,1/2-y,-z
1/2+x,1/2-y,z
loop_
_atom_site_type_symbol
_atom_site_label
_atom_site_fract_x
_atom_site_fract_y
_atom_site_fract_z
Si Si1 0.915143 0.768966 0.131450
Si Si2 0.765699 0.412425 0.534446
Si Si3 0.500000 0.299754 0.500000
Si Si4 0.086751 0.583638 0.744078
Si Si5 0.127188 0.075321 0.918150
O O1 0.967681 0.745452 0.332258
O O2 0.921746 0.852428 0.180202
O O3 0.750000 0.750000 0.000000
O O4 0.000000 0.756169 0.000000
O O5 0.728198 0.500000 0.520950
O O6 0.639746 0.353981 0.522046
O O7 0.826220 0.394511 0.380803
O O8 0.914821 0.396414 0.707055
O O9 0.067963 0.500000 0.705992
O O10 0.208158 0.589719 0.937909
O O11 0.128913 0.000000 0.828196
O O12 0.000000 0.067877 0.000000
#
# Coordination Sequence:
#
# PCOD9222454 Si02
#       5
#     8   8   4   8   8
#     4  11  27  49  71 101 140 183 234 289 347 419
#     4   9  17  31  57  98 142 178 224 283 344 419
#     4  12  25  42  70 100 129 182 238 286 356 414
#     4   8  15  30  55  92 140 187 223 272 344 410
#     4   9  17  34  64  99 134 174 222 279 342 404
#
# _framework density 26.081924999999998
#
# number of rings (size 3 to 8) (size 9 to 14) (size 15 to 20)
#    0.000    2.444    0.000    4.333    0.000    6.222 
#    0.000    2.222    0.000    4.667    0.000    0.000 
#    0.000    0.000    0.000    0.000    0.000    0.000 
#
# Total GULP energy -100274.972032 kJ/mol
# GULP energy per Si atom -5570.831780 kJ/mol
# Density = 2.602256 g / cm^3
# Si number density = 26.081925 Si / 1000 Ang^3
#
#
#
# Elastic Constant Matrix: (Units=GPa)
#
#
# Indices 1 2 3 4 5 6 
#
# 1 196.9278 20.3729 79.0045 0.0000 18.2522 0.0000
# 2 20.3729 90.2412 11.4004 0.0000 -14.2318 0.0000
# 3 79.0045 11.4004 143.0730 0.0000 -21.1175 0.0000
# 4 0.0000 0.0000 0.0000 17.4490 0.0000 9.8061
# 5 18.2522 -14.2318 -21.1175 0.0000 28.7755 0.0000
# 6 0.0000 0.0000 0.0000 9.8061 0.0000 25.5095
#
#
#
# Elastic Compliance Matrix: (Units=1/GPa)
#
#
# Indices 1 2 3 4 5 6 
#
# 1 0.009215 -0.003180 -0.006650 0.000000 -0.012298 0.000000
# 2 -0.003180 0.013117 0.002205 0.000000 0.010122 0.000000
# 3 -0.006650 0.002205 0.012638 0.000000 0.014584 0.000000
# 4 0.000000 0.000000 0.000000 0.073102 0.000000 -0.028101
# 5 -0.012298 0.010122 0.014584 0.000000 0.058261 0.000000
# 6 0.000000 0.000000 0.000000 -0.028101 0.000000 0.050004
#
#
# Mechanical properties :
#
#
# Convention : Reuss Voigt Hill
#
# Bulk Modulus (GPa) = 50.70999 72.42196 61.56597
# Shear Modulus (GPa) = 20.99422 35.64438 28.31930
#
# Velocity S-wave (km/s) = 2.84021 3.70081 3.29870
# Velocity P-wave (km/s) = 5.49914 6.78887 6.17775
#
# Compressibility (1/GPa) = 0.01971998
#
# Stress axis : x y z
#
# Youngs Moduli (GPa) = 108.52239 76.23640 79.12356
#
# Poissons Ratio (x) = 0.24240 0.52618
# Poissons Ratio (y) = 0.34506 -0.17444
# Poissons Ratio (z) = 0.72169 -0.16807
#
# Static dielectric constant tensor:
#      x y z
#    x 1.929420 0.000000 0.056780 
#    y 0.000000 2.350760 0.000000 
#    z 0.056780 0.000000 2.171070 
# 
# From -- ./inp_files/39539.got.cif
#   From: 2010.05.17/outbox.cif.g08.bks.cpg/sg12_20_cif.got.tgz:39539.got - 2010.06.03 13:09:07.
