data_PCOD9222767
_publ_section_title
;
Structure prediction by ZEFSAII (Michael W. Deem and Ramdas Pophale) SiO2 
 PCOD9222767
Probable space group: C 2/M
;
_chemical_formula_sum "Si O2"
_cell_formula_units_Z 40
_cell_length_a 10.685278
_cell_length_b 24.342467
_cell_length_c 13.741156
_cell_angle_alpha 90.000000
_cell_angle_beta 149.425911
_cell_angle_gamma 90.000000
_cell_volume 1818.002746
_symmetry_space_group_name_H-M "C 2/M"
_symmetry_group_IT_number 12
_symmetry_cell_setting 'monoclinic'
loop_
_space_group_symop_operation_xyz
x,y,z
-x,y,-z
-x,-y,-z
x,-y,z
1/2+x,1/2+y,z
1/2-x,1/2+y,-z
1/2-x,1/2-y,-z
1/2+x,1/2-y,z
loop_
_atom_site_type_symbol
_atom_site_label
_atom_site_fract_x
_atom_site_fract_y
_atom_site_fract_z
Si Si1 0.800739 0.438124 0.778988
Si Si2 0.871717 0.649264 0.107393
Si Si3 0.674605 0.763207 0.210482
Si Si4 0.443973 0.848046 0.365239
Si Si5 0.499529 0.351363 0.676823
O O1 0.762129 0.500000 0.718729
O O2 0.561842 0.408762 0.664631
O O3 0.931446 0.396934 0.791972
O O4 0.000000 0.439952 0.000000
O O5 0.009128 0.708192 0.182910
O O6 0.798916 0.637199 0.169365
O O7 0.652907 0.648451 0.881270
O O8 0.882843 0.805557 0.314460
O O9 0.798106 0.704850 0.307978
O O10 0.500000 0.758355 0.000000
O O11 0.500000 0.883652 0.500000
O O12 0.716776 0.839453 0.504909
#
# Coordination Sequence:
#
# PCOD9222767 Si02
#       5
#     8   8   8   8   8
#     4   8  15  35  68  92 105 133 176 229 292 332
#     4   9  21  39  54  81 118 138 178 238 273 317
#     4   9  21  36  55  78 108 148 187 229 274 316
#     4  12  26  33  52  78 111 159 194 213 261 328
#     4   9  20  38  55  83 114 137 177 235 277 321
#
# _framework density 22.002167
#
# number of rings (size 3 to 8) (size 9 to 14) (size 15 to 20)
#    0.000    2.600    0.000    3.000    8.400    4.000 
#    0.000    2.000    0.000    2.400    0.000    5.600 
#    0.000    0.000    0.000    0.000    0.000    0.000 
#
# Total GULP energy -111653.079716 kJ/mol
# GULP energy per Si atom -5582.653986 kJ/mol
# Density = 2.195209 g / cm^3
# Si number density = 22.002167 Si / 1000 Ang^3
#
#
#
# Elastic Constant Matrix: (Units=GPa)
#
#
# Indices 1 2 3 4 5 6 
#
# 1 80.7448 26.7810 25.9367 -0.0002 -22.2626 -0.0002
# 2 26.7810 93.4405 6.5117 0.0000 8.5752 0.0000
# 3 25.9367 6.5117 84.3050 0.0009 -7.2148 0.0007
# 4 -0.0002 0.0000 0.0009 5.0691 0.0000 -3.2876
# 5 -22.2626 8.5752 -7.2148 0.0000 57.4201 -0.0001
# 6 -0.0002 0.0000 0.0007 -3.2876 -0.0001 -2.0456
#
#
#
# Elastic Compliance Matrix: (Units=1/GPa)
#
#
# Indices 1 2 3 4 5 6 
#
# 1 0.017506 -0.005359 -0.004370 0.000000 0.007039 -0.000003
# 2 -0.005359 0.012573 0.000343 0.000000 -0.003912 0.000000
# 3 -0.004370 0.000343 0.013172 0.000000 -0.000090 0.000004
# 4 0.000000 0.000000 0.000000 0.096591 0.000000 -0.155239
# 5 0.007039 -0.003912 -0.000090 0.000000 0.020717 -0.000001
# 6 -0.000003 0.000000 0.000004 -0.155239 -0.000001 -0.239358
#
#
# Mechanical properties :
#
#
# Convention : Reuss Voigt Hill
#
# Bulk Modulus (GPa) = 40.85022 41.88322 41.36672
# Shear Modulus (GPa) = -96.40139 25.37278 -35.51431
#
# Velocity S-wave (km/s) = -6.62643 3.39956 -4.02198
# Velocity P-wave (km/s) = 6.31976 5.87253 1.65118
#
# Compressibility (1/GPa) = 0.02447967
#
# Stress axis : x y z
#
# Youngs Moduli (GPa) = 57.12184 79.53490 75.91966
#
# Poissons Ratio (x) = 0.42623 0.33174
# Poissons Ratio (y) = 0.30611 -0.02602
# Poissons Ratio (z) = 0.24960 -0.02726
#
# Static dielectric constant tensor:
#      x y z
#    x 1.829060 0.000000 -0.051280 
#    y 0.000000 1.789010 0.000000 
#    z -0.051280 0.000000 1.901190 
# 
# From -- ./inp_files/208524.got.cif
#   From: 2010.05.17/outbox.cif.g08.bks.cpg/sg12_105_cif.got.tgz:208524.got - 2010.06.03 13:09:07.
