data_PCOD9222138
_publ_section_title
;
Structure prediction by ZEFSAII (Michael W. Deem and Ramdas Pophale) SiO2 
 PCOD9222138
Probable space group: C 2/M
;
_chemical_formula_sum "Si O2"
_cell_formula_units_Z 48
_cell_length_a 8.505554
_cell_length_b 18.358826
_cell_length_c 14.666126
_cell_angle_alpha 90.000000
_cell_angle_beta 94.470996
_cell_angle_gamma 90.000000
_cell_volume 2283.175614
_symmetry_space_group_name_H-M "C 2/M"
_symmetry_group_IT_number 12
_symmetry_cell_setting 'monoclinic'
loop_
_space_group_symop_operation_xyz
x,y,z
-x,y,-z
-x,-y,-z
x,-y,z
1/2+x,1/2+y,z
1/2-x,1/2+y,-z
1/2-x,1/2-y,-z
1/2+x,1/2-y,z
loop_
_atom_site_type_symbol
_atom_site_label
_atom_site_fract_x
_atom_site_fract_y
_atom_site_fract_z
Si Si1 0.883654 0.082824 0.858745
Si Si2 0.654468 0.183382 0.949146
Si Si3 0.688705 0.332553 0.500889
Si Si4 0.922116 0.211524 0.213611
Si Si5 0.878782 0.323326 0.687902
Si Si6 0.323785 0.082096 0.333113
O O1 0.767309 0.115832 0.930142
O O2 0.794542 0.080245 0.757356
O O3 0.009203 0.146234 0.843806
O O4 0.936067 0.000000 0.881797
O O5 0.597758 0.218915 0.851949
O O6 0.500000 0.164199 0.000000
O O7 0.750000 0.250000 0.000000
O O8 0.500000 0.338621 0.500000
O O9 0.750000 0.250000 0.500000
O O10 0.777964 0.353341 0.597738
O O11 0.754023 0.374364 0.415776
O O12 0.753278 0.186365 0.241603
O O13 0.031567 0.243526 0.301468
O O14 0.020362 0.379704 0.697340
O O15 0.356274 0.000000 0.364249
#
# Coordination Sequence:
#
# PCOD9222138 Si02
#       6
#     8   8   8   8   8   8
#     4  11  24  44  68 100 141 178 221 283 346 401
#     4  12  23  42  72 101 129 174 223 280 341 412
#     4  12  24  39  63  98 130 173 232 278 324 388
#     4  12  22  42  69 100 133 176 230 277 340 411
#     4  12  22  38  68  93 130 180 232 274 326 401
#     4  11  25  44  64  96 140 180 222 283 342 392
#
# _framework density 21.023349
#
# number of rings (size 3 to 8) (size 9 to 14) (size 15 to 20)
#    0.000    0.333    5.000    5.500    0.000    2.667 
#    0.000    1.667    0.000    0.000    0.000    0.000 
#    0.000    0.000    0.000    0.000    0.000    0.000 
#
# Total GULP energy -134011.132652 kJ/mol
# GULP energy per Si atom -5583.797194 kJ/mol
# Density = 2.097550 g / cm^3
# Si number density = 21.023349 Si / 1000 Ang^3
#
#
#
# Elastic Constant Matrix: (Units=GPa)
#
#
# Indices 1 2 3 4 5 6 
#
# 1 109.8465 37.1191 24.4860 0.0000 -24.3518 0.0000
# 2 37.1191 134.4115 20.4840 0.0000 -17.3345 0.0000
# 3 24.4860 20.4840 79.9075 0.0000 -8.5608 0.0000
# 4 0.0000 0.0000 0.0000 81.9945 0.0000 12.1082
# 5 -24.3518 -17.3345 -8.5608 0.0000 41.7935 0.0000
# 6 0.0000 0.0000 0.0000 12.1082 0.0000 32.3027
#
#
#
# Elastic Compliance Matrix: (Units=1/GPa)
#
#
# Indices 1 2 3 4 5 6 
#
# 1 0.011549 -0.002131 -0.002420 0.000000 0.005350 0.000000
# 2 -0.002131 0.008487 -0.001307 0.000000 0.002011 0.000000
# 3 -0.002420 -0.001307 0.013682 0.000000 0.000851 0.000000
# 4 0.000000 0.000000 0.000000 0.012911 0.000000 -0.004839
# 5 0.005350 0.002011 0.000851 0.000000 0.028053 0.000000
# 6 0.000000 0.000000 0.000000 -0.004839 0.000000 0.032771
#
#
# Mechanical properties :
#
#
# Convention : Reuss Voigt Hill
#
# Bulk Modulus (GPa) = 45.44860 54.26041 49.85451
# Shear Modulus (GPa) = 39.52521 47.35656 43.44088
#
# Velocity S-wave (km/s) = 4.34067 4.75127 4.55061
# Velocity P-wave (km/s) = 6.84010 7.48098 7.16771
#
# Compressibility (1/GPa) = 0.02200288
#
# Stress axis : x y z
#
# Youngs Moduli (GPa) = 86.58781 117.83016 73.08801
#
# Poissons Ratio (x) = 0.25106 0.17684
# Poissons Ratio (y) = 0.18449 0.09554
# Poissons Ratio (z) = 0.20951 0.15403
#
# Static dielectric constant tensor:
#      x y z
#    x 1.797670 0.000000 0.173600 
#    y 0.000000 1.739210 0.000000 
#    z 0.173600 0.000000 2.135910 
# 
# From -- ./inp_files/195919.got.cif
#   From: 2010.05.17/outbox.cif.g08.bks.cpg/sg12_98_cif.got.tgz:195919.got - 2010.06.03 13:09:07.
