data_PCOD9222548
_publ_section_title
;
Structure prediction by ZEFSAII (Michael W. Deem and Ramdas Pophale) SiO2 
 PCOD9222548
Probable space group: C 2/M
;
_chemical_formula_sum "Si O2"
_cell_formula_units_Z 42
_cell_length_a 13.105126
_cell_length_b 7.547060
_cell_length_c 16.471459
_cell_angle_alpha 90.000000
_cell_angle_beta 115.475875
_cell_angle_gamma 90.000000
_cell_volume 1470.708140
_symmetry_space_group_name_H-M "C 2/M"
_symmetry_group_IT_number 12
_symmetry_cell_setting 'monoclinic'
loop_
_space_group_symop_operation_xyz
x,y,z
-x,y,-z
-x,-y,-z
x,-y,z
1/2+x,1/2+y,z
1/2-x,1/2+y,-z
1/2-x,1/2-y,-z
1/2+x,1/2-y,z
loop_
_atom_site_type_symbol
_atom_site_label
_atom_site_fract_x
_atom_site_fract_y
_atom_site_fract_z
Si Si1 0.288332 0.208965 0.603243
Si Si2 0.428543 0.285808 0.358198
Si Si3 0.394920 0.293114 0.016500
Si Si4 0.500000 0.000000 0.500000
Si Si5 0.237998 0.793395 0.827452
Si Si6 0.049181 0.286108 0.211584
O O1 0.250000 0.250000 0.500000
O O2 0.183072 0.258803 0.624324
O O3 0.403337 0.282778 0.684726
O O4 0.296861 0.000000 0.613860
O O5 0.449852 0.500000 0.372826
O O6 0.377442 0.222003 0.253079
O O7 0.513578 0.155702 0.433398
O O8 0.385683 0.500000 0.996127
O O9 0.440212 0.275913 0.123658
O O10 0.500000 0.214887 0.000000
O O11 0.283298 0.217462 0.935050
O O12 0.345566 0.728203 0.811498
O O13 0.226687 0.000000 0.804805
O O14 0.044738 0.500000 0.209012
#
# Coordination Sequence:
#
# PCOD9222548 Si02
#       6
#     8   8   8   2   8   8
#     4   9  18  31  48  68  97 132 164 202 238 291
#     4   9  20  35  48  72  99 129 167 203 247 292
#     4   9  15  20  32  57  85 114 149 187 220 274
#     4  12  22  32  56  70  94 136 162 214 246 290
#     4   8  14  26  41  55  84 122 152 184 230 285
#     4   8  14  25  37  55  84 123 157 178 227 282
#
# _framework density 28.557670999999999
#
# number of rings (size 3 to 8) (size 9 to 14) (size 15 to 20)
#    0.000    3.238    0.000    3.143    2.667    3.048 
#    3.429    0.000    0.000    0.000    0.000    0.000 
#    0.000    1.524    3.048    0.762    0.000    0.000 
#
# Total GULP energy -117148.737062 kJ/mol
# GULP energy per Si atom -5578.511289 kJ/mol
# Density = 2.849267 g / cm^3
# Si number density = 28.557671 Si / 1000 Ang^3
#
#
#
# Elastic Constant Matrix: (Units=GPa)
#
#
# Indices 1 2 3 4 5 6 
#
# 1 64.0420 10.4050 56.1080 0.0000 49.9916 0.0000
# 2 10.4050 113.0299 29.8467 0.0000 14.1652 0.0000
# 3 56.1080 29.8467 270.2964 0.0000 15.8395 0.0000
# 4 0.0000 0.0000 0.0000 40.3014 0.0000 -8.3389
# 5 49.9916 14.1652 15.8395 0.0000 85.6090 0.0000
# 6 0.0000 0.0000 0.0000 -8.3389 0.0000 2.1843
#
#
#
# Elastic Compliance Matrix: (Units=1/GPa)
#
#
# Indices 1 2 3 4 5 6 
#
# 1 0.037633 0.000920 -0.006689 0.000000 -0.020891 0.000000
# 2 0.000920 0.009289 -0.001107 0.000000 -0.001869 0.000000
# 3 -0.006689 -0.001107 0.005025 0.000000 0.003160 0.000000
# 4 0.000000 0.000000 0.000000 0.118104 0.000000 0.450871
# 5 -0.020891 -0.001869 0.003160 0.000000 0.023605 0.000000
# 6 0.000000 0.000000 0.000000 0.450871 0.000000 2.179043
#
#
# Mechanical properties :
#
#
# Convention : Reuss Voigt Hill
#
# Bulk Modulus (GPa) = 26.18150 71.12084 48.65117
# Shear Modulus (GPa) = 2.08404 49.01953 25.55179
#
# Velocity S-wave (km/s) = 0.85519 4.14757 2.99447
# Velocity P-wave (km/s) = 3.18794 6.92061 5.38785
#
# Compressibility (1/GPa) = 0.03819491
#
# Stress axis : x y z
#
# Youngs Moduli (GPa) = 26.57234 107.65230 198.99326
#
# Poissons Ratio (x) = -0.09905 1.33112
# Poissons Ratio (y) = -0.02445 0.22032
# Poissons Ratio (z) = 0.17775 0.11919
#
# Static dielectric constant tensor:
#      x y z
#    x 2.235000 0.000000 0.264660 
#    y 0.000000 2.045710 0.000000 
#    z 0.264660 0.000000 2.019630 
# 
# From -- ./inp_files/236256.got.cif
#   From: 2010.05.17/outbox.cif.g08.bks.cpg/sg12_119_cif.got.tgz:236256.got - 2010.06.03 13:09:07.
