data_PCOD9222301
_publ_section_title
;
Structure prediction by ZEFSAII (Michael W. Deem and Ramdas Pophale) SiO2 
 PCOD9222301
Probable space group: C 2/M
;
_chemical_formula_sum "Si O2"
_cell_formula_units_Z 34
_cell_length_a 8.960670
_cell_length_b 18.267126
_cell_length_c 18.717817
_cell_angle_alpha 90.000000
_cell_angle_beta 147.098588
_cell_angle_gamma 90.000000
_cell_volume 1664.262324
_symmetry_space_group_name_H-M "C 2/M"
_symmetry_group_IT_number 12
_symmetry_cell_setting 'monoclinic'
loop_
_space_group_symop_operation_xyz
x,y,z
-x,y,-z
-x,-y,-z
x,-y,z
1/2+x,1/2+y,z
1/2-x,1/2+y,-z
1/2-x,1/2-y,-z
1/2+x,1/2-y,z
loop_
_atom_site_type_symbol
_atom_site_label
_atom_site_fract_x
_atom_site_fract_y
_atom_site_fract_z
Si Si1 0.747548 0.086390 0.947642
Si Si2 0.709236 0.309623 0.920319
Si Si3 0.184148 0.856826 0.657592
Si Si4 0.813772 0.779825 0.629564
Si Si5 0.500000 0.500000 0.500000
O O1 0.465246 0.124481 0.812024
O O2 0.716614 0.000000 0.927850
O O3 0.829515 0.111993 0.058830
O O4 0.000000 0.111293 0.000000
O O5 0.473872 0.298620 0.767137
O O6 0.750000 0.250000 0.000000
O O7 0.000000 0.308731 0.000000
O O8 0.278202 0.807917 0.626657
O O9 0.989240 0.809277 0.632745
O O10 0.060188 0.934091 0.583374
O O11 0.500000 0.808701 0.500000
#
# Coordination Sequence:
#
# PCOD9222301 Si02
#       5
#     8   8   8   8   2
#     4  11  25  44  70 104 140 192 242 296 367 433
#     4  12  23  41  71 103 140 186 242 303 354 431
#     4  12  26  47  76 104 147 191 247 300 365 438
#     4  12  26  45  75 110 146 192 246 303 363 434
#     4  12  28  48  76  98 156 196 234 306 382 436
#
# _framework density 20.429470999999999
#
# number of rings (size 3 to 8) (size 9 to 14) (size 15 to 20)
#    0.000    0.235    7.059    1.412    3.294    0.471 
#    2.118    0.588    0.000    0.000    0.000    0.000 
#    0.000    0.000    0.000    0.000    0.000    0.000 
#
# Total GULP energy -94636.269691 kJ/mol
# GULP energy per Si atom -5566.839394 kJ/mol
# Density = 2.038297 g / cm^3
# Si number density = 20.429471 Si / 1000 Ang^3
#
#
#
# Elastic Constant Matrix: (Units=GPa)
#
#
# Indices 1 2 3 4 5 6 
#
# 1 137.0039 70.3150 55.2816 0.0001 8.8903 0.0003
# 2 70.3150 125.4054 42.2662 0.0018 6.8211 0.0008
# 3 55.2816 42.2662 147.2115 -0.0003 -2.0701 0.0024
# 4 0.0001 0.0018 -0.0003 23.1524 0.0002 -10.2290
# 5 8.8903 6.8211 -2.0701 0.0002 41.1018 0.0006
# 6 0.0003 0.0008 0.0024 -10.2290 0.0006 31.2664
#
#
#
# Elastic Compliance Matrix: (Units=1/GPa)
#
#
# Indices 1 2 3 4 5 6 
#
# 1 0.011216 -0.005280 -0.002720 0.000001 -0.001687 0.000000
# 2 -0.005280 0.011420 -0.001307 -0.000001 -0.000819 0.000000
# 3 -0.002720 -0.001307 0.008207 0.000000 0.001219 -0.000001
# 4 0.000001 -0.000001 0.000000 0.050490 0.000000 0.016518
# 5 -0.001687 -0.000819 0.001219 0.000000 0.024892 -0.000001
# 6 0.000000 0.000000 -0.000001 0.016518 -0.000001 0.037387
#
#
# Mechanical properties :
#
#
# Convention : Reuss Voigt Hill
#
# Bulk Modulus (GPa) = 81.77980 82.81628 82.29804
# Shear Modulus (GPa) = 30.06568 35.22134 32.64351
#
# Velocity S-wave (km/s) = 3.84041 4.15667 4.00167
# Velocity P-wave (km/s) = 7.73190 7.97890 7.85637
#
# Compressibility (1/GPa) = 0.01222796
#
# Stress axis : x y z
#
# Youngs Moduli (GPa) = 89.15855 87.56488 121.85173
#
# Poissons Ratio (x) = 0.46239 0.33138
# Poissons Ratio (y) = 0.47080 0.15931
# Poissons Ratio (z) = 0.24247 0.11448
#
# Static dielectric constant tensor:
#      x y z
#    x 1.739830 0.000000 -0.126080 
#    y 0.000000 1.746850 -0.000010 
#    z -0.126080 -0.000010 1.992800 
# 
# From -- ./inp_files/301227.got.cif
#   From: 2010.05.17/outbox.cif.g08.bks.cpg/sg12_151_cif.got.tgz:301227.got - 2010.06.03 13:09:07.
