data_PCOD9222214
_publ_section_title
;
Structure prediction by ZEFSAII (Michael W. Deem and Ramdas Pophale) SiO2 
 PCOD9222214
Probable space group: C 2/M
;
_chemical_formula_sum "Si O2"
_cell_formula_units_Z 28
_cell_length_a 8.713516
_cell_length_b 19.061786
_cell_length_c 10.505352
_cell_angle_alpha 90.000000
_cell_angle_beta 138.278875
_cell_angle_gamma 90.000000
_cell_volume 1161.232929
_symmetry_space_group_name_H-M "C 2/M"
_symmetry_group_IT_number 12
_symmetry_cell_setting 'monoclinic'
loop_
_space_group_symop_operation_xyz
x,y,z
-x,y,-z
-x,-y,-z
x,-y,z
1/2+x,1/2+y,z
1/2-x,1/2+y,-z
1/2-x,1/2-y,-z
1/2+x,1/2-y,z
loop_
_atom_site_type_symbol
_atom_site_label
_atom_site_fract_x
_atom_site_fract_y
_atom_site_fract_z
Si Si1 0.774620 0.500000 0.184999
Si Si2 0.680823 0.614528 0.326398
Si Si3 0.255250 0.687670 0.107670
Si Si4 0.739059 0.500000 0.573243
Si Si5 0.000000 0.744204 0.500000
O O1 0.796471 0.570356 0.284805
O O2 0.988605 0.500000 0.218127
O O3 0.500000 0.500000 0.000000
O O4 0.406453 0.626025 0.138326
O O5 0.715283 0.568733 0.472010
O O6 0.795988 0.690329 0.408976
O O7 0.397784 0.711375 0.320926
O O8 0.250000 0.750000 0.000000
O O9 0.000000 0.670415 0.000000
O O10 0.500000 0.500000 0.500000
#
# Coordination Sequence:
#
# PCOD9222214 Si02
#       5
#     4   8   8   4   4
#     4  11  25  45  74 100 138 194 240 303 363 434
#     4  11  24  46  70 101 142 188 243 288 370 436
#     4  12  28  44  71 111 145 193 242 298 366 434
#     4  11  25  45  74 102 136 189 241 307 362 424
#     4  12  24  47  76 101 152 190 238 298 362 436
#
# _framework density 24.112303000000001
#
# number of rings (size 3 to 8) (size 9 to 14) (size 15 to 20)
#    0.000    0.571    5.714    1.714    6.000    2.286 
#    0.000    2.857    0.000    0.000    0.000    0.000 
#    0.000    0.000    0.000    0.000    0.000    0.000 
#
# Total GULP energy -78219.623297 kJ/mol
# GULP energy per Si atom -5587.115950 kJ/mol
# Density = 2.405742 g / cm^3
# Si number density = 24.112303 Si / 1000 Ang^3
#
#
#
# Elastic Constant Matrix: (Units=GPa)
#
#
# Indices 1 2 3 4 5 6 
#
# 1 181.1701 23.1674 56.9786 0.0000 68.7182 0.0000
# 2 23.1674 55.9726 9.4943 0.0000 12.3240 0.0000
# 3 56.9786 9.4943 122.6834 0.0000 30.9841 0.0000
# 4 0.0000 0.0000 0.0000 40.3852 0.0000 12.3855
# 5 68.7182 12.3240 30.9841 0.0000 68.5244 0.0000
# 6 0.0000 0.0000 0.0000 12.3855 0.0000 -63.1466
#
#
#
# Elastic Compliance Matrix: (Units=1/GPa)
#
#
# Indices 1 2 3 4 5 6 
#
# 1 0.009591 -0.001766 -0.002223 0.000000 -0.008296 0.000000
# 2 -0.001766 0.018977 -0.000264 0.000000 -0.001522 0.000000
# 3 -0.002223 -0.000264 0.009741 0.000000 -0.002128 0.000000
# 4 0.000000 0.000000 0.000000 0.023357 0.000000 0.004581
# 5 -0.008296 -0.001522 -0.002128 0.000000 0.024148 0.000000
# 6 0.000000 0.000000 0.000000 0.004581 0.000000 -0.014938
#
#
# Mechanical properties :
#
#
# Convention : Reuss Voigt Hill
#
# Bulk Modulus (GPa) = 33.55282 59.90075 46.72679
# Shear Modulus (GPa) = 55.98050 27.16499 41.57274
#
# Velocity S-wave (km/s) = 4.82359 3.36013 4.15677
# Velocity P-wave (km/s) = 6.70582 6.32063 6.51607
#
# Compressibility (1/GPa) = 0.02980375
#
# Stress axis : x y z
#
# Youngs Moduli (GPa) = 104.26323 52.69559 102.65610
#
# Poissons Ratio (x) = 0.09308 0.22817
# Poissons Ratio (y) = 0.18416 0.02708
# Poissons Ratio (z) = 0.23175 0.01390
#
# Static dielectric constant tensor:
#      x y z
#    x 2.179250 0.000000 0.069320 
#    y 0.000000 2.095570 0.000000 
#    z 0.069320 0.000000 2.075310 
# 
# From -- ./inp_files/120582.got.cif
#   From: 2010.05.17/outbox.cif.g08.bks.cpg/sg12_61_cif.got.tgz:120582.got - 2010.06.03 13:09:07.
