data_PCOD9222076
_publ_section_title
;
Structure prediction by ZEFSAII (Michael W. Deem and Ramdas Pophale) SiO2 
 PCOD9222076
Probable space group: C 2/M
;
_chemical_formula_sum "Si O2"
_cell_formula_units_Z 56
_cell_length_a 9.452550
_cell_length_b 16.282175
_cell_length_c 25.888934
_cell_angle_alpha 90.000000
_cell_angle_beta 43.079593
_cell_angle_gamma 90.000000
_cell_volume 2721.478859
_symmetry_space_group_name_H-M "C 2/M"
_symmetry_group_IT_number 12
_symmetry_cell_setting 'monoclinic'
loop_
_space_group_symop_operation_xyz
x,y,z
-x,y,-z
-x,-y,-z
x,-y,z
1/2+x,1/2+y,z
1/2-x,1/2+y,-z
1/2-x,1/2-y,-z
1/2+x,1/2-y,z
loop_
_atom_site_type_symbol
_atom_site_label
_atom_site_fract_x
_atom_site_fract_y
_atom_site_fract_z
Si Si1 0.614627 0.171384 0.712424
Si Si2 0.510074 0.410781 0.435938
Si Si3 0.468600 0.092810 0.161278
Si Si4 0.393591 0.170743 0.473301
Si Si5 0.137570 0.092697 0.157867
Si Si6 0.240780 0.246404 0.941610
Si Si7 0.211426 0.662154 0.293522
O O1 0.593917 0.103622 0.762369
O O2 0.652260 0.257152 0.730829
O O3 0.429278 0.171550 0.720344
O O4 0.829048 0.155891 0.625844
O O5 0.500000 0.405461 0.500000
O O6 0.593466 0.500000 0.399477
O O7 0.279708 0.399644 0.476558
O O8 0.276911 0.104176 0.172517
O O9 0.627004 0.167631 0.110947
O O10 0.549090 0.000000 0.131115
O O11 0.500000 0.181873 0.500000
O O12 0.250000 0.250000 0.500000
O O13 0.555126 0.152164 0.383901
O O14 0.192024 0.168365 0.104714
O O15 0.893021 0.096457 0.236509
O O16 0.185226 0.000000 0.125145
O O17 0.250000 0.250000 0.000000
O O18 0.000000 0.231537 0.000000
#
# Coordination Sequence:
#
# PCOD9222076 Si02
#       7
#     8   8   8   8   8   8   8
#     4  12  24  42  69 100 135 185 235 288 350 416
#     4  11  24  43  63  92 135 179 228 292 354 409
#     4  11  26  48  74 107 145 186 232 284 350 420
#     4  12  24  41  66  95 128 175 233 291 350 408
#     4  11  27  49  73 106 146 190 236 285 349 424
#     4  12  26  48  78 109 142 182 228 282 348 416
#     4  12  25  41  70 100 136 184 239 290 347 416
#
# _framework density 20.577048000000001
#
# number of rings (size 3 to 8) (size 9 to 14) (size 15 to 20)
#    0.000    0.429    5.714    2.571    4.000    3.143 
#    0.000    0.000    0.000    0.000    0.000    0.000 
#    0.000    0.000    0.000    0.000    0.000    0.000 
#
# Total GULP energy -156334.579646 kJ/mol
# GULP energy per Si atom -5583.377845 kJ/mol
# Density = 2.053021 g / cm^3
# Si number density = 20.577048 Si / 1000 Ang^3
#
#
#
# Elastic Constant Matrix: (Units=GPa)
#
#
# Indices 1 2 3 4 5 6 
#
# 1 189.2999 52.2995 61.0384 -0.0002 0.0862 -0.0017
# 2 52.2995 130.0672 46.0061 -0.0018 0.7017 0.0017
# 3 61.0384 46.0061 112.4038 -0.0043 -7.3322 0.0103
# 4 -0.0002 -0.0018 -0.0043 20.5514 0.0009 -17.6301
# 5 0.0862 0.7017 -7.3322 0.0009 37.6356 0.0003
# 6 -0.0017 0.0017 0.0103 -17.6301 0.0003 -55.6085
#
#
#
# Elastic Compliance Matrix: (Units=1/GPa)
#
#
# Indices 1 2 3 4 5 6 
#
# 1 0.006703 -0.001627 -0.003011 -0.000001 -0.000572 0.000000
# 2 -0.001627 0.009415 -0.003019 0.000000 -0.000760 0.000000
# 3 -0.003011 -0.003019 0.011923 0.000003 0.002386 0.000001
# 4 -0.000001 0.000000 0.000003 0.038254 0.000000 -0.012128
# 5 -0.000572 -0.000760 0.002386 0.000000 0.027051 0.000001
# 6 0.000000 0.000000 0.000001 -0.012128 0.000001 -0.014138
#
#
# Mechanical properties :
#
#
# Convention : Reuss Voigt Hill
#
# Bulk Modulus (GPa) = 78.58279 83.38432 80.98355
# Shear Modulus (GPa) = 50.62435 18.67749 34.65092
#
# Velocity S-wave (km/s) = 4.96546 3.01605 4.10806
# Velocity P-wave (km/s) = 8.43485 7.26221 7.87040
#
# Compressibility (1/GPa) = 0.01272543
#
# Stress axis : x y z
#
# Youngs Moduli (GPa) = 149.17663 106.21699 83.86969
#
# Poissons Ratio (x) = 0.17283 0.25257
# Poissons Ratio (y) = 0.24274 0.25323
# Poissons Ratio (z) = 0.44924 0.32071
#
# Static dielectric constant tensor:
#      x y z
#    x 1.666590 0.000000 -0.115510 
#    y 0.000000 1.813340 0.000010 
#    z -0.115510 0.000010 1.214310 
# 
# From -- ./inp_files/356665.got.cif
#   From: 2010.05.17/outbox.cif.g08.bks.cpg/sg12_179_cif.got.tgz:356665.got - 2010.06.03 13:09:07.
