data_PCOD9222654
_publ_section_title
;
Structure prediction by ZEFSAII (Michael W. Deem and Ramdas Pophale) SiO2 
 PCOD9222654
Probable space group: C 2/M
;
_chemical_formula_sum "Si O2"
_cell_formula_units_Z 48
_cell_length_a 14.219802
_cell_length_b 14.034111
_cell_length_c 11.459865
_cell_angle_alpha 90.000000
_cell_angle_beta 83.737085
_cell_angle_gamma 90.000000
_cell_volume 2273.307708
_symmetry_space_group_name_H-M "C 2/M"
_symmetry_group_IT_number 12
_symmetry_cell_setting 'monoclinic'
loop_
_space_group_symop_operation_xyz
x,y,z
-x,y,-z
-x,-y,-z
x,-y,z
1/2+x,1/2+y,z
1/2-x,1/2+y,-z
1/2-x,1/2-y,-z
1/2+x,1/2-y,z
loop_
_atom_site_type_symbol
_atom_site_label
_atom_site_fract_x
_atom_site_fract_y
_atom_site_fract_z
Si Si1 0.470008 0.712306 0.234013
Si Si2 0.690708 0.500000 0.470681
Si Si3 0.635653 0.192952 0.298909
Si Si4 0.890061 0.500000 0.553601
Si Si5 0.353539 0.293960 0.473309
Si Si6 0.116450 0.000000 0.999205
Si Si7 0.060198 0.000000 0.255131
Si Si8 0.302914 0.302395 0.099180
O O1 0.560816 0.778996 0.211221
O O2 0.412856 0.744226 0.358018
O O3 0.500341 0.599711 0.247315
O O4 0.403560 0.732987 0.133101
O O5 0.806544 0.500000 0.464787
O O6 0.657528 0.405890 0.540609
O O7 0.628769 0.500000 0.359435
O O8 0.625832 0.092843 0.364739
O O9 0.609260 0.269694 0.403309
O O10 0.735987 0.200309 0.222655
O O11 0.000000 0.500000 0.500000
O O12 0.250000 0.250000 0.500000
O O13 0.129439 0.000000 0.135682
O O14 0.168689 0.908898 0.940664
O O15 0.000000 0.000000 0.000000
O O16 0.250000 0.250000 0.000000
#
# Coordination Sequence:
#
# PCOD9222654 Si02
#       8
#     8   4   8   4   8   4   4   8
#     4  12  24  44  71 104 144 180 232 291 360 426
#     4  12  25  39  66 103 141 171 237 284 357 415
#     4  12  26  44  68  99 141 186 231 282 355 424
#     4  12  25  44  67  96 142 190 229 275 350 440
#     4  12  23  41  68 102 143 180 225 288 354 428
#     4  12  25  48  76 104 138 184 248 306 354 413
#     4  12  25  41  75 105 137 173 231 305 363 411
#     4  12  27  46  75 102 140 188 240 299 357 414
#
# _framework density 21.114606999999999
#
# number of rings (size 3 to 8) (size 9 to 14) (size 15 to 20)
#    0.000    0.000    6.667    3.500    0.000    0.667 
#    0.000    0.000    0.000    2.000    0.000    0.000 
#    0.000    0.000    0.000    0.000    0.000    0.000 
#
# Total GULP energy -133918.075815 kJ/mol
# GULP energy per Si atom -5579.919826 kJ/mol
# Density = 2.106655 g / cm^3
# Si number density = 21.114607 Si / 1000 Ang^3
#
#
#
# Elastic Constant Matrix: (Units=GPa)
#
#
# Indices 1 2 3 4 5 6 
#
# 1 131.2724 25.7246 23.1483 0.0000 39.9317 0.0000
# 2 25.7246 96.6718 5.5625 0.0000 8.7135 0.0000
# 3 23.1483 5.5625 62.0182 0.0000 9.7598 0.0000
# 4 0.0000 0.0000 0.0000 27.7255 0.0000 -5.7789
# 5 39.9317 8.7135 9.7598 0.0000 41.6565 0.0000
# 6 0.0000 0.0000 0.0000 -5.7789 0.0000 16.0919
#
#
#
# Elastic Compliance Matrix: (Units=1/GPa)
#
#
# Indices 1 2 3 4 5 6 
#
# 1 0.011506 -0.002013 -0.002538 0.000000 -0.010014 0.000000
# 2 -0.002013 0.010918 -0.000179 0.000000 -0.000312 0.000000
# 3 -0.002538 -0.000179 0.017338 0.000000 -0.001592 0.000000
# 4 0.000000 0.000000 0.000000 0.038986 0.000000 0.014001
# 5 -0.010014 -0.000312 -0.001592 0.000000 0.034043 0.000000
# 6 0.000000 0.000000 0.000000 0.014001 0.000000 0.067171
#
#
# Mechanical properties :
#
#
# Convention : Reuss Voigt Hill
#
# Bulk Modulus (GPa) = 33.00064 44.31481 38.65772
# Shear Modulus (GPa) = 25.05970 32.79657 28.92813
#
# Velocity S-wave (km/s) = 3.44879 3.94542 3.70544
# Velocity P-wave (km/s) = 5.61446 6.46440 6.05436
#
# Compressibility (1/GPa) = 0.03030244
#
# Stress axis : x y z
#
# Youngs Moduli (GPa) = 86.91209 91.58846 57.67609
#
# Poissons Ratio (x) = 0.18438 0.14639
# Poissons Ratio (y) = 0.17496 0.01031
# Poissons Ratio (z) = 0.22060 0.01637
#
# Static dielectric constant tensor:
#      x y z
#    x 1.884750 0.000000 0.137630 
#    y 0.000000 1.565600 0.000000 
#    z 0.137630 0.000000 1.876380 
# 
# From -- ./inp_files/142949.got.cif
#   From: 2010.05.17/outbox.cif.g08.bks.cpg/sg12_72_cif.got.tgz:142949.got - 2010.06.03 13:09:07.
