data_PCOD9222215
_publ_section_title
;
Structure prediction by ZEFSAII (Michael W. Deem and Ramdas Pophale) SiO2 
 PCOD9222215
Probable space group: C 2/M
;
_chemical_formula_sum "Si O2"
_cell_formula_units_Z 34
_cell_length_a 18.888057
_cell_length_b 9.584635
_cell_length_c 16.113561
_cell_angle_alpha 90.000000
_cell_angle_beta 149.489038
_cell_angle_gamma 90.000000
_cell_volume 1481.031496
_symmetry_space_group_name_H-M "C 2/M"
_symmetry_group_IT_number 12
_symmetry_cell_setting 'monoclinic'
loop_
_space_group_symop_operation_xyz
x,y,z
-x,y,-z
-x,-y,-z
x,-y,z
1/2+x,1/2+y,z
1/2-x,1/2+y,-z
1/2-x,1/2-y,-z
1/2+x,1/2-y,z
loop_
_atom_site_type_symbol
_atom_site_label
_atom_site_fract_x
_atom_site_fract_y
_atom_site_fract_z
Si Si1 0.709859 0.344578 0.839424
Si Si2 0.474849 0.832664 0.670672
Si Si3 0.183991 0.847280 0.620127
Si Si4 0.971632 0.262390 0.848417
Si Si5 0.000000 0.000000 0.000000
O O1 0.676274 0.500000 0.837184
O O2 0.630571 0.224490 0.809381
O O3 0.659179 0.331533 0.692821
O O4 0.875845 0.330066 0.003132
O O5 0.382828 0.774854 0.501710
O O6 0.425386 0.759835 0.705560
O O7 0.469519 0.000000 0.672093
O O8 0.349764 0.843431 0.772740
O O9 0.131420 0.000000 0.540391
O O10 0.988397 0.120749 0.915825
#
# Coordination Sequence:
#
# PCOD9222215 Si02
#       5
#     8   8   8   8   2
#     4  11  24  46  72 102 143 190 235 289 352 415
#     4  12  28  44  70 106 147 186 235 292 348 414
#     4  11  24  46  72 102 143 190 235 289 352 415
#     4  12  26  46  72 104 136 182 239 292 347 421
#     4  12  28  44  78 106 138 180 234 294 364 416
#
# _framework density 22.956972
#
# number of rings (size 3 to 8) (size 9 to 14) (size 15 to 20)
#    0.000    0.471    2.353    4.941    6.588    5.647 
#    0.000    0.000    0.000    0.000    0.000    0.000 
#    0.000    0.000    0.000    0.000    0.000    0.000 
#
# Total GULP energy -94873.497716 kJ/mol
# GULP energy per Si atom -5580.793983 kJ/mol
# Density = 2.290472 g / cm^3
# Si number density = 22.956972 Si / 1000 Ang^3
#
#
#
# Elastic Constant Matrix: (Units=GPa)
#
#
# Indices 1 2 3 4 5 6 
#
# 1 105.1154 55.3559 2.9179 0.0000 -4.3765 0.0000
# 2 55.3559 164.4658 30.9357 0.0000 -15.4491 0.0000
# 3 2.9179 30.9357 76.6310 0.0000 5.4580 0.0000
# 4 0.0000 0.0000 0.0000 -35.9999 0.0000 -46.0040
# 5 -4.3765 -15.4491 5.4580 0.0000 47.4373 0.0000
# 6 0.0000 0.0000 0.0000 -46.0040 0.0000 66.3390
#
#
#
# Elastic Compliance Matrix: (Units=1/GPa)
#
#
# Indices 1 2 3 4 5 6 
#
# 1 0.011679 -0.004215 0.001288 0.000000 -0.000443 0.000000
# 2 -0.004215 0.008401 -0.003426 0.000000 0.002741 0.000000
# 3 0.001288 -0.003426 0.014574 0.000000 -0.002674 0.000000
# 4 0.000000 0.000000 0.000000 -0.014727 0.000000 -0.010213
# 5 -0.000443 0.002741 -0.002674 0.000000 0.022240 0.000000
# 6 0.000000 0.000000 0.000000 -0.010213 0.000000 0.007992
#
#
# Mechanical properties :
#
#
# Convention : Reuss Voigt Hill
#
# Bulk Modulus (GPa) = 45.56123 58.29236 51.92679
# Shear Modulus (GPa) = 71.24555 32.68879 51.96717
#
# Velocity S-wave (km/s) = 5.57689 3.77757 4.76297
# Velocity P-wave (km/s) = 7.83316 6.66887 7.27435
#
# Compressibility (1/GPa) = 0.02194849
#
# Stress axis : x y z
#
# Youngs Moduli (GPa) = 85.62566 119.03520 68.61503
#
# Poissons Ratio (x) = 0.50171 -0.08840
# Poissons Ratio (y) = 0.36090 0.23509
# Poissons Ratio (z) = -0.11032 0.40783
#
# Static dielectric constant tensor:
#      x y z
#    x 1.843410 0.000000 0.000940 
#    y 0.000000 1.774260 0.000000 
#    z 0.000940 0.000000 1.947970 
# 
# From -- ./inp_files/282333.got.cif
#   From: 2010.05.17/outbox.cif.g08.bks.cpg/sg12_142_cif.got.tgz:282333.got - 2010.06.03 13:09:07.
