data_PCOD9222303
_publ_section_title
;
Structure prediction by ZEFSAII (Michael W. Deem and Ramdas Pophale) SiO2 
 PCOD9222303
Probable space group: C 2/M
;
_chemical_formula_sum "Si O2"
_cell_formula_units_Z 52
_cell_length_a 20.101068
_cell_length_b 11.741376
_cell_length_c 19.832083
_cell_angle_alpha 90.000000
_cell_angle_beta 30.099946
_cell_angle_gamma 90.000000
_cell_volume 2347.393996
_symmetry_space_group_name_H-M "C 2/M"
_symmetry_group_IT_number 12
_symmetry_cell_setting 'monoclinic'
loop_
_space_group_symop_operation_xyz
x,y,z
-x,y,-z
-x,-y,-z
x,-y,z
1/2+x,1/2+y,z
1/2-x,1/2+y,-z
1/2-x,1/2-y,-z
1/2+x,1/2-y,z
loop_
_atom_site_type_symbol
_atom_site_label
_atom_site_fract_x
_atom_site_fract_y
_atom_site_fract_z
Si Si1 0.797541 0.249355 0.881136
Si Si2 0.355633 0.754844 0.598949
Si Si3 0.153979 0.137069 0.884011
Si Si4 0.287078 0.500000 0.834110
Si Si5 0.554670 0.175093 0.709041
Si Si6 0.798620 0.000000 0.669218
Si Si7 0.488380 0.000000 0.135414
Si Si8 0.772078 0.873727 0.414400
O O1 0.694739 0.306945 0.919702
O O2 0.826092 0.119152 0.834324
O O3 0.932691 0.322556 0.764631
O O4 0.750000 0.250000 0.000000
O O5 0.500000 0.786154 0.500000
O O6 0.246715 0.798476 0.748298
O O7 0.349059 0.618601 0.595210
O O8 0.317815 0.812171 0.562080
O O9 0.177799 0.000000 0.863059
O O10 0.000000 0.155809 0.000000
O O11 0.335122 0.500000 0.715610
O O12 0.126624 0.500000 0.976157
O O13 0.519142 0.106714 0.807088
O O14 0.686180 0.126583 0.558200
O O15 0.594759 0.302918 0.692577
O O16 0.639971 0.000000 0.798545
O O17 0.801489 0.000000 0.365890
#
# Coordination Sequence:
#
# PCOD9222303 Si02
#       8
#     8   8   8   4   8   4   4   8
#     4  12  27  45  73 106 143 184 239 298 365 431
#     4  12  26  47  72 106 143 192 248 299 364 434
#     4  11  28  50  74 105 146 192 244 305 366 431
#     4  12  27  45  71 110 138 196 238 300 366 442
#     4  11  25  45  68 107 143 184 234 301 366 427
#     4  12  26  46  72 106 149 187 243 303 355 444
#     4  12  23  47  75 104 145 192 241 296 371 441
#     4  11  25  44  71 101 140 190 241 294 362 436
#
# _framework density 22.152225000000001
#
# number of rings (size 3 to 8) (size 9 to 14) (size 15 to 20)
#    0.000    0.462    5.385    1.846    7.538    2.462 
#    0.000    0.000    0.000    0.000    0.000    0.000 
#    0.000    0.000    0.000    0.000    0.000    0.000 
#
# Total GULP energy -145566.614436 kJ/mol
# GULP energy per Si atom -5598.715940 kJ/mol
# Density = 2.210181 g / cm^3
# Si number density = 22.152225 Si / 1000 Ang^3
#
#
#
# Elastic Constant Matrix: (Units=GPa)
#
#
# Indices 1 2 3 4 5 6 
#
# 1 97.0080 38.7074 12.5187 0.0001 -7.0013 -0.0003
# 2 38.7074 150.9590 15.9380 0.0000 3.4619 -0.0002
# 3 12.5187 15.9380 65.3294 0.0000 -13.8776 -0.0003
# 4 0.0001 0.0000 0.0000 -11.7678 0.0000 43.9056
# 5 -7.0013 3.4619 -13.8776 0.0000 37.4750 0.0002
# 6 -0.0003 -0.0002 -0.0003 43.9056 0.0002 -46.6305
#
#
#
# Elastic Compliance Matrix: (Units=1/GPa)
#
#
# Indices 1 2 3 4 5 6 
#
# 1 0.011777 -0.002951 -0.001098 0.000000 0.002066 0.000000
# 2 -0.002951 0.007602 -0.001688 0.000000 -0.001879 0.000000
# 3 -0.001098 -0.001688 0.017278 0.000000 0.006349 0.000000
# 4 0.000000 0.000000 0.000000 0.033816 0.000000 0.031840
# 5 0.002066 -0.001879 0.006349 0.000000 0.029595 0.000000
# 6 0.000000 0.000000 0.000000 0.031840 0.000000 0.008534
#
#
# Mechanical properties :
#
#
# Convention : Reuss Voigt Hill
#
# Bulk Modulus (GPa) = 39.70992 49.73605 44.72298
# Shear Modulus (GPa) = 38.91939 12.22416 25.57178
#
# Velocity S-wave (km/s) = 4.19609 2.35165 3.40128
# Velocity P-wave (km/s) = 6.43748 5.46574 5.97141
#
# Compressibility (1/GPa) = 0.02518263
#
# Stress axis : x y z
#
# Youngs Moduli (GPa) = 84.91291 131.53818 57.87700
#
# Poissons Ratio (x) = 0.38819 0.06354
# Poissons Ratio (y) = 0.25059 0.09771
# Poissons Ratio (z) = 0.09322 0.22208
#
# Static dielectric constant tensor:
#      x y z
#    x 1.773210 0.000000 -0.002280 
#    y 0.000000 1.836230 0.000000 
#    z -0.002280 0.000000 1.832190 
# 
# From -- ./inp_files/321555.got.cif
#   From: 2010.05.17/outbox.cif.g08.bks.cpg/sg12_161_cif.got.tgz:321555.got - 2010.06.03 13:09:07.
