data_PCOD9222726
_publ_section_title
;
Structure prediction by ZEFSAII (Michael W. Deem and Ramdas Pophale) SiO2 
 PCOD9222726
Probable space group: C 2/M
;
_chemical_formula_sum "Si O2"
_cell_formula_units_Z 20
_cell_length_a 7.527772
_cell_length_b 23.308648
_cell_length_c 8.219533
_cell_angle_alpha 90.000000
_cell_angle_beta 144.809367
_cell_angle_gamma 90.000000
_cell_volume 831.147947
_symmetry_space_group_name_H-M "C 2/M"
_symmetry_group_IT_number 12
_symmetry_cell_setting 'monoclinic'
loop_
_space_group_symop_operation_xyz
x,y,z
-x,y,-z
-x,-y,-z
x,-y,z
1/2+x,1/2+y,z
1/2-x,1/2+y,-z
1/2-x,1/2-y,-z
1/2+x,1/2-y,z
loop_
_atom_site_type_symbol
_atom_site_label
_atom_site_fract_x
_atom_site_fract_y
_atom_site_fract_z
Si Si1 0.146981 0.000000 0.786455
Si Si2 0.662394 0.710258 0.780074
Si Si3 0.146691 0.888348 0.276090
O O1 0.000000 0.000000 0.500000
O O2 0.034304 0.055318 0.801585
O O3 0.500000 0.000000 0.000000
O O4 0.500000 0.739479 0.500000
O O5 0.418626 0.661158 0.643219
O O6 0.750000 0.750000 0.000000
O O7 0.000000 0.683421 0.000000
O O8 0.500000 0.901163 0.500000
O O9 0.000000 0.866036 0.000000
#
# Coordination Sequence:
#
# PCOD9222726 Si02
#       3
#     4   8   8
#     4  12  24  44  72 104 138 180 226 282 347 416
#     4  12  26  46  70 101 139 186 236 291 348 412
#     4  12  25  45  70 103 140 181 229 286 347 414
#
# _framework density 24.063103999999999
#
# number of rings (size 3 to 8) (size 9 to 14) (size 15 to 20)
#    0.000    0.000    0.000   10.800    0.000    3.200 
#    0.000    0.000    0.000    0.000    0.000    0.000 
#    0.000    0.000    0.000    0.000    0.000    0.000 
#
# Total GULP energy -55997.816931 kJ/mol
# GULP energy per Si atom -5599.781693 kJ/mol
# Density = 2.400834 g / cm^3
# Si number density = 24.063104 Si / 1000 Ang^3
#
#
#
# Elastic Constant Matrix: (Units=GPa)
#
#
# Indices 1 2 3 4 5 6 
#
# 1 156.2648 61.7543 56.8268 0.0000 46.5642 0.0000
# 2 61.7543 114.5976 4.5311 0.0000 13.9197 0.0000
# 3 56.8268 4.5311 172.1218 0.0000 11.4257 0.0000
# 4 0.0000 0.0000 0.0000 25.2918 0.0000 -9.3887
# 5 46.5642 13.9197 11.4257 0.0000 75.4216 0.0000
# 6 0.0000 0.0000 0.0000 -9.3887 0.0000 -58.5931
#
#
#
# Elastic Compliance Matrix: (Units=1/GPa)
#
#
# Indices 1 2 3 4 5 6 
#
# 1 0.011311 -0.005297 -0.003229 0.000000 -0.005516 0.000000
# 2 -0.005297 0.011410 0.001385 0.000000 0.000955 0.000000
# 3 -0.003229 0.001385 0.006792 0.000000 0.000709 0.000000
# 4 0.000000 0.000000 0.000000 0.037319 0.000000 -0.005980
# 5 -0.005516 0.000955 0.000709 0.000000 0.016381 0.000000
# 6 0.000000 0.000000 0.000000 -0.005980 0.000000 -0.016109
#
#
# Mechanical properties :
#
#
# Convention : Reuss Voigt Hill
#
# Bulk Modulus (GPa) = 65.65390 76.57875 71.11633
# Shear Modulus (GPa) = 57.82817 29.74885 43.78851
#
# Velocity S-wave (km/s) = 4.90755 3.51990 4.27046
# Velocity P-wave (km/s) = 7.71073 6.95793 7.34398
#
# Compressibility (1/GPa) = 0.01523139
#
# Stress axis : x y z
#
# Youngs Moduli (GPa) = 88.41125 87.64151 147.22577
#
# Poissons Ratio (x) = 0.46428 0.47534
# Poissons Ratio (y) = 0.46835 -0.20394
# Poissons Ratio (z) = 0.28545 -0.12140
#
# Static dielectric constant tensor:
#      x y z
#    x 1.963290 0.000000 -0.051420 
#    y 0.000000 1.785490 0.000000 
#    z -0.051420 0.000000 1.882910 
# 
# From -- ./inp_files/40004.got.cif
#   From: 2010.05.17/outbox.cif.g08.bks.cpg/sg12_21_cif.got.tgz:40004.got - 2010.06.03 13:09:07.
