data_PCOD9222582
_publ_section_title
;
Structure prediction by ZEFSAII (Michael W. Deem and Ramdas Pophale) SiO2 
 PCOD9222582
Probable space group: C 2/M
;
_chemical_formula_sum "Si O2"
_cell_formula_units_Z 54
_cell_length_a 14.476302
_cell_length_b 22.654881
_cell_length_c 13.863495
_cell_angle_alpha 90.000000
_cell_angle_beta 33.305834
_cell_angle_gamma 90.000000
_cell_volume 2496.605122
_symmetry_space_group_name_H-M "C 2/M"
_symmetry_group_IT_number 12
_symmetry_cell_setting 'monoclinic'
loop_
_space_group_symop_operation_xyz
x,y,z
-x,y,-z
-x,-y,-z
x,-y,z
1/2+x,1/2+y,z
1/2-x,1/2+y,-z
1/2-x,1/2-y,-z
1/2+x,1/2-y,z
loop_
_atom_site_type_symbol
_atom_site_label
_atom_site_fract_x
_atom_site_fract_y
_atom_site_fract_z
Si Si1 0.115303 0.431275 0.139451
Si Si2 0.500000 0.500000 0.500000
Si Si3 0.542674 0.710508 0.610730
Si Si4 0.082022 0.758031 0.084216
Si Si5 0.693877 0.399046 0.223309
Si Si6 0.126274 0.646499 0.752416
Si Si7 0.500000 0.815650 0.500000
Si Si8 0.681562 0.632250 0.869541
O O1 0.080839 0.500000 0.181903
O O2 0.224373 0.405750 0.131392
O O3 0.946249 0.393896 0.269693
O O4 0.215772 0.419727 0.952501
O O5 0.560408 0.447971 0.371585
O O6 0.547880 0.719101 0.721117
O O7 0.394832 0.664064 0.715432
O O8 0.709189 0.680788 0.424969
O O9 0.512465 0.771971 0.581518
O O10 0.012327 0.696678 0.105471
O O11 0.250000 0.750000 0.000000
O O12 0.125554 0.805846 0.966885
O O13 0.822184 0.392202 0.200705
O O14 0.672790 0.852747 0.335818
O O15 0.500000 0.604963 0.000000
#
# Coordination Sequence:
#
# PCOD9222582 Si02
#       8
#     8   2   8   8   8   8   4   8
#     4  12  28  48  70  98 138 188 250 298 354 422
#     4  12  22  44  66 108 142 182 240 280 356 438
#     4  12  22  41  68 104 145 185 227 288 359 435
#     4  12  23  43  68 102 144 182 225 287 365 441
#     4  12  24  42  71 103 142 183 229 287 357 439
#     4  12  24  39  67 108 143 184 228 287 362 435
#     4  12  23  44  73 111 144 187 232 292 358 444
#     4  12  28  48  75 103 142 191 246 299 363 423
#
# _framework density 21.629370000000002
#
# number of rings (size 3 to 8) (size 9 to 14) (size 15 to 20)
#    0.000    0.000    8.148    1.778    1.037    3.259 
#    0.000    0.370    0.000    0.000    0.000    0.000 
#    0.000    0.000    0.000    0.000    0.000    0.000 
#
# Total GULP energy -150902.368563 kJ/mol
# GULP energy per Si atom -5588.976613 kJ/mol
# Density = 2.158014 g / cm^3
# Si number density = 21.629370 Si / 1000 Ang^3
#
#
#
# Elastic Constant Matrix: (Units=GPa)
#
#
# Indices 1 2 3 4 5 6 
#
# 1 99.2200 27.8697 6.3188 -0.0077 -18.9384 0.0065
# 2 27.8697 78.8874 -1.2022 -0.0180 -5.8640 0.0084
# 3 6.3188 -1.2022 83.5274 -0.0304 4.2068 0.0179
# 4 -0.0077 -0.0180 -0.0304 13.7533 0.0098 9.8257
# 5 -18.9384 -5.8640 4.2068 0.0098 34.7854 -0.0029
# 6 0.0065 0.0084 0.0179 9.8257 -0.0029 -2.3199
#
#
#
# Elastic Compliance Matrix: (Units=1/GPa)
#
#
# Indices 1 2 3 4 5 6 
#
# 1 0.012474 -0.003960 -0.001317 -0.000002 0.006283 -0.000005
# 2 -0.003960 0.014095 0.000494 -0.000003 0.000160 0.000029
# 3 -0.001317 0.000494 0.012185 -0.000010 -0.002107 0.000053
# 4 -0.000002 -0.000003 -0.000010 0.018061 0.000001 0.076493
# 5 0.006283 0.000160 -0.002107 0.000001 0.032450 -0.000035
# 6 -0.000005 0.000029 0.000053 0.076493 -0.000035 -0.107069
#
#
# Mechanical properties :
#
#
# Convention : Reuss Voigt Hill
#
# Bulk Modulus (GPa) = 34.26013 36.40082 35.33048
# Shear Modulus (GPa) = 3354.77865 24.48698 1689.63282
#
# Velocity S-wave (km/s) = 39.42583 3.36835 27.97983
# Velocity P-wave (km/s) = 45.69904 5.65628 32.56068
#
# Compressibility (1/GPa) = 0.02918844
#
# Stress axis : x y z
#
# Youngs Moduli (GPa) = 80.16647 70.94860 82.06815
#
# Poissons Ratio (x) = 0.28095 0.10809
# Poissons Ratio (y) = 0.31745 -0.04057
# Poissons Ratio (z) = 0.10559 -0.03507
#
# Static dielectric constant tensor:
#      x y z
#    x 1.812910 0.000000 -0.024960 
#    y 0.000000 1.726350 0.000010 
#    z -0.024960 0.000010 1.869900 
# 
# From -- ./inp_files/218706.got.cif
#   From: 2010.05.17/outbox.cif.g08.bks.cpg/sg12_110_cif.got.tgz:218706.got - 2010.06.03 13:09:07.
