data_PCOD9222996
_publ_section_title
;
Structure prediction by ZEFSAII (Michael W. Deem and Ramdas Pophale) SiO2 
 PCOD9222996
Probable space group: C 2/M
;
_chemical_formula_sum "Si O2"
_cell_formula_units_Z 64
_cell_length_a 19.337919
_cell_length_b 7.484586
_cell_length_c 21.638647
_cell_angle_alpha 90.000000
_cell_angle_beta 92.491771
_cell_angle_gamma 90.000000
_cell_volume 3128.936805
_symmetry_space_group_name_H-M "C 2/M"
_symmetry_group_IT_number 12
_symmetry_cell_setting 'monoclinic'
loop_
_space_group_symop_operation_xyz
x,y,z
-x,y,-z
-x,-y,-z
x,-y,z
1/2+x,1/2+y,z
1/2-x,1/2+y,-z
1/2-x,1/2-y,-z
1/2+x,1/2-y,z
loop_
_atom_site_type_symbol
_atom_site_label
_atom_site_fract_x
_atom_site_fract_y
_atom_site_fract_z
Si Si1 0.120823 0.718563 0.099989
Si Si2 0.837451 0.791761 0.370203
Si Si3 0.920127 0.780937 0.494236
Si Si4 0.900673 0.292567 0.037103
Si Si5 0.221512 0.783094 0.884062
Si Si6 0.134067 0.209122 0.763523
Si Si7 0.987321 0.716082 0.157781
Si Si8 0.206422 0.788586 0.436000
O O1 0.121497 0.500000 0.098161
O O2 0.199359 0.775627 0.112715
O O3 0.066301 0.770838 0.150383
O O4 0.094766 0.781077 0.031564
O O5 0.882175 0.719180 0.429605
O O6 0.853364 0.712873 0.303699
O O7 0.756071 0.782992 0.384246
O O8 0.857009 0.000000 0.368354
O O9 0.870702 0.723953 0.549564
O O10 0.000000 0.725701 0.500000
O O11 0.918911 0.000000 0.494564
O O12 0.921049 0.500000 0.033279
O O13 0.822132 0.280160 0.058563
O O14 0.946135 0.217345 0.095005
O O15 0.181230 0.717979 0.821210
O O16 0.219650 0.000000 0.885222
O O17 0.055490 0.223412 0.784557
O O18 0.152418 0.000000 0.760498
O O19 0.984312 0.500000 0.158107
O O20 0.250000 0.750000 0.500000
O O21 0.202683 0.000000 0.426567
#
# Coordination Sequence:
#
# PCOD9222996 Si02
#       8
#     8   8   8   8   8   8   8   8
#     4   9  16  27  44  64  84 109 141 177 221 266
#     4   9  17  30  48  65  85 117 150 178 209 250
#     4   8  14  26  45  68  90 111 137 170 208 246
#     4   9  16  27  44  64  84 107 139 179 220 262
#     4   9  17  29  44  61  84 113 143 176 214 260
#     4   9  18  32  46  61  84 116 149 176 210 255
#     4   9  17  29  45  63  84 111 143 179 216 257
#     4   9  16  27  46  70  93 116 143 175 208 246
#
# _framework density 20.454232000000001
#
# number of rings (size 3 to 8) (size 9 to 14) (size 15 to 20)
#    0.000    3.125    0.000    1.875    0.000    2.000 
#    0.000    2.500    0.000   12.375    0.000    0.000 
#    0.000    0.000    0.000    0.000    0.000    0.000 
#
# Total GULP energy -178337.091503 kJ/mol
# GULP energy per Si atom -5573.034109 kJ/mol
# Density = 2.040768 g / cm^3
# Si number density = 20.454232 Si / 1000 Ang^3
#
#
#
# Elastic Constant Matrix: (Units=GPa)
#
#
# Indices 1 2 3 4 5 6 
#
# 1 118.8156 -13.4764 38.8499 0.0000 -31.8951 0.0000
# 2 -13.4764 54.2797 -0.9926 0.0000 5.3439 0.0000
# 3 38.8499 -0.9926 104.6977 0.0000 -36.7125 0.0000
# 4 0.0000 0.0000 0.0000 -1.1637 0.0000 -7.0450
# 5 -31.8951 5.3439 -36.7125 0.0000 26.2154 0.0000
# 6 0.0000 0.0000 0.0000 -7.0450 0.0000 16.2134
#
#
#
# Elastic Compliance Matrix: (Units=1/GPa)
#
#
# Indices 1 2 3 4 5 6 
#
# 1 0.012718 0.001521 0.001203 0.000000 0.016849 0.000000
# 2 0.001521 0.019266 -0.002181 0.000000 -0.005131 0.000000
# 3 0.001203 -0.002181 0.019164 0.000000 0.028746 0.000000
# 4 0.000000 0.000000 0.000000 -0.236695 0.000000 -0.102848
# 5 0.016849 -0.005131 0.028746 0.000000 0.099947 0.000000
# 6 0.000000 0.000000 0.000000 -0.102848 0.000000 0.016988
#
#
# Mechanical properties :
#
#
# Convention : Reuss Voigt Hill
#
# Bulk Modulus (GPa) = 19.14436 36.28386 27.71411
# Shear Modulus (GPa) = -95.62842 25.14716 -35.24063
#
# Velocity S-wave (km/s) = -6.84499 3.51013 -4.15529
# Velocity P-wave (km/s) = 7.28642 5.84856 3.07297
#
# Compressibility (1/GPa) = 0.05223469
#
# Stress axis : x y z
#
# Youngs Moduli (GPa) = 78.62582 51.90500 52.18099
#
# Poissons Ratio (x) = -0.07894 -0.06278
# Poissons Ratio (y) = -0.11958 0.11380
# Poissons Ratio (z) = -0.09459 0.11320
#
# Static dielectric constant tensor:
#      x y z
#    x 1.743110 0.000000 -0.013630 
#    y 0.000000 1.772670 0.000000 
#    z -0.013630 0.000000 1.724750 
# 
# From -- ./inp_files/341989.got.cif
#   From: 2010.05.17/outbox.cif.g08.bks.cpg/sg12_171_cif.got.tgz:341989.got - 2010.06.03 13:09:07.
