data_PCOD9222345
_publ_section_title
;
Structure prediction by ZEFSAII (Michael W. Deem and Ramdas Pophale) SiO2 
 PCOD9222345
Probable space group: C 2/M
;
_chemical_formula_sum "Si O2"
_cell_formula_units_Z 56
_cell_length_a 17.608022
_cell_length_b 14.137368
_cell_length_c 11.435264
_cell_angle_alpha 90.000000
_cell_angle_beta 89.999699
_cell_angle_gamma 90.000000
_cell_volume 2846.592695
_symmetry_space_group_name_H-M "C 2/M"
_symmetry_group_IT_number 12
_symmetry_cell_setting 'monoclinic'
loop_
_space_group_symop_operation_xyz
x,y,z
-x,y,-z
-x,-y,-z
x,-y,z
1/2+x,1/2+y,z
1/2-x,1/2+y,-z
1/2-x,1/2-y,-z
1/2+x,1/2-y,z
loop_
_atom_site_type_symbol
_atom_site_label
_atom_site_fract_x
_atom_site_fract_y
_atom_site_fract_z
Si Si1 0.335946 0.733256 0.208403
Si Si2 0.083131 0.106745 0.360982
Si Si3 0.083133 0.893255 0.639015
Si Si4 0.409120 0.388247 0.000002
Si Si5 0.908517 0.389056 0.633617
Si Si6 0.164054 0.233257 0.208400
Si Si7 0.091483 0.610944 0.633614
O O1 0.345042 0.663801 0.318675
O O2 0.250000 0.750000 0.171882
O O3 0.372895 0.828474 0.261156
O O4 0.380056 0.673602 0.109940
O O5 0.082288 0.103398 0.499999
O O6 0.154955 0.163800 0.318670
O O7 0.999999 0.147764 0.325193
O O8 0.085695 0.000000 0.315157
O O9 0.085698 0.000000 0.684840
O O10 0.383882 0.500000 0.000002
O O11 0.380055 0.326397 0.890066
O O12 0.500000 0.390183 0.000000
O O13 0.888776 0.500000 0.643704
O O14 0.872896 0.328475 0.738848
O O15 0.887327 0.357761 0.500002
O O16 0.000000 0.381501 0.639691
O O17 0.111224 0.500000 0.643701
#
# Coordination Sequence:
#
# PCOD9222345 Si02
#       7
#     8   8   8   8   8   8   8
#     4  12  24  37  56  87 121 151 184 235 300 354
#     4   9  18  34  58  87 118 155 200 246 288 336
#     4   9  18  34  58  87 118 155 200 246 288 336
#     4  11  25  46  69  85 103 143 198 249 296 352
#     4   9  19  37  60  85 116 158 202 233 262 319
#     4  12  24  37  56  87 121 151 184 235 300 354
#     4   9  19  37  60  85 116 158 202 233 262 319
#
# _framework density 19.672642
#
# number of rings (size 3 to 8) (size 9 to 14) (size 15 to 20)
#    0.000    1.857    0.000    6.429    0.000    9.143 
#    0.000    3.571    0.000    2.571    0.000    0.000 
#    0.000    0.000    0.000    0.000    0.000    0.000 
#
# Total GULP energy -156067.305245 kJ/mol
# GULP energy per Si atom -5573.832330 kJ/mol
# Density = 1.962787 g / cm^3
# Si number density = 19.672642 Si / 1000 Ang^3
#
#
#
# Elastic Constant Matrix: (Units=GPa)
#
#
# Indices 1 2 3 4 5 6 
#
# 1 71.0049 41.4214 32.9964 0.0000 0.0019 0.0000
# 2 41.4214 124.7909 56.7838 0.0000 0.0018 0.0000
# 3 32.9964 56.7838 88.2488 0.0000 0.0014 0.0000
# 4 0.0000 0.0000 0.0000 13.3700 0.0000 0.0168
# 5 0.0019 0.0018 0.0014 0.0000 15.2067 0.0000
# 6 0.0000 0.0000 0.0000 0.0168 0.0000 -64.9937
#
#
#
# Elastic Compliance Matrix: (Units=1/GPa)
#
#
# Indices 1 2 3 4 5 6 
#
# 1 0.018502 -0.004233 -0.004194 0.000000 -0.000001 0.000000
# 2 -0.004233 0.012299 -0.006331 0.000000 0.000000 0.000000
# 3 -0.004194 -0.006331 0.016974 0.000000 0.000000 0.000000
# 4 0.000000 0.000000 0.000000 0.074794 0.000000 0.000019
# 5 -0.000001 0.000000 0.000000 0.000000 0.065760 0.000000
# 6 0.000000 0.000000 0.000000 0.000019 0.000000 -0.015386
#
#
# Mechanical properties :
#
#
# Convention : Reuss Voigt Hill
#
# Bulk Modulus (GPa) = 54.77016 60.71641 57.74329
# Shear Modulus (GPa) = 23.97548 2.90615 13.44081
#
# Velocity S-wave (km/s) = 3.49481 1.21674 2.61669
# Velocity P-wave (km/s) = 6.64726 5.73623 6.20848
#
# Compressibility (1/GPa) = 0.01825812
#
# Stress axis : x y z
#
# Youngs Moduli (GPa) = 54.04865 81.30514 58.91426
#
# Poissons Ratio (x) = 0.34414 0.24711
# Poissons Ratio (y) = 0.22877 0.37301
# Poissons Ratio (z) = 0.22670 0.51478
#
# Static dielectric constant tensor:
#      x y z
#    x 1.582140 0.000000 0.000000 
#    y 0.000000 1.730350 0.000000 
#    z 0.000000 0.000000 1.759340 
# 
# From -- ./inp_files/143703.got.cif
#   From: 2010.05.17/outbox.cif.g08.bks.cpg/sg12_72_cif.got.tgz:143703.got - 2010.06.03 13:09:07.
