data_PCOD9222476
_publ_section_title
;
Structure prediction by ZEFSAII (Michael W. Deem and Ramdas Pophale) SiO2 
 PCOD9222476
Probable space group: C 2/M
;
_chemical_formula_sum "Si O2"
_cell_formula_units_Z 40
_cell_length_a 7.837435
_cell_length_b 23.422969
_cell_length_c 9.287684
_cell_angle_alpha 90.000000
_cell_angle_beta 116.012100
_cell_angle_gamma 90.000000
_cell_volume 1532.282241
_symmetry_space_group_name_H-M "C 2/M"
_symmetry_group_IT_number 12
_symmetry_cell_setting 'monoclinic'
loop_
_space_group_symop_operation_xyz
x,y,z
-x,y,-z
-x,-y,-z
x,-y,z
1/2+x,1/2+y,z
1/2-x,1/2+y,-z
1/2-x,1/2-y,-z
1/2+x,1/2-y,z
loop_
_atom_site_type_symbol
_atom_site_label
_atom_site_fract_x
_atom_site_fract_y
_atom_site_fract_z
Si Si1 0.317042 0.214316 0.163489
Si Si2 0.311380 0.064274 0.837866
Si Si3 0.260161 0.796911 0.626416
Si Si4 0.695297 0.090928 0.491800
Si Si5 0.448653 0.392261 0.827268
O O1 0.528401 0.188667 0.233054
O O2 0.345264 0.265225 0.286676
O O3 0.169997 0.165843 0.170097
O O4 0.250000 0.250000 0.000000
O O5 0.340094 0.062078 0.675217
O O6 0.152843 0.110612 0.823820
O O7 0.247464 0.000000 0.854817
O O8 0.500000 0.075734 0.000000
O O9 0.250000 0.750000 0.500000
O O10 0.197230 0.852689 0.520160
O O11 0.500000 0.104788 0.500000
O O12 0.824787 0.069830 0.671153
O O13 0.500000 0.419047 0.000000
#
# Coordination Sequence:
#
# PCOD9222476 Si02
#       5
#     8   8   8   8   8
#     4  12  27  44  69 110 155 211 262 314 381 458
#     4  11  29  55  85 117 151 199 265 339 410 475
#     4  12  24  44  70 107 157 205 261 315 379 463
#     4  12  25  47  78 114 158 208 258 325 392 468
#     4  12  26  48  76 114 157 205 258 323 391 466
#
# _framework density 26.104852000000001
#
# number of rings (size 3 to 8) (size 9 to 14) (size 15 to 20)
#    0.000    0.200    4.000    4.200    5.600    4.000 
#    0.000    0.000    0.000    0.000    0.000    0.000 
#    0.000    0.000    0.000    0.000    0.000    0.000 
#
# Total GULP energy -111736.468801 kJ/mol
# GULP energy per Si atom -5586.823440 kJ/mol
# Density = 2.604544 g / cm^3
# Si number density = 26.104852 Si / 1000 Ang^3
#
#
#
# Elastic Constant Matrix: (Units=GPa)
#
#
# Indices 1 2 3 4 5 6 
#
# 1 156.6646 19.9023 54.4272 0.0000 11.0786 0.0000
# 2 19.9023 108.0058 21.9721 0.0000 1.1543 0.0000
# 3 54.4272 21.9721 240.2200 0.0000 -6.0828 0.0000
# 4 0.0000 0.0000 0.0000 -11.4432 0.0000 -6.0983
# 5 11.0786 1.1543 -6.0828 0.0000 57.1194 0.0000
# 6 0.0000 0.0000 0.0000 -6.0983 0.0000 23.7357
#
#
#
# Elastic Compliance Matrix: (Units=1/GPa)
#
#
# Indices 1 2 3 4 5 6 
#
# 1 0.007163 -0.000984 -0.001572 0.000000 -0.001537 0.000000
# 2 -0.000984 0.009574 -0.000655 0.000000 -0.000072 0.000000
# 3 -0.001572 -0.000655 0.004599 0.000000 0.000808 0.000000
# 4 0.000000 0.000000 0.000000 -0.076864 0.000000 -0.019748
# 5 -0.001537 -0.000072 0.000808 0.000000 0.017893 0.000000
# 6 0.000000 0.000000 0.000000 -0.019748 0.000000 0.037057
#
#
# Mechanical properties :
#
#
# Convention : Reuss Voigt Hill
#
# Bulk Modulus (GPa) = 67.04335 77.49927 72.27131
# Shear Modulus (GPa) = 462.36752 41.12163 251.74458
#
# Velocity S-wave (km/s) = 13.32306 3.97325 9.83083
# Velocity P-wave (km/s) = 16.19907 7.12749 12.51421
#
# Compressibility (1/GPa) = 0.01491572
#
# Stress axis : x y z
#
# Youngs Moduli (GPa) = 139.61071 104.44975 217.42348
#
# Poissons Ratio (x) = 0.10275 0.34175
# Poissons Ratio (y) = 0.13733 0.14234
# Poissons Ratio (z) = 0.21944 0.06838
#
# Static dielectric constant tensor:
#      x y z
#    x 2.153950 0.000000 -0.006130 
#    y 0.000000 2.065350 0.000000 
#    z -0.006130 0.000000 2.171000 
# 
# From -- ./inp_files/41899.got.cif
#   From: 2010.05.17/outbox.cif.g08.bks.cpg/sg12_21_cif.got.tgz:41899.got - 2010.06.03 13:09:07.
