data_PCOD9222597
_publ_section_title
;
Structure prediction by ZEFSAII (Michael W. Deem and Ramdas Pophale) SiO2 
 PCOD9222597
Probable space group: C 2/M
;
_chemical_formula_sum "Si O2"
_cell_formula_units_Z 42
_cell_length_a 12.052824
_cell_length_b 19.929295
_cell_length_c 11.407165
_cell_angle_alpha 90.000000
_cell_angle_beta 135.155030
_cell_angle_gamma 90.000000
_cell_volume 1932.258311
_symmetry_space_group_name_H-M "C 2/M"
_symmetry_group_IT_number 12
_symmetry_cell_setting 'monoclinic'
loop_
_space_group_symop_operation_xyz
x,y,z
-x,y,-z
-x,-y,-z
x,-y,z
1/2+x,1/2+y,z
1/2-x,1/2+y,-z
1/2-x,1/2-y,-z
1/2+x,1/2-y,z
loop_
_atom_site_type_symbol
_atom_site_label
_atom_site_fract_x
_atom_site_fract_y
_atom_site_fract_z
Si Si1 0.285686 0.896750 0.181854
Si Si2 0.000000 0.000000 0.000000
Si Si3 0.137282 0.423467 0.405900
Si Si4 0.678852 0.313227 0.303640
Si Si5 0.819435 0.179569 0.098647
Si Si6 0.347824 0.831045 0.798621
O O1 0.461322 0.923000 0.327972
O O2 0.252141 0.830105 0.231687
O O3 0.140684 0.943258 0.106984
O O4 0.274922 0.878685 0.037531
O O5 0.198919 0.500000 0.460826
O O6 0.232326 0.366725 0.548099
O O7 0.136361 0.396145 0.271305
O O8 0.495879 0.327717 0.186001
O O9 0.679888 0.232387 0.308881
O O10 0.797030 0.169510 0.219477
O O11 0.750000 0.250000 0.000000
O O12 0.500000 0.820864 0.000000
#
# Coordination Sequence:
#
# PCOD9222597 Si02
#       6
#     8   2   8   8   8   8
#     4  12  23  44  74 107 142 190 248 300 355 426
#     4  12  24  40  74 110 138 198 254 292 350 422
#     4  12  29  48  70 107 156 195 234 292 374 446
#     4  12  25  44  72 106 147 188 240 305 370 430
#     4  12  22  43  75 107 140 181 248 312 356 425
#     4  12  24  46  76 106 141 192 250 303 358 428
#
# _framework density 21.736224
#
# number of rings (size 3 to 8) (size 9 to 14) (size 15 to 20)
#    0.000    0.000    8.571    1.143    1.333    1.905 
#    5.143    0.952    0.000    0.000    0.000    0.000 
#    0.000    0.000    0.000    0.000    0.000    0.000 
#
# Total GULP energy -116951.768254 kJ/mol
# GULP energy per Si atom -5569.131822 kJ/mol
# Density = 2.168675 g / cm^3
# Si number density = 21.736224 Si / 1000 Ang^3
#
#
#
# Elastic Constant Matrix: (Units=GPa)
#
#
# Indices 1 2 3 4 5 6 
#
# 1 83.6778 19.3048 31.1296 0.0000 -11.4482 0.0000
# 2 19.3048 114.3298 49.6035 0.0000 -2.7203 0.0000
# 3 31.1296 49.6035 87.1001 0.0000 0.8641 0.0000
# 4 0.0000 0.0000 0.0000 9.7224 0.0000 14.5037
# 5 -11.4482 -2.7203 0.8641 0.0000 27.7629 0.0000
# 6 0.0000 0.0000 0.0000 14.5037 0.0000 -4.3666
#
#
#
# Elastic Compliance Matrix: (Units=1/GPa)
#
#
# Indices 1 2 3 4 5 6 
#
# 1 0.014799 -0.000037 -0.005330 0.000000 0.006265 0.000000
# 2 -0.000037 0.011668 -0.006645 0.000000 0.001335 0.000000
# 3 -0.005330 -0.006645 0.017204 0.000000 -0.003384 0.000000
# 4 0.000000 0.000000 0.000000 0.017272 0.000000 0.057370
# 5 0.006265 0.001335 -0.003384 0.000000 0.038839 0.000000
# 6 0.000000 0.000000 0.000000 0.057370 0.000000 -0.038457
#
#
# Mechanical properties :
#
#
# Convention : Reuss Voigt Hill
#
# Bulk Modulus (GPa) = 50.89981 53.90927 52.40454
# Shear Modulus (GPa) = 54.40895 18.96174 36.68534
#
# Velocity S-wave (km/s) = 5.00857 2.95677 4.11268
# Velocity P-wave (km/s) = 7.54424 6.04252 6.83475
#
# Compressibility (1/GPa) = 0.01964644
#
# Stress axis : x y z
#
# Youngs Moduli (GPa) = 67.57113 85.70814 58.12701
#
# Poissons Ratio (x) = 0.00319 0.30983
# Poissons Ratio (y) = 0.00252 0.38623
# Poissons Ratio (z) = 0.36017 0.56949
#
# Static dielectric constant tensor:
#      x y z
#    x 1.805710 0.000000 -0.017550 
#    y 0.000000 1.859340 0.000000 
#    z -0.017550 0.000000 1.852800 
# 
# From -- ./inp_files/133501.got.cif
#   From: 2010.05.17/outbox.cif.g08.bks.cpg/sg12_67_cif.got.tgz:133501.got - 2010.06.03 13:09:07.
