data_PCOD9222766
_publ_section_title
;
Structure prediction by ZEFSAII (Michael W. Deem and Ramdas Pophale) SiO2 
 PCOD9222766
Probable space group: C 2/M
;
_chemical_formula_sum "Si O2"
_cell_formula_units_Z 24
_cell_length_a 18.748599
_cell_length_b 15.180443
_cell_length_c 9.251139
_cell_angle_alpha 90.000000
_cell_angle_beta 153.063389
_cell_angle_gamma 90.000000
_cell_volume 1192.754187
_symmetry_space_group_name_H-M "C 2/M"
_symmetry_group_IT_number 12
_symmetry_cell_setting 'monoclinic'
loop_
_space_group_symop_operation_xyz
x,y,z
-x,y,-z
-x,-y,-z
x,-y,z
1/2+x,1/2+y,z
1/2-x,1/2+y,-z
1/2-x,1/2-y,-z
1/2+x,1/2-y,z
loop_
_atom_site_type_symbol
_atom_site_label
_atom_site_fract_x
_atom_site_fract_y
_atom_site_fract_z
Si Si1 0.087801 0.000000 0.307379
Si Si2 0.346515 0.500000 0.129486
Si Si3 0.847657 0.331043 0.123928
Si Si4 0.677062 0.830541 0.264981
O O1 0.199898 0.912930 0.516084
O O2 0.933561 0.000000 0.133099
O O3 0.000000 0.000000 0.000000
O O4 0.500000 0.500000 0.500000
O O5 0.245184 0.417492 0.995681
O O6 0.000000 0.332487 0.500000
O O7 0.750000 0.250000 0.000000
O O8 0.856802 0.315892 0.967731
O O9 0.750000 0.750000 0.500000
O O10 0.500000 0.852208 0.000000
#
# Coordination Sequence:
#
# PCOD9222766 Si02
#       4
#     4   4   8   8
#     4  12  29  46  76 106 147 192 236 299 357 430
#     4  12  25  50  74 106 145 190 244 288 362 424
#     4  12  27  46  76 106 143 190 242 299 354 428
#     4  12  27  48  72 107 147 188 240 295 364 427
#
# _framework density 20.121497000000002
#
# number of rings (size 3 to 8) (size 9 to 14) (size 15 to 20)
#    0.000    0.000    3.333    5.000   14.000    0.000 
#    0.000    0.000    0.000    0.000    0.000    0.000 
#    0.000    0.000    0.000    0.000    0.000    0.000 
#
# Total GULP energy -66810.875220 kJ/mol
# GULP energy per Si atom -5567.572935 kJ/mol
# Density = 2.007570 g / cm^3
# Si number density = 20.121497 Si / 1000 Ang^3
#
#
#
# Elastic Constant Matrix: (Units=GPa)
#
#
# Indices 1 2 3 4 5 6 
#
# 1 219.5205 50.7650 59.5765 0.0000 -29.1528 0.0000
# 2 50.7650 152.3117 47.6718 0.0000 3.4592 0.0000
# 3 59.5765 47.6718 173.1602 0.0000 -21.0315 0.0000
# 4 0.0000 0.0000 0.0000 18.2937 0.0000 9.9920
# 5 -29.1528 3.4592 -21.0315 0.0000 51.3347 0.0000
# 6 0.0000 0.0000 0.0000 9.9920 0.0000 33.8309
#
#
#
# Elastic Compliance Matrix: (Units=1/GPa)
#
#
# Indices 1 2 3 4 5 6 
#
# 1 0.005606 -0.001571 -0.001154 0.000000 0.002817 0.000000
# 2 -0.001571 0.007717 -0.001847 0.000000 -0.002169 0.000000
# 3 -0.001154 -0.001847 0.006963 0.000000 0.002322 0.000000
# 4 0.000000 0.000000 0.000000 0.065178 0.000000 -0.019250
# 5 0.002817 -0.002169 0.002322 0.000000 0.022177 0.000000
# 6 0.000000 0.000000 0.000000 -0.019250 0.000000 0.035244
#
#
# Mechanical properties :
#
#
# Convention : Reuss Voigt Hill
#
# Bulk Modulus (GPa) = 89.76643 95.66879 92.71761
# Shear Modulus (GPa) = 32.10411 46.49045 39.29728
#
# Velocity S-wave (km/s) = 3.99872 4.81197 4.42407
# Velocity P-wave (km/s) = 8.12581 8.86127 8.50150
#
# Compressibility (1/GPa) = 0.01114002
#
# Stress axis : x y z
#
# Youngs Moduli (GPa) = 178.37994 129.59062 143.62423
#
# Poissons Ratio (x) = 0.20361 0.16576
# Poissons Ratio (y) = 0.28027 0.26531
# Poissons Ratio (z) = 0.20587 0.23939
#
# Static dielectric constant tensor:
#      x y z
#    x 0.966590 0.000000 0.315440 
#    y 0.000000 1.757640 0.000000 
#    z 0.315440 0.000000 1.506040 
# 
# From -- ./inp_files/72700.got.cif
#   From: 2010.05.17/outbox.cif.g08.bks.cpg/sg12_37_cif.got.tgz:72700.got - 2010.06.03 13:09:07.
