data_PCOD9222670
_publ_section_title
;
Structure prediction by ZEFSAII (Michael W. Deem and Ramdas Pophale) SiO2 
 PCOD9222670
Probable space group: C 2/M
;
_chemical_formula_sum "Si O2"
_cell_formula_units_Z 36
_cell_length_a 10.192804
_cell_length_b 13.901799
_cell_length_c 22.155404
_cell_angle_alpha 90.000000
_cell_angle_beta 146.255376
_cell_angle_gamma 90.000000
_cell_volume 1743.903015
_symmetry_space_group_name_H-M "C 2/M"
_symmetry_group_IT_number 12
_symmetry_cell_setting 'monoclinic'
loop_
_space_group_symop_operation_xyz
x,y,z
-x,y,-z
-x,-y,-z
x,-y,z
1/2+x,1/2+y,z
1/2-x,1/2+y,-z
1/2-x,1/2-y,-z
1/2+x,1/2-y,z
loop_
_atom_site_type_symbol
_atom_site_label
_atom_site_fract_x
_atom_site_fract_y
_atom_site_fract_z
Si Si1 0.958744 0.808252 0.734384
Si Si2 0.931377 0.500000 0.140245
Si Si3 0.513705 0.282653 0.614936
Si Si4 0.232581 0.500000 0.134043
Si Si5 0.763820 0.202168 0.941210
Si Si6 0.871926 0.000000 0.385558
O O1 0.680963 0.791384 0.641110
O O2 0.036364 0.780066 0.696517
O O3 0.052433 0.732189 0.818073
O O4 0.093511 0.907323 0.803602
O O5 0.761903 0.589487 0.065613
O O6 0.121849 0.500000 0.158796
O O7 0.087549 0.500000 0.261748
O O8 0.551555 0.395436 0.612028
O O9 0.250000 0.250000 0.500000
O O10 0.000000 0.500000 0.000000
O O11 0.750000 0.250000 0.000000
O O12 0.000000 0.235779 0.000000
O O13 0.000000 0.000000 0.500000
#
# Coordination Sequence:
#
# PCOD9222670 Si02
#       6
#     8   4   8   4   8   4
#     4  12  23  45  67 102 141 184 231 294 349 423
#     4  12  23  46  68 102 144 185 231 289 353 426
#     4  12  26  45  74 103 138 186 239 289 360 425
#     4  12  24  42  71 101 143 186 231 298 362 411
#     4  12  25  43  70 105 143 188 237 287 350 425
#     4  12  24  48  71 100 141 184 225 292 361 417
#
# _framework density 20.643350000000002
#
# number of rings (size 3 to 8) (size 9 to 14) (size 15 to 20)
#    0.000    0.000    4.444    7.000    0.000    0.889 
#    0.000    6.667    0.000    0.000    0.000    0.000 
#    0.000    0.000    0.000    0.000    0.000    0.000 
#
# Total GULP energy -100403.200375 kJ/mol
# GULP energy per Si atom -5577.955576 kJ/mol
# Density = 2.059636 g / cm^3
# Si number density = 20.643350 Si / 1000 Ang^3
#
#
#
# Elastic Constant Matrix: (Units=GPa)
#
#
# Indices 1 2 3 4 5 6 
#
# 1 131.2861 21.8422 35.9437 0.0000 -7.5070 0.0000
# 2 21.8422 93.3860 5.9265 0.0000 -13.0006 0.0000
# 3 35.9437 5.9265 83.8858 0.0003 -15.9347 0.0001
# 4 0.0000 0.0000 0.0003 -22.5110 0.0000 -3.1727
# 5 -7.5070 -13.0006 -15.9347 0.0000 55.6026 0.0000
# 6 0.0000 0.0000 0.0001 -3.1727 0.0000 10.9766
#
#
#
# Elastic Compliance Matrix: (Units=1/GPa)
#
#
# Indices 1 2 3 4 5 6 
#
# 1 0.008943 -0.001897 -0.003758 0.000000 -0.000313 0.000000
# 2 -0.001897 0.011478 0.000490 0.000000 0.002568 0.000000
# 3 -0.003758 0.000490 0.014195 0.000000 0.003675 0.000000
# 4 0.000000 0.000000 0.000000 -0.042684 0.000000 -0.012338
# 5 -0.000313 0.002568 0.003675 0.000000 0.019596 0.000000
# 6 0.000000 0.000000 0.000000 -0.012338 0.000000 0.087537
#
#
# Mechanical properties :
#
#
# Convention : Reuss Voigt Hill
#
# Bulk Modulus (GPa) = 41.17471 48.44253 44.80862
# Shear Modulus (GPa) = 42.55656 25.13668 33.84662
#
# Velocity S-wave (km/s) = 4.54532 3.49329 4.05358
# Velocity P-wave (km/s) = 6.89460 6.30778 6.60771
#
# Compressibility (1/GPa) = 0.02428675
#
# Stress axis : x y z
#
# Youngs Moduli (GPa) = 111.81444 87.12068 70.44969
#
# Poissons Ratio (x) = 0.16526 0.26472
# Poissons Ratio (y) = 0.21210 -0.03450
# Poissons Ratio (z) = 0.42015 -0.04266
#
# Static dielectric constant tensor:
#      x y z
#    x 1.721560 0.000000 -0.022220 
#    y 0.000000 1.733100 0.000000 
#    z -0.022220 0.000000 1.701680 
# 
# From -- ./inp_files/335790.got.cif
#   From: 2010.05.17/outbox.cif.g08.bks.cpg/sg12_168_cif.got.tgz:335790.got - 2010.06.03 13:09:07.
