data_PCOD9222669
_publ_section_title
;
Structure prediction by ZEFSAII (Michael W. Deem and Ramdas Pophale) SiO2 
 PCOD9222669
Probable space group: C 2/M
;
_chemical_formula_sum "Si O2"
_cell_formula_units_Z 46
_cell_length_a 5.004769
_cell_length_b 29.016309
_cell_length_c 15.551723
_cell_angle_alpha 90.000000
_cell_angle_beta 107.008176
_cell_angle_gamma 90.000000
_cell_volume 2159.643569
_symmetry_space_group_name_H-M "C 2/M"
_symmetry_group_IT_number 12
_symmetry_cell_setting 'monoclinic'
loop_
_space_group_symop_operation_xyz
x,y,z
-x,y,-z
-x,-y,-z
x,-y,z
1/2+x,1/2+y,z
1/2-x,1/2+y,-z
1/2-x,1/2-y,-z
1/2+x,1/2-y,z
loop_
_atom_site_type_symbol
_atom_site_label
_atom_site_fract_x
_atom_site_fract_y
_atom_site_fract_z
Si Si1 0.241755 0.590725 0.667003
Si Si2 0.448048 0.411109 0.875567
Si Si3 0.191849 0.000000 0.434796
Si Si4 0.000000 0.000000 0.000000
Si Si5 0.978283 0.719738 0.740258
Si Si6 0.821505 0.855074 0.396530
Si Si7 0.985135 0.652521 0.904182
O O1 0.274787 0.582279 0.771172
O O2 0.335162 0.545412 0.624954
O O3 0.458979 0.629373 0.655544
O O4 0.926800 0.607230 0.616482
O O5 0.519776 0.459105 0.927524
O O6 0.248941 0.380880 0.917499
O O7 0.717518 0.380843 0.877395
O O8 0.500000 0.000000 0.500000
O O9 0.000000 0.000000 0.500000
O O10 0.284557 0.736500 0.743037
O O11 0.985693 0.687900 0.825651
O O12 0.834301 0.690544 0.650950
O O13 0.000000 0.849993 0.500000
O O14 0.000000 0.675120 0.000000
#
# Coordination Sequence:
#
# PCOD9222669 Si02
#       7
#     8   8   4   2   8   8   8
#     4  12  23  45  67 100 138 192 230 281 347 414
#     4  12  24  43  70 101 144 182 227 283 340 419
#     4  12  25  40  64  99 138 175 236 285 318 394
#     4  12  26  42  72 114 134 186 240 272 348 406
#     4  12  26  45  73 102 139 177 234 293 357 429
#     4  12  25  44  73 101 139 185 234 290 359 417
#     4  12  24  47  71 101 139 183 225 289 352 411
#
# _framework density 21.299810999999998
#
# number of rings (size 3 to 8) (size 9 to 14) (size 15 to 20)
#    0.000    0.000    5.217    5.739    0.000    2.783 
#    0.000    3.478    0.000    0.000    0.000    0.000 
#    0.000    0.000    0.000    0.000    0.000    0.000 
#
# Total GULP energy -128514.591909 kJ/mol
# GULP energy per Si atom -5587.590953 kJ/mol
# Density = 2.125133 g / cm^3
# Si number density = 21.299811 Si / 1000 Ang^3
#
#
#
# Elastic Constant Matrix: (Units=GPa)
#
#
# Indices 1 2 3 4 5 6 
#
# 1 87.0685 -0.8542 -4.5152 0.0000 4.8031 0.0000
# 2 -0.8542 78.5683 24.2541 0.0000 -0.5280 0.0000
# 3 -4.5152 24.2541 124.1119 0.0000 -11.1381 0.0000
# 4 0.0000 0.0000 0.0000 13.9470 0.0000 4.9983
# 5 4.8031 -0.5280 -11.1381 0.0000 33.5365 0.0000
# 6 0.0000 0.0000 0.0000 4.9983 0.0000 15.9750
#
#
#
# Elastic Compliance Matrix: (Units=1/GPa)
#
#
# Indices 1 2 3 4 5 6 
#
# 1 0.011586 0.000031 0.000275 0.000000 -0.001568 0.000000
# 2 0.000031 0.013560 -0.002711 0.000000 -0.000691 0.000000
# 3 0.000275 -0.002711 0.008854 0.000000 0.002858 0.000000
# 4 0.000000 0.000000 0.000000 0.080755 0.000000 -0.025267
# 5 -0.001568 -0.000691 0.002858 0.000000 0.030981 0.000000
# 6 0.000000 0.000000 0.000000 -0.025267 0.000000 0.070503
#
#
# Mechanical properties :
#
#
# Convention : Reuss Voigt Hill
#
# Bulk Modulus (GPa) = 34.25928 36.39090 35.32509
# Shear Modulus (GPa) = 21.66562 30.74931 26.20747
#
# Velocity S-wave (km/s) = 3.19278 3.80365 3.51152
# Velocity P-wave (km/s) = 5.45078 6.03428 5.74994
#
# Compressibility (1/GPa) = 0.02918918
#
# Stress axis : x y z
#
# Youngs Moduli (GPa) = 86.30927 73.74453 112.94930
#
# Poissons Ratio (x) = -0.00226 -0.03104
# Poissons Ratio (y) = -0.00264 0.30619
# Poissons Ratio (z) = -0.02372 0.19991
#
# Static dielectric constant tensor:
#      x y z
#    x 1.722050 0.000000 -0.006110 
#    y 0.000000 1.872030 0.000000 
#    z -0.006110 0.000000 1.778290 
# 
# From -- ./inp_files/253530.got.cif
#   From: 2010.05.17/outbox.cif.g08.bks.cpg/sg12_127_cif.got.tgz:253530.got - 2010.06.03 13:09:07.
