data_PCOD9222223
_publ_section_title
;
Structure prediction by ZEFSAII (Michael W. Deem and Ramdas Pophale) SiO2 
 PCOD9222223
Probable space group: C 2/M
;
_chemical_formula_sum "Si O2"
_cell_formula_units_Z 28
_cell_length_a 9.081301
_cell_length_b 25.781864
_cell_length_c 8.715462
_cell_angle_alpha 90.000000
_cell_angle_beta 145.808227
_cell_angle_gamma 90.000000
_cell_volume 1146.731563
_symmetry_space_group_name_H-M "C 2/M"
_symmetry_group_IT_number 12
_symmetry_cell_setting 'monoclinic'
loop_
_space_group_symop_operation_xyz
x,y,z
-x,y,-z
-x,-y,-z
x,-y,z
1/2+x,1/2+y,z
1/2-x,1/2+y,-z
1/2-x,1/2-y,-z
1/2+x,1/2-y,z
loop_
_atom_site_type_symbol
_atom_site_label
_atom_site_fract_x
_atom_site_fract_y
_atom_site_fract_z
Si Si1 0.292302 0.145789 0.688995
Si Si2 0.709943 0.059639 0.541542
Si Si3 0.000000 0.132066 0.000000
Si Si4 0.419885 0.217874 0.269655
O O1 0.374840 0.091617 0.680117
O O2 0.331016 0.191078 0.596150
O O3 0.000000 0.141206 0.500000
O O4 0.500000 0.158268 0.000000
O O5 0.500000 0.060641 0.500000
O O6 0.945956 0.094040 0.811687
O O7 0.775119 0.000000 0.567106
O O8 0.761366 0.169661 0.834112
O O9 0.500000 0.243749 0.500000
O O10 0.250000 0.250000 0.000000
#
# Coordination Sequence:
#
# PCOD9222223 Si02
#       4
#     8   8   4   8
#     4  12  27  51  79 114 167 208 261 333 404 476
#     4  11  24  46  80 114 153 210 265 324 401 480
#     4  12  21  50  80 110 158 194 273 324 394 476
#     4  12  29  52  81 113 156 215 274 333 404 479
#
# _framework density 24.417223
#
# number of rings (size 3 to 8) (size 9 to 14) (size 15 to 20)
#    0.000    0.286    5.714    2.143    2.000    5.714 
#    0.000    2.857    0.000    0.000    0.000    0.000 
#    0.000    0.000    0.000    0.000    0.000    0.000 
#
# Total GULP energy -78501.503344 kJ/mol
# GULP energy per Si atom -5607.250239 kJ/mol
# Density = 2.436165 g / cm^3
# Si number density = 24.417223 Si / 1000 Ang^3
#
#
#
# Elastic Constant Matrix: (Units=GPa)
#
#
# Indices 1 2 3 4 5 6 
#
# 1 161.7604 61.3327 50.0045 0.0000 7.2344 0.0000
# 2 61.3327 160.8953 26.7738 0.0000 -17.4479 0.0000
# 3 50.0045 26.7738 112.1826 0.0000 -22.1199 0.0000
# 4 0.0000 0.0000 0.0000 36.2631 0.0000 -13.0403
# 5 7.2344 -17.4479 -22.1199 0.0000 54.9269 0.0000
# 6 0.0000 0.0000 0.0000 -13.0403 0.0000 40.9509
#
#
#
# Elastic Compliance Matrix: (Units=1/GPa)
#
#
# Indices 1 2 3 4 5 6 
#
# 1 0.008711 -0.003075 -0.003875 0.000000 -0.003685 0.000000
# 2 -0.003075 0.007683 0.000107 0.000000 0.002889 0.000000
# 3 -0.003875 0.000107 0.011648 0.000000 0.005235 0.000000
# 4 0.000000 0.000000 0.000000 0.031142 0.000000 0.009917
# 5 -0.003685 0.002889 0.005235 0.000000 0.021717 0.000000
# 6 0.000000 0.000000 0.000000 0.009917 0.000000 0.027577
#
#
# Mechanical properties :
#
#
# Convention : Reuss Voigt Hill
#
# Bulk Modulus (GPa) = 69.66624 79.00671 74.33647
# Shear Modulus (GPa) = 39.38508 46.20999 42.79754
#
# Velocity S-wave (km/s) = 4.02058 4.35503 4.19114
# Velocity P-wave (km/s) = 7.08145 7.59707 7.34379
#
# Compressibility (1/GPa) = 0.01435416
#
# Stress axis : x y z
#
# Youngs Moduli (GPa) = 114.80058 130.15798 85.84957
#
# Poissons Ratio (x) = 0.40026 0.33270
# Poissons Ratio (y) = 0.35304 -0.00916
# Poissons Ratio (z) = 0.44490 -0.01388
#
# Static dielectric constant tensor:
#      x y z
#    x 1.965620 0.000000 -0.014270 
#    y 0.000000 1.900940 0.000000 
#    z -0.014270 0.000000 2.007930 
# 
# From -- ./inp_files/40031.got.cif
#   From: 2010.05.17/outbox.cif.g08.bks.cpg/sg12_21_cif.got.tgz:40031.got - 2010.06.03 13:09:07.
