data_PCOD9222010
_publ_section_title
;
Structure prediction by ZEFSAII (Michael W. Deem and Ramdas Pophale) SiO2 
 PCOD9222010
Probable space group: C 2/M
;
_chemical_formula_sum "Si O2"
_cell_formula_units_Z 58
_cell_length_a 26.558006
_cell_length_b 25.504431
_cell_length_c 9.802112
_cell_angle_alpha 90.000000
_cell_angle_beta 26.365650
_cell_angle_gamma 90.000000
_cell_volume 2948.558039
_symmetry_space_group_name_H-M "C 2/M"
_symmetry_group_IT_number 12
_symmetry_cell_setting 'monoclinic'
loop_
_space_group_symop_operation_xyz
x,y,z
-x,y,-z
-x,-y,-z
x,-y,z
1/2+x,1/2+y,z
1/2-x,1/2+y,-z
1/2-x,1/2-y,-z
1/2+x,1/2-y,z
loop_
_atom_site_type_symbol
_atom_site_label
_atom_site_fract_x
_atom_site_fract_y
_atom_site_fract_z
Si Si1 0.671023 0.941178 0.484744
Si Si2 0.919979 0.441538 0.987192
Si Si3 0.672483 0.342022 0.951039
Si Si4 0.500000 0.500000 0.500000
Si Si5 0.969971 0.161472 0.232143
Si Si6 0.369960 0.129258 0.863965
Si Si7 0.233869 0.234769 0.196634
Si Si8 0.647213 0.403438 0.271080
O O1 0.554011 0.933772 0.686957
O O2 0.756754 0.894650 0.249820
O O3 0.716458 0.000000 0.344401
O O4 0.636549 0.940036 0.727128
O O5 0.904577 0.500000 0.967182
O O6 0.868195 0.400069 0.011837
O O7 0.744344 0.289034 0.779473
O O8 0.580091 0.334456 0.059015
O O9 0.626642 0.355375 0.214427
O O10 0.584785 0.453615 0.359899
O O11 0.885253 0.209647 0.469407
O O12 0.906665 0.111091 0.451493
O O13 0.000000 0.157385 0.000000
O O14 0.500000 0.128794 0.500000
O O15 0.324698 0.188113 0.995950
O O16 0.282559 0.099555 0.973279
O O17 0.250000 0.250000 0.000000
#
# Coordination Sequence:
#
# PCOD9222010 Si02
#       8
#     8   8   8   2   8   8   8   8
#     4   9  21  40  66  96 136 184 222 272 350 420
#     4   9  20  41  62  96 144 177 219 286 348 407
#     4  12  23  43  74  95 132 182 234 280 341 426
#     4  12  24  48  72 104 136 200 230 286 338 442
#     4  11  26  47  67 101 143 175 230 296 349 409
#     4  11  24  41  69 103 134 179 235 300 341 406
#     4  11  26  45  70  98 137 185 232 281 354 418
#     4  11  25  44  71 101 139 183 235 280 346 420
#
# _framework density 19.670632000000001
#
# number of rings (size 3 to 8) (size 9 to 14) (size 15 to 20)
#    0.000    1.379    4.138    1.655    7.724    0.828 
#    2.483    0.345    0.000    0.000    0.000    0.000 
#    0.000    0.000    0.000    0.000    0.000    0.000 
#
# Total GULP energy -161566.299697 kJ/mol
# GULP energy per Si atom -5571.251714 kJ/mol
# Density = 1.962586 g / cm^3
# Si number density = 19.670632 Si / 1000 Ang^3
#
#
#
# Elastic Constant Matrix: (Units=GPa)
#
#
# Indices 1 2 3 4 5 6 
#
# 1 135.8702 76.5599 58.4503 -0.0003 -5.2296 0.0002
# 2 76.5599 158.9652 63.0928 -0.0002 -21.7468 0.0001
# 3 58.4503 63.0928 109.8025 -0.0012 -2.7119 0.0009
# 4 -0.0003 -0.0002 -0.0012 12.1054 0.0006 8.4363
# 5 -5.2296 -21.7468 -2.7119 0.0006 34.8683 -0.0004
# 6 0.0002 0.0001 0.0009 8.4363 -0.0004 27.1514
#
#
#
# Elastic Compliance Matrix: (Units=1/GPa)
#
#
# Indices 1 2 3 4 5 6 
#
# 1 0.011190 -0.004111 -0.003623 0.000000 -0.001167 0.000000
# 2 -0.004111 0.010519 -0.003716 -0.000001 0.005655 0.000000
# 3 -0.003623 -0.003716 0.013126 0.000002 -0.001840 -0.000001
# 4 0.000000 -0.000001 0.000002 0.105439 -0.000003 -0.032761
# 5 -0.001167 0.005655 -0.001840 -0.000003 0.031888 0.000001
# 6 0.000000 0.000000 -0.000001 -0.032761 0.000001 0.047010
#
#
# Mechanical properties :
#
#
# Convention : Reuss Voigt Hill
#
# Bulk Modulus (GPa) = 83.79429 88.98266 86.38847
# Shear Modulus (GPa) = 20.32093 28.59403 24.45748
#
# Velocity S-wave (km/s) = 3.21761 3.81680 3.52994
# Velocity P-wave (km/s) = 7.51633 8.04726 7.78632
#
# Compressibility (1/GPa) = 0.01193399
#
# Stress axis : x y z
#
# Youngs Moduli (GPa) = 89.36352 95.06422 76.18413
#
# Poissons Ratio (x) = 0.39080 0.27605
# Poissons Ratio (y) = 0.36737 0.28313
# Poissons Ratio (z) = 0.32381 0.35329
#
# Static dielectric constant tensor:
#      x y z
#    x 1.691770 0.000000 0.003480 
#    y 0.000000 1.677430 0.000000 
#    z 0.003480 0.000000 1.763260 
# 
# From -- ./inp_files/100080.got.cif
#   From: 2010.05.17/outbox.cif.g08.bks.cpg/sg12_51_cif.got.tgz:100080.got - 2010.06.03 13:09:07.
