data_PCOD9222206
_publ_section_title
;
Structure prediction by ZEFSAII (Michael W. Deem and Ramdas Pophale) SiO2 
 PCOD9222206
Probable space group: C 2/M
;
_chemical_formula_sum "Si O2"
_cell_formula_units_Z 44
_cell_length_a 15.001284
_cell_length_b 19.092040
_cell_length_c 6.623980
_cell_angle_alpha 90.000000
_cell_angle_beta 110.052261
_cell_angle_gamma 90.000000
_cell_volume 1782.137517
_symmetry_space_group_name_H-M "C 2/M"
_symmetry_group_IT_number 12
_symmetry_cell_setting 'monoclinic'
loop_
_space_group_symop_operation_xyz
x,y,z
-x,y,-z
-x,-y,-z
x,-y,z
1/2+x,1/2+y,z
1/2-x,1/2+y,-z
1/2-x,1/2-y,-z
1/2+x,1/2-y,z
loop_
_atom_site_type_symbol
_atom_site_label
_atom_site_fract_x
_atom_site_fract_y
_atom_site_fract_z
Si Si1 0.251545 0.500000 0.601825
Si Si2 0.104609 0.113355 0.119099
Si Si3 0.765810 0.824792 0.115850
Si Si4 0.923076 0.609777 0.570041
Si Si5 0.422477 0.917851 0.065477
Si Si6 0.596086 0.275774 0.446072
O O1 0.331913 0.560853 0.704207
O O2 0.169288 0.560488 0.512074
O O3 0.091164 0.186184 0.228868
O O4 0.159550 0.130045 0.955578
O O5 0.000000 0.084920 0.000000
O O6 0.668103 0.866858 0.031329
O O7 0.814239 0.806798 0.365453
O O8 0.750000 0.750000 0.000000
O O9 0.953645 0.586643 0.836285
O O10 0.899561 0.692256 0.570847
O O11 0.949502 0.602670 0.335553
O O12 0.393202 0.000000 0.064637
O O13 0.500000 0.290380 0.500000
#
# Coordination Sequence:
#
# PCOD9222206 Si02
#       6
#     4   8   8   8   8   8
#     4  12  26  44  74 111 143 199 250 296 384 448
#     4  12  28  49  78 108 154 201 254 310 367 446
#     4  12  27  46  76 114 151 200 248 303 379 449
#     4  11  24  45  74 106 146 190 247 313 377 440
#     4  11  27  47  73 111 154 189 241 315 382 445
#     4  11  25  50  77 110 147 199 257 313 368 439
#
# _framework density 24.689450999999998
#
# number of rings (size 3 to 8) (size 9 to 14) (size 15 to 20)
#    0.000    0.545    2.727    4.909    8.909    1.455 
#    0.000    0.455    0.000    0.000    0.000    0.000 
#    0.000    0.000    0.000    0.000    0.000    0.000 
#
# Total GULP energy -122765.675133 kJ/mol
# GULP energy per Si atom -5580.257961 kJ/mol
# Density = 2.463326 g / cm^3
# Si number density = 24.689451 Si / 1000 Ang^3
#
#
#
# Elastic Constant Matrix: (Units=GPa)
#
#
# Indices 1 2 3 4 5 6 
#
# 1 217.2032 92.2825 75.3777 0.0000 53.9012 0.0000
# 2 92.2825 215.2313 55.6995 0.0000 21.4986 0.0000
# 3 75.3777 55.6995 147.9054 0.0000 27.6066 0.0000
# 4 0.0000 0.0000 0.0000 24.7162 0.0000 11.1144
# 5 53.9012 21.4986 27.6066 0.0000 48.4884 0.0000
# 6 0.0000 0.0000 0.0000 11.1144 0.0000 46.7983
#
#
#
# Elastic Compliance Matrix: (Units=1/GPa)
#
#
# Indices 1 2 3 4 5 6 
#
# 1 0.007867 -0.002207 -0.001934 0.000000 -0.006665 0.000000
# 2 -0.002207 0.005843 -0.001175 0.000000 0.000531 0.000000
# 3 -0.001934 -0.001175 0.008605 0.000000 -0.002228 0.000000
# 4 0.000000 0.000000 0.000000 0.045297 0.000000 -0.010758
# 5 -0.006665 0.000531 -0.002228 0.000000 0.029066 0.000000
# 6 0.000000 0.000000 0.000000 -0.010758 0.000000 0.023923
#
#
# Mechanical properties :
#
#
# Convention : Reuss Voigt Hill
#
# Bulk Modulus (GPa) = 85.58962 114.11770 99.85366
# Shear Modulus (GPa) = 37.00196 47.79924 42.40060
#
# Velocity S-wave (km/s) = 3.87550 4.40479 4.14860
# Velocity P-wave (km/s) = 7.40052 8.49654 7.96740
#
# Compressibility (1/GPa) = 0.01168366
#
# Stress axis : x y z
#
# Youngs Moduli (GPa) = 127.11586 171.13523 116.20876
#
# Poissons Ratio (x) = 0.37764 0.22476
# Poissons Ratio (y) = 0.28050 0.13656
# Poissons Ratio (z) = 0.24585 0.20110
#
# Static dielectric constant tensor:
#      x y z
#    x 1.946250 0.000000 -0.059900 
#    y 0.000000 1.794500 0.000000 
#    z -0.059900 0.000000 2.062500 
# 
# From -- ./inp_files/16129.got.cif
#   From: 2010.05.17/outbox.cif.g08.bks.cpg/sg12_9_cif.got.tgz:16129.got - 2010.06.03 13:09:07.
