data_PCOD9222321
_publ_section_title
;
Structure prediction by ZEFSAII (Michael W. Deem and Ramdas Pophale) SiO2 
 PCOD9222321
Probable space group: C 2/M
;
_chemical_formula_sum "Si O2"
_cell_formula_units_Z 26
_cell_length_a 10.501567
_cell_length_b 17.756372
_cell_length_c 8.501076
_cell_angle_alpha 90.000000
_cell_angle_beta 47.506252
_cell_angle_gamma 90.000000
_cell_volume 1168.843982
_symmetry_space_group_name_H-M "C 2/M"
_symmetry_group_IT_number 12
_symmetry_cell_setting 'monoclinic'
loop_
_space_group_symop_operation_xyz
x,y,z
-x,y,-z
-x,-y,-z
x,-y,z
1/2+x,1/2+y,z
1/2-x,1/2+y,-z
1/2-x,1/2-y,-z
1/2+x,1/2-y,z
loop_
_atom_site_type_symbol
_atom_site_label
_atom_site_fract_x
_atom_site_fract_y
_atom_site_fract_z
Si Si1 0.696745 0.608045 0.368083
Si Si2 0.198122 0.241586 0.863020
Si Si3 0.500000 0.000000 0.000000
Si Si4 0.206420 0.417722 0.349623
O O1 0.500000 0.583698 0.500000
O O2 0.703097 0.697032 0.324345
O O3 0.745958 0.591364 0.507379
O O4 0.845531 0.565187 0.145330
O O5 0.225749 0.155134 0.794355
O O6 0.250000 0.250000 0.000000
O O7 0.000000 0.259412 0.000000
O O8 0.268740 0.500000 0.241121
O O9 0.000000 0.417625 0.500000
#
# Coordination Sequence:
#
# PCOD9222321 Si02
#       4
#     8   8   2   8
#     4  12  25  48  75 103 146 192 237 296 364 426
#     4  12  25  45  71 105 143 190 244 294 353 436
#     4  12  26  44  78 108 142 180 254 294 352 442
#     4  11  25  45  69 103 146 192 236 300 363 416
#
# _framework density 22.244199999999999
#
# number of rings (size 3 to 8) (size 9 to 14) (size 15 to 20)
#    0.000    0.308    3.077    6.000    0.000    0.615 
#    0.000    0.000    0.000    0.000    0.000    0.000 
#    0.000    0.000    0.000    0.000    0.000    0.000 
#
# Total GULP energy -72477.210758 kJ/mol
# GULP energy per Si atom -5575.170058 kJ/mol
# Density = 2.219357 g / cm^3
# Si number density = 22.244200 Si / 1000 Ang^3
#
#
#
# Elastic Constant Matrix: (Units=GPa)
#
#
# Indices 1 2 3 4 5 6 
#
# 1 206.7286 37.7313 58.2543 0.0000 -22.9082 0.0000
# 2 37.7313 215.7750 49.0413 0.0000 0.2536 0.0000
# 3 58.2543 49.0413 74.8989 0.0000 -42.4535 0.0000
# 4 0.0000 0.0000 0.0000 46.7300 0.0000 -9.0652
# 5 -22.9082 0.2536 -42.4535 0.0000 46.1204 0.0000
# 6 0.0000 0.0000 0.0000 -9.0652 0.0000 19.1069
#
#
#
# Elastic Compliance Matrix: (Units=1/GPa)
#
#
# Indices 1 2 3 4 5 6 
#
# 1 0.006427 0.000576 -0.007461 0.000000 -0.003679 0.000000
# 2 0.000576 0.006809 -0.009964 0.000000 -0.008923 0.000000
# 3 -0.007461 -0.009964 0.049365 0.000000 0.041789 0.000000
# 4 0.000000 0.000000 0.000000 0.023569 0.000000 0.011182
# 5 -0.003679 -0.008923 0.041789 0.000000 0.058371 0.000000
# 6 0.000000 0.000000 0.000000 0.011182 0.000000 0.057643
#
#
# Mechanical properties :
#
#
# Convention : Reuss Voigt Hill
#
# Bulk Modulus (GPa) = 34.59883 87.49513 61.04698
# Shear Modulus (GPa) = 20.36530 45.88316 33.12423
#
# Velocity S-wave (km/s) = 3.02906 4.54663 3.86310
# Velocity P-wave (km/s) = 5.27461 8.18423 6.88488
#
# Compressibility (1/GPa) = 0.02890271
#
# Stress axis : x y z
#
# Youngs Moduli (GPa) = 155.59525 146.86832 20.25716
#
# Poissons Ratio (x) = -0.08464 0.15114
# Poissons Ratio (y) = -0.08967 0.20185
# Poissons Ratio (z) = 1.16094 1.46342
#
# Static dielectric constant tensor:
#      x y z
#    x 1.703780 0.000000 0.045930 
#    y 0.000000 1.844340 0.000000 
#    z 0.045930 0.000000 1.790970 
# 
# From -- ./inp_files/37931.got.cif
#   From: 2010.05.17/outbox.cif.g08.bks.cpg/sg12_19_cif.got.tgz:37931.got - 2010.06.03 13:09:07.
