data_PCOD9222874
_publ_section_title
;
Structure prediction by ZEFSAII (Michael W. Deem and Ramdas Pophale) SiO2 
 PCOD9222874
Probable space group: C 2/M
;
_chemical_formula_sum "Si O2"
_cell_formula_units_Z 56
_cell_length_a 25.967389
_cell_length_b 7.340553
_cell_length_c 20.318999
_cell_angle_alpha 90.000000
_cell_angle_beta 140.615287
_cell_angle_gamma 90.000000
_cell_volume 2457.579881
_symmetry_space_group_name_H-M "C 2/M"
_symmetry_group_IT_number 12
_symmetry_cell_setting 'monoclinic'
loop_
_space_group_symop_operation_xyz
x,y,z
-x,y,-z
-x,-y,-z
x,-y,z
1/2+x,1/2+y,z
1/2-x,1/2+y,-z
1/2-x,1/2-y,-z
1/2+x,1/2-y,z
loop_
_atom_site_type_symbol
_atom_site_label
_atom_site_fract_x
_atom_site_fract_y
_atom_site_fract_z
Si Si1 0.351816 0.711582 0.034302
Si Si2 0.972029 0.205819 0.805401
Si Si3 0.753281 0.277210 0.300175
Si Si4 0.693589 0.282297 0.383110
Si Si5 0.583850 0.706561 0.100886
Si Si6 0.172374 0.279058 0.835849
Si Si7 0.585579 0.222027 0.616814
O O1 0.350889 0.500000 0.013322
O O2 0.439024 0.789900 0.099597
O O3 0.351356 0.724674 0.113419
O O4 0.266312 0.785574 0.922735
O O5 0.897300 0.291951 0.692478
O O6 0.929204 0.192226 0.833905
O O7 0.986815 0.000000 0.794445
O O8 0.751403 0.500000 0.296973
O O9 0.736557 0.216818 0.358390
O O10 0.673659 0.218778 0.179882
O O11 0.838548 0.222512 0.354027
O O12 0.684452 0.500000 0.366913
O O13 0.750000 0.250000 0.500000
O O14 0.582461 0.500000 0.070586
O O15 0.500000 0.800736 0.000000
O O16 0.173483 0.500000 0.835874
O O17 0.112416 0.221411 0.717568
O O18 0.500000 0.281279 0.500000
O O19 0.582977 0.000000 0.615412
#
# Coordination Sequence:
#
# PCOD9222874 Si02
#       7
#     8   8   8   8   8   8   8
#     4   9  17  30  47  66  92 122 150 188 234 275
#     4   8  15  26  40  62  89 113 141 178 223 267
#     4   8  15  26  39  59  86 111 139 178 221 258
#     4   9  17  30  46  65  90 119 148 180 220 267
#     4   8  13  20  35  59  83 105 132 171 217 262
#     4   9  18  30  46  68  91 118 156 194 228 270
#     4   9  17  28  42  62  90 121 151 186 227 270
#
# _framework density 22.786645
#
# number of rings (size 3 to 8) (size 9 to 14) (size 15 to 20)
#    0.000    3.429    0.000    1.714    2.000    1.143 
#    0.000    2.143    0.000    1.286    0.000    0.000 
#    0.000    3.429    0.000    0.000    0.000    0.000 
#
# Total GULP energy -155932.510818 kJ/mol
# GULP energy per Si atom -5569.018244 kJ/mol
# Density = 2.273478 g / cm^3
# Si number density = 22.786645 Si / 1000 Ang^3
#
#
#
# Elastic Constant Matrix: (Units=GPa)
#
#
# Indices 1 2 3 4 5 6 
#
# 1 92.6619 -0.6027 56.9125 0.0000 23.7777 0.0000
# 2 -0.6027 87.6134 6.5872 0.0000 3.5876 0.0000
# 3 56.9125 6.5872 196.9183 0.0000 27.1989 0.0000
# 4 0.0000 0.0000 0.0000 -2.7640 0.0000 -5.4968
# 5 23.7777 3.5876 27.1989 0.0000 45.2147 0.0000
# 6 0.0000 0.0000 0.0000 -5.4968 0.0000 -9.0350
#
#
#
# Elastic Compliance Matrix: (Units=1/GPa)
#
#
# Indices 1 2 3 4 5 6 
#
# 1 0.014294 0.000579 -0.003387 0.000000 -0.005525 0.000000
# 2 0.000579 0.011489 -0.000419 0.000000 -0.000964 0.000000
# 3 -0.003387 -0.000419 0.006348 0.000000 -0.002004 0.000000
# 4 0.000000 0.000000 0.000000 1.723367 0.000000 -1.048481
# 5 -0.005525 -0.000964 -0.002004 0.000000 0.026304 0.000000
# 6 0.000000 0.000000 0.000000 -1.048481 0.000000 0.527206
#
#
# Mechanical properties :
#
#
# Convention : Reuss Voigt Hill
#
# Bulk Modulus (GPa) = 38.94460 55.88750 47.41605
# Shear Modulus (GPa) = 2.15144 27.63626 14.89385
#
# Velocity S-wave (km/s) = 0.97274 3.48634 2.55938
# Velocity P-wave (km/s) = 4.28832 6.38638 5.43946
#
# Compressibility (1/GPa) = 0.02567750
#
# Stress axis : x y z
#
# Youngs Moduli (GPa) = 69.95919 87.04189 157.52806
#
# Poissons Ratio (x) = -0.05042 0.53361
# Poissons Ratio (y) = -0.04052 0.06593
# Poissons Ratio (z) = 0.23698 0.03643
#
# Static dielectric constant tensor:
#      x y z
#    x 1.831600 0.000000 0.014440 
#    y 0.000000 1.405720 0.000000 
#    z 0.014440 0.000000 1.953090 
# 
# From -- ./inp_files/327618.got.cif
#   From: 2010.05.17/outbox.cif.g08.bks.cpg/sg12_164_cif.got.tgz:327618.got - 2010.06.03 13:09:07.
