data_PCOD9222481
_publ_section_title
;
Structure prediction by ZEFSAII (Michael W. Deem and Ramdas Pophale) SiO2 
 PCOD9222481
Probable space group: C 2/M
;
_chemical_formula_sum "Si O2"
_cell_formula_units_Z 44
_cell_length_a 28.632259
_cell_length_b 15.082063
_cell_length_c 14.445303
_cell_angle_alpha 90.000000
_cell_angle_beta 20.533890
_cell_angle_gamma 90.000000
_cell_volume 2188.037487
_symmetry_space_group_name_H-M "C 2/M"
_symmetry_group_IT_number 12
_symmetry_cell_setting 'monoclinic'
loop_
_space_group_symop_operation_xyz
x,y,z
-x,y,-z
-x,-y,-z
x,-y,z
1/2+x,1/2+y,z
1/2-x,1/2+y,-z
1/2-x,1/2-y,-z
1/2+x,1/2-y,z
loop_
_atom_site_type_symbol
_atom_site_label
_atom_site_fract_x
_atom_site_fract_y
_atom_site_fract_z
Si Si1 0.602751 0.271607 0.734525
Si Si2 0.494806 0.098695 0.380235
Si Si3 0.337092 0.600972 0.545004
Si Si4 0.500000 0.254272 0.500000
Si Si5 0.017036 0.403117 0.124064
Si Si6 0.314577 0.398697 0.802343
O O1 0.750000 0.250000 0.500000
O O2 0.607749 0.331078 0.632660
O O3 0.541600 0.177040 0.822509
O O4 0.500000 0.312342 0.000000
O O5 0.445700 0.185344 0.524228
O O6 0.468943 0.103517 0.319454
O O7 0.449363 0.000000 0.496095
O O8 0.654771 0.103643 0.097397
O O9 0.382289 0.500000 0.442754
O O10 0.361561 0.618835 0.608697
O O11 0.176842 0.602160 0.830973
O O12 0.381226 0.323597 0.741688
O O13 0.978709 0.500000 0.158725
O O14 0.350638 0.500000 0.760296
#
# Coordination Sequence:
#
# PCOD9222481 Si02
#       6
#     8   8   8   4   8   8
#     4  12  23  36  57  90 114 137 181 233 281 330
#     4   9  19  34  52  76 106 142 183 223 262 318
#     4   9  19  38  58  76 107 151 188 224 272 328
#     4  12  18  28  52  84 110 136 174 228 278 306
#     4   9  19  38  59  76 105 152 192 218 267 339
#     4   9  19  34  52  75 106 145 184 215 262 331
#
# _framework density 20.109344
#
# number of rings (size 3 to 8) (size 9 to 14) (size 15 to 20)
#    0.000    2.182    1.818    4.364    0.000    1.455 
#    0.000    0.000    0.000    0.000    0.000    0.000 
#    0.000    0.000    0.000    0.000    0.000    0.000 
#
# Total GULP energy -122694.902112 kJ/mol
# GULP energy per Si atom -5577.041005 kJ/mol
# Density = 2.006357 g / cm^3
# Si number density = 20.109344 Si / 1000 Ang^3
#
#
#
# Elastic Constant Matrix: (Units=GPa)
#
#
# Indices 1 2 3 4 5 6 
#
# 1 38.9743 28.0998 4.0598 0.0000 7.9876 0.0000
# 2 28.0998 142.0384 11.9668 0.0000 11.6298 0.0000
# 3 4.0598 11.9668 32.0093 0.0000 8.3134 0.0000
# 4 0.0000 0.0000 0.0000 2.2242 0.0000 -3.8643
# 5 7.9876 11.6298 8.3134 0.0000 33.9999 0.0000
# 6 0.0000 0.0000 0.0000 -3.8643 0.0000 31.5101
#
#
#
# Elastic Compliance Matrix: (Units=1/GPa)
#
#
# Indices 1 2 3 4 5 6 
#
# 1 0.030835 -0.005636 -0.000452 0.000000 -0.005206 0.000000
# 2 -0.005636 0.008422 -0.002167 0.000000 -0.001027 0.000000
# 3 -0.000452 -0.002167 0.034051 0.000000 -0.007478 0.000000
# 4 0.000000 0.000000 0.000000 0.571334 -0.000001 0.070067
# 5 -0.005206 -0.001027 -0.007478 -0.000001 0.032815 0.000000
# 6 0.000000 0.000000 0.000000 0.070067 0.000000 0.040329
#
#
# Mechanical properties :
#
#
# Convention : Reuss Voigt Hill
#
# Bulk Modulus (GPa) = 17.60616 33.47499 25.54058
# Shear Modulus (GPa) = 6.63810 24.80655 15.72232
#
# Velocity S-wave (km/s) = 1.81884 3.51605 2.79918
# Velocity P-wave (km/s) = 3.63113 5.75900 4.81411
#
# Compressibility (1/GPa) = 0.05679830
#
# Stress axis : x y z
#
# Youngs Moduli (GPa) = 32.43032 118.73696 29.36803
#
# Poissons Ratio (x) = 0.66919 0.01327
# Poissons Ratio (y) = 0.18278 0.06364
# Poissons Ratio (z) = 0.01465 0.25731
#
# Static dielectric constant tensor:
#      x y z
#    x 1.743590 0.000000 0.042760 
#    y 0.000000 1.711260 0.000000 
#    z 0.042760 0.000000 1.751020 
# 
# From -- ./inp_files/251240.got.cif
#   From: 2010.05.17/outbox.cif.g08.bks.cpg/sg12_126_cif.got.tgz:251240.got - 2010.06.03 13:09:07.
