data_PCOD9222924
_publ_section_title
;
Structure prediction by ZEFSAII (Michael W. Deem and Ramdas Pophale) SiO2 
 PCOD9222924
Probable space group: C 2/M
;
_chemical_formula_sum "Si O2"
_cell_formula_units_Z 48
_cell_length_a 12.767898
_cell_length_b 26.537210
_cell_length_c 10.111423
_cell_angle_alpha 90.000000
_cell_angle_beta 38.297221
_cell_angle_gamma 90.000000
_cell_volume 2123.230530
_symmetry_space_group_name_H-M "C 2/M"
_symmetry_group_IT_number 12
_symmetry_cell_setting 'monoclinic'
loop_
_space_group_symop_operation_xyz
x,y,z
-x,y,-z
-x,-y,-z
x,-y,z
1/2+x,1/2+y,z
1/2-x,1/2+y,-z
1/2-x,1/2-y,-z
1/2+x,1/2-y,z
loop_
_atom_site_type_symbol
_atom_site_label
_atom_site_fract_x
_atom_site_fract_y
_atom_site_fract_z
Si Si1 0.559901 0.762404 0.129163
Si Si2 0.532907 0.444929 0.624179
Si Si3 0.396682 0.085651 0.216286
Si Si4 0.749749 0.309830 0.276597
Si Si5 0.949666 0.840036 0.284897
Si Si6 0.559964 0.848569 0.584738
O O1 0.778256 0.713776 0.105247
O O2 0.387698 0.778594 0.223676
O O3 0.560312 0.702551 0.109091
O O4 0.524872 0.794629 0.296684
O O5 0.500000 0.438728 0.500000
O O6 0.467180 0.500000 0.729961
O O7 0.736714 0.443659 0.431579
O O8 0.476721 0.395362 0.760300
O O9 0.318092 0.132922 0.211337
O O10 0.488272 0.111970 0.250172
O O11 0.500000 0.057916 0.000000
O O12 0.590159 0.315254 0.530730
O O13 0.764914 0.844555 0.398458
O O14 0.500000 0.864402 0.500000
#
# Coordination Sequence:
#
# PCOD9222924 Si02
#       6
#     8   8   8   8   8   8
#     4   9  14  26  47  66  99 142 165 201 251 302
#     4   9  19  34  53  76  99 126 172 226 267 303
#     4   9  15  31  55  75 104 137 162 211 265 308
#     4   8  13  26  47  70  97 131 171 198 247 296
#     4   9  18  29  51  70 102 142 168 211 262 313
#     4   9  16  26  45  75 105 136 167 203 257 310
#
# _framework density 22.607060000000001
#
# number of rings (size 3 to 8) (size 9 to 14) (size 15 to 20)
#    0.000    3.833    3.333    2.000    0.000    1.000 
#    0.000    0.000   11.000   29.000    0.000    2.333 
#    0.000    0.167    0.000    0.000    0.000    0.000 
#
# Total GULP energy -133659.206605 kJ/mol
# GULP energy per Si atom -5569.133609 kJ/mol
# Density = 2.255561 g / cm^3
# Si number density = 22.607060 Si / 1000 Ang^3
#
#
#
# Elastic Constant Matrix: (Units=GPa)
#
#
# Indices 1 2 3 4 5 6 
#
# 1 108.3503 21.2560 9.9145 0.0000 8.8126 0.0000
# 2 21.2560 164.4924 16.2543 0.0000 0.8772 0.0000
# 3 9.9145 16.2543 39.8750 0.0000 12.5266 0.0000
# 4 0.0000 0.0000 0.0000 9.5233 0.0000 -1.9602
# 5 8.8126 0.8772 12.5266 0.0000 21.7652 0.0000
# 6 0.0000 0.0000 0.0000 -1.9602 0.0000 -2.9899
#
#
#
# Elastic Compliance Matrix: (Units=1/GPa)
#
#
# Indices 1 2 3 4 5 6 
#
# 1 0.009817 -0.001162 -0.000895 0.000000 -0.003413 0.000000
# 2 -0.001162 0.006512 -0.002968 0.000000 0.001916 0.000000
# 3 -0.000895 -0.002968 0.032177 0.000000 -0.018037 0.000000
# 4 0.000000 0.000000 0.000000 0.092520 0.000000 -0.060657
# 5 -0.003413 0.001916 -0.018037 0.000000 0.057630 0.000000
# 6 0.000000 0.000000 0.000000 -0.060657 0.000000 -0.294689
#
#
# Mechanical properties :
#
#
# Convention : Reuss Voigt Hill
#
# Bulk Modulus (GPa) = 26.00325 45.28527 35.64426
# Shear Modulus (GPa) = -68.33973 23.34591 -22.49691
#
# Velocity S-wave (km/s) = -5.50409 3.21702 -3.15799
# Velocity P-wave (km/s) = 5.37272 5.82013 1.58238
#
# Compressibility (1/GPa) = 0.03845673
#
# Stress axis : x y z
#
# Youngs Moduli (GPa) = 101.86680 153.55117 31.07820
#
# Poissons Ratio (x) = 0.17841 0.02782
# Poissons Ratio (y) = 0.11836 0.09223
# Poissons Ratio (z) = 0.09118 0.45570
#
# Static dielectric constant tensor:
#      x y z
#    x 1.950540 0.000000 0.000380 
#    y 0.000000 1.883310 0.000000 
#    z 0.000380 0.000000 1.950830 
# 
# From -- ./inp_files/136499.got.cif
#   From: 2010.05.17/outbox.cif.g08.bks.cpg/sg12_69_cif.got.tgz:136499.got - 2010.06.03 13:09:07.
