data_PCOD9222221
_publ_section_title
;
Structure prediction by ZEFSAII (Michael W. Deem and Ramdas Pophale) SiO2 
 PCOD9222221
Probable space group: C 2/M
;
_chemical_formula_sum "Si O2"
_cell_formula_units_Z 32
_cell_length_a 11.476840
_cell_length_b 21.505548
_cell_length_c 4.830416
_cell_angle_alpha 90.000000
_cell_angle_beta 92.543263
_cell_angle_gamma 90.000000
_cell_volume 1191.048330
_symmetry_space_group_name_H-M "C 2/M"
_symmetry_group_IT_number 12
_symmetry_cell_setting 'monoclinic'
loop_
_space_group_symop_operation_xyz
x,y,z
-x,y,-z
-x,-y,-z
x,-y,z
1/2+x,1/2+y,z
1/2-x,1/2+y,-z
1/2-x,1/2-y,-z
1/2+x,1/2-y,z
loop_
_atom_site_type_symbol
_atom_site_label
_atom_site_fract_x
_atom_site_fract_y
_atom_site_fract_z
Si Si1 0.625751 0.635163 0.443342
Si Si2 0.876767 0.746287 0.171586
Si Si3 0.801129 0.068319 0.054750
Si Si4 0.579755 0.107973 0.747535
O O1 0.500000 0.606988 0.500000
O O2 0.876220 0.678014 0.315065
O O3 0.625773 0.702693 0.583345
O O4 0.637354 0.622407 0.119753
O O5 0.750000 0.750000 0.000000
O O6 0.000000 0.753134 0.000000
O O7 0.680075 0.066167 0.882156
O O8 0.786968 0.093487 0.362902
O O9 0.855674 0.000000 0.055841
O O10 0.500000 0.081624 0.500000
O O11 0.500000 0.120665 0.000000
#
# Coordination Sequence:
#
# PCOD9222221 Si02
#       4
#     8   8   8   8
#     4  12  26  46  73 105 148 191 242 308 375 443
#     4  11  24  46  77 115 150 194 241 311 382 456
#     4  12  27  46  72 104 143 197 255 304 364 439
#     4  11  25  45  71 105 145 189 239 309 373 445
#
# _framework density 26.867090000000001
#
# number of rings (size 3 to 8) (size 9 to 14) (size 15 to 20)
#    0.000    0.500    2.500    5.250    3.500    7.000 
#    0.000    0.000    0.000    0.000    0.000    0.000 
#    0.000    0.000    0.000    0.000    0.000    0.000 
#
# Total GULP energy -89493.847236 kJ/mol
# GULP energy per Si atom -5593.365452 kJ/mol
# Density = 2.680594 g / cm^3
# Si number density = 26.867090 Si / 1000 Ang^3
#
#
#
# Elastic Constant Matrix: (Units=GPa)
#
#
# Indices 1 2 3 4 5 6 
#
# 1 106.9699 14.0534 11.3853 0.0000 22.4346 0.0000
# 2 14.0534 160.2508 35.4187 0.0000 -10.8379 0.0000
# 3 11.3853 35.4187 124.2255 0.0000 10.0011 0.0000
# 4 0.0000 0.0000 0.0000 -13.4913 0.0000 3.9108
# 5 22.4346 -10.8379 10.0011 0.0000 59.1340 0.0000
# 6 0.0000 0.0000 0.0000 3.9108 0.0000 9.6429
#
#
#
# Elastic Compliance Matrix: (Units=1/GPa)
#
#
# Indices 1 2 3 4 5 6 
#
# 1 0.010387 -0.001121 -0.000303 0.000000 -0.004095 0.000000
# 2 -0.001121 0.006926 -0.002036 0.000000 0.002039 0.000000
# 3 -0.000303 -0.002036 0.008799 0.000000 -0.001746 0.000000
# 4 0.000000 0.000000 0.000000 -0.066324 0.000000 0.026899
# 5 -0.004095 0.002039 -0.001746 0.000000 0.019133 0.000000
# 6 0.000000 0.000000 0.000000 0.026899 0.000000 0.092794
#
#
# Mechanical properties :
#
#
# Convention : Reuss Voigt Hill
#
# Bulk Modulus (GPa) = 52.10442 57.01787 54.56115
# Shear Modulus (GPa) = 58.80111 33.09637 45.94874
#
# Velocity S-wave (km/s) = 4.68331 3.51359 4.13997
# Velocity P-wave (km/s) = 6.97711 6.14237 6.57300
#
# Compressibility (1/GPa) = 0.01919223
#
# Stress axis : x y z
#
# Youngs Moduli (GPa) = 96.27692 144.37334 113.65184
#
# Poissons Ratio (x) = 0.16183 0.03440
# Poissons Ratio (y) = 0.10792 0.23143
# Poissons Ratio (z) = 0.02914 0.29399
#
# Static dielectric constant tensor:
#      x y z
#    x 2.252340 0.000000 0.004170 
#    y 0.000000 2.014430 0.000000 
#    z 0.004170 0.000000 2.021810 
# 
# From -- ./inp_files/3510.got.cif
#   From: 2010.05.17/outbox.cif.g08.bks.cpg/sg12_2_cif.got.tgz:3510.got - 2010.06.03 13:09:07.
