data_PCOD9222112
_publ_section_title
;
Structure prediction by ZEFSAII (Michael W. Deem and Ramdas Pophale) SiO2 
 PCOD9222112
Probable space group: C 2/M
;
_chemical_formula_sum "Si O2"
_cell_formula_units_Z 42
_cell_length_a 23.331883
_cell_length_b 11.912401
_cell_length_c 17.597991
_cell_angle_alpha 90.000000
_cell_angle_beta 22.344255
_cell_angle_gamma 90.000000
_cell_volume 1859.476947
_symmetry_space_group_name_H-M "C 2/M"
_symmetry_group_IT_number 12
_symmetry_cell_setting 'monoclinic'
loop_
_space_group_symop_operation_xyz
x,y,z
-x,y,-z
-x,-y,-z
x,-y,z
1/2+x,1/2+y,z
1/2-x,1/2+y,-z
1/2-x,1/2-y,-z
1/2+x,1/2-y,z
loop_
_atom_site_type_symbol
_atom_site_label
_atom_site_fract_x
_atom_site_fract_y
_atom_site_fract_z
Si Si1 0.859633 0.375342 0.615296
Si Si2 0.500000 0.500000 0.500000
Si Si3 0.759911 0.342786 0.181507
Si Si4 0.593006 0.872482 0.747553
Si Si5 0.806565 0.876693 0.913215
Si Si6 0.604268 0.733884 0.577489
O O1 0.798478 0.500000 0.678918
O O2 0.748381 0.288608 0.792233
O O3 0.910699 0.321194 0.473270
O O4 0.000000 0.380549 0.500000
O O5 0.614928 0.402857 0.395907
O O6 0.724133 0.380483 0.139018
O O7 0.931159 0.375859 0.987041
O O8 0.577094 0.800110 0.689724
O O9 0.727379 0.815366 0.629176
O O10 0.634993 0.000000 0.676450
O O11 0.980934 0.863524 0.721162
O O12 0.750650 0.000000 0.011658
O O13 0.750000 0.750000 0.000000
#
# Coordination Sequence:
#
# PCOD9222112 Si02
#       6
#     8   2   8   8   8   8
#     4  11  24  43  69 102 137 179 234 295 354 422
#     4  12  20  40  70  98 144 172 236 292 342 410
#     4  12  23  43  70 102 138 184 229 292 356 418
#     4  11  24  45  69 100 141 186 237 286 355 434
#     4  12  24  41  68 105 139 183 241 297 354 418
#     4  11  24  45  69 102 140 184 234 291 360 420
#
# _framework density 22.586998000000001
#
# number of rings (size 3 to 8) (size 9 to 14) (size 15 to 20)
#    0.000    0.571    6.667    1.143    0.000    2.286 
#    1.714    3.810    0.000    0.000    0.000    0.000 
#    0.000    0.000    0.000    0.000    0.000    0.000 
#
# Total GULP energy -116980.449932 kJ/mol
# GULP energy per Si atom -5570.497616 kJ/mol
# Density = 2.253559 g / cm^3
# Si number density = 22.586998 Si / 1000 Ang^3
#
#
#
# Elastic Constant Matrix: (Units=GPa)
#
#
# Indices 1 2 3 4 5 6 
#
# 1 58.8161 16.6231 15.6810 0.0000 -15.6243 0.0000
# 2 16.6231 196.1243 44.1655 0.0000 -3.1219 0.0000
# 3 15.6810 44.1655 100.4903 -0.0001 -31.0678 0.0001
# 4 0.0000 0.0000 -0.0001 11.9254 0.0000 -1.3221
# 5 -15.6243 -3.1219 -31.0678 0.0000 26.3739 0.0000
# 6 0.0000 0.0000 0.0001 -1.3221 0.0000 3.5903
#
#
#
# Elastic Compliance Matrix: (Units=1/GPa)
#
#
# Indices 1 2 3 4 5 6 
#
# 1 0.020902 -0.002027 0.002176 0.000000 0.014706 0.000000
# 2 -0.002027 0.006076 -0.003936 0.000000 -0.005119 0.000000
# 3 0.002176 -0.003936 0.018238 0.000000 0.022307 0.000000
# 4 0.000000 0.000000 0.000000 0.087424 0.000000 0.032193
# 5 0.014706 -0.005119 0.022307 0.000000 0.072300 0.000000
# 6 0.000000 0.000000 0.000000 0.032193 0.000000 0.290379
#
#
# Mechanical properties :
#
#
# Convention : Reuss Voigt Hill
#
# Bulk Modulus (GPa) = 26.56779 56.48554 41.52666
# Shear Modulus (GPa) = 9.70042 26.97533 18.33788
#
# Velocity S-wave (km/s) = 2.07461 3.45959 2.85244
# Velocity P-wave (km/s) = 4.18648 6.40474 5.41051
#
# Compressibility (1/GPa) = 0.03763957
#
# Stress axis : x y z
#
# Youngs Moduli (GPa) = 47.84324 164.59202 54.82945
#
# Poissons Ratio (x) = 0.33371 -0.11931
# Poissons Ratio (y) = 0.09700 0.21583
# Poissons Ratio (z) = -0.10410 0.64791
#
# Static dielectric constant tensor:
#      x y z
#    x 1.866770 0.000000 0.096700 
#    y 0.000000 1.909410 0.000000 
#    z 0.096700 0.000000 2.023810 
# 
# From -- ./inp_files/327743.got.cif
#   From: 2010.05.17/outbox.cif.g08.bks.cpg/sg12_164_cif.got.tgz:327743.got - 2010.06.03 13:09:07.
