data_PCOD9222944
_publ_section_title
;
Structure prediction by ZEFSAII (Michael W. Deem and Ramdas Pophale) SiO2 
 PCOD9222944
Probable space group: C 2/M
;
_chemical_formula_sum "Si O2"
_cell_formula_units_Z 56
_cell_length_a 9.659316
_cell_length_b 15.943327
_cell_length_c 25.820925
_cell_angle_alpha 90.000000
_cell_angle_beta 140.047222
_cell_angle_gamma 90.000000
_cell_volume 2553.510754
_symmetry_space_group_name_H-M "C 2/M"
_symmetry_group_IT_number 12
_symmetry_cell_setting 'monoclinic'
loop_
_space_group_symop_operation_xyz
x,y,z
-x,y,-z
-x,-y,-z
x,-y,z
1/2+x,1/2+y,z
1/2-x,1/2+y,-z
1/2-x,1/2-y,-z
1/2+x,1/2-y,z
loop_
_atom_site_type_symbol
_atom_site_label
_atom_site_fract_x
_atom_site_fract_y
_atom_site_fract_z
Si Si1 0.754223 0.404005 0.042812
Si Si2 0.262603 0.285727 0.291880
Si Si3 0.160245 0.593878 0.714694
Si Si4 0.746994 0.399709 0.928325
Si Si5 0.848560 0.094671 0.407212
Si Si6 0.248120 0.665938 0.846365
Si Si7 0.773905 0.344620 0.827687
O O1 0.689553 0.500000 0.024746
O O2 0.695818 0.363541 0.080472
O O3 0.016740 0.402309 0.117595
O O4 0.677552 0.369005 0.965263
O O5 0.293374 0.184987 0.298300
O O6 0.372697 0.333319 0.371175
O O7 0.339764 0.330236 0.260110
O O8 0.007576 0.307377 0.223232
O O9 0.220497 0.500000 0.711310
O O10 0.256447 0.601950 0.800831
O O11 0.900877 0.594246 0.646648
O O12 0.736695 0.500000 0.925925
O O13 0.654629 0.371009 0.846481
O O14 0.000000 0.375120 0.000000
O O15 0.000000 0.108405 0.500000
O O16 0.892647 0.000000 0.399136
O O17 0.361414 0.751797 0.863471
#
# Coordination Sequence:
#
# PCOD9222944 Si02
#       7
#     8   8   8   8   8   8   8
#     4   9  16  27  43  61  83 113 147 182 222 266
#     4   9  18  30  46  68  92 118 149 181 218 262
#     4   9  17  31  49  66  90 122 150 179 217 260
#     4   8  14  24  38  58  84 112 142 178 223 269
#     4   9  18  32  51  74  94 114 145 181 216 258
#     4   9  17  28  43  65  88 112 149 187 217 257
#     4   9  16  26  41  62  87 110 140 181 221 254
#
# _framework density 21.930589999999999
#
# number of rings (size 3 to 8) (size 9 to 14) (size 15 to 20)
#    0.000    3.143    0.000    1.714    0.000    5.143 
#    0.000    1.429    0.000    5.571    0.000    0.000 
#    0.000   36.000    0.000    0.000    0.000    0.000 
#
# Total GULP energy -156197.612050 kJ/mol
# GULP energy per Si atom -5578.486145 kJ/mol
# Density = 2.188067 g / cm^3
# Si number density = 21.930590 Si / 1000 Ang^3
#
#
#
# Elastic Constant Matrix: (Units=GPa)
#
#
# Indices 1 2 3 4 5 6 
#
# 1 83.1149 41.2043 28.0315 0.0000 -23.9830 0.0000
# 2 41.2043 127.6983 68.1651 0.0000 -27.3880 0.0000
# 3 28.0315 68.1651 125.1554 0.0000 -16.9274 0.0000
# 4 0.0000 0.0000 0.0000 31.0971 0.0000 -8.7598
# 5 -23.9830 -27.3880 -16.9274 0.0000 26.8032 0.0000
# 6 0.0000 0.0000 0.0000 -8.7598 0.0000 29.4461
#
#
#
# Elastic Compliance Matrix: (Units=1/GPa)
#
#
# Indices 1 2 3 4 5 6 
#
# 1 0.017052 -0.002426 -0.000841 0.000000 0.012247 0.000000
# 2 -0.002426 0.013314 -0.005644 0.000000 0.007869 0.000000
# 3 -0.000841 -0.005644 0.011339 0.000000 0.000642 0.000000
# 4 0.000000 0.000000 0.000000 0.035099 0.000000 0.010441
# 5 0.012247 0.007869 0.000642 0.000000 0.056714 0.000000
# 6 0.000000 0.000000 0.000000 0.010441 0.000000 0.037066
#
#
# Mechanical properties :
#
#
# Convention : Reuss Voigt Hill
#
# Bulk Modulus (GPa) = 41.87125 67.86338 54.86731
# Shear Modulus (GPa) = 25.46236 30.70712 28.08474
#
# Velocity S-wave (km/s) = 3.41110 3.74598 3.58246
# Velocity P-wave (km/s) = 5.88628 7.05135 6.49499
#
# Compressibility (1/GPa) = 0.02388274
#
# Stress axis : x y z
#
# Youngs Moduli (GPa) = 58.64362 75.10731 88.19063
#
# Poissons Ratio (x) = 0.18224 0.07419
# Poissons Ratio (y) = 0.14229 0.49772
# Poissons Ratio (z) = 0.04933 0.42389
#
# Static dielectric constant tensor:
#      x y z
#    x 1.928980 0.000000 0.014630 
#    y 0.000000 1.788760 0.000000 
#    z 0.014630 0.000000 1.812520 
# 
# From -- ./inp_files/305143.got.cif
#   From: 2010.05.17/outbox.cif.g08.bks.cpg/sg12_153_cif.got.tgz:305143.got - 2010.06.03 13:09:07.
