data_PCOD9222672
_publ_section_title
;
Structure prediction by ZEFSAII (Michael W. Deem and Ramdas Pophale) SiO2 
 PCOD9222672
Probable space group: C 2/M
;
_chemical_formula_sum "Si O2"
_cell_formula_units_Z 48
_cell_length_a 16.065314
_cell_length_b 17.317718
_cell_length_c 7.560012
_cell_angle_alpha 90.000000
_cell_angle_beta 80.635338
_cell_angle_gamma 90.000000
_cell_volume 2075.274176
_symmetry_space_group_name_H-M "C 2/M"
_symmetry_group_IT_number 12
_symmetry_cell_setting 'monoclinic'
loop_
_space_group_symop_operation_xyz
x,y,z
-x,y,-z
-x,-y,-z
x,-y,z
1/2+x,1/2+y,z
1/2-x,1/2+y,-z
1/2-x,1/2-y,-z
1/2+x,1/2-y,z
loop_
_atom_site_type_symbol
_atom_site_label
_atom_site_fract_x
_atom_site_fract_y
_atom_site_fract_z
Si Si1 0.993054 0.198629 0.802869
Si Si2 0.302428 0.834142 0.735436
Si Si3 0.355675 0.088556 0.056095
Si Si4 0.308841 0.659235 0.736018
Si Si5 0.563733 0.147003 0.614181
Si Si6 0.855487 0.909327 0.340632
O O1 0.023228 0.269801 0.672480
O O2 0.058501 0.129258 0.752315
O O3 0.899266 0.169255 0.796991
O O4 0.000000 0.225938 0.000000
O O5 0.271433 0.746015 0.756956
O O6 0.352966 0.842447 0.534574
O O7 0.221728 0.889380 0.762431
O O8 0.361593 0.857210 0.880689
O O9 0.259898 0.103136 0.156331
O O10 0.413119 0.108871 0.206522
O O11 0.369676 0.000000 0.000607
O O12 0.329697 0.631345 0.532573
O O13 0.500000 0.105163 0.500000
O O14 0.864160 0.000000 0.361890
#
# Coordination Sequence:
#
# PCOD9222672 Si02
#       6
#     8   8   8   8   8   8
#     4  12  25  44  72 107 143 186 241 292 346 422
#     4  12  24  47  74 102 142 188 243 288 348 422
#     4  12  28  46  73 110 144 185 235 293 360 424
#     4  12  23  45  73 104 142 187 236 291 344 422
#     4  12  25  48  74 104 140 186 242 298 349 417
#     4  12  25  43  71 107 147 188 231 290 360 423
#
# _framework density 23.129473999999998
#
# number of rings (size 3 to 8) (size 9 to 14) (size 15 to 20)
#    0.000    0.000    5.000    5.500    0.000    3.333 
#    0.000    0.833    0.000    0.000    0.000    0.000 
#    0.000    0.000    0.000    0.000    0.000    0.000 
#
# Total GULP energy -134472.541949 kJ/mol
# GULP energy per Si atom -5603.022581 kJ/mol
# Density = 2.307683 g / cm^3
# Si number density = 23.129474 Si / 1000 Ang^3
#
#
#
# Elastic Constant Matrix: (Units=GPa)
#
#
# Indices 1 2 3 4 5 6 
#
# 1 88.8231 13.1134 10.1839 0.0000 16.2974 0.0000
# 2 13.1134 114.9394 30.9509 0.0000 8.1617 0.0000
# 3 10.1839 30.9509 130.2838 0.0000 24.2959 0.0000
# 4 0.0000 0.0000 0.0000 8.5828 0.0000 -27.1393
# 5 16.2974 8.1617 24.2959 0.0000 37.3772 0.0000
# 6 0.0000 0.0000 0.0000 -27.1393 0.0000 -65.5341
#
#
#
# Elastic Compliance Matrix: (Units=1/GPa)
#
#
# Indices 1 2 3 4 5 6 
#
# 1 0.012369 -0.001111 0.000293 0.000000 -0.005341 0.000000
# 2 -0.001111 0.009410 -0.002112 0.000000 -0.000198 0.000000
# 3 0.000293 -0.002112 0.009208 0.000000 -0.005652 0.000000
# 4 0.000000 0.000000 0.000000 0.050449 0.000000 -0.020892
# 5 -0.005341 -0.000198 -0.005652 0.000000 0.032800 0.000000
# 6 0.000000 0.000000 0.000000 -0.020892 0.000000 -0.006607
#
#
# Mechanical properties :
#
#
# Convention : Reuss Voigt Hill
#
# Bulk Modulus (GPa) = 39.79645 49.17140 44.48392
# Shear Modulus (GPa) = 41.02936 14.73838 27.88387
#
# Velocity S-wave (km/s) = 4.21634 2.52704 3.47588
# Velocity P-wave (km/s) = 6.39896 5.46077 5.94839
#
# Compressibility (1/GPa) = 0.02512787
#
# Stress axis : x y z
#
# Youngs Moduli (GPa) = 80.84929 106.27392 108.59676
#
# Poissons Ratio (x) = 0.11805 -0.03183
# Poissons Ratio (y) = 0.08981 0.22932
# Poissons Ratio (z) = -0.02370 0.22442
#
# Static dielectric constant tensor:
#      x y z
#    x 1.918230 0.000000 0.034400 
#    y 0.000000 1.785370 0.000000 
#    z 0.034400 0.000000 1.869110 
# 
# From -- ./inp_files/61739.got.cif
#   From: 2010.05.17/outbox.cif.g08.bks.cpg/sg12_31_cif.got.tgz:61739.got - 2010.06.03 13:09:07.
