data_PCOD9222485
_publ_section_title
;
Structure prediction by ZEFSAII (Michael W. Deem and Ramdas Pophale) SiO2 
 PCOD9222485
Probable space group: C 2/M
;
_chemical_formula_sum "Si O2"
_cell_formula_units_Z 36
_cell_length_a 9.304813
_cell_length_b 22.270138
_cell_length_c 8.997339
_cell_angle_alpha 90.000000
_cell_angle_beta 119.637875
_cell_angle_gamma 90.000000
_cell_volume 1620.497933
_symmetry_space_group_name_H-M "C 2/M"
_symmetry_group_IT_number 12
_symmetry_cell_setting 'monoclinic'
loop_
_space_group_symop_operation_xyz
x,y,z
-x,y,-z
-x,-y,-z
x,-y,z
1/2+x,1/2+y,z
1/2-x,1/2+y,-z
1/2-x,1/2-y,-z
1/2+x,1/2-y,z
loop_
_atom_site_type_symbol
_atom_site_label
_atom_site_fract_x
_atom_site_fract_y
_atom_site_fract_z
Si Si1 0.500000 0.647390 0.500000
Si Si2 0.365960 0.802681 0.124539
Si Si3 0.100257 0.568973 0.792279
Si Si4 0.252339 0.568024 0.545817
Si Si5 0.738013 0.759521 0.318708
O O1 0.397174 0.610270 0.566169
O O2 0.631784 0.688563 0.652108
O O3 0.352897 0.873661 0.082079
O O4 0.552725 0.780743 0.192304
O O5 0.309035 0.797623 0.268191
O O6 0.250000 0.750000 0.000000
O O7 0.106868 0.500000 0.855828
O O8 0.210396 0.569473 0.698706
O O9 0.914968 0.580888 0.633867
O O10 0.299227 0.500000 0.532913
O O11 0.750000 0.750000 0.500000
#
# Coordination Sequence:
#
# PCOD9222485 Si02
#       5
#     4   8   8   8   8
#     4  12  19  32  60  92 133 160 216 268 326 370
#     4  12  25  42  64  96 136 169 216 271 332 390
#     4   9  19  37  63  90 125 175 222 265 321 394
#     4   9  18  32  58  96 131 165 216 275 324 378
#     4  12  24  40  63  95 126 175 217 271 324 386
#
# _framework density 22.215392999999999
#
# number of rings (size 3 to 8) (size 9 to 14) (size 15 to 20)
#    0.000    1.333    4.444    3.667    3.111    0.000 
#    0.000    0.000    0.000    8.000    0.000    0.000 
#    0.000    0.000    0.000    0.000    0.000    0.000 
#
# Total GULP energy -100523.653944 kJ/mol
# GULP energy per Si atom -5584.647441 kJ/mol
# Density = 2.216483 g / cm^3
# Si number density = 22.215393 Si / 1000 Ang^3
#
#
#
# Elastic Constant Matrix: (Units=GPa)
#
#
# Indices 1 2 3 4 5 6 
#
# 1 141.1857 69.4252 12.2381 0.0000 18.1046 0.0000
# 2 69.4252 175.8557 28.0080 0.0000 24.4527 0.0000
# 3 12.2381 28.0080 41.1829 0.0000 11.2944 0.0000
# 4 0.0000 0.0000 0.0000 31.3389 0.0000 0.3586
# 5 18.1046 24.4527 11.2944 0.0000 28.3341 0.0000
# 6 0.0000 0.0000 0.0000 0.3586 0.0000 54.1151
#
#
#
# Elastic Compliance Matrix: (Units=1/GPa)
#
#
# Indices 1 2 3 4 5 6 
#
# 1 0.009020 -0.003177 0.000347 0.000000 -0.003160 0.000000
# 2 -0.003177 0.007984 -0.003540 0.000000 -0.003449 0.000000
# 3 0.000347 -0.003540 0.028977 0.000000 -0.008717 0.000000
# 4 0.000000 0.000000 0.000000 0.031912 0.000000 -0.000211
# 5 -0.003160 -0.003449 -0.008717 0.000000 0.043764 0.000000
# 6 0.000000 0.000000 0.000000 -0.000211 0.000000 0.018481
#
#
# Mechanical properties :
#
#
# Convention : Reuss Voigt Hill
#
# Bulk Modulus (GPa) = 30.08294 64.17409 47.12851
# Shear Modulus (GPa) = 30.49562 39.32782 34.91172
#
# Velocity S-wave (km/s) = 3.70905 4.21205 3.96853
# Velocity P-wave (km/s) = 5.64921 7.25294 6.50072
#
# Compressibility (1/GPa) = 0.03324143
#
# Stress axis : x y z
#
# Youngs Moduli (GPa) = 110.86232 125.24949 34.51011
#
# Poissons Ratio (x) = 0.39790 -0.01197
# Poissons Ratio (y) = 0.35219 0.12216
# Poissons Ratio (z) = -0.03844 0.44336
#
# Static dielectric constant tensor:
#      x y z
#    x 1.797360 0.000000 -0.052660 
#    y 0.000000 1.869230 0.000000 
#    z -0.052660 0.000000 1.929050 
# 
# From -- ./inp_files/39507.got.cif
#   From: 2010.05.17/outbox.cif.g08.bks.cpg/sg12_20_cif.got.tgz:39507.got - 2010.06.03 13:09:07.
