data_PCOD9222917
_publ_section_title
;
Structure prediction by ZEFSAII (Michael W. Deem and Ramdas Pophale) SiO2 
 PCOD9222917
Probable space group: C 2/M
;
_chemical_formula_sum "Si O2"
_cell_formula_units_Z 64
_cell_length_a 13.672518
_cell_length_b 9.000461
_cell_length_c 22.094629
_cell_angle_alpha 90.000000
_cell_angle_beta 86.633055
_cell_angle_gamma 90.000000
_cell_volume 2714.248948
_symmetry_space_group_name_H-M "C 2/M"
_symmetry_group_IT_number 12
_symmetry_cell_setting 'monoclinic'
loop_
_space_group_symop_operation_xyz
x,y,z
-x,y,-z
-x,-y,-z
x,-y,z
1/2+x,1/2+y,z
1/2-x,1/2+y,-z
1/2-x,1/2-y,-z
1/2+x,1/2-y,z
loop_
_atom_site_type_symbol
_atom_site_label
_atom_site_fract_x
_atom_site_fract_y
_atom_site_fract_z
Si Si1 0.047951 0.166501 0.734721
Si Si2 0.618227 0.829177 0.984711
Si Si3 0.694697 0.669662 0.363296
Si Si4 0.591165 0.323885 0.862149
Si Si5 0.645961 0.179919 0.483297
Si Si6 0.922423 0.666480 0.389673
Si Si7 0.643546 0.324570 0.106546
Si Si8 0.682921 0.669579 0.231923
O O1 0.103206 0.233069 0.791991
O O2 0.044831 0.245707 0.670461
O O3 0.935043 0.156355 0.758625
O O4 0.086709 0.000000 0.724552
O O5 0.636072 0.759802 0.918014
O O6 0.648272 0.000000 0.984531
O O7 0.500000 0.824662 0.000000
O O8 0.662548 0.745131 0.040770
O O9 0.655257 0.500000 0.358977
O O10 0.633379 0.759219 0.415477
O O11 0.805192 0.656727 0.382751
O O12 0.706732 0.739612 0.296052
O O13 0.614587 0.500000 0.862373
O O14 0.473948 0.311061 0.879348
O O15 0.750000 0.250000 0.500000
O O16 0.574104 0.223143 0.541420
O O17 0.650218 0.000000 0.482511
O O18 0.963773 0.500000 0.386786
O O19 0.664517 0.500000 0.105226
O O20 0.694992 0.259232 0.165238
O O21 0.723784 0.500000 0.230440
#
# Coordination Sequence:
#
# PCOD9222917 Si02
#       8
#     8   8   8   8   8   8   8   8
#     4   9  17  29  46  66  88 116 149 183 216 256
#     4   9  15  21  32  54  82 110 140 173 210 253
#     4   9  17  31  50  69  89 114 147 184 218 258
#     4   8  14  24  37  55  79 108 142 176 211 250
#     4   9  17  30  47  67  89 114 147 183 219 258
#     4   9  18  30  45  66  90 115 141 175 221 266
#     4   8  13  23  39  56  78 109 141 175 213 251
#     4   8  15  29  47  66  88 116 150 183 216 256
#
# _framework density 23.579269
#
# number of rings (size 3 to 8) (size 9 to 14) (size 15 to 20)
#    0.000    3.375    0.000    3.000    0.000    4.500 
#    0.000    3.750    0.000    3.750    0.000    0.875 
#    0.000    0.000    0.000    0.000    0.000    0.000 
#
# Total GULP energy -178476.368245 kJ/mol
# GULP energy per Si atom -5577.386508 kJ/mol
# Density = 2.352560 g / cm^3
# Si number density = 23.579269 Si / 1000 Ang^3
#
#
#
# Elastic Constant Matrix: (Units=GPa)
#
#
# Indices 1 2 3 4 5 6 
#
# 1 47.7531 0.7101 34.5453 0.0000 7.5088 0.0000
# 2 0.7101 52.0944 80.1246 0.0000 1.7958 0.0000
# 3 34.5453 80.1246 296.3654 0.0000 13.1617 0.0000
# 4 0.0000 0.0000 0.0000 37.5297 0.0000 2.1301
# 5 7.5088 1.7958 13.1617 0.0000 56.6705 0.0000
# 6 0.0000 0.0000 0.0000 2.1301 0.0000 5.6568
#
#
#
# Elastic Compliance Matrix: (Units=1/GPa)
#
#
# Indices 1 2 3 4 5 6 
#
# 1 0.024543 0.006821 -0.004598 0.000000 -0.002400 0.000000
# 2 0.006821 0.034815 -0.010224 0.000000 0.000368 0.000000
# 3 -0.004598 -0.010224 0.006702 0.000000 -0.000623 0.000000
# 4 0.000000 0.000000 0.000000 0.027228 0.000000 -0.010253
# 5 -0.002400 0.000368 -0.000623 0.000000 0.018097 0.000000
# 6 0.000000 0.000000 0.000000 -0.010253 0.000000 0.180640
#
#
# Mechanical properties :
#
#
# Convention : Reuss Voigt Hill
#
# Bulk Modulus (GPa) = 19.97692 69.66364 44.82028
# Shear Modulus (GPa) = 15.39815 38.69360 27.04587
#
# Velocity S-wave (km/s) = 2.55823 4.05532 3.39044
# Velocity P-wave (km/s) = 4.14930 7.17886 5.86314
#
# Compressibility (1/GPa) = 0.05005776
#
# Stress axis : x y z
#
# Youngs Moduli (GPa) = 40.74399 28.72292 149.20899
#
# Poissons Ratio (x) = -0.19591 0.68611
# Poissons Ratio (y) = -0.27790 1.52551
# Poissons Ratio (z) = 0.18735 0.29366
#
# Static dielectric constant tensor:
#      x y z
#    x 2.023780 0.000000 0.014460 
#    y 0.000000 1.843600 0.000000 
#    z 0.014460 0.000000 1.962840 
# 
# From -- ./inp_files/319087.got.cif
#   From: 2010.05.17/outbox.cif.g08.bks.cpg/sg12_160_cif.got.tgz:319087.got - 2010.06.03 13:09:07.
