data_PCOD9222791
_publ_section_title
;
Structure prediction by ZEFSAII (Michael W. Deem and Ramdas Pophale) SiO2 
 PCOD9222791
Probable space group: C 2/M
;
_chemical_formula_sum "Si O2"
_cell_formula_units_Z 32
_cell_length_a 10.925745
_cell_length_b 15.046272
_cell_length_c 12.892913
_cell_angle_alpha 90.000000
_cell_angle_beta 142.904585
_cell_angle_gamma 90.000000
_cell_volume 1278.356983
_symmetry_space_group_name_H-M "C 2/M"
_symmetry_group_IT_number 12
_symmetry_cell_setting 'monoclinic'
loop_
_space_group_symop_operation_xyz
x,y,z
-x,y,-z
-x,-y,-z
x,-y,z
1/2+x,1/2+y,z
1/2-x,1/2+y,-z
1/2-x,1/2-y,-z
1/2+x,1/2-y,z
loop_
_atom_site_type_symbol
_atom_site_label
_atom_site_fract_x
_atom_site_fract_y
_atom_site_fract_z
Si Si1 0.715183 0.600434 0.705972
Si Si2 0.932920 0.608205 0.647186
Si Si3 0.475852 0.605237 0.736887
Si Si4 0.331760 0.300863 0.955743
O O1 0.500000 0.594962 0.500000
O O2 0.789556 0.500000 0.777724
O O3 0.866008 0.635413 0.719516
O O4 0.642940 0.640957 0.766287
O O5 0.950758 0.500000 0.656071
O O6 0.748468 0.636890 0.447586
O O7 0.144574 0.655327 0.768719
O O8 0.472205 0.500000 0.715540
O O9 0.538844 0.623110 0.896217
O O10 0.500000 0.253196 0.000000
O O11 0.250000 0.250000 0.000000
#
# Coordination Sequence:
#
# PCOD9222791 Si02
#       4
#     8   8   8   8
#     4   7  12  27  57  97 126 149 191 244 304 370
#     4   9  19  39  69  99 126 160 208 266 319 368
#     4   9  19  39  69  99 126 160 208 266 319 368
#     4  12  29  45  60  90 130 173 216 255 311 385
#
# _framework density 25.032132000000001
#
# number of rings (size 3 to 8) (size 9 to 14) (size 15 to 20)
#    0.000    2.750    0.000    3.750    3.500    4.000 
#    0.000    6.250    0.000    0.000    0.000    0.000 
#    0.000    0.000    0.000    0.000    0.000    0.000 
#
# Total GULP energy -89345.763708 kJ/mol
# GULP energy per Si atom -5584.110232 kJ/mol
# Density = 2.497516 g / cm^3
# Si number density = 25.032132 Si / 1000 Ang^3
#
#
#
# Elastic Constant Matrix: (Units=GPa)
#
#
# Indices 1 2 3 4 5 6 
#
# 1 82.7691 5.0930 30.4813 -0.0002 34.7101 0.0001
# 2 5.0930 37.6319 17.8898 -0.0003 14.9606 -0.0003
# 3 30.4813 17.8898 98.9579 -0.0010 29.7395 0.0002
# 4 -0.0002 -0.0003 -0.0010 25.5697 -0.0003 1.8043
# 5 34.7101 14.9606 29.7395 -0.0003 50.1997 -0.0002
# 6 0.0001 -0.0003 0.0002 1.8043 -0.0002 64.0142
#
#
#
# Elastic Compliance Matrix: (Units=1/GPa)
#
#
# Indices 1 2 3 4 5 6 
#
# 1 0.017760 0.003507 -0.002555 0.000000 -0.011812 0.000000
# 2 0.003507 0.031776 -0.003954 0.000000 -0.009552 0.000000
# 3 -0.002555 -0.003954 0.013044 0.000000 -0.004783 0.000000
# 4 0.000000 0.000000 0.000000 0.039187 0.000000 -0.001104
# 5 -0.011812 -0.009552 -0.004783 0.000000 0.033768 0.000000
# 6 0.000000 0.000000 0.000000 -0.001104 0.000000 0.015653
#
#
# Mechanical properties :
#
#
# Convention : Reuss Voigt Hill
#
# Bulk Modulus (GPa) = 17.67523 36.25412 26.96467
# Shear Modulus (GPa) = 28.40093 39.01637 33.70865
#
# Velocity S-wave (km/s) = 3.37201 3.95226 3.67361
# Velocity P-wave (km/s) = 4.71560 5.94488 5.36556
#
# Compressibility (1/GPa) = 0.05657635
#
# Stress axis : x y z
#
# Youngs Moduli (GPa) = 56.30554 31.47053 76.66092
#
# Poissons Ratio (x) = -0.11036 0.19585
# Poissons Ratio (y) = -0.19744 0.30311
# Poissons Ratio (z) = 0.14385 0.12443
#
# Static dielectric constant tensor:
#      x y z
#    x 2.014710 0.000000 -0.013540 
#    y 0.000000 2.014090 0.000000 
#    z -0.013540 0.000000 1.969820 
# 
# From -- ./inp_files/87588.got.cif
#   From: 2010.05.17/outbox.cif.g08.bks.cpg/sg12_44_cif.got.tgz:87588.got - 2010.06.03 13:09:07.
