data_PCOD9222369
_publ_section_title
;
Structure prediction by ZEFSAII (Michael W. Deem and Ramdas Pophale) SiO2 
 PCOD9222369
Probable space group: C 2/M
;
_chemical_formula_sum "Si O2"
_cell_formula_units_Z 24
_cell_length_a 10.626257
_cell_length_b 19.737381
_cell_length_c 5.104368
_cell_angle_alpha 90.000000
_cell_angle_beta 117.559042
_cell_angle_gamma 90.000000
_cell_volume 949.090177
_symmetry_space_group_name_H-M "C 2/M"
_symmetry_group_IT_number 12
_symmetry_cell_setting 'monoclinic'
loop_
_space_group_symop_operation_xyz
x,y,z
-x,y,-z
-x,-y,-z
x,-y,z
1/2+x,1/2+y,z
1/2-x,1/2+y,-z
1/2-x,1/2-y,-z
1/2+x,1/2-y,z
loop_
_atom_site_type_symbol
_atom_site_label
_atom_site_fract_x
_atom_site_fract_y
_atom_site_fract_z
Si Si1 0.401493 0.786676 0.641854
Si Si2 0.341722 0.075132 0.750767
Si Si3 0.091564 0.920206 0.851089
O O1 0.500000 0.762318 0.500000
O O2 0.250000 0.750000 0.500000
O O3 0.355148 0.865381 0.556217
O O4 0.500000 0.782353 0.000000
O O5 0.244304 0.102621 0.893963
O O6 0.288750 0.000000 0.616104
O O7 0.500000 0.066184 0.000000
O O8 0.000000 0.914741 0.500000
O O9 0.110945 0.000000 0.932078
O O10 0.000000 0.889331 0.000000
#
# Coordination Sequence:
#
# PCOD9222369 Si02
#       3
#     8   8   8
#     4  11  25  47  73 101 137 184 234 284 342 412
#     4   9  20  40  67 100 135 172 221 283 346 404
#     4   9  18  33  54  85 126 166 204 252 318 393
#
# _framework density 25.287375000000001
#
# number of rings (size 3 to 8) (size 9 to 14) (size 15 to 20)
#    0.000    2.333    0.000    1.000    0.000    7.333 
#    0.000   13.333    0.000    3.000    0.000    0.000 
#    0.000    0.000    0.000    0.000    0.000    0.000 
#
# Total GULP energy -67038.031070 kJ/mol
# GULP energy per Si atom -5586.502589 kJ/mol
# Density = 2.522982 g / cm^3
# Si number density = 25.287375 Si / 1000 Ang^3
#
#
#
# Elastic Constant Matrix: (Units=GPa)
#
#
# Indices 1 2 3 4 5 6 
#
# 1 253.4746 4.7039 69.4010 0.0000 11.1357 0.0000
# 2 4.7039 101.3621 10.1555 0.0000 20.9500 0.0000
# 3 69.4010 10.1555 151.9859 0.0000 -2.6209 0.0000
# 4 0.0000 0.0000 0.0000 14.4447 0.0000 13.9161
# 5 11.1357 20.9500 -2.6209 0.0000 27.3202 0.0000
# 6 0.0000 0.0000 0.0000 13.9161 0.0000 56.9204
#
#
#
# Elastic Compliance Matrix: (Units=1/GPa)
#
#
# Indices 1 2 3 4 5 6 
#
# 1 0.004648 0.000523 -0.002201 0.000000 -0.002507 0.000000
# 2 0.000523 0.011918 -0.001198 0.000000 -0.009467 0.000000
# 3 -0.002201 -0.001198 0.007709 0.000000 0.002555 0.000000
# 4 0.000000 0.000000 0.000000 0.090560 0.000000 -0.022140
# 5 -0.002507 -0.009467 0.002555 0.000000 0.045130 0.000000
# 6 0.000000 0.000000 0.000000 -0.022140 0.000000 0.022981
#
#
# Mechanical properties :
#
#
# Convention : Reuss Voigt Hill
#
# Bulk Modulus (GPa) = 53.98814 75.03816 64.51315
# Shear Modulus (GPa) = 25.65786 47.90787 36.78287
#
# Velocity S-wave (km/s) = 3.18881 4.35735 3.81805
# Velocity P-wave (km/s) = 5.91221 7.41983 6.70851
#
# Compressibility (1/GPa) = 0.01852259
#
# Stress axis : x y z
#
# Youngs Moduli (GPa) = 215.14098 83.90552 129.72585
#
# Poissons Ratio (x) = -0.04387 0.28548
# Poissons Ratio (y) = -0.11249 0.15546
# Poissons Ratio (z) = 0.47344 0.10055
#
# Static dielectric constant tensor:
#      x y z
#    x 2.074830 0.000000 0.113910 
#    y 0.000000 2.094120 0.000000 
#    z 0.113910 0.000000 2.262570 
# 
# From -- ./inp_files/2883.got.cif
#   From: 2010.05.17/outbox.cif.g08.bks.cpg/sg12_2_cif.got.tgz:2883.got - 2010.06.03 13:09:07.
