data_PCOD9222455
_publ_section_title
;
Structure prediction by ZEFSAII (Michael W. Deem and Ramdas Pophale) SiO2 
 PCOD9222455
Probable space group: C 2/M
;
_chemical_formula_sum "Si O2"
_cell_formula_units_Z 40
_cell_length_a 9.572319
_cell_length_b 26.907292
_cell_length_c 13.236532
_cell_angle_alpha 90.000000
_cell_angle_beta 147.493902
_cell_angle_gamma 90.000000
_cell_volume 1832.105331
_symmetry_space_group_name_H-M "C 2/M"
_symmetry_group_IT_number 12
_symmetry_cell_setting 'monoclinic'
loop_
_space_group_symop_operation_xyz
x,y,z
-x,y,-z
-x,-y,-z
x,-y,z
1/2+x,1/2+y,z
1/2-x,1/2+y,-z
1/2-x,1/2-y,-z
1/2+x,1/2-y,z
loop_
_atom_site_type_symbol
_atom_site_label
_atom_site_fract_x
_atom_site_fract_y
_atom_site_fract_z
Si Si1 0.795991 0.869357 0.139632
Si Si2 0.761475 0.594631 0.125201
Si Si3 0.506841 0.739003 0.780850
Si Si4 0.849568 0.056565 0.515216
Si Si5 0.106191 0.310642 0.668852
O O1 0.926438 0.814895 0.224400
O O2 0.990375 0.906029 0.316666
O O3 0.500000 0.867672 0.000000
O O4 0.767707 0.888612 0.008093
O O5 0.761749 0.644423 0.193256
O O6 0.045339 0.570440 0.315420
O O7 0.500000 0.565922 0.000000
O O8 0.279443 0.732067 0.723096
O O9 0.457492 0.781259 0.667295
O O10 0.750000 0.750000 0.000000
O O11 0.000000 0.058643 0.500000
O O12 0.866388 0.000000 0.563762
O O13 0.000000 0.333952 0.500000
#
# Coordination Sequence:
#
# PCOD9222455 Si02
#       5
#     8   8   8   8   8
#     4  12  24  44  75 106 144 193 239 290 362 431
#     4  12  25  47  73 105 147 188 233 299 363 424
#     4  12  23  42  65  99 143 187 237 288 347 425
#     4  11  27  49  75 109 143 183 244 305 363 435
#     4  12  25  42  65 100 141 189 238 291 351 424
#
# _framework density 21.832805
#
# number of rings (size 3 to 8) (size 9 to 14) (size 15 to 20)
#    0.000    0.200    6.000    3.600    0.000    2.400 
#    0.000    1.000    0.000    0.000    0.000    0.000 
#    0.000    0.000    0.000    0.000    0.000    0.000 
#
# Total GULP energy -111686.146972 kJ/mol
# GULP energy per Si atom -5584.307349 kJ/mol
# Density = 2.178311 g / cm^3
# Si number density = 21.832805 Si / 1000 Ang^3
#
#
#
# Elastic Constant Matrix: (Units=GPa)
#
#
# Indices 1 2 3 4 5 6 
#
# 1 89.4140 4.3223 21.8765 0.0000 5.1219 0.0000
# 2 4.3223 112.9731 51.9279 0.0000 -10.5577 0.0000
# 3 21.8765 51.9279 127.3312 0.0000 -5.2929 0.0000
# 4 0.0000 0.0000 0.0000 -0.2109 0.0000 -10.5732
# 5 5.1219 -10.5577 -5.2929 0.0000 50.7206 0.0000
# 6 0.0000 0.0000 0.0000 -10.5732 0.0000 18.0530
#
#
#
# Elastic Compliance Matrix: (Units=1/GPa)
#
#
# Indices 1 2 3 4 5 6 
#
# 1 0.011794 0.000469 -0.002273 0.000000 -0.001330 0.000000
# 2 0.000469 0.011081 -0.004525 0.000000 0.001787 0.000000
# 3 -0.002273 -0.004525 0.010104 0.000000 0.000342 0.000000
# 4 0.000000 0.000000 0.000000 -0.156168 0.000000 -0.091464
# 5 -0.001330 0.001787 0.000342 0.000000 0.020258 0.000000
# 6 0.000000 0.000000 0.000000 -0.091464 0.000000 0.001824
#
#
# Mechanical properties :
#
#
# Convention : Reuss Voigt Hill
#
# Bulk Modulus (GPa) = 49.21230 53.99685 51.60458
# Shear Modulus (GPa) = -61.21740 30.48532 -15.36604
#
# Velocity S-wave (km/s) = -5.30095 3.74077 -2.65581
# Velocity P-wave (km/s) = 3.85711 6.59117 3.77930
#
# Compressibility (1/GPa) = 0.02032012
#
# Stress axis : x y z
#
# Youngs Moduli (GPa) = 84.79205 90.24684 98.97348
#
# Poissons Ratio (x) = -0.04234 0.22495
# Poissons Ratio (y) = -0.03978 0.44788
# Poissons Ratio (z) = 0.19272 0.40839
#
# Static dielectric constant tensor:
#      x y z
#    x 1.815250 0.000000 0.061910 
#    y 0.000000 1.736770 0.000000 
#    z 0.061910 0.000000 1.813590 
# 
# From -- ./inp_files/125480.got.cif
#   From: 2010.05.17/outbox.cif.g08.bks.cpg/sg12_63_cif.got.tgz:125480.got - 2010.06.03 13:09:07.
