data_PCOD9222080
_publ_section_title
;
Structure prediction by ZEFSAII (Michael W. Deem and Ramdas Pophale) SiO2 
 PCOD9222080
Probable space group: C 2/M
;
_chemical_formula_sum "Si O2"
_cell_formula_units_Z 40
_cell_length_a 10.059654
_cell_length_b 10.042019
_cell_length_c 21.046398
_cell_angle_alpha 90.000000
_cell_angle_beta 98.987156
_cell_angle_gamma 90.000000
_cell_volume 2099.989855
_symmetry_space_group_name_H-M "C 2/M"
_symmetry_group_IT_number 12
_symmetry_cell_setting 'monoclinic'
loop_
_space_group_symop_operation_xyz
x,y,z
-x,y,-z
-x,-y,-z
x,-y,z
1/2+x,1/2+y,z
1/2-x,1/2+y,-z
1/2-x,1/2-y,-z
1/2+x,1/2-y,z
loop_
_atom_site_type_symbol
_atom_site_label
_atom_site_fract_x
_atom_site_fract_y
_atom_site_fract_z
Si Si1 0.672851 0.000000 0.365204
Si Si2 0.106787 0.268331 0.455437
Si Si3 0.997652 0.000000 0.384361
Si Si4 0.164116 0.500000 0.217993
Si Si5 0.486026 0.500000 0.236123
Si Si6 0.964298 0.241255 0.854150
Si Si7 0.758703 0.341154 0.063211
O O1 0.622428 0.872116 0.399707
O O2 0.624741 0.000000 0.289127
O O3 0.835630 0.000000 0.377482
O O4 0.250000 0.250000 0.500000
O O5 0.000000 0.315654 0.500000
O O6 0.054938 0.129325 0.423464
O O7 0.035408 0.000000 0.312526
O O8 0.324688 0.500000 0.226659
O O9 0.108272 0.370417 0.179226
O O10 0.528751 0.629496 0.199723
O O11 0.874988 0.183679 0.905094
O O12 0.111338 0.287523 0.888601
O O13 0.772811 0.500000 0.050994
O O14 0.750000 0.250000 0.000000
#
# Coordination Sequence:
#
# PCOD9222080 Si02
#       7
#     4   8   4   4   4   8   8
#     4  11  24  43  65 101 132 174 223 273 332 394
#     4  12  23  43  68  95 134 177 221 273 332 390
#     4  11  24  44  64 101 136 170 223 277 331 392
#     4  11  24  43  70  97 134 173 221 277 331 388
#     4  11  24  43  71  96 134 177 217 277 332 392
#     4  12  24  46  68 100 131 173 225 269 334 388
#     4  12  28  44  69 100 135 174 221 273 324 395
#
# _framework density 19.047713000000002
#
# number of rings (size 3 to 8) (size 9 to 14) (size 15 to 20)
#    0.000    0.400    6.000    3.000    2.800    1.600 
#    0.000    2.000    0.000    0.000    0.000    0.000 
#    0.000    0.000    0.000    0.000    0.000    0.000 
#
# Total GULP energy -111899.064865 kJ/mol
# GULP energy per Si atom -5594.953243 kJ/mol
# Density = 1.900436 g / cm^3
# Si number density = 19.047713 Si / 1000 Ang^3
#
#
#
# Elastic Constant Matrix: (Units=GPa)
#
#
# Indices 1 2 3 4 5 6 
#
# 1 71.5035 13.8581 12.3637 0.0000 -17.3097 0.0000
# 2 13.8581 141.2671 40.7818 0.0000 -12.7267 0.0000
# 3 12.3637 40.7818 91.8834 0.0000 -22.9787 0.0000
# 4 0.0000 0.0000 0.0000 -86.8483 0.0000 -118.2712
# 5 -17.3097 -12.7267 -22.9787 0.0000 40.8468 0.0000
# 6 0.0000 0.0000 0.0000 -118.2712 0.0000 -65.9907
#
#
#
# Elastic Compliance Matrix: (Units=1/GPa)
#
#
# Indices 1 2 3 4 5 6 
#
# 1 0.015713 -0.000939 -0.000123 0.000000 0.006297 0.000000
# 2 -0.000939 0.008187 -0.003455 0.000000 0.000209 0.000000
# 3 -0.000123 -0.003455 0.014141 0.000000 0.006826 0.000000
# 4 0.000000 0.000000 0.000000 0.007992 0.000000 -0.014324
# 5 0.006297 0.000209 0.006826 0.000000 0.031056 0.000000
# 6 0.000000 0.000000 0.000000 -0.014324 0.000000 0.010518
#
#
# Mechanical properties :
#
#
# Convention : Reuss Voigt Hill
#
# Bulk Modulus (GPa) = 34.47405 48.74013 41.60709
# Shear Modulus (GPa) = 47.03256 -6.55508 20.23874
#
# Velocity S-wave (km/s) = 4.97449 -1.85711 3.26318
# Velocity P-wave (km/s) = 7.15068 4.58754 6.00740
#
# Compressibility (1/GPa) = 0.02900733
#
# Stress axis : x y z
#
# Youngs Moduli (GPa) = 63.64196 122.14205 70.71836
#
# Poissons Ratio (x) = 0.11465 0.00869
# Poissons Ratio (y) = 0.05974 0.24434
# Poissons Ratio (z) = 0.00782 0.42202
#
# Static dielectric constant tensor:
#      x y z
#    x 1.642010 0.000000 -0.012870 
#    y 0.000000 1.601380 0.000000 
#    z -0.012870 0.000000 1.639570 
# 
# From -- ./inp_files/331835.got.cif
#   From: 2010.05.17/outbox.cif.g08.bks.cpg/sg12_166_cif.got.tgz:331835.got - 2010.06.03 13:09:07.
