data_PCOD9222490
_publ_section_title
;
Structure prediction by ZEFSAII (Michael W. Deem and Ramdas Pophale) SiO2 
 PCOD9222490
Probable space group: C 2/M
;
_chemical_formula_sum "Si O2"
_cell_formula_units_Z 48
_cell_length_a 16.965012
_cell_length_b 14.276769
_cell_length_c 9.960969
_cell_angle_alpha 90.000000
_cell_angle_beta 90.310424
_cell_angle_gamma 90.000000
_cell_volume 2412.566639
_symmetry_space_group_name_H-M "C 2/M"
_symmetry_group_IT_number 12
_symmetry_cell_setting 'monoclinic'
loop_
_space_group_symop_operation_xyz
x,y,z
-x,y,-z
-x,-y,-z
x,-y,z
1/2+x,1/2+y,z
1/2-x,1/2+y,-z
1/2-x,1/2-y,-z
1/2+x,1/2-y,z
loop_
_atom_site_type_symbol
_atom_site_label
_atom_site_fract_x
_atom_site_fract_y
_atom_site_fract_z
Si Si1 0.671333 0.206763 0.558675
Si Si2 0.575314 0.201314 0.295743
Si Si3 0.082438 0.206788 0.805671
Si Si4 0.828509 0.304475 0.961542
Si Si5 0.758160 0.500000 0.045753
Si Si6 0.416229 0.500000 0.079741
Si Si7 0.996018 0.500000 0.663153
Si Si8 0.675719 0.000000 0.666560
O O1 0.750000 0.250000 0.500000
O O2 0.603758 0.219574 0.446527
O O3 0.644162 0.256974 0.694766
O O4 0.683554 0.096110 0.584798
O O5 0.503284 0.265667 0.249264
O O6 0.645683 0.212455 0.190469
O O7 0.546283 0.093956 0.290935
O O8 0.087003 0.096617 0.836507
O O9 0.103285 0.264720 0.940633
O O10 0.750000 0.250000 0.000000
O O11 0.804748 0.410799 0.989233
O O12 0.766911 0.500000 0.206388
O O13 0.665559 0.500000 0.006314
O O14 0.500000 0.500000 0.000000
O O15 0.000000 0.500000 0.500000
O O16 0.085302 0.500000 0.716549
#
# Coordination Sequence:
#
# PCOD9222490 Si02
#       8
#     8   8   8   8   4   4   4   4
#     4  12  26  44  70 105 144 184 235 285 355 423
#     4  12  24  42  74 103 137 182 229 287 359 418
#     4  12  25  47  70 100 139 184 234 288 351 419
#     4  12  24  43  69 104 139 180 231 292 349 419
#     4  12  25  43  72 101 141 175 236 285 354 406
#     4  12  28  46  70 100 141 194 242 289 340 416
#     4  12  19  43  72 103 139 173 226 289 361 421
#     4  12  24  44  72 106 141 181 222 301 360 412
#
# _framework density 19.895823
#
# number of rings (size 3 to 8) (size 9 to 14) (size 15 to 20)
#    0.000    0.000    6.667    3.500    0.000    0.667 
#    0.000    4.167    0.000    0.000    0.000    0.000 
#    0.000    0.000    0.000    0.000    0.000    0.000 
#
# Total GULP energy -134301.377404 kJ/mol
# GULP energy per Si atom -5595.890725 kJ/mol
# Density = 1.985054 g / cm^3
# Si number density = 19.895823 Si / 1000 Ang^3
#
#
#
# Elastic Constant Matrix: (Units=GPa)
#
#
# Indices 1 2 3 4 5 6 
#
# 1 86.6135 38.9920 20.2534 0.0000 6.0502 0.0000
# 2 38.9920 148.9957 36.4356 0.0000 -2.5042 0.0000
# 3 20.2534 36.4356 98.1223 0.0000 1.7628 0.0000
# 4 0.0000 0.0000 0.0000 17.4170 0.0000 -17.0697
# 5 6.0502 -2.5042 1.7628 0.0000 51.1900 0.0000
# 6 0.0000 0.0000 0.0000 -17.0697 0.0000 -35.8535
#
#
#
# Elastic Compliance Matrix: (Units=1/GPa)
#
#
# Indices 1 2 3 4 5 6 
#
# 1 0.013456 -0.003166 -0.001572 0.000000 -0.001691 0.000000
# 2 -0.003166 0.008137 -0.002384 0.000000 0.000854 0.000000
# 3 -0.001572 -0.002384 0.011407 0.000000 -0.000324 0.000000
# 4 0.000000 0.000000 0.000000 0.039148 0.000000 -0.018638
# 5 -0.001691 0.000854 -0.000324 0.000000 0.019788 0.000000
# 6 0.000000 0.000000 0.000000 -0.018638 0.000000 -0.019018
#
#
# Mechanical properties :
#
#
# Convention : Reuss Voigt Hill
#
# Bulk Modulus (GPa) = 53.30874 58.34372 55.82623
# Shear Modulus (GPa) = 53.52554 22.42073 37.97313
#
# Velocity S-wave (km/s) = 5.19243 3.36058 4.37349
# Velocity P-wave (km/s) = 7.92468 6.66681 7.32280
#
# Compressibility (1/GPa) = 0.01875865
#
# Stress axis : x y z
#
# Youngs Moduli (GPa) = 74.31473 122.89144 87.66809
#
# Poissons Ratio (x) = 0.38902 0.13778
# Poissons Ratio (y) = 0.23525 0.20896
# Poissons Ratio (z) = 0.11680 0.29292
#
# Static dielectric constant tensor:
#      x y z
#    x 1.717150 0.000000 0.026190 
#    y 0.000000 1.490550 0.000000 
#    z 0.026190 0.000000 1.696170 
# 
# From -- ./inp_files/73693.got.cif
#   From: 2010.05.17/outbox.cif.g08.bks.cpg/sg12_37_cif.got.tgz:73693.got - 2010.06.03 13:09:07.
