data_PCOD9222513
_publ_section_title
;
Structure prediction by ZEFSAII (Michael W. Deem and Ramdas Pophale) SiO2 
 PCOD9222513
Probable space group: C 2/M
;
_chemical_formula_sum "Si O2"
_cell_formula_units_Z 40
_cell_length_a 28.093530
_cell_length_b 9.977955
_cell_length_c 13.152698
_cell_angle_alpha 90.000000
_cell_angle_beta 147.464403
_cell_angle_gamma 90.000000
_cell_volume 1982.907563
_symmetry_space_group_name_H-M "C 2/M"
_symmetry_group_IT_number 12
_symmetry_cell_setting 'monoclinic'
loop_
_space_group_symop_operation_xyz
x,y,z
-x,y,-z
-x,-y,-z
x,-y,z
1/2+x,1/2+y,z
1/2-x,1/2+y,-z
1/2-x,1/2-y,-z
1/2+x,1/2-y,z
loop_
_atom_site_type_symbol
_atom_site_label
_atom_site_fract_x
_atom_site_fract_y
_atom_site_fract_z
Si Si1 0.231296 0.000000 0.954707
Si Si2 0.601628 0.705313 0.811625
Si Si3 0.073735 0.000000 0.047155
Si Si4 0.467019 0.000000 0.327961
Si Si5 0.470058 0.500000 0.644230
Si Si6 0.259566 0.500000 0.268537
Si Si7 0.834787 0.500000 0.361161
Si Si8 0.296871 0.292002 0.794461
O O1 0.167371 0.130527 0.852566
O O2 0.259903 0.000000 0.888369
O O3 0.297307 0.000000 0.174243
O O4 0.508815 0.627130 0.652232
O O5 0.584515 0.861350 0.773206
O O6 0.650238 0.686452 0.005730
O O7 0.140182 0.871735 0.170261
O O8 0.018236 0.000000 0.841060
O O9 0.000000 0.000000 0.000000
O O10 0.500000 0.000000 0.500000
O O11 0.559932 0.000000 0.435674
O O12 0.365726 0.500000 0.467410
O O13 0.220846 0.635014 0.248776
O O14 0.793248 0.372018 0.344096
#
# Coordination Sequence:
#
# PCOD9222513 Si02
#       8
#     4   8   4   4   4   4   4   8
#     4   9  22  34  51  63 104 164 186 210 249 303
#     4   9  20  37  46  74 108 146 195 218 249 294
#     4   9  19  44  67  78  96 132 168 208 275 352
#     4  12  24  27  48  76 110 145 198 229 242 265
#     4   9  20  36  58  77 105 140 173 218 268 315
#     4  12  21  31  52  79 112 136 175 213 264 298
#     4   9  20  37  46  74 108 146 195 218 249 294
#     4   9  20  36  58  77 105 140 173 218 268 315
#
# _framework density 20.172397
#
# number of rings (size 3 to 8) (size 9 to 14) (size 15 to 20)
#    0.000    2.400    0.000    4.200    8.400    2.400 
#    0.000    1.500    0.000    0.000    0.000    0.000 
#    0.000    0.000    0.000    0.000    0.000    0.000 
#
# Total GULP energy -111522.638579 kJ/mol
# GULP energy per Si atom -5576.131929 kJ/mol
# Density = 2.012648 g / cm^3
# Si number density = 20.172397 Si / 1000 Ang^3
#
#
#
# Elastic Constant Matrix: (Units=GPa)
#
#
# Indices 1 2 3 4 5 6 
#
# 1 61.8887 62.7173 4.3255 0.0000 23.1700 0.0000
# 2 62.7173 189.4755 33.5756 0.0000 33.3956 0.0000
# 3 4.3255 33.5756 60.9836 0.0000 23.9493 0.0000
# 4 0.0000 0.0000 0.0000 7.9434 0.0000 22.3171
# 5 23.1700 33.3956 23.9493 0.0000 25.1855 0.0000
# 6 0.0000 0.0000 0.0000 22.3171 0.0000 -8.9911
#
#
#
# Elastic Compliance Matrix: (Units=1/GPa)
#
#
# Indices 1 2 3 4 5 6 
#
# 1 0.040103 -0.009075 0.019017 0.000000 -0.042943 0.000000
# 2 -0.009075 0.008945 -0.004631 0.000000 0.000892 0.000000
# 3 0.019017 -0.004631 0.035205 0.000000 -0.044830 0.000000
# 4 0.000000 0.000000 0.000000 0.015788 0.000000 0.039189
# 5 -0.042943 0.000892 -0.044830 0.000000 0.120659 0.000000
# 6 0.000000 0.000000 0.000000 0.039189 0.000000 -0.013949
#
#
# Mechanical properties :
#
#
# Convention : Reuss Voigt Hill
#
# Bulk Modulus (GPa) = 10.54046 57.06496 33.80271
# Shear Modulus (GPa) = 21.95336 18.94287 20.44811
#
# Velocity S-wave (km/s) = 3.30250 3.06772 3.18727
# Velocity P-wave (km/s) = 4.44731 6.39515 5.50801
#
# Compressibility (1/GPa) = 0.09487249
#
# Stress axis : x y z
#
# Youngs Moduli (GPa) = 24.93593 111.79245 28.40543
#
# Poissons Ratio (x) = 1.01453 -0.54018
# Poissons Ratio (y) = 0.22630 0.13156
# Poissons Ratio (z) = -0.47420 0.51777
#
# Static dielectric constant tensor:
#      x y z
#    x 1.762300 0.000000 0.089030 
#    y 0.000000 1.711910 0.000000 
#    z 0.089030 0.000000 1.838980 
# 
# From -- ./inp_files/249564.got.cif
#   From: 2010.05.17/outbox.cif.g08.bks.cpg/sg12_125_cif.got.tgz:249564.got - 2010.06.03 13:09:07.
