data_PCOD9222949
_publ_section_title
;
Structure prediction by ZEFSAII (Michael W. Deem and Ramdas Pophale) SiO2 
 PCOD9222949
Probable space group: C 2/M
;
_chemical_formula_sum "Si O2"
_cell_formula_units_Z 56
_cell_length_a 16.260116
_cell_length_b 7.221131
_cell_length_c 20.570067
_cell_angle_alpha 90.000000
_cell_angle_beta 123.648951
_cell_angle_gamma 90.000000
_cell_volume 2010.581853
_symmetry_space_group_name_H-M "C 2/M"
_symmetry_group_IT_number 12
_symmetry_cell_setting 'monoclinic'
loop_
_space_group_symop_operation_xyz
x,y,z
-x,y,-z
-x,-y,-z
x,-y,z
1/2+x,1/2+y,z
1/2-x,1/2+y,-z
1/2-x,1/2-y,-z
1/2+x,1/2-y,z
loop_
_atom_site_type_symbol
_atom_site_label
_atom_site_fract_x
_atom_site_fract_y
_atom_site_fract_z
Si Si1 0.692518 0.224811 0.384223
Si Si2 0.085395 0.225738 0.666699
Si Si3 0.598541 0.709975 0.481467
Si Si4 0.999332 0.287130 0.909465
Si Si5 0.699861 0.219886 0.048688
Si Si6 0.813277 0.274307 0.760833
Si Si7 0.096509 0.224063 0.813023
O O1 0.637586 0.295214 0.423708
O O2 0.807123 0.288577 0.439900
O O3 0.651467 0.279076 0.296146
O O4 0.692610 0.000000 0.387941
O O5 0.199308 0.280767 0.712802
O O6 0.052643 0.283340 0.724928
O O7 0.010890 0.289525 0.577723
O O8 0.082981 0.000000 0.663248
O O9 0.589706 0.500000 0.501598
O O10 0.986269 0.500000 0.923103
O O11 0.044807 0.288828 0.856104
O O12 0.890214 0.208513 0.849116
O O13 0.087773 0.207750 0.992616
O O14 0.787788 0.283236 0.133951
O O15 0.690645 0.000000 0.054975
O O16 0.750000 0.250000 0.000000
O O17 0.813800 0.500000 0.764804
O O18 0.095545 0.000000 0.814862
#
# Coordination Sequence:
#
# PCOD9222949 Si02
#       7
#     8   8   8   8   8   8   8
#     4   9  17  29  46  66  85 107 137 172 207 243
#     4   9  17  28  42  62  87 112 138 169 205 244
#     4   9  17  29  46  66  85 107 137 172 207 243
#     4   9  16  27  44  63  83 108 138 172 207 243
#     4   8  14  24  39  61  83 103 133 170 206 242
#     4   9  17  28  42  62  87 112 138 169 205 244
#     4   9  16  27  44  63  83 108 138 172 207 243
#
# _framework density 27.852633000000001
#
# number of rings (size 3 to 8) (size 9 to 14) (size 15 to 20)
#    0.000    3.143    0.000    0.857    0.000    0.571 
#    0.000    3.571    0.000    7.714    0.000    4.000 
#    0.000   11.429    0.000    0.000    0.000    0.000 
#
# Total GULP energy -156615.672569 kJ/mol
# GULP energy per Si atom -5593.416877 kJ/mol
# Density = 2.778924 g / cm^3
# Si number density = 27.852633 Si / 1000 Ang^3
#
#
#
# Elastic Constant Matrix: (Units=GPa)
#
#
# Indices 1 2 3 4 5 6 
#
# 1 117.5795 -3.1860 28.6972 0.0000 20.3173 0.0000
# 2 -3.1860 145.1043 2.0236 0.0000 0.8864 0.0000
# 3 28.6972 2.0236 215.9420 0.0000 24.8813 0.0000
# 4 0.0000 0.0000 0.0000 -6.3687 0.0000 -3.5131
# 5 20.3173 0.8864 24.8813 0.0000 66.8352 0.0000
# 6 0.0000 0.0000 0.0000 -3.5131 0.0000 -7.9011
#
#
#
# Elastic Compliance Matrix: (Units=1/GPa)
#
#
# Indices 1 2 3 4 5 6 
#
# 1 0.009162 0.000229 -0.000939 0.000000 -0.002439 0.000000
# 2 0.000229 0.006899 -0.000080 0.000000 -0.000131 0.000000
# 3 -0.000939 -0.000080 0.004935 0.000000 -0.001551 0.000000
# 4 0.000000 0.000000 0.000000 -0.208045 0.000000 0.092504
# 5 -0.002439 -0.000131 -0.001551 0.000000 0.016283 0.000000
# 6 0.000000 0.000000 0.000000 0.092504 0.000000 -0.167695
#
#
# Mechanical properties :
#
#
# Convention : Reuss Voigt Hill
#
# Bulk Modulus (GPa) = 51.50338 59.29950 55.40144
# Shear Modulus (GPa) = -15.13264 40.58581 12.72659
#
# Velocity S-wave (km/s) = -2.33343 3.82142 2.13990
# Velocity P-wave (km/s) = 3.35733 6.38809 5.10291
#
# Compressibility (1/GPa) = 0.01941620
#
# Stress axis : x y z
#
# Youngs Moduli (GPa) = 109.15147 144.95812 202.63208
#
# Poissons Ratio (x) = -0.03322 0.19021
# Poissons Ratio (y) = -0.02501 0.01620
# Poissons Ratio (z) = 0.10246 0.01159
#
# Static dielectric constant tensor:
#      x y z
#    x 2.228750 0.000000 0.041550 
#    y 0.000000 2.685360 0.000000 
#    z 0.041550 0.000000 2.123860 
# 
# From -- ./inp_files/276113.got.cif
#   From: 2010.05.17/outbox.cif.g08.bks.cpg/sg12_139_cif.got.tgz:276113.got - 2010.06.03 13:09:07.
