data_PCOD9222547
_publ_section_title
;
Structure prediction by ZEFSAII (Michael W. Deem and Ramdas Pophale) SiO2 
 PCOD9222547
Probable space group: C 2/M
;
_chemical_formula_sum "Si O2"
_cell_formula_units_Z 48
_cell_length_a 20.209187
_cell_length_b 17.339238
_cell_length_c 15.992837
_cell_angle_alpha 90.000000
_cell_angle_beta 28.808457
_cell_angle_gamma 90.000000
_cell_volume 2700.511178
_symmetry_space_group_name_H-M "C 2/M"
_symmetry_group_IT_number 12
_symmetry_cell_setting 'monoclinic'
loop_
_space_group_symop_operation_xyz
x,y,z
-x,y,-z
-x,-y,-z
x,-y,z
1/2+x,1/2+y,z
1/2-x,1/2+y,-z
1/2-x,1/2-y,-z
1/2+x,1/2-y,z
loop_
_atom_site_type_symbol
_atom_site_label
_atom_site_fract_x
_atom_site_fract_y
_atom_site_fract_z
Si Si1 0.644839 0.500000 0.383218
Si Si2 0.142558 0.088019 0.896154
Si Si3 0.994163 0.186204 0.190168
Si Si4 0.947844 0.359335 0.256171
Si Si5 0.657894 0.347146 0.480743
Si Si6 0.702274 0.172703 0.414141
Si Si7 0.430435 0.000000 0.982972
O O1 0.500000 0.500000 0.500000
O O2 0.653616 0.421362 0.427178
O O3 0.770093 0.500000 0.179959
O O4 0.261618 0.123344 0.706872
O O5 0.170919 0.000000 0.887460
O O6 0.000000 0.088435 0.000000
O O7 0.108357 0.140334 0.013452
O O8 0.022557 0.277131 0.164175
O O9 0.961750 0.152663 0.317329
O O10 0.848554 0.179045 0.301569
O O11 0.802127 0.352559 0.370031
O O12 0.904290 0.365358 0.402128
O O13 0.025272 0.426826 0.121945
O O14 0.657790 0.260598 0.442822
O O15 0.500000 0.000000 0.000000
#
# Coordination Sequence:
#
# PCOD9222547 Si02
#       7
#     4   8   8   8   8   8   4
#     4  12  26  38  52  77 111 145 179 226 272 320
#     4   9  16  23  37  68 107 140 164 197 261 322
#     4   8  16  27  46  72 105 140 169 214 258 318
#     4   9  17  30  49  78 105 131 175 217 265 311
#     4   9  17  33  50  71 103 141 174 213 271 310
#     4   8  16  28  46  72 106 139 165 212 265 313
#     4  12  22  32  54  83 103 141 181 222 270 312
#
# _framework density 17.774412000000002
#
# number of rings (size 3 to 8) (size 9 to 14) (size 15 to 20)
#    0.000    2.833    1.667    2.000    4.667    0.667 
#    0.000    0.000    0.000    4.000    0.000    0.000 
#    0.000    2.000    0.000    0.000    0.000    0.000 
#
# Total GULP energy -133624.627431 kJ/mol
# GULP energy per Si atom -5567.692810 kJ/mol
# Density = 1.773396 g / cm^3
# Si number density = 17.774412 Si / 1000 Ang^3
#
#
#
# Elastic Constant Matrix: (Units=GPa)
#
#
# Indices 1 2 3 4 5 6 
#
# 1 13.3504 39.8623 42.2762 0.0000 17.0188 0.0000
# 2 39.8623 152.0041 111.1338 0.0001 51.2726 0.0000
# 3 42.2762 111.1338 139.3607 0.0001 49.2642 -0.0001
# 4 0.0000 0.0001 0.0001 28.0695 -0.0001 13.8078
# 5 17.0188 51.2726 49.2642 -0.0001 31.2301 0.0000
# 6 0.0000 0.0000 -0.0001 13.8078 0.0000 7.8498
#
#
#
# Elastic Compliance Matrix: (Units=1/GPa)
#
#
# Indices 1 2 3 4 5 6 
#
# 1 -6.995565 0.574294 1.469064 -0.000007 0.551982 0.000020
# 2 0.574294 -0.028271 -0.129864 0.000000 -0.061691 0.000000
# 3 1.469064 -0.129864 -0.287736 0.000000 -0.133467 -0.000001
# 4 -0.000007 0.000000 0.000000 0.264433 0.000006 -0.465138
# 5 0.551982 -0.061691 -0.133467 0.000006 0.043040 -0.000011
# 6 0.000020 0.000000 -0.000001 -0.465138 -0.000011 0.945568
#
#
# Mechanical properties :
#
#
# Convention : Reuss Voigt Hill
#
# Bulk Modulus (GPa) = -0.28698 76.80665 38.25983
# Shear Modulus (GPa) = -0.45261 20.85940 10.20340
#
# Velocity S-wave (km/s) = -0.50517 3.42945 2.39853
# Velocity P-wave (km/s) = 0.70857 7.68031 5.40764
#
# Compressibility (1/GPa) = -3.48458423
#
# Stress axis : x y z
#
# Youngs Moduli (GPa) = -0.14295 -35.37193 -3.47541
#
# Poissons Ratio (x) = 20.31389 5.10560
# Poissons Ratio (y) = 0.08209 -0.45133
# Poissons Ratio (z) = 0.21000 -4.59354
#
# Static dielectric constant tensor:
#      x y z
#    x 1.621310 0.000000 0.028360 
#    y 0.000000 1.629870 0.000000 
#    z 0.028360 0.000000 1.602570 
# 
# From -- ./inp_files/226772.got.cif
#   From: 2010.05.17/outbox.cif.g08.bks.cpg/sg12_114_cif.got.tgz:226772.got - 2010.06.03 13:09:07.
