data_PCOD9222745
_publ_section_title
;
Structure prediction by ZEFSAII (Michael W. Deem and Ramdas Pophale) SiO2 
 PCOD9222745
Probable space group: C 2/M
;
_chemical_formula_sum "Si O2"
_cell_formula_units_Z 42
_cell_length_a 22.859303
_cell_length_b 14.641673
_cell_length_c 7.113734
_cell_angle_alpha 90.000000
_cell_angle_beta 58.173223
_cell_angle_gamma 90.000000
_cell_volume 2022.970244
_symmetry_space_group_name_H-M "C 2/M"
_symmetry_group_IT_number 12
_symmetry_cell_setting 'monoclinic'
loop_
_space_group_symop_operation_xyz
x,y,z
-x,y,-z
-x,-y,-z
x,-y,z
1/2+x,1/2+y,z
1/2-x,1/2+y,-z
1/2-x,1/2-y,-z
1/2+x,1/2-y,z
loop_
_atom_site_type_symbol
_atom_site_label
_atom_site_fract_x
_atom_site_fract_y
_atom_site_fract_z
Si Si1 0.219516 0.896301 0.835447
Si Si2 0.878654 0.739233 0.930963
Si Si3 0.500000 0.000000 0.500000
Si Si4 0.240576 0.395909 0.786904
Si Si5 0.161262 0.737676 0.442346
Si Si6 0.522472 0.156326 0.764264
O O1 0.283490 0.843866 0.632806
O O2 0.210460 0.000000 0.788966
O O3 0.152815 0.832179 0.932871
O O4 0.238592 0.897946 0.026540
O O5 0.861326 0.740249 0.738304
O O6 0.958748 0.721808 0.819603
O O7 0.832401 0.656280 0.092196
O O8 0.529144 0.080051 0.593754
O O9 0.236570 0.500000 0.728117
O O10 0.297846 0.331771 0.592734
O O11 0.092229 0.713738 0.668344
O O12 0.500000 0.113402 0.000000
#
# Coordination Sequence:
#
# PCOD9222745 Si02
#       6
#     8   8   2   8   8   8
#     4   8  15  28  54  84 112 153 203 236 285 347
#     4   9  17  33  55  82 117 155 188 242 294 334
#     4  12  26  44  60  82 122 152 190 234 292 342
#     4   8  15  28  54  84 112 153 203 236 285 347
#     4   9  17  33  55  82 117 155 188 242 294 334
#     4  12  25  39  60  87 116 152 192 234 290 350
#
# _framework density 20.761551000000001
#
# number of rings (size 3 to 8) (size 9 to 14) (size 15 to 20)
#    0.000    2.667    1.905    2.571    2.667    0.000 
#    0.000    4.762    0.000    9.143    0.000    0.000 
#    0.000    0.000    0.000    0.000    0.000    0.000 
#
# Total GULP energy -117057.217091 kJ/mol
# GULP energy per Si atom -5574.153195 kJ/mol
# Density = 2.071430 g / cm^3
# Si number density = 20.761551 Si / 1000 Ang^3
#
#
#
# Elastic Constant Matrix: (Units=GPa)
#
#
# Indices 1 2 3 4 5 6 
#
# 1 81.4668 37.0048 28.1390 0.0000 -14.9367 0.0000
# 2 37.0048 184.5049 48.5684 0.0000 -36.5586 0.0000
# 3 28.1390 48.5684 86.5281 0.0000 -23.6936 0.0000
# 4 0.0000 0.0000 0.0000 -2.9236 0.0000 0.1970
# 5 -14.9367 -36.5586 -23.6936 0.0000 48.0355 0.0000
# 6 0.0000 0.0000 0.0000 0.1970 0.0000 6.7773
#
#
#
# Elastic Compliance Matrix: (Units=1/GPa)
#
#
# Indices 1 2 3 4 5 6 
#
# 1 0.014490 -0.001724 -0.003318 0.000000 0.001557 0.000000
# 2 -0.001724 0.007139 -0.002434 0.000000 0.003696 0.000000
# 3 -0.003318 -0.002434 0.015276 0.000000 0.004650 0.000000
# 4 0.000000 0.000000 0.000000 -0.341374 0.000000 0.009923
# 5 0.001557 0.003696 0.004650 0.000000 0.026409 0.000000
# 6 0.000000 0.000000 0.000000 0.009923 0.000000 0.147264
#
#
# Mechanical properties :
#
#
# Convention : Reuss Voigt Hill
#
# Bulk Modulus (GPa) = 45.55505 64.43600 54.99553
# Shear Modulus (GPa) = -46.07146 26.29700 -9.88723
#
# Velocity S-wave (km/s) = -4.71582 3.56282 -2.18463
# Velocity P-wave (km/s) = 2.76808 6.93026 4.49256
#
# Compressibility (1/GPa) = 0.02195146
#
# Stress axis : x y z
#
# Youngs Moduli (GPa) = 69.01508 140.07727 65.46356
#
# Poissons Ratio (x) = 0.24152 0.21720
# Poissons Ratio (y) = 0.11900 0.15935
# Poissons Ratio (z) = 0.22899 0.34098
#
# Static dielectric constant tensor:
#      x y z
#    x 1.752390 0.000000 0.063710 
#    y 0.000000 1.907320 0.000000 
#    z 0.063710 0.000000 1.790930 
# 
# From -- ./inp_files/104342.got.cif
#   From: 2010.05.17/outbox.cif.g08.bks.cpg/sg12_53_cif.got.tgz:104342.got - 2010.06.03 13:09:07.
