data_PCOD9222697
_publ_section_title
;
Structure prediction by ZEFSAII (Michael W. Deem and Ramdas Pophale) SiO2 
 PCOD9222697
Probable space group: C 2/M
;
_chemical_formula_sum "Si O2"
_cell_formula_units_Z 36
_cell_length_a 9.745687
_cell_length_b 24.591060
_cell_length_c 7.872443
_cell_angle_alpha 90.000000
_cell_angle_beta 109.044182
_cell_angle_gamma 90.000000
_cell_volume 1783.420856
_symmetry_space_group_name_H-M "C 2/M"
_symmetry_group_IT_number 12
_symmetry_cell_setting 'monoclinic'
loop_
_space_group_symop_operation_xyz
x,y,z
-x,y,-z
-x,-y,-z
x,-y,z
1/2+x,1/2+y,z
1/2-x,1/2+y,-z
1/2-x,1/2-y,-z
1/2+x,1/2-y,z
loop_
_atom_site_type_symbol
_atom_site_label
_atom_site_fract_x
_atom_site_fract_y
_atom_site_fract_z
Si Si1 0.925765 0.881889 0.714302
Si Si2 0.747416 0.618102 0.011013
Si Si3 0.000000 0.299362 0.000000
Si Si4 0.088620 0.760753 0.382027
Si Si5 0.429193 0.500000 0.700733
Si Si6 0.767560 0.000000 0.003713
O O1 0.806861 0.875386 0.816991
O O2 0.921827 0.825681 0.617497
O O3 0.894524 0.940285 0.613208
O O4 0.090856 0.883203 0.853373
O O5 0.860722 0.663201 0.993590
O O6 0.812487 0.557370 0.016118
O O7 0.958603 0.262532 0.820074
O O8 0.250000 0.750000 0.500000
O O9 0.000000 0.734757 0.500000
O O10 0.349268 0.500000 0.852824
O O11 0.600889 0.500000 0.808122
#
# Coordination Sequence:
#
# PCOD9222697 Si02
#       6
#     8   8   4   8   4   4
#     4   9  17  34  57  82 112 148 191 238 286 339
#     4   9  17  31  57  85 114 151 191 235 286 341
#     4  12  24  39  58  85 120 158 194 234 288 346
#     4  12  26  41  60  87 119 154 195 241 288 341
#     4   7  12  26  53  81 107 141 184 238 288 327
#     4   7  12  25  48  85 114 139 188 236 278 337
#
# _framework density 20.185924
#
# number of rings (size 3 to 8) (size 9 to 14) (size 15 to 20)
#    0.000    2.444    0.000    6.667    0.000    3.111 
#    0.000    0.556    0.000    2.667    0.000    8.556 
#    0.000    0.000    0.000    0.000    0.000    0.000 
#
# Total GULP energy -100226.411521 kJ/mol
# GULP energy per Si atom -5568.133973 kJ/mol
# Density = 2.013998 g / cm^3
# Si number density = 20.185924 Si / 1000 Ang^3
#
#
#
# Elastic Constant Matrix: (Units=GPa)
#
#
# Indices 1 2 3 4 5 6 
#
# 1 109.2012 45.6605 39.0530 0.0000 -10.9187 0.0000
# 2 45.6605 170.6248 54.6235 0.0000 -10.6298 0.0000
# 3 39.0530 54.6235 83.4284 0.0000 -10.6796 0.0000
# 4 0.0000 0.0000 0.0000 3.7340 0.0000 -10.6093
# 5 -10.9187 -10.6298 -10.6796 0.0000 18.6821 0.0000
# 6 0.0000 0.0000 0.0000 -10.6093 0.0000 8.0737
#
#
#
# Elastic Compliance Matrix: (Units=1/GPa)
#
#
# Indices 1 2 3 4 5 6 
#
# 1 0.011595 -0.001630 -0.003897 0.000000 0.003621 0.000000
# 2 -0.001630 0.007686 -0.004134 0.000000 0.001058 0.000000
# 3 -0.003897 -0.004134 0.017182 0.000000 0.005192 0.000000
# 4 0.000000 0.000000 0.000000 -0.097969 0.000000 -0.128737
# 5 0.003621 0.001058 0.005192 0.000000 0.059213 0.000000
# 6 0.000000 0.000000 0.000000 -0.128737 0.000000 -0.045309
#
#
# Mechanical properties :
#
#
# Convention : Reuss Voigt Hill
#
# Bulk Modulus (GPa) = 58.33880 71.32541 64.83211
# Shear Modulus (GPa) = -221.57102 21.02579 -100.27262
#
# Velocity S-wave (km/s) = -10.48825 3.23089 -7.05566
# Velocity P-wave (km/s) = 10.84932 7.02347 5.84716
#
# Compressibility (1/GPa) = 0.01714125
#
# Stress axis : x y z
#
# Youngs Moduli (GPa) = 86.24766 130.10066 58.20053
#
# Poissons Ratio (x) = 0.21202 0.22680
# Poissons Ratio (y) = 0.14055 0.24062
# Poissons Ratio (z) = 0.33609 0.53788
#
# Static dielectric constant tensor:
#      x y z
#    x 1.636610 0.000000 -0.079330 
#    y 0.000000 1.541590 0.000000 
#    z -0.079330 0.000000 1.705860 
# 
# From -- ./inp_files/39584.got.cif
#   From: 2010.05.17/outbox.cif.g08.bks.cpg/sg12_20_cif.got.tgz:39584.got - 2010.06.03 13:09:07.
