data_PCOD9222441
_publ_section_title
;
Structure prediction by ZEFSAII (Michael W. Deem and Ramdas Pophale) SiO2 
 PCOD9222441
Probable space group: C 2/M
;
_chemical_formula_sum "Si O2"
_cell_formula_units_Z 36
_cell_length_a 7.912671
_cell_length_b 27.143096
_cell_length_c 13.506914
_cell_angle_alpha 90.000000
_cell_angle_beta 36.496072
_cell_angle_gamma 90.000000
_cell_volume 1725.384863
_symmetry_space_group_name_H-M "C 2/M"
_symmetry_group_IT_number 12
_symmetry_cell_setting 'monoclinic'
loop_
_space_group_symop_operation_xyz
x,y,z
-x,y,-z
-x,-y,-z
x,-y,z
1/2+x,1/2+y,z
1/2-x,1/2+y,-z
1/2-x,1/2-y,-z
1/2+x,1/2-y,z
loop_
_atom_site_type_symbol
_atom_site_label
_atom_site_fract_x
_atom_site_fract_y
_atom_site_fract_z
Si Si1 0.317182 0.360302 0.392898
Si Si2 0.023953 0.321890 0.710316
Si Si3 0.173978 0.058459 0.125408
Si Si4 0.000000 0.893652 0.000000
Si Si5 0.743092 0.278457 0.195786
O O1 0.264880 0.347719 0.531947
O O2 0.469492 0.411045 0.294477
O O3 0.521181 0.317463 0.254600
O O4 0.000000 0.359547 0.500000
O O5 0.129060 0.303554 0.767198
O O6 0.762656 0.359052 0.845784
O O7 0.919013 0.272095 0.705678
O O8 0.096770 0.075051 0.050042
O O9 0.137968 0.000000 0.152438
O O10 0.500000 0.071008 0.000000
O O11 0.000000 0.267818 0.000000
#
# Coordination Sequence:
#
# PCOD9222441 Si02
#       5
#     8   8   8   4   8
#     4  12  24  44  67 101 141 183 235 287 352 411
#     4  12  25  41  68 102 146 189 236 283 348 421
#     4  11  26  50  78 104 138 183 237 301 363 425
#     4  12  23  46  72 108 142 184 235 290 360 426
#     4  12  25  43  68 100 146 194 237 283 344 424
#
# _framework density 20.864908
#
# number of rings (size 3 to 8) (size 9 to 14) (size 15 to 20)
#    0.000    0.222    3.333    7.000    0.000    0.444 
#    0.000    0.000    0.000    5.333    0.000    0.000 
#    0.000    0.000    0.000    0.000    0.000    0.000 
#
# Total GULP energy -100803.349684 kJ/mol
# GULP energy per Si atom -5600.186094 kJ/mol
# Density = 2.081742 g / cm^3
# Si number density = 20.864908 Si / 1000 Ang^3
#
#
#
# Elastic Constant Matrix: (Units=GPa)
#
#
# Indices 1 2 3 4 5 6 
#
# 1 149.1040 56.1854 43.4350 0.0000 -7.5782 0.0000
# 2 56.1854 125.2570 61.0858 0.0000 -13.0306 0.0000
# 3 43.4350 61.0858 117.2370 0.0000 -5.0064 0.0000
# 4 0.0000 0.0000 0.0000 36.8087 0.0000 -5.5185
# 5 -7.5782 -13.0306 -5.0064 0.0000 40.6951 0.0000
# 6 0.0000 0.0000 0.0000 -5.5185 0.0000 46.6724
#
#
#
# Elastic Compliance Matrix: (Units=1/GPa)
#
#
# Indices 1 2 3 4 5 6 
#
# 1 0.008274 -0.002925 -0.001524 0.000000 0.000417 0.000000
# 2 -0.002925 0.012054 -0.005082 0.000000 0.002690 0.000000
# 3 -0.001524 -0.005082 0.011722 0.000000 -0.000469 0.000000
# 4 0.000000 0.000000 0.000000 0.027658 0.000000 0.003270
# 5 0.000417 0.002690 -0.000469 0.000000 0.025454 0.000000
# 6 0.000000 0.000000 0.000000 0.003270 0.000000 0.021813
#
#
# Mechanical properties :
#
#
# Convention : Reuss Voigt Hill
#
# Bulk Modulus (GPa) = 76.98988 79.22340 78.10664
# Shear Modulus (GPa) = 38.35375 40.22803 39.29089
#
# Velocity S-wave (km/s) = 4.29207 4.39569 4.34419
# Velocity P-wave (km/s) = 7.84486 7.98842 7.91697
#
# Compressibility (1/GPa) = 0.01298872
#
# Stress axis : x y z
#
# Youngs Moduli (GPa) = 120.86155 82.96072 85.30853
#
# Poissons Ratio (x) = 0.24266 0.12997
# Poissons Ratio (y) = 0.35352 0.43355
# Poissons Ratio (z) = 0.18414 0.42161
#
# Static dielectric constant tensor:
#      x y z
#    x 1.817380 0.000000 0.015320 
#    y 0.000000 1.702180 0.000000 
#    z 0.015320 0.000000 1.737460 
# 
# From -- ./inp_files/200078.got.cif
#   From: 2010.05.17/outbox.cif.g08.bks.cpg/sg12_101_cif.got.tgz:200078.got - 2010.06.03 13:09:07.
