data_PCOD9222856
_publ_section_title
;
Structure prediction by ZEFSAII (Michael W. Deem and Ramdas Pophale) SiO2 
 PCOD9222856
Probable space group: C 2/M
;
_chemical_formula_sum "Si O2"
_cell_formula_units_Z 32
_cell_length_a 10.589550
_cell_length_b 23.028681
_cell_length_c 7.396922
_cell_angle_alpha 90.000000
_cell_angle_beta 42.732322
_cell_angle_gamma 90.000000
_cell_volume 1224.038046
_symmetry_space_group_name_H-M "C 2/M"
_symmetry_group_IT_number 12
_symmetry_cell_setting 'monoclinic'
loop_
_space_group_symop_operation_xyz
x,y,z
-x,y,-z
-x,-y,-z
x,-y,z
1/2+x,1/2+y,z
1/2-x,1/2+y,-z
1/2-x,1/2-y,-z
1/2+x,1/2-y,z
loop_
_atom_site_type_symbol
_atom_site_label
_atom_site_fract_x
_atom_site_fract_y
_atom_site_fract_z
Si Si1 0.961340 0.000000 0.257725
Si Si2 0.968436 0.251254 0.321825
Si Si3 0.979184 0.374761 0.301933
Si Si4 0.981182 0.500000 0.300655
Si Si5 0.962223 0.123223 0.250246
O O1 0.738371 0.000000 0.509320
O O2 0.030843 0.061962 0.258884
O O3 0.000000 0.000000 0.000000
O O4 0.750000 0.250000 0.500000
O O5 0.048590 0.311953 0.158920
O O6 0.042715 0.186932 0.203495
O O7 0.000000 0.257378 0.500000
O O8 0.055406 0.437277 0.158405
O O9 0.759459 0.374502 0.488931
O O10 0.000000 0.375715 0.500000
O O11 0.000000 0.500000 0.500000
O O12 0.000000 0.116862 0.000000
#
# Coordination Sequence:
#
# PCOD9222856 Si02
#       5
#     4   8   8   4   8
#     4   8  14  24  39  61  88 111 139 180 221 258
#     4   9  17  30  45  63  91 121 147 182 224 265
#     4   8  14  25  40  60  84 109 139 178 216 253
#     4   8  12  20  38  59  77 103 141 176 208 248
#     4   9  16  27  44  65  87 115 148 182 219 263
#
# _framework density 26.142976999999998
#
# number of rings (size 3 to 8) (size 9 to 14) (size 15 to 20)
#    0.000    3.500    0.000    0.000    0.000    0.000 
#    0.000   11.875    0.000    0.000    0.000    0.875 
#    0.000    0.000    0.000   20.500    0.000    0.000 
#
# Total GULP energy -89130.703855 kJ/mol
# GULP energy per Si atom -5570.668991 kJ/mol
# Density = 2.608347 g / cm^3
# Si number density = 26.142977 Si / 1000 Ang^3
#
#
#
# Elastic Constant Matrix: (Units=GPa)
#
#
# Indices 1 2 3 4 5 6 
#
# 1 103.9071 17.6043 41.1311 0.0000 -27.6417 0.0000
# 2 17.6043 432.8416 18.7357 0.0000 -3.9399 0.0000
# 3 41.1311 18.7357 31.6441 0.0000 -3.6037 0.0000
# 4 0.0000 0.0000 0.0000 13.4129 0.0000 -9.0926
# 5 -27.6417 -3.9399 -3.6037 0.0000 56.6975 0.0000
# 6 0.0000 0.0000 0.0000 -9.0926 0.0000 57.8422
#
#
#
# Elastic Compliance Matrix: (Units=1/GPa)
#
#
# Indices 1 2 3 4 5 6 
#
# 1 0.024421 0.000433 -0.030863 0.000000 0.009974 0.000000
# 2 0.000433 0.002379 -0.001943 0.000000 0.000253 0.000000
# 3 -0.030863 -0.001943 0.071658 0.000000 -0.010627 0.000000
# 4 0.000000 0.000000 0.000000 0.083447 0.000000 0.013118
# 5 0.009974 0.000253 -0.010627 0.000000 0.021842 0.000000
# 6 0.000000 0.000000 0.000000 0.013118 0.000000 0.019350
#
#
# Mechanical properties :
#
#
# Convention : Reuss Voigt Hill
#
# Bulk Modulus (GPa) = 29.66301 80.37057 55.01679
# Shear Modulus (GPa) = 16.71783 58.31866 37.51824
#
# Velocity S-wave (km/s) = 2.53153 4.72821 3.79240
# Velocity P-wave (km/s) = 4.46273 7.78572 6.34560
#
# Compressibility (1/GPa) = 0.03371203
#
# Stress axis : x y z
#
# Youngs Moduli (GPa) = 40.94828 420.32690 13.95518
#
# Poissons Ratio (x) = -0.18220 0.43070
# Poissons Ratio (y) = -0.01775 0.02712
# Poissons Ratio (z) = 1.26380 0.81679
#
# Static dielectric constant tensor:
#      x y z
#    x 1.970030 0.000000 0.014540 
#    y 0.000000 2.263200 0.000000 
#    z 0.014540 0.000000 1.940800 
# 
# From -- ./inp_files/6569.got.cif
#   From: 2010.05.17/outbox.cif.g08.bks.cpg/sg12_4_cif.got.tgz:6569.got - 2010.06.03 13:09:07.
