data_PCOD9222068
_publ_section_title
;
Structure prediction by ZEFSAII (Michael W. Deem and Ramdas Pophale) SiO2 
 PCOD9222068
Probable space group: C 2/M
;
_chemical_formula_sum "Si O2"
_cell_formula_units_Z 36
_cell_length_a 13.877130
_cell_length_b 14.444153
_cell_length_c 22.446825
_cell_angle_alpha 90.000000
_cell_angle_beta 157.966260
_cell_angle_gamma 90.000000
_cell_volume 1687.930377
_symmetry_space_group_name_H-M "C 2/M"
_symmetry_group_IT_number 12
_symmetry_cell_setting 'monoclinic'
loop_
_space_group_symop_operation_xyz
x,y,z
-x,y,-z
-x,-y,-z
x,-y,z
1/2+x,1/2+y,z
1/2-x,1/2+y,-z
1/2-x,1/2-y,-z
1/2+x,1/2-y,z
loop_
_atom_site_type_symbol
_atom_site_label
_atom_site_fract_x
_atom_site_fract_y
_atom_site_fract_z
Si Si1 0.878623 0.397158 0.554612
Si Si2 0.482050 0.200872 0.826052
Si Si3 0.790633 0.704060 0.164191
Si Si4 0.000000 0.680479 0.500000
Si Si5 0.291100 0.393629 0.220819
O O1 0.978035 0.500000 0.623215
O O2 0.881585 0.378210 0.486012
O O3 0.588518 0.390294 0.411407
O O4 0.055375 0.324763 0.689355
O O5 0.568043 0.161018 0.811516
O O6 0.386297 0.137685 0.825592
O O7 0.235056 0.262654 0.664858
O O8 0.750000 0.250000 0.000000
O O9 0.778647 0.816524 0.161234
O O10 0.500000 0.670917 0.000000
O O11 0.241959 0.500000 0.174888
#
# Coordination Sequence:
#
# PCOD9222068 Si02
#       5
#     8   8   8   4   8
#     4  11  24  42  69 103 136 182 235 286 347 414
#     4  12  24  42  70 102 135 182 229 284 350 412
#     4  12  23  44  70  96 140 183 228 285 353 411
#     4  12  21  42  71  94 140 182 233 282 347 410
#     4  11  24  44  69 101 134 178 232 284 339 409
#
# _framework density 21.327893
#
# number of rings (size 3 to 8) (size 9 to 14) (size 15 to 20)
#    0.000    0.444    6.667    2.333    0.000    1.778 
#    0.000    7.222    0.000    0.000    0.000    0.000 
#    0.000    0.000    0.000    0.000    0.000    0.000 
#
# Total GULP energy -100465.307592 kJ/mol
# GULP energy per Si atom -5581.405977 kJ/mol
# Density = 2.127935 g / cm^3
# Si number density = 21.327893 Si / 1000 Ang^3
#
#
#
# Elastic Constant Matrix: (Units=GPa)
#
#
# Indices 1 2 3 4 5 6 
#
# 1 133.0749 12.6846 23.8071 0.0039 14.6735 -0.0008
# 2 12.6846 73.8540 37.4783 0.0323 5.0596 -0.0057
# 3 23.8071 37.4783 130.6536 0.0556 10.8523 -0.0083
# 4 0.0039 0.0323 0.0556 6.8470 -0.0061 11.4648
# 5 14.6735 5.0596 10.8523 -0.0061 43.3494 -0.0019
# 6 -0.0008 -0.0057 -0.0083 11.4648 -0.0019 21.0256
#
#
#
# Elastic Compliance Matrix: (Units=1/GPa)
#
#
# Indices 1 2 3 4 5 6 
#
# 1 0.008032 -0.000672 -0.001074 0.000070 -0.002372 -0.000039
# 2 -0.000672 0.015926 -0.004402 -0.000503 -0.000529 0.000277
# 3 -0.001074 -0.004402 0.009232 -0.000675 -0.001434 0.000370
# 4 0.000070 -0.000503 -0.000675 1.679345 0.000402 -0.915712
# 5 -0.002372 -0.000529 -0.001434 0.000402 0.024292 -0.000218
# 6 -0.000039 0.000277 0.000370 -0.915712 -0.000218 0.546880
#
#
# Mechanical properties :
#
#
# Convention : Reuss Voigt Hill
#
# Bulk Modulus (GPa) = 47.86003 53.94695 50.90349
# Shear Modulus (GPa) = 2.17111 31.81857 16.99484
#
# Velocity S-wave (km/s) = 1.01004 3.86667 2.82589
# Velocity P-wave (km/s) = 4.88355 6.72933 5.87932
#
# Compressibility (1/GPa) = 0.02089426
#
# Stress axis : x y z
#
# Youngs Moduli (GPa) = 124.49818 62.79087 108.32424
#
# Poissons Ratio (x) = 0.04221 0.11632
# Poissons Ratio (y) = 0.08369 0.47681
# Poissons Ratio (z) = 0.13369 0.27639
#
# Static dielectric constant tensor:
#      x y z
#    x 1.807690 0.000000 -0.010950 
#    y 0.000000 1.778970 -0.000010 
#    z -0.010950 -0.000010 1.813450 
# 
# From -- ./inp_files/141715.got.cif
#   From: 2010.05.17/outbox.cif.g08.bks.cpg/sg12_71_cif.got.tgz:141715.got - 2010.06.03 13:09:07.
