data_PCOD9222348
_publ_section_title
;
Structure prediction by ZEFSAII (Michael W. Deem and Ramdas Pophale) SiO2 
 PCOD9222348
Probable space group: C 2/M
;
_chemical_formula_sum "Si O2"
_cell_formula_units_Z 44
_cell_length_a 17.445935
_cell_length_b 14.521606
_cell_length_c 24.783950
_cell_angle_alpha 90.000000
_cell_angle_beta 21.315268
_cell_angle_gamma 90.000000
_cell_volume 2282.355187
_symmetry_space_group_name_H-M "C 2/M"
_symmetry_group_IT_number 12
_symmetry_cell_setting 'monoclinic'
loop_
_space_group_symop_operation_xyz
x,y,z
-x,y,-z
-x,-y,-z
x,-y,z
1/2+x,1/2+y,z
1/2-x,1/2+y,-z
1/2-x,1/2-y,-z
1/2+x,1/2-y,z
loop_
_atom_site_type_symbol
_atom_site_label
_atom_site_fract_x
_atom_site_fract_y
_atom_site_fract_z
Si Si1 0.648519 0.000000 0.290664
Si Si2 0.084868 0.168777 0.595172
Si Si3 0.249240 0.690906 0.163461
Si Si4 0.799740 0.108370 0.599323
Si Si5 0.476330 0.500000 0.867942
Si Si6 0.348243 0.500000 0.368432
Si Si7 0.332565 0.170452 0.907910
O O1 0.684315 0.907164 0.232145
O O2 0.406517 0.000000 0.468598
O O3 0.820853 0.000000 0.225521
O O4 0.250000 0.250000 0.500000
O O5 0.156456 0.122844 0.492562
O O6 0.864365 0.222828 0.733717
O O7 0.085912 0.090871 0.640710
O O8 0.175444 0.694015 0.149995
O O9 0.500000 0.697787 0.000000
O O10 0.575355 0.149827 0.762064
O O11 0.000000 0.147858 0.500000
O O12 0.786099 0.000000 0.619681
O O13 0.551554 0.500000 0.756631
O O14 0.326481 0.586165 0.978825
O O15 0.250000 0.250000 0.000000
#
# Coordination Sequence:
#
# PCOD9222348 Si02
#       7
#     4   8   8   8   4   4   8
#     4  12  23  44  75 101 134 177 225 288 340 409
#     4  12  24  45  71  97 132 181 222 280 333 400
#     4  12  25  43  70 103 136 177 225 276 342 404
#     4  11  25  46  70  95 130 180 233 275 325 400
#     4  12  26  42  66 106 141 172 218 284 354 393
#     4  12  25  47  67  99 143 174 229 277 341 403
#     4  12  25  43  67  99 142 180 220 274 340 406
#
# _framework density 19.278331000000001
#
# number of rings (size 3 to 8) (size 9 to 14) (size 15 to 20)
#    0.000    0.182    7.273    2.182    2.545    0.000 
#    0.000    0.455    0.000    0.000    0.000    0.000 
#    0.000    0.000    0.000    0.000    0.000    0.000 
#
# Total GULP energy -123042.689463 kJ/mol
# GULP energy per Si atom -5592.849521 kJ/mol
# Density = 1.923445 g / cm^3
# Si number density = 19.278331 Si / 1000 Ang^3
#
#
#
# Elastic Constant Matrix: (Units=GPa)
#
#
# Indices 1 2 3 4 5 6 
#
# 1 89.3004 16.6670 25.9183 -0.0875 -0.4630 -0.1051
# 2 16.6670 95.4849 30.4617 -0.0756 -2.5496 -0.4899
# 3 25.9183 30.4617 133.7964 -0.2587 -14.7997 -1.0933
# 4 -0.0875 -0.0756 -0.2587 28.4684 0.0911 -49.1282
# 5 -0.4630 -2.5496 -14.7997 0.0911 43.6011 0.2173
# 6 -0.1051 -0.4899 -1.0933 -49.1282 0.2173 -296.7859
#
#
#
# Elastic Compliance Matrix: (Units=1/GPa)
#
#
# Indices 1 2 3 4 5 6 
#
# 1 0.012071 -0.001461 -0.002079 0.000020 -0.000663 0.000002
# 2 -0.001461 0.011472 -0.002344 -0.000009 -0.000140 -0.000008
# 3 -0.002079 -0.002344 0.008720 0.000011 0.002801 -0.000027
# 4 0.000020 -0.000009 0.000011 0.027322 -0.000031 -0.004523
# 5 -0.000663 -0.000140 0.002801 -0.000031 0.023871 0.000013
# 6 0.000002 -0.000008 -0.000027 -0.004523 0.000013 -0.002621
#
#
# Mechanical properties :
#
#
# Convention : Reuss Voigt Hill
#
# Bulk Modulus (GPa) = 48.79556 51.63063 50.21309
# Shear Modulus (GPa) = 50.28383 -28.57429 10.85477
#
# Velocity S-wave (km/s) = 5.11270 -3.85411 2.37545
# Velocity P-wave (km/s) = 7.76009 2.65222 5.79885
#
# Compressibility (1/GPa) = 0.02049367
#
# Stress axis : x y z
#
# Youngs Moduli (GPa) = 82.84411 87.16828 114.67753
#
# Poissons Ratio (x) = 0.12739 0.23840
# Poissons Ratio (y) = 0.12107 0.26885
# Poissons Ratio (z) = 0.17222 0.20436
#
# Static dielectric constant tensor:
#      x y z
#    x 1.669850 -0.000010 -0.025030 
#    y -0.000010 1.641200 0.000050 
#    z -0.025030 0.000050 1.659040 
# 
# From -- ./inp_files/343962.got.cif
#   From: 2010.05.17/outbox.cif.g08.bks.cpg/sg12_172_cif.got.tgz:343962.got - 2010.06.03 13:09:07.
