data_PCOD9222828
_publ_section_title
;
Structure prediction by ZEFSAII (Michael W. Deem and Ramdas Pophale) SiO2 
 PCOD9222828
Probable space group: C 2/M
;
_chemical_formula_sum "Si O2"
_cell_formula_units_Z 24
_cell_length_a 8.197694
_cell_length_b 21.494220
_cell_length_c 6.755772
_cell_angle_alpha 90.000000
_cell_angle_beta 56.505316
_cell_angle_gamma 90.000000
_cell_volume 992.708258
_symmetry_space_group_name_H-M "C 2/M"
_symmetry_group_IT_number 12
_symmetry_cell_setting 'monoclinic'
loop_
_space_group_symop_operation_xyz
x,y,z
-x,y,-z
-x,-y,-z
x,-y,z
1/2+x,1/2+y,z
1/2-x,1/2+y,-z
1/2-x,1/2-y,-z
1/2+x,1/2-y,z
loop_
_atom_site_type_symbol
_atom_site_label
_atom_site_fract_x
_atom_site_fract_y
_atom_site_fract_z
Si Si1 0.809639 0.681079 0.908579
Si Si2 0.329380 0.874447 0.490064
Si Si3 0.442728 0.568308 0.804270
O O1 0.752916 0.671578 0.713547
O O2 0.041584 0.665417 0.747763
O O3 0.750000 0.750000 0.000000
O O4 0.700921 0.626951 0.101886
O O5 0.500000 0.911415 0.500000
O O6 0.146701 0.916039 0.556438
O O7 0.363731 0.500000 0.806299
O O8 0.500000 0.564559 0.000000
#
# Coordination Sequence:
#
# PCOD9222828 Si02
#       3
#     8   8   8
#     4   8  15  26  38  55  79 103 127 156 186 222
#     4   7  16  25  35  59  76 100 128 153 186 223
#     4   9  15  24  38  56  81 105 122 149 191 233
#
# _framework density 24.176286000000001
#
# number of rings (size 3 to 8) (size 9 to 14) (size 15 to 20)
#    2.000    1.667    0.000    0.000    0.000    3.333 
#    0.000    0.000    0.000    0.000    0.000    4.667 
#    0.000   22.667    0.000    0.000    0.000    0.000 
#
# Total GULP energy -66845.825645 kJ/mol
# GULP energy per Si atom -5570.485470 kJ/mol
# Density = 2.412126 g / cm^3
# Si number density = 24.176286 Si / 1000 Ang^3
#
#
#
# Elastic Constant Matrix: (Units=GPa)
#
#
# Indices 1 2 3 4 5 6 
#
# 1 73.7388 47.4854 18.2510 0.0000 -11.5762 0.0000
# 2 47.4854 240.9386 108.9482 0.0000 -27.3647 0.0000
# 3 18.2510 108.9482 162.8284 0.0000 -22.5681 0.0000
# 4 0.0000 0.0000 0.0000 24.5898 0.0000 0.6361
# 5 -11.5762 -27.3647 -22.5681 0.0000 34.6723 0.0000
# 6 0.0000 0.0000 0.0000 0.6361 0.0000 28.3232
#
#
#
# Elastic Compliance Matrix: (Units=1/GPa)
#
#
# Indices 1 2 3 4 5 6 
#
# 1 0.015893 -0.003091 0.000752 0.000000 0.003356 0.000000
# 2 -0.003091 0.006726 -0.003914 0.000000 0.001729 0.000000
# 3 0.000752 -0.003914 0.009104 0.000000 0.003088 0.000000
# 4 0.000000 0.000000 0.000000 0.040691 0.000000 -0.000914
# 5 0.003356 0.001729 0.003088 0.000000 0.033336 0.000000
# 6 0.000000 0.000000 0.000000 -0.000914 0.000000 0.035327
#
#
# Mechanical properties :
#
#
# Convention : Reuss Voigt Hill
#
# Bulk Modulus (GPa) = 52.03974 91.87500 71.95737
# Shear Modulus (GPa) = 31.25216 37.70512 34.47864
#
# Velocity S-wave (km/s) = 3.59928 3.95345 3.78052
# Velocity P-wave (km/s) = 6.23257 7.67622 6.99176
#
# Compressibility (1/GPa) = 0.01921608
#
# Stress axis : x y z
#
# Youngs Moduli (GPa) = 62.92200 148.67856 109.84048
#
# Poissons Ratio (x) = 0.45958 -0.08260
# Poissons Ratio (y) = 0.19450 0.42994
# Poissons Ratio (z) = -0.04732 0.58197
#
# Static dielectric constant tensor:
#      x y z
#    x 2.124940 0.000000 0.084920 
#    y 0.000000 1.834970 0.000000 
#    z 0.084920 0.000000 2.008420 
# 
# From -- ./inp_files/5476.got.cif
#   From: 2010.05.17/outbox.cif.g08.bks.cpg/sg12_3_cif.got.tgz:5476.got - 2010.06.03 13:09:07.
