data_PCOD9222230
_publ_section_title
;
Structure prediction by ZEFSAII (Michael W. Deem and Ramdas Pophale) SiO2 
 PCOD9222230
Probable space group: C 2/M
;
_chemical_formula_sum "Si O2"
_cell_formula_units_Z 42
_cell_length_a 14.289088
_cell_length_b 22.233850
_cell_length_c 6.178480
_cell_angle_alpha 90.000000
_cell_angle_beta 110.850835
_cell_angle_gamma 90.000000
_cell_volume 1834.361361
_symmetry_space_group_name_H-M "C 2/M"
_symmetry_group_IT_number 12
_symmetry_cell_setting 'monoclinic'
loop_
_space_group_symop_operation_xyz
x,y,z
-x,y,-z
-x,-y,-z
x,-y,z
1/2+x,1/2+y,z
1/2-x,1/2+y,-z
1/2-x,1/2-y,-z
1/2+x,1/2-y,z
loop_
_atom_site_type_symbol
_atom_site_label
_atom_site_fract_x
_atom_site_fract_y
_atom_site_fract_z
Si Si1 0.618346 0.171685 0.061291
Si Si2 0.594877 0.593014 0.726872
Si Si3 0.893240 0.434260 0.288791
Si Si4 0.000000 0.000000 0.000000
Si Si5 0.241145 0.892454 0.494215
Si Si6 0.620186 0.690928 0.067573
O O1 0.673865 0.144608 0.312672
O O2 0.652485 0.240413 0.062861
O O3 0.500000 0.175038 0.000000
O O4 0.627635 0.123095 0.877801
O O5 0.500000 0.606792 0.500000
O O6 0.676546 0.571464 0.619122
O O7 0.555342 0.551581 0.890102
O O8 0.640507 0.652563 0.869567
O O9 0.896684 0.500000 0.178913
O O10 0.800273 0.433997 0.376690
O O11 0.000000 0.427540 0.500000
O O12 0.172025 0.845165 0.306302
O O13 0.500000 0.689777 0.000000
#
# Coordination Sequence:
#
# PCOD9222230 Si02
#       6
#     8   8   8   2   8   8
#     4  11  25  46  76 108 147 198 251 314 376 441
#     4  12  25  47  74 104 148 191 240 302 369 440
#     4  11  26  49  74 108 153 196 258 314 375 448
#     4  12  26  48  72 110 152 190 244 298 362 452
#     4  12  25  46  75 111 143 203 248 307 377 448
#     4  11  24  47  73 110 151 191 251 311 373 451
#
# _framework density 22.896252
#
# number of rings (size 3 to 8) (size 9 to 14) (size 15 to 20)
#    0.000    0.571    4.762    2.000    1.333    6.476 
#    8.571    0.000    0.000    0.000    0.000    0.000 
#    0.000    0.000    0.000    0.000    0.000    0.000 
#
# Total GULP energy -117179.502216 kJ/mol
# GULP energy per Si atom -5579.976296 kJ/mol
# Density = 2.284414 g / cm^3
# Si number density = 22.896252 Si / 1000 Ang^3
#
#
#
# Elastic Constant Matrix: (Units=GPa)
#
#
# Indices 1 2 3 4 5 6 
#
# 1 115.8986 30.6542 45.6208 0.0000 -10.5295 0.0000
# 2 30.6542 189.9902 66.5654 0.0000 -7.8803 0.0000
# 3 45.6208 66.5654 91.8689 0.0000 4.3129 0.0000
# 4 0.0000 0.0000 0.0000 12.7924 0.0000 -11.2244
# 5 -10.5295 -7.8803 4.3129 0.0000 58.2330 0.0000
# 6 0.0000 0.0000 0.0000 -11.2244 0.0000 1.7234
#
#
#
# Elastic Compliance Matrix: (Units=1/GPa)
#
#
# Indices 1 2 3 4 5 6 
#
# 1 0.011073 0.000381 -0.005891 0.000000 0.002490 0.000000
# 2 0.000381 0.007173 -0.005454 0.000000 0.001443 0.000000
# 3 -0.005891 -0.005454 0.017909 0.000000 -0.003130 0.000000
# 4 0.000000 0.000000 0.000000 -0.016581 0.000000 -0.107989
# 5 0.002490 0.001443 -0.003130 0.000000 0.018050 0.000000
# 6 0.000000 0.000000 0.000000 -0.107989 0.000000 -0.123075
#
#
# Mechanical properties :
#
#
# Convention : Reuss Voigt Hill
#
# Bulk Modulus (GPa) = 70.29524 75.93759 73.11641
# Shear Modulus (GPa) = -85.06322 31.54426 -26.75948
#
# Velocity S-wave (km/s) = -6.10182 3.71577 -3.42237
# Velocity P-wave (km/s) = 4.34450 7.18660 4.04799
#
# Compressibility (1/GPa) = 0.01422571
#
# Stress axis : x y z
#
# Youngs Moduli (GPa) = 90.31185 139.41677 55.83645
#
# Poissons Ratio (x) = -0.05310 0.32896
# Poissons Ratio (y) = -0.03440 0.30453
# Poissons Ratio (z) = 0.53207 0.76039
#
# Static dielectric constant tensor:
#      x y z
#    x 1.901850 0.000000 -0.031950 
#    y 0.000000 1.823430 0.000000 
#    z -0.031950 0.000000 1.842120 
# 
# From -- ./inp_files/11680.got.cif
#   From: 2010.05.17/outbox.cif.g08.bks.cpg/sg12_6_cif.got.tgz:11680.got - 2010.06.03 13:09:07.
