data_PCOD9222311
_publ_section_title
;
Structure prediction by ZEFSAII (Michael W. Deem and Ramdas Pophale) SiO2 
 PCOD9222311
Probable space group: C 2/M
;
_chemical_formula_sum "Si O2"
_cell_formula_units_Z 30
_cell_length_a 7.533172
_cell_length_b 25.117728
_cell_length_c 7.927838
_cell_angle_alpha 90.000000
_cell_angle_beta 128.032795
_cell_angle_gamma 90.000000
_cell_volume 1181.546505
_symmetry_space_group_name_H-M "C 2/M"
_symmetry_group_IT_number 12
_symmetry_cell_setting 'monoclinic'
loop_
_space_group_symop_operation_xyz
x,y,z
-x,y,-z
-x,-y,-z
x,-y,z
1/2+x,1/2+y,z
1/2-x,1/2+y,-z
1/2-x,1/2-y,-z
1/2+x,1/2-y,z
loop_
_atom_site_type_symbol
_atom_site_label
_atom_site_fract_x
_atom_site_fract_y
_atom_site_fract_z
Si Si1 0.712772 0.061587 0.553509
Si Si2 0.500000 0.000000 0.000000
Si Si3 0.238468 0.310204 0.053981
Si Si4 0.287258 0.421136 0.933791
Si Si5 0.500000 0.639661 0.500000
O O1 0.424851 0.065774 0.333638
O O2 0.808947 0.102300 0.470393
O O3 0.748558 0.000000 0.521476
O O4 0.937045 0.068475 0.832249
O O5 0.665628 0.953813 0.012999
O O6 0.419361 0.323046 0.302402
O O7 0.250000 0.250000 0.000000
O O8 0.264902 0.357016 0.934259
O O9 0.000000 0.318354 0.000000
#
# Coordination Sequence:
#
# PCOD9222311 Si02
#       5
#     8   2   8   8   4
#     4  11  25  44  72 114 156 203 255 321 389 482
#     4  12  26  40  74 114 150 208 254 310 406 466
#     4  12  28  52  79 113 155 208 272 334 396 476
#     4  12  24  46  73 108 153 200 256 319 391 463
#     4  12  27  50  80 112 156 207 260 332 398 466
#
# _framework density 25.390453000000001
#
# number of rings (size 3 to 8) (size 9 to 14) (size 15 to 20)
#    0.000    0.267    5.333    3.200    0.000    1.067 
#    2.400    0.000    0.000    0.000    0.000    0.000 
#    0.000    0.000    0.000    0.000    0.000    0.000 
#
# Total GULP energy -83679.452738 kJ/mol
# GULP energy per Si atom -5578.630183 kJ/mol
# Density = 2.533266 g / cm^3
# Si number density = 25.390453 Si / 1000 Ang^3
#
#
#
# Elastic Constant Matrix: (Units=GPa)
#
#
# Indices 1 2 3 4 5 6 
#
# 1 228.2919 89.5626 50.1096 0.0000 54.7222 0.0000
# 2 89.5626 271.0164 71.9977 0.0000 2.9326 0.0000
# 3 50.1096 71.9977 167.5836 0.0000 5.1092 0.0000
# 4 0.0000 0.0000 0.0000 58.8526 0.0000 -27.9484
# 5 54.7222 2.9326 5.1092 0.0000 59.1056 0.0000
# 6 0.0000 0.0000 0.0000 -27.9484 0.0000 59.5934
#
#
#
# Elastic Compliance Matrix: (Units=1/GPa)
#
#
# Indices 1 2 3 4 5 6 
#
# 1 0.006830 -0.001917 -0.001032 0.000000 -0.006140 0.000000
# 2 -0.001917 0.004703 -0.001498 0.000000 0.001671 0.000000
# 3 -0.001032 -0.001498 0.006906 0.000000 0.000433 0.000000
# 4 0.000000 0.000000 0.000000 0.021860 0.000000 0.010252
# 5 -0.006140 0.001671 0.000433 0.000000 0.022483 0.000000
# 6 0.000000 0.000000 0.000000 0.010252 0.000000 0.021588
#
#
# Mechanical properties :
#
#
# Convention : Reuss Voigt Hill
#
# Bulk Modulus (GPa) = 104.75434 121.13684 112.94559
# Shear Modulus (GPa) = 51.84174 65.85845 58.85010
#
# Velocity S-wave (km/s) = 4.52351 5.09849 4.81958
# Velocity P-wave (km/s) = 8.28431 9.08144 8.69202
#
# Compressibility (1/GPa) = 0.00954614
#
# Stress axis : x y z
#
# Youngs Moduli (GPa) = 146.40272 212.62011 144.79661
#
# Poissons Ratio (x) = 0.40754 0.14939
# Poissons Ratio (y) = 0.28062 0.21697
# Poissons Ratio (z) = 0.15105 0.31859
#
# Static dielectric constant tensor:
#      x y z
#    x 1.996460 0.000000 -0.019700 
#    y 0.000000 1.876990 0.000000 
#    z -0.019700 0.000000 2.476980 
# 
# From -- ./inp_files/6554.got.cif
#   From: 2010.05.17/outbox.cif.g08.bks.cpg/sg12_4_cif.got.tgz:6554.got - 2010.06.03 13:09:07.
