data_PCOD9222988
_publ_section_title
;
Structure prediction by ZEFSAII (Michael W. Deem and Ramdas Pophale) SiO2 
 PCOD9222988
Probable space group: C 2/M
;
_chemical_formula_sum "Si O2"
_cell_formula_units_Z 56
_cell_length_a 20.127018
_cell_length_b 7.401136
_cell_length_c 25.793453
_cell_angle_alpha 90.000000
_cell_angle_beta 46.691337
_cell_angle_gamma 90.000000
_cell_volume 2795.897281
_symmetry_space_group_name_H-M "C 2/M"
_symmetry_group_IT_number 12
_symmetry_cell_setting 'monoclinic'
loop_
_space_group_symop_operation_xyz
x,y,z
-x,y,-z
-x,-y,-z
x,-y,z
1/2+x,1/2+y,z
1/2-x,1/2+y,-z
1/2-x,1/2-y,-z
1/2+x,1/2-y,z
loop_
_atom_site_type_symbol
_atom_site_label
_atom_site_fract_x
_atom_site_fract_y
_atom_site_fract_z
Si Si1 0.574683 0.287884 0.001517
Si Si2 0.719566 0.718059 0.439269
Si Si3 0.104253 0.789843 0.599108
Si Si4 0.855301 0.784721 0.928118
Si Si5 0.783907 0.780857 0.859521
Si Si6 0.096356 0.779362 0.298482
Si Si7 0.090572 0.220038 0.420243
O O1 0.552742 0.500000 0.018827
O O2 0.678617 0.273926 0.924438
O O3 0.500000 0.214494 0.000000
O O4 0.583553 0.214090 0.056330
O O5 0.718423 0.500000 0.441900
O O6 0.822123 0.775367 0.395231
O O7 0.654991 0.786474 0.520929
O O8 0.676270 0.775348 0.408800
O O9 0.004635 0.719881 0.665304
O O10 0.089996 0.000000 0.594040
O O11 0.851073 0.719984 0.870735
O O12 0.871021 0.000000 0.918108
O O13 0.750000 0.750000 0.000000
O O14 0.825963 0.719180 0.782614
O O15 0.783515 0.000000 0.861283
O O16 0.100032 0.720760 0.356232
O O17 0.101367 0.000000 0.295274
O O18 0.000000 0.277813 0.500000
O O19 0.086377 0.000000 0.421404
#
# Coordination Sequence:
#
# PCOD9222988 Si02
#       7
#     8   8   8   8   8   8   8
#     4   9  17  30  48  68  90 118 148 175 209 262
#     4   9  16  26  43  64  83 106 144 188 220 251
#     4   9  16  27  43  62  85 112 141 177 221 264
#     4   8  14  26  44  64  85 110 142 174 206 248
#     4   9  17  29  46  68  91 114 144 185 224 256
#     4   9  16  27  44  65  88 115 149 186 223 261
#     4   9  14  24  43  65  85 112 153 191 218 254
#
# _framework density 20.029349
#
# number of rings (size 3 to 8) (size 9 to 14) (size 15 to 20)
#    0.000    3.143    1.429    0.000    0.000    0.286 
#    0.000    2.143    0.000    3.857    0.000    0.000 
#    0.000    0.000    0.000    0.000    0.000    0.000 
#
# Total GULP energy -155896.921326 kJ/mol
# GULP energy per Si atom -5567.747190 kJ/mol
# Density = 1.998376 g / cm^3
# Si number density = 20.029349 Si / 1000 Ang^3
#
#
#
# Elastic Constant Matrix: (Units=GPa)
#
#
# Indices 1 2 3 4 5 6 
#
# 1 173.3628 -5.9322 60.0226 0.0004 10.9192 -0.0013
# 2 -5.9322 63.5594 -5.8742 0.0043 1.8429 -0.0013
# 3 60.0226 -5.8742 85.8384 -0.0001 16.1914 -0.0001
# 4 0.0004 0.0043 -0.0001 0.4306 -0.0001 -1.4089
# 5 10.9192 1.8429 16.1914 -0.0001 27.7393 0.0004
# 6 -0.0013 -0.0013 -0.0001 -1.4089 0.0004 5.0360
#
#
#
# Elastic Compliance Matrix: (Units=1/GPa)
#
#
# Indices 1 2 3 4 5 6 
#
# 1 0.007614 0.000215 -0.005328 -0.000054 0.000098 -0.000013
# 2 0.000215 0.015929 0.001298 -0.001716 -0.001901 -0.000476
# 3 -0.005328 0.001298 0.016951 -0.000085 -0.007883 -0.000024
# 4 -0.000054 -0.001716 -0.000085 27.390809 0.000199 7.662710
# 5 0.000098 -0.001901 -0.007883 0.000199 0.040739 0.000051
# 6 -0.000013 -0.000476 -0.000024 7.662710 0.000051 2.342249
#
#
# Mechanical properties :
#
#
# Convention : Reuss Voigt Hill
#
# Bulk Modulus (GPa) = 30.42791 46.57701 38.50246
# Shear Modulus (GPa) = 0.16760 24.94416 12.55588
#
# Velocity S-wave (km/s) = 0.28958 3.53282 2.50646
# Velocity P-wave (km/s) = 3.91618 6.32028 5.25749
#
# Compressibility (1/GPa) = 0.03286457
#
# Stress axis : x y z
#
# Youngs Moduli (GPa) = 131.33512 62.78023 58.99279
#
# Poissons Ratio (x) = -0.01352 0.31431
# Poissons Ratio (y) = -0.02829 -0.07657
# Poissons Ratio (z) = 0.69975 -0.08149
#
# Static dielectric constant tensor:
#      x y z
#    x 1.740130 0.000000 0.032780 
#    y 0.000000 1.773320 0.000000 
#    z 0.032780 0.000000 1.687340 
# 
# From -- ./inp_files/342886.got.cif
#   From: 2010.05.17/outbox.cif.g08.bks.cpg/sg12_172_cif.got.tgz:342886.got - 2010.06.03 13:09:07.
