data_PCOD9222417
_publ_section_title
;
Structure prediction by ZEFSAII (Michael W. Deem and Ramdas Pophale) SiO2 
 PCOD9222417
Probable space group: C 2/M
;
_chemical_formula_sum "Si O2"
_cell_formula_units_Z 36
_cell_length_a 7.257957
_cell_length_b 14.599149
_cell_length_c 14.383332
_cell_angle_alpha 90.000000
_cell_angle_beta 120.393271
_cell_angle_gamma 90.000000
_cell_volume 1314.611248
_symmetry_space_group_name_H-M "C 2/M"
_symmetry_group_IT_number 12
_symmetry_cell_setting 'monoclinic'
loop_
_space_group_symop_operation_xyz
x,y,z
-x,y,-z
-x,-y,-z
x,-y,z
1/2+x,1/2+y,z
1/2-x,1/2+y,-z
1/2-x,1/2-y,-z
1/2+x,1/2-y,z
loop_
_atom_site_type_symbol
_atom_site_label
_atom_site_fract_x
_atom_site_fract_y
_atom_site_fract_z
Si Si1 0.775462 0.000000 0.662242
Si Si2 0.229918 0.897567 0.012363
Si Si3 0.948949 0.154216 0.210539
Si Si4 0.731717 0.640059 0.512507
Si Si5 0.915986 0.359478 0.744995
O O1 0.741585 0.080690 0.572735
O O2 0.870442 0.079536 0.758337
O O3 0.216648 0.834736 0.917594
O O4 0.252696 0.000000 0.979148
O O5 0.000000 0.886349 0.000000
O O6 0.905399 0.388177 0.136433
O O7 0.807153 0.120674 0.260714
O O8 0.500000 0.624964 0.500000
O O9 0.750000 0.750000 0.500000
O O10 0.556242 0.750743 0.255922
O O11 0.898981 0.606298 0.635004
#
# Coordination Sequence:
#
# PCOD9222417 Si02
#       5
#     4   8   8   8   8
#     4  12  25  44  73 104 144 186 238 289 348 421
#     4  11  26  45  71 106 143 180 233 299 358 419
#     4  12  25  46  74 102 144 183 237 291 360 417
#     4  12  25  46  72 104 144 186 236 289 346 419
#     4  12  25  44  74 102 141 186 237 285 354 424
#
# _framework density 27.384519999999998
#
# number of rings (size 3 to 8) (size 9 to 14) (size 15 to 20)
#    0.000    0.222    5.556    3.000    3.111    0.889 
#    0.000    0.556    0.000    0.000    0.000    0.000 
#    0.000    0.000    0.000    0.000    0.000    0.000 
#
# Total GULP energy -100501.028097 kJ/mol
# GULP energy per Si atom -5583.390450 kJ/mol
# Density = 2.732219 g / cm^3
# Si number density = 27.384520 Si / 1000 Ang^3
#
#
#
# Elastic Constant Matrix: (Units=GPa)
#
#
# Indices 1 2 3 4 5 6 
#
# 1 112.0097 -38.9433 13.4962 0.0000 5.9108 0.0000
# 2 -38.9433 119.9566 8.1373 0.0000 4.4766 0.0000
# 3 13.4962 8.1373 230.3768 0.0000 11.0039 0.0000
# 4 0.0000 0.0000 0.0000 60.6997 0.0000 -18.5580
# 5 5.9108 4.4766 11.0039 0.0000 50.9502 0.0000
# 6 0.0000 0.0000 0.0000 -18.5580 0.0000 -48.3565
#
#
#
# Elastic Compliance Matrix: (Units=1/GPa)
#
#
# Indices 1 2 3 4 5 6 
#
# 1 0.010271 0.003429 -0.000658 0.000000 -0.001351 0.000000
# 2 0.003429 0.009525 -0.000483 0.000000 -0.001130 0.000000
# 3 -0.000658 -0.000483 0.004436 0.000000 -0.000839 0.000000
# 4 0.000000 0.000000 0.000000 0.014745 0.000000 -0.005659
# 5 -0.001351 -0.001130 -0.000839 0.000000 0.020064 0.000000
# 6 0.000000 0.000000 0.000000 -0.005659 0.000000 -0.018508
#
#
# Mechanical properties :
#
#
# Convention : Reuss Voigt Hill
#
# Bulk Modulus (GPa) = 34.71340 47.52483 41.11911
# Shear Modulus (GPa) = 109.74668 44.63553 77.19111
#
# Velocity S-wave (km/s) = 6.33744 4.04165 5.31498
# Velocity P-wave (km/s) = 8.13970 6.25877 7.26040
#
# Compressibility (1/GPa) = 0.02880732
#
# Stress axis : x y z
#
# Youngs Moduli (GPa) = 97.36412 104.99065 225.40581
#
# Poissons Ratio (x) = -0.36006 0.14839
# Poissons Ratio (y) = -0.33390 0.10895
# Poissons Ratio (z) = 0.06410 0.05075
#
# Static dielectric constant tensor:
#      x y z
#    x 2.235610 0.000000 0.033540 
#    y 0.000000 2.078720 0.000000 
#    z 0.033540 0.000000 2.133650 
# 
# From -- ./inp_files/195127.got.cif
#   From: 2010.05.17/outbox.cif.g08.bks.cpg/sg12_98_cif.got.tgz:195127.got - 2010.06.03 13:09:07.
