data_PCOD9222898
_publ_section_title
;
Structure prediction by ZEFSAII (Michael W. Deem and Ramdas Pophale) SiO2 
 PCOD9222898
Probable space group: C 2/M
;
_chemical_formula_sum "Si O2"
_cell_formula_units_Z 48
_cell_length_a 14.944480
_cell_length_b 31.714552
_cell_length_c 7.133750
_cell_angle_alpha 90.000000
_cell_angle_beta 41.652570
_cell_angle_gamma 90.000000
_cell_volume 2247.115976
_symmetry_space_group_name_H-M "C 2/M"
_symmetry_group_IT_number 12
_symmetry_cell_setting 'monoclinic'
loop_
_space_group_symop_operation_xyz
x,y,z
-x,y,-z
-x,-y,-z
x,-y,z
1/2+x,1/2+y,z
1/2-x,1/2+y,-z
1/2-x,1/2-y,-z
1/2+x,1/2-y,z
loop_
_atom_site_type_symbol
_atom_site_label
_atom_site_fract_x
_atom_site_fract_y
_atom_site_fract_z
Si Si1 0.823011 0.717794 0.100226
Si Si2 0.127393 0.713101 0.525221
Si Si3 0.361879 0.117930 0.459836
Si Si4 0.653580 0.548104 0.750826
Si Si5 0.828569 0.376840 0.059261
Si Si6 0.342096 0.454488 0.700919
O O1 0.844266 0.715807 0.294367
O O2 0.715208 0.755212 0.263134
O O3 0.780944 0.671004 0.101919
O O4 0.968186 0.723328 0.774128
O O5 0.163446 0.664697 0.420026
O O6 0.262180 0.079880 0.667875
O O7 0.341523 0.120737 0.265779
O O8 0.520819 0.112517 0.245505
O O9 0.655555 0.500000 0.823043
O O10 0.679053 0.544594 0.489545
O O11 0.500000 0.564382 0.000000
O O12 0.730728 0.411759 0.129705
O O13 0.500000 0.452365 0.500000
O O14 0.290764 0.500000 0.851659
#
# Coordination Sequence:
#
# PCOD9222898 Si02
#       6
#     8   8   8   8   8   8
#     4   8  13  22  34  52  82 111 137 175 220 258
#     4   8  13  22  33  53  83 110 138 175 217 258
#     4   8  14  25  39  60  85 113 142 177 218 260
#     4   9  17  29  43  63  93 119 139 177 227 264
#     4   8  14  25  41  59  85 110 141 185 220 249
#     4   9  17  29  45  65  87 114 150 183 212 258
#
# _framework density 21.360711999999999
#
# number of rings (size 3 to 8) (size 9 to 14) (size 15 to 20)
#    0.000    3.667    0.000    2.000    0.000    0.667 
#   12.000    3.333    0.000    1.000    0.000    9.333 
#    0.000    0.000    0.000    0.000    0.000    0.000 
#
# Total GULP energy -133725.929759 kJ/mol
# GULP energy per Si atom -5571.913740 kJ/mol
# Density = 2.131209 g / cm^3
# Si number density = 21.360712 Si / 1000 Ang^3
#
#
#
# Elastic Constant Matrix: (Units=GPa)
#
#
# Indices 1 2 3 4 5 6 
#
# 1 66.5194 36.0134 18.2683 0.0000 13.2759 0.0000
# 2 36.0134 215.8284 110.9381 0.0000 -48.9955 0.0000
# 3 18.2683 110.9381 90.3602 0.0000 -14.6104 0.0000
# 4 0.0000 0.0000 0.0000 35.0586 0.0000 -25.5116
# 5 13.2759 -48.9955 -14.6104 0.0000 39.2792 0.0000
# 6 0.0000 0.0000 0.0000 -25.5116 0.0000 10.7355
#
#
#
# Elastic Compliance Matrix: (Units=1/GPa)
#
#
# Indices 1 2 3 4 5 6 
#
# 1 0.023911 -0.012174 0.006757 0.000000 -0.020754 0.000000
# 2 -0.012174 0.024891 -0.023847 0.000000 0.026293 0.000000
# 3 0.006757 -0.023847 0.035962 0.000000 -0.018653 0.000000
# 4 0.000000 0.000000 0.000000 -0.039114 0.000000 -0.092949
# 5 -0.020754 0.026293 -0.018653 0.000000 0.058332 0.000000
# 6 0.000000 0.000000 0.000000 -0.092949 0.000000 -0.127732
#
#
# Mechanical properties :
#
#
# Convention : Reuss Voigt Hill
#
# Bulk Modulus (GPa) = 38.11600 78.12750 58.12175
# Shear Modulus (GPa) = 114.87618 30.84721 72.86169
#
# Velocity S-wave (km/s) = 7.34139 3.80427 5.84672
# Velocity P-wave (km/s) = 9.47333 7.48006 8.53508
#
# Compressibility (1/GPa) = 0.02623570
#
# Stress axis : x y z
#
# Youngs Moduli (GPa) = 41.82208 40.17482 27.80678
#
# Poissons Ratio (x) = 0.48911 -0.18789
# Poissons Ratio (y) = 0.50916 0.66311
# Poissons Ratio (z) = -0.28260 0.95805
#
# Static dielectric constant tensor:
#      x y z
#    x 1.835400 0.000000 0.053180 
#    y 0.000000 1.785590 0.000000 
#    z 0.053180 0.000000 1.766840 
# 
# From -- ./inp_files/170731.got.cif
#   From: 2010.05.17/outbox.cif.g08.bks.cpg/sg12_86_cif.got.tgz:170731.got - 2010.06.03 13:09:07.
