data_PCOD9222062
_publ_section_title
;
Structure prediction by ZEFSAII (Michael W. Deem and Ramdas Pophale) SiO2 
 PCOD9222062
Probable space group: C 2/M
;
_chemical_formula_sum "Si O2"
_cell_formula_units_Z 40
_cell_length_a 10.305958
_cell_length_b 13.917817
_cell_length_c 12.022664
_cell_angle_alpha 90.000000
_cell_angle_beta 75.510975
_cell_angle_gamma 90.000000
_cell_volume 1669.641754
_symmetry_space_group_name_H-M "C 2/M"
_symmetry_group_IT_number 12
_symmetry_cell_setting 'monoclinic'
loop_
_space_group_symop_operation_xyz
x,y,z
-x,y,-z
-x,-y,-z
x,-y,z
1/2+x,1/2+y,z
1/2-x,1/2+y,-z
1/2-x,1/2-y,-z
1/2+x,1/2-y,z
loop_
_atom_site_type_symbol
_atom_site_label
_atom_site_fract_x
_atom_site_fract_y
_atom_site_fract_z
Si Si1 0.230880 0.605663 0.967411
Si Si2 0.733539 0.500000 0.514124
Si Si3 0.097741 0.788676 0.224211
Si Si4 0.569756 0.500000 0.332937
Si Si5 0.153642 0.301012 0.435427
Si Si6 0.012784 0.394702 0.816577
O O1 0.297314 0.500000 0.958165
O O2 0.334714 0.687827 0.909975
O O3 0.125083 0.603617 0.887636
O O4 0.134917 0.610595 0.094925
O O5 0.698989 0.500000 0.388833
O O6 0.579198 0.500000 0.585500
O O7 0.812718 0.410750 0.547602
O O8 0.072562 0.897229 0.270769
O O9 0.180128 0.737344 0.305596
O O10 0.979909 0.709395 0.241389
O O11 0.250000 0.250000 0.500000
O O12 0.000000 0.278426 0.500000
O O13 0.018155 0.500000 0.757211
#
# Coordination Sequence:
#
# PCOD9222062 Si02
#       6
#     8   4   8   4   8   8
#     4   9  19  40  63  92 125 172 214 271 329 399
#     4  11  25  48  62  93 136 174 230 280 341 385
#     4  12  23  38  66  95 126 173 221 268 334 401
#     4  11  24  42  68  91 133 188 219 278 335 411
#     4  12  27  45  69  99 136 177 223 281 335 398
#     4   9  21  39  64  92 129 163 219 276 330 387
#
# _framework density 23.957234
#
# number of rings (size 3 to 8) (size 9 to 14) (size 15 to 20)
#    0.000    1.400    3.000    3.300    7.000    0.000 
#    0.000    0.000    0.000    1.200    0.000    0.000 
#    0.000    0.000    0.000    0.000    0.000    0.000 
#
# Total GULP energy -111526.165517 kJ/mol
# GULP energy per Si atom -5576.308276 kJ/mol
# Density = 2.390271 g / cm^3
# Si number density = 23.957234 Si / 1000 Ang^3
#
#
#
# Elastic Constant Matrix: (Units=GPa)
#
#
# Indices 1 2 3 4 5 6 
#
# 1 77.3851 20.2796 14.1875 0.0000 -17.7999 0.0000
# 2 20.2796 203.3467 8.8587 0.0000 -4.1678 0.0000
# 3 14.1875 8.8587 52.6670 0.0000 -13.2970 0.0000
# 4 0.0000 0.0000 0.0000 -49.9618 0.0000 80.1799
# 5 -17.7999 -4.1678 -13.2970 0.0000 27.0916 0.0000
# 6 0.0000 0.0000 0.0000 80.1799 0.0000 -31.0992
#
#
#
# Elastic Compliance Matrix: (Units=1/GPa)
#
#
# Indices 1 2 3 4 5 6 
#
# 1 0.015709 -0.001303 -0.001663 0.000000 0.009304 0.000000
# 2 -0.001303 0.005066 -0.000594 0.000000 -0.000369 0.000000
# 3 -0.001663 -0.000594 0.021957 0.000000 0.009593 0.000000
# 4 0.000000 0.000000 0.000000 0.006379 0.000000 0.016447
# 5 0.009304 -0.000369 0.009593 0.000000 0.047677 0.000000
# 6 0.000000 0.000000 0.000000 0.016447 0.000000 0.010248
#
#
# Mechanical properties :
#
#
# Convention : Reuss Voigt Hill
#
# Bulk Modulus (GPa) = 28.08170 46.67228 37.37699
# Shear Modulus (GPa) = 39.67356 8.54432 24.10894
#
# Velocity S-wave (km/s) = 4.07383 1.89056 3.17572
# Velocity P-wave (km/s) = 5.82024 4.92843 5.39280
#
# Compressibility (1/GPa) = 0.03561038
#
# Stress axis : x y z
#
# Youngs Moduli (GPa) = 63.65737 197.39327 45.54335
#
# Poissons Ratio (x) = 0.25730 0.07576
# Poissons Ratio (y) = 0.08298 0.02706
# Poissons Ratio (z) = 0.10589 0.11726
#
# Static dielectric constant tensor:
#      x y z
#    x 1.869230 0.000000 -0.015610 
#    y 0.000000 1.917910 0.000000 
#    z -0.015610 0.000000 2.093810 
# 
# From -- ./inp_files/203054.got.cif
#   From: 2010.05.17/outbox.cif.g08.bks.cpg/sg12_102_cif.got.tgz:203054.got - 2010.06.03 13:09:07.
