data_PCOD9222714
_publ_section_title
;
Structure prediction by ZEFSAII (Michael W. Deem and Ramdas Pophale) SiO2 
 PCOD9222714
Probable space group: C 2/M
;
_chemical_formula_sum "Si O2"
_cell_formula_units_Z 44
_cell_length_a 10.258283
_cell_length_b 26.755678
_cell_length_c 9.528101
_cell_angle_alpha 90.000000
_cell_angle_beta 59.849074
_cell_angle_gamma 90.000000
_cell_volume 2261.336127
_symmetry_space_group_name_H-M "C 2/M"
_symmetry_group_IT_number 12
_symmetry_cell_setting 'monoclinic'
loop_
_space_group_symop_operation_xyz
x,y,z
-x,y,-z
-x,-y,-z
x,-y,z
1/2+x,1/2+y,z
1/2-x,1/2+y,-z
1/2-x,1/2-y,-z
1/2+x,1/2-y,z
loop_
_atom_site_type_symbol
_atom_site_label
_atom_site_fract_x
_atom_site_fract_y
_atom_site_fract_z
Si Si1 0.000000 0.375148 0.500000
Si Si2 0.875549 0.150130 0.688356
Si Si3 0.082833 0.229072 0.104105
Si Si4 0.910050 0.941023 0.837708
Si Si5 0.239453 0.059589 0.780425
Si Si6 0.849754 0.704840 0.382451
O O1 0.884113 0.409045 0.652968
O O2 0.894281 0.338281 0.466494
O O3 0.922089 0.177729 0.806472
O O4 0.852490 0.092916 0.742492
O O5 0.734053 0.179110 0.702075
O O6 0.000000 0.154546 0.500000
O O7 0.998353 0.269061 0.245926
O O8 0.250000 0.250000 0.000000
O O9 0.000000 0.224118 0.000000
O O10 0.087482 0.930080 0.771800
O O11 0.897918 0.000000 0.817274
O O12 0.814442 0.930232 0.030738
O O13 0.269522 0.000000 0.753036
O O14 0.750000 0.750000 0.500000
#
# Coordination Sequence:
#
# PCOD9222714 Si02
#       6
#     4   8   8   8   8   8
#     4  12  25  38  70  94 132 178 219 274 342 398
#     4  12  24  41  68  97 133 174 226 278 338 396
#     4  12  27  43  67  96 132 176 225 279 335 403
#     4   9  21  41  68  96 130 171 221 277 331 401
#     4   9  20  41  66  98 131 170 222 270 330 409
#     4  12  26  44  61  95 135 174 221 277 333 400
#
# _framework density 19.457522999999998
#
# number of rings (size 3 to 8) (size 9 to 14) (size 15 to 20)
#    0.000    1.091    3.636    3.545    5.091    0.364 
#    0.000    1.818    0.000    2.182    0.000    0.000 
#    0.000    0.000    0.000    0.000    0.000    0.000 
#
# Total GULP energy -122938.939048 kJ/mol
# GULP energy per Si atom -5588.133593 kJ/mol
# Density = 1.941324 g / cm^3
# Si number density = 19.457523 Si / 1000 Ang^3
#
#
#
# Elastic Constant Matrix: (Units=GPa)
#
#
# Indices 1 2 3 4 5 6 
#
# 1 79.4151 50.3867 46.0244 0.0000 -12.1293 0.0000
# 2 50.3867 105.5209 54.3854 0.0000 -12.3933 0.0000
# 3 46.0244 54.3854 92.4476 0.0000 -25.9459 0.0000
# 4 0.0000 0.0000 0.0000 43.4110 0.0000 16.3034
# 5 -12.1293 -12.3933 -25.9459 0.0000 43.8035 0.0000
# 6 0.0000 0.0000 0.0000 16.3034 0.0000 11.3504
#
#
#
# Elastic Compliance Matrix: (Units=1/GPa)
#
#
# Indices 1 2 3 4 5 6 
#
# 1 0.020362 -0.006458 -0.006319 0.000000 0.000068 0.000000
# 2 -0.006458 0.015691 -0.006322 0.000000 -0.001094 0.000000
# 3 -0.006319 -0.006322 0.020016 0.000000 0.008318 0.000000
# 4 0.000000 0.000000 0.000000 0.050017 0.000000 -0.071843
# 5 0.000068 -0.001094 0.008318 0.000000 0.027465 0.000000
# 6 0.000000 0.000000 0.000000 -0.071843 0.000000 0.191295
#
#
# Mechanical properties :
#
#
# Convention : Reuss Voigt Hill
#
# Bulk Modulus (GPa) = 55.95785 64.33075 60.14430
# Shear Modulus (GPa) = 13.55005 28.15212 20.85109
#
# Velocity S-wave (km/s) = 2.64179 3.80787 3.27711
# Velocity P-wave (km/s) = 6.17469 7.24342 6.73030
#
# Compressibility (1/GPa) = 0.01787059
#
# Stress axis : x y z
#
# Youngs Moduli (GPa) = 49.11103 63.73178 49.95911
#
# Poissons Ratio (x) = 0.41160 0.31567
# Poissons Ratio (y) = 0.31718 0.31586
# Poissons Ratio (z) = 0.31031 0.40294
#
# Static dielectric constant tensor:
#      x y z
#    x 1.524660 0.000000 -0.251550 
#    y 0.000000 1.505520 0.000000 
#    z -0.251550 0.000000 1.111150 
# 
# From -- ./inp_files/51214.got.cif
#   From: 2010.05.17/outbox.cif.g08.bks.cpg/sg12_26_cif.got.tgz:51214.got - 2010.06.03 13:09:07.
