data_PCOD9222683
_publ_section_title
;
Structure prediction by ZEFSAII (Michael W. Deem and Ramdas Pophale) SiO2 
 PCOD9222683
Probable space group: C 2/M
;
_chemical_formula_sum "Si O2"
_cell_formula_units_Z 64
_cell_length_a 23.489775
_cell_length_b 14.642617
_cell_length_c 14.776202
_cell_angle_alpha 90.000000
_cell_angle_beta 41.082689
_cell_angle_gamma 90.000000
_cell_volume 3339.821567
_symmetry_space_group_name_H-M "C 2/M"
_symmetry_group_IT_number 12
_symmetry_cell_setting 'monoclinic'
loop_
_space_group_symop_operation_xyz
x,y,z
-x,y,-z
-x,-y,-z
x,-y,z
1/2+x,1/2+y,z
1/2-x,1/2+y,-z
1/2-x,1/2-y,-z
1/2+x,1/2-y,z
loop_
_atom_site_type_symbol
_atom_site_label
_atom_site_fract_x
_atom_site_fract_y
_atom_site_fract_z
Si Si1 0.424136 0.395637 0.717060
Si Si2 0.078910 0.389436 0.035129
Si Si3 0.715926 0.333375 0.481950
Si Si4 0.373226 0.605160 0.577145
Si Si5 0.667199 0.734122 0.037197
Si Si6 0.606544 0.895155 0.797746
Si Si7 0.078771 0.108306 0.792046
Si Si8 0.879249 0.889161 0.060048
O O1 0.406040 0.500000 0.769655
O O2 0.525656 0.391931 0.571273
O O3 0.371531 0.379674 0.686638
O O4 0.399459 0.322048 0.820325
O O5 0.087917 0.500000 0.037966
O O6 0.112451 0.362419 0.894217
O O7 0.129775 0.329774 0.046544
O O8 0.977541 0.358598 0.153994
O O9 0.750000 0.250000 0.500000
O O10 0.678771 0.326452 0.424705
O O11 0.804265 0.389195 0.361885
O O12 0.636232 0.371844 0.636042
O O13 0.342714 0.500000 0.596284
O O14 0.750000 0.750000 0.000000
O O15 0.681605 0.668145 0.933207
O O16 0.582950 0.000000 0.838369
O O17 0.125531 0.139371 0.828676
O O18 0.073195 0.000000 0.808067
O O19 0.978384 0.136707 0.912900
O O20 0.868483 0.000000 0.065142
#
# Coordination Sequence:
#
# PCOD9222683 Si02
#       8
#     8   8   8   8   8   8   8   8
#     4   9  20  39  62  85 112 151 191 234 291 341
#     4   9  22  42  61  79 110 153 199 239 286 339
#     4  12  24  29  53  92 121 145 185 232 283 341
#     4   9  19  38  60  83 116 150 183 232 291 346
#     4  12  25  34  57  85 115 148 194 235 277 330
#     4   9  20  40  60  79 108 154 195 238 288 334
#     4   9  19  37  58  85 114 147 179 221 286 353
#     4   9  20  38  61  83 116 151 179 223 288 351
#
# _framework density 19.162700999999998
#
# number of rings (size 3 to 8) (size 9 to 14) (size 15 to 20)
#    0.000    2.250    0.000    4.500    7.000    4.000 
#    0.000    0.000    0.000    0.000    0.000    1.750 
#    0.000    0.000    0.000    0.000    0.000    0.000 
#
# Total GULP energy -178439.989373 kJ/mol
# GULP energy per Si atom -5576.249668 kJ/mol
# Density = 1.911909 g / cm^3
# Si number density = 19.162701 Si / 1000 Ang^3
#
#
#
# Elastic Constant Matrix: (Units=GPa)
#
#
# Indices 1 2 3 4 5 6 
#
# 1 139.2227 49.6351 9.4884 0.0000 9.3301 0.0000
# 2 49.6351 74.8358 1.0883 0.0000 8.1387 0.0000
# 3 9.4884 1.0883 58.0842 0.0000 3.3464 0.0000
# 4 0.0000 0.0000 0.0000 0.9619 0.0000 14.2131
# 5 9.3301 8.1387 3.3464 0.0000 18.0367 0.0000
# 6 0.0000 0.0000 0.0000 14.2131 0.0000 35.1910
#
#
#
# Elastic Compliance Matrix: (Units=1/GPa)
#
#
# Indices 1 2 3 4 5 6 
#
# 1 0.009590 -0.006129 -0.001340 0.000000 -0.001946 0.000000
# 2 -0.006129 0.017970 0.000959 0.000000 -0.005116 0.000000
# 3 -0.001340 0.000959 0.017590 0.000000 -0.003004 0.000000
# 4 0.000000 0.000000 0.000000 -0.209268 0.000000 0.084520
# 5 -0.001946 -0.005116 -0.003004 0.000000 0.059315 0.000000
# 6 0.000000 0.000000 0.000000 0.084520 0.000000 -0.005720
#
#
# Mechanical properties :
#
#
# Convention : Reuss Voigt Hill
#
# Bulk Modulus (GPa) = 31.12233 43.61847 37.37040
# Shear Modulus (GPa) = -57.60830 24.96665 -16.32082
#
# Velocity S-wave (km/s) = -5.48890 3.61346 -2.92155
# Velocity P-wave (km/s) = 4.88818 6.34200 2.85716
#
# Compressibility (1/GPa) = 0.03213127
#
# Stress axis : x y z
#
# Youngs Moduli (GPa) = 104.27946 55.64757 56.84954
#
# Poissons Ratio (x) = 0.34107 0.07615
# Poissons Ratio (y) = 0.63915 -0.05454
# Poissons Ratio (z) = 0.13969 -0.05338
#
# Static dielectric constant tensor:
#      x y z
#    x 1.699170 0.000000 0.028300 
#    y 0.000000 1.700380 0.000000 
#    z 0.028300 0.000000 1.560080 
# 
# From -- ./inp_files/240694.got.cif
#   From: 2010.05.17/outbox.cif.g08.bks.cpg/sg12_121_cif.got.tgz:240694.got - 2010.06.03 13:09:07.
