data_PCOD9222666
_publ_section_title
;
Structure prediction by ZEFSAII (Michael W. Deem and Ramdas Pophale) SiO2 
 PCOD9222666
Probable space group: C 2/M
;
_chemical_formula_sum "Si O2"
_cell_formula_units_Z 22
_cell_length_a 5.383745
_cell_length_b 14.305119
_cell_length_c 14.553105
_cell_angle_alpha 90.000000
_cell_angle_beta 120.149896
_cell_angle_gamma 90.000000
_cell_volume 969.179650
_symmetry_space_group_name_H-M "C 2/M"
_symmetry_group_IT_number 12
_symmetry_cell_setting 'monoclinic'
loop_
_space_group_symop_operation_xyz
x,y,z
-x,y,-z
-x,-y,-z
x,-y,z
1/2+x,1/2+y,z
1/2-x,1/2+y,-z
1/2-x,1/2-y,-z
1/2+x,1/2-y,z
loop_
_atom_site_type_symbol
_atom_site_label
_atom_site_fract_x
_atom_site_fract_y
_atom_site_fract_z
Si Si1 0.344435 0.500000 0.569529
Si Si2 0.000000 0.000000 0.000000
Si Si3 0.200490 0.841388 0.927572
Si Si4 0.989461 0.804021 0.686574
O O1 0.500000 0.500000 0.500000
O O2 0.438839 0.407052 0.639980
O O3 0.000000 0.500000 0.500000
O O4 0.963321 0.915341 0.915940
O O5 0.153587 0.811493 0.814862
O O6 0.500000 0.896246 0.000000
O O7 0.250000 0.750000 0.000000
O O8 0.690002 0.753198 0.654006
#
# Coordination Sequence:
#
# PCOD9222666 Si02
#       4
#     4   2   8   8
#     4  12  29  53  75 109 144 186 256 317 359 428
#     4  12  24  38  64  92 144 206 230 278 354 398
#     4  12  23  44  68 106 154 190 236 291 350 448
#     4  12  26  47  78 109 146 194 242 296 374 434
#
# _framework density 22.699608999999999
#
# number of rings (size 3 to 8) (size 9 to 14) (size 15 to 20)
#    0.000    0.000    5.455    3.818    0.000    4.364 
#    6.545    0.000    0.000    0.000    0.000    0.000 
#    0.000    0.000    0.000    0.000    0.000    0.000 
#
# Total GULP energy -61288.397892 kJ/mol
# GULP energy per Si atom -5571.672536 kJ/mol
# Density = 2.264794 g / cm^3
# Si number density = 22.699609 Si / 1000 Ang^3
#
#
#
# Elastic Constant Matrix: (Units=GPa)
#
#
# Indices 1 2 3 4 5 6 
#
# 1 152.7972 77.0926 45.5873 0.0000 -19.7629 0.0000
# 2 77.0926 260.5880 79.2039 0.0000 -21.8050 0.0000
# 3 45.5873 79.2039 100.2463 0.0000 -12.8454 0.0000
# 4 0.0000 0.0000 0.0000 52.5119 0.0000 -19.9568
# 5 -19.7629 -21.8050 -12.8454 0.0000 10.1029 0.0000
# 6 0.0000 0.0000 0.0000 -19.9568 0.0000 35.6863
#
#
#
# Elastic Compliance Matrix: (Units=1/GPa)
#
#
# Indices 1 2 3 4 5 6 
#
# 1 0.009388 -0.001129 -0.001596 0.000000 0.013898 0.000000
# 2 -0.001129 0.005632 -0.003180 0.000000 0.005903 0.000000
# 3 -0.001596 -0.003180 0.014257 0.000000 0.008142 0.000000
# 4 0.000000 0.000000 0.000000 0.024183 0.000000 0.013524
# 5 0.013898 0.005903 0.008142 0.000000 0.149261 0.000000
# 6 0.000000 0.000000 0.000000 0.013524 0.000000 0.035585
#
#
# Mechanical properties :
#
#
# Convention : Reuss Voigt Hill
#
# Bulk Modulus (GPa) = 57.25247 101.93324 79.59286
# Shear Modulus (GPa) = 19.53593 40.44339 29.98966
#
# Velocity S-wave (km/s) = 2.93683 4.22557 3.63871
# Velocity P-wave (km/s) = 6.06436 8.29518 7.26590
#
# Compressibility (1/GPa) = 0.01746649
#
# Stress axis : x y z
#
# Youngs Moduli (GPa) = 106.51664 177.55552 70.14143
#
# Poissons Ratio (x) = 0.20052 0.11196
# Poissons Ratio (y) = 0.12029 0.22304
# Poissons Ratio (z) = 0.17002 0.56459
#
# Static dielectric constant tensor:
#      x y z
#    x 2.308230 0.000000 0.037470 
#    y 0.000000 1.824160 0.000000 
#    z 0.037470 0.000000 1.847660 
# 
# From -- ./inp_files/114002.got.cif
#   From: 2010.05.17/outbox.cif.g08.bks.cpg/sg12_58_cif.got.tgz:114002.got - 2010.06.03 13:09:07.
