data_PCOD9222419
_publ_section_title
;
Structure prediction by ZEFSAII (Michael W. Deem and Ramdas Pophale) SiO2 
 PCOD9222419
Probable space group: C 2/M
;
_chemical_formula_sum "Si O2"
_cell_formula_units_Z 36
_cell_length_a 16.294124
_cell_length_b 22.655092
_cell_length_c 14.200055
_cell_angle_alpha 90.000000
_cell_angle_beta 160.417529
_cell_angle_gamma 90.000000
_cell_volume 1756.885207
_symmetry_space_group_name_H-M "C 2/M"
_symmetry_group_IT_number 12
_symmetry_cell_setting 'monoclinic'
loop_
_space_group_symop_operation_xyz
x,y,z
-x,y,-z
-x,-y,-z
x,-y,z
1/2+x,1/2+y,z
1/2-x,1/2+y,-z
1/2-x,1/2-y,-z
1/2+x,1/2-y,z
loop_
_atom_site_type_symbol
_atom_site_label
_atom_site_fract_x
_atom_site_fract_y
_atom_site_fract_z
Si Si1 0.565292 0.070901 0.177804
Si Si2 0.614694 0.383133 0.818022
Si Si3 0.162647 0.645941 0.757319
Si Si4 0.500000 0.268712 0.000000
Si Si5 0.552605 0.266147 0.444967
O O1 0.843217 0.091345 0.503267
O O2 0.564517 0.000000 0.183795
O O3 0.500000 0.087571 0.000000
O O4 0.339223 0.094019 0.996956
O O5 0.582046 0.313165 0.763205
O O6 0.699814 0.392305 0.017462
O O7 0.000000 0.615766 0.500000
O O8 0.001125 0.697315 0.633511
O O9 0.347675 0.687426 0.900390
O O10 0.344741 0.228856 0.760977
O O11 0.500000 0.277620 0.500000
#
# Coordination Sequence:
#
# PCOD9222419 Si02
#       5
#     8   8   8   4   8
#     4  11  26  46  65  91 122 150 198 265 317 363
#     4  12  24  37  70  92 116 169 208 239 307 369
#     4   9  21  37  56  90 133 166 198 246 287 355
#     4   8  18  34  54  80 140 162 196 242 294 334
#     4   9  19  33  54  90 130 161 198 244 289 364
#
# _framework density 20.49081
#
# number of rings (size 3 to 8) (size 9 to 14) (size 15 to 20)
#    0.000    2.444    0.000    3.333   14.000    2.667 
#    0.000    0.000    0.000    4.000    0.000    0.000 
#    0.000    0.000    0.000    0.000    0.000    0.000 
#
# Total GULP energy -100253.763255 kJ/mol
# GULP energy per Si atom -5569.653514 kJ/mol
# Density = 2.044417 g / cm^3
# Si number density = 20.490810 Si / 1000 Ang^3
#
#
#
# Elastic Constant Matrix: (Units=GPa)
#
#
# Indices 1 2 3 4 5 6 
#
# 1 72.7278 17.2906 79.8913 0.0000 -8.9416 0.0020
# 2 17.2906 32.3615 39.5252 0.0002 -0.9336 -0.0019
# 3 79.8913 39.5252 198.8874 -0.0072 -17.0778 0.0544
# 4 0.0000 0.0002 -0.0072 34.6406 -0.0016 -84.1035
# 5 -8.9416 -0.9336 -17.0778 -0.0016 40.7683 0.0138
# 6 0.0020 -0.0019 0.0544 -84.1035 0.0138 640.8648
#
#
#
# Elastic Compliance Matrix: (Units=1/GPa)
#
#
# Indices 1 2 3 4 5 6 
#
# 1 0.024735 -0.001568 -0.009503 0.000000 0.001408 0.000001
# 2 -0.001568 0.041163 -0.007779 0.000000 -0.002660 0.000001
# 3 -0.009503 -0.007779 0.010577 0.000000 0.002168 -0.000001
# 4 0.000000 0.000000 0.000000 0.042367 0.000000 0.005560
# 5 0.001408 -0.002660 0.002168 0.000000 0.025685 -0.000001
# 6 0.000001 0.000001 -0.000001 0.005560 -0.000001 0.002290
#
#
# Mechanical properties :
#
#
# Convention : Reuss Voigt Hill
#
# Bulk Modulus (GPa) = 25.78997 64.15455 44.97226
# Shear Modulus (GPa) = 25.32369 154.40603 89.86486
#
# Velocity S-wave (km/s) = 3.51929 8.69007 6.62958
# Velocity P-wave (km/s) = 5.39697 11.49203 8.97758
#
# Compressibility (1/GPa) = 0.03877477
#
# Stress axis : x y z
#
# Youngs Moduli (GPa) = 40.42800 24.29376 94.54044
#
# Poissons Ratio (x) = 0.03810 0.89845
# Poissons Ratio (y) = 0.06340 0.73541
# Poissons Ratio (z) = 0.38420 0.18898
#
# Static dielectric constant tensor:
#      x y z
#    x 1.787330 0.000000 0.074800 
#    y 0.000000 1.716980 0.000000 
#    z 0.074800 0.000000 1.918960 
# 
# From -- ./inp_files/227946.got.cif
#   From: 2010.05.17/outbox.cif.g08.bks.cpg/sg12_114_cif.got.tgz:227946.got - 2010.06.03 13:09:07.
