data_PCOD9222839
_publ_section_title
;
Structure prediction by ZEFSAII (Michael W. Deem and Ramdas Pophale) SiO2 
 PCOD9222839
Probable space group: C 2/M
;
_chemical_formula_sum "Si O2"
_cell_formula_units_Z 56
_cell_length_a 14.251862
_cell_length_b 7.384415
_cell_length_c 21.545135
_cell_angle_alpha 90.000000
_cell_angle_beta 112.178905
_cell_angle_gamma 90.000000
_cell_volume 2099.676701
_symmetry_space_group_name_H-M "C 2/M"
_symmetry_group_IT_number 12
_symmetry_cell_setting 'monoclinic'
loop_
_space_group_symop_operation_xyz
x,y,z
-x,y,-z
-x,-y,-z
x,-y,z
1/2+x,1/2+y,z
1/2-x,1/2+y,-z
1/2-x,1/2-y,-z
1/2+x,1/2-y,z
loop_
_atom_site_type_symbol
_atom_site_label
_atom_site_fract_x
_atom_site_fract_y
_atom_site_fract_z
Si Si1 0.312289 0.716779 0.080172
Si Si2 0.745123 0.789119 0.346617
Si Si3 0.855120 0.783133 0.488795
Si Si4 0.018363 0.782116 0.072879
Si Si5 0.533782 0.279597 0.366792
Si Si6 0.102040 0.793392 0.774536
Si Si7 0.109268 0.288434 0.213128
O O1 0.307559 0.500000 0.085373
O O2 0.420725 0.781324 0.084293
O O3 0.319884 0.784908 0.154166
O O4 0.250000 0.750000 0.000000
O O5 0.828992 0.710565 0.413788
O O6 0.637108 0.775958 0.356470
O O7 0.710203 0.716133 0.271289
O O8 0.772410 0.000000 0.345631
O O9 0.750000 0.750000 0.500000
O O10 0.944424 0.720110 0.556867
O O11 0.868461 0.000000 0.486277
O O12 0.109571 0.726670 0.139091
O O13 0.020393 0.000000 0.070362
O O14 0.000000 0.712950 0.000000
O O15 0.530337 0.500000 0.365955
O O16 0.437550 0.217173 0.301749
O O17 0.992079 0.801437 0.783629
O O18 0.135469 0.000000 0.770811
O O19 0.100079 0.500000 0.226050
#
# Coordination Sequence:
#
# PCOD9222839 Si02
#       7
#     8   8   8   8   8   8   8
#     4   9  17  28  42  59  78 100 126 157 192 229
#     4   8  13  19  26  40  64  89 112 142 180 217
#     4   8  12  17  25  38  57  83 114 145 175 207
#     4   9  18  32  46  58  75 101 131 161 192 226
#     4   8  12  18  29  42  57  83 120 153 175 204
#     4   8  14  24  35  48  68  95 126 156 185 219
#     4   9  15  22  34  52  72  94 121 153 187 224
#
# _framework density 26.670773000000001
#
# number of rings (size 3 to 8) (size 9 to 14) (size 15 to 20)
#    0.000    3.571    0.000    1.286    0.000    3.143 
#    0.000    0.000    0.000    0.000    0.000    0.000 
#    0.000    0.000    0.000    1.286    0.000   31.143 
#
# Total GULP energy -155909.959880 kJ/mol
# GULP energy per Si atom -5568.212853 kJ/mol
# Density = 2.661007 g / cm^3
# Si number density = 26.670773 Si / 1000 Ang^3
#
#
#
# Elastic Constant Matrix: (Units=GPa)
#
#
# Indices 1 2 3 4 5 6 
#
# 1 76.5445 -2.9307 37.9940 0.0000 26.8238 0.0000
# 2 -2.9307 106.7003 7.0780 0.0000 -2.2560 0.0000
# 3 37.9940 7.0780 400.9420 0.0000 2.9857 0.0000
# 4 0.0000 0.0000 0.0000 4.2740 0.0000 -1.8580
# 5 26.8238 -2.2560 2.9857 0.0000 27.4628 0.0000
# 6 0.0000 0.0000 0.0000 -1.8580 0.0000 -8.9100
#
#
#
# Elastic Compliance Matrix: (Units=1/GPa)
#
#
# Indices 1 2 3 4 5 6 
#
# 1 0.021161 0.000272 -0.001858 0.000000 -0.020445 0.000000
# 2 0.000272 0.009404 -0.000196 0.000000 0.000528 0.000000
# 3 -0.001858 -0.000196 0.002662 0.000000 0.001509 0.000000
# 4 0.000000 0.000000 0.000000 0.214526 0.000000 -0.044735
# 5 -0.020445 0.000528 0.001509 0.000000 0.056261 0.000000
# 6 0.000000 0.000000 0.000000 -0.044735 0.000000 -0.102905
#
#
# Mechanical properties :
#
#
# Convention : Reuss Voigt Hill
#
# Bulk Modulus (GPa) = 33.71012 74.27439 53.99226
# Shear Modulus (GPa) = 23.30337 40.70173 32.00255
#
# Velocity S-wave (km/s) = 2.95912 3.91075 3.46773
# Velocity P-wave (km/s) = 4.93376 6.94989 6.02673
#
# Compressibility (1/GPa) = 0.02966468
#
# Stress axis : x y z
#
# Youngs Moduli (GPa) = 47.25590 106.34153 375.60132
#
# Poissons Ratio (x) = -0.02895 0.69781
# Poissons Ratio (y) = -0.01286 0.07352
# Poissons Ratio (z) = 0.08779 0.02081
#
# Static dielectric constant tensor:
#      x y z
#    x 2.289010 0.000000 -0.075790 
#    y 0.000000 2.179180 0.000000 
#    z -0.075790 0.000000 2.317350 
# 
# From -- ./inp_files/365055.got.cif
#   From: 2010.05.17/outbox.cif.g08.bks.cpg/sg12_183_cif.got.tgz:365055.got - 2010.06.03 13:09:07.
