data_PCOD9222269
_publ_section_title
;
Structure prediction by ZEFSAII (Michael W. Deem and Ramdas Pophale) SiO2 
 PCOD9222269
Probable space group: C 2/M
;
_chemical_formula_sum "Si O2"
_cell_formula_units_Z 32
_cell_length_a 13.595683
_cell_length_b 10.514432
_cell_length_c 11.183071
_cell_angle_alpha 90.000000
_cell_angle_beta 110.736341
_cell_angle_gamma 90.000000
_cell_volume 1495.070077
_symmetry_space_group_name_H-M "C 2/M"
_symmetry_group_IT_number 12
_symmetry_cell_setting 'monoclinic'
loop_
_space_group_symop_operation_xyz
x,y,z
-x,y,-z
-x,-y,-z
x,-y,z
1/2+x,1/2+y,z
1/2-x,1/2+y,-z
1/2-x,1/2-y,-z
1/2+x,1/2-y,z
loop_
_atom_site_type_symbol
_atom_site_label
_atom_site_fract_x
_atom_site_fract_y
_atom_site_fract_z
Si Si1 0.267182 0.767309 0.812878
Si Si2 0.613912 0.640705 0.937167
Si Si3 0.674670 0.143137 0.415728
Si Si4 0.053072 0.647660 0.740137
O O1 0.219268 0.853939 0.898992
O O2 0.311101 0.845082 0.721703
O O3 0.164093 0.686304 0.728401
O O4 0.349572 0.675895 0.914437
O O5 0.568183 0.500000 0.908459
O O6 0.548334 0.754847 0.849741
O O7 0.750000 0.250000 0.500000
O O8 0.550882 0.166220 0.383366
O O9 0.701891 0.000000 0.466146
O O10 0.056269 0.500000 0.777231
#
# Coordination Sequence:
#
# PCOD9222269 Si02
#       4
#     8   8   8   8
#     4   9  20  36  62  85 123 147 192 233 295 340
#     4   9  18  35  62  90 120 152 190 234 294 349
#     4  11  25  43  60  84 115 159 202 244 287 346
#     4   9  20  38  61  87 118 153 195 237 295 346
#
# _framework density 21.403676999999998
#
# number of rings (size 3 to 8) (size 9 to 14) (size 15 to 20)
#    1.500    1.000    0.000    1.500    0.000    6.000 
#    0.000    7.500    0.000    0.000    0.000    0.000 
#    0.000    0.000    0.000    0.000    0.000    0.000 
#
# Total GULP energy -89151.230278 kJ/mol
# GULP energy per Si atom -5571.951892 kJ/mol
# Density = 2.135496 g / cm^3
# Si number density = 21.403677 Si / 1000 Ang^3
#
#
#
# Elastic Constant Matrix: (Units=GPa)
#
#
# Indices 1 2 3 4 5 6 
#
# 1 55.2945 24.0297 11.1124 0.0000 -0.7614 0.0000
# 2 24.0297 165.0452 46.9704 0.0000 37.1261 0.0000
# 3 11.1124 46.9704 53.2158 0.0000 15.2899 0.0000
# 4 0.0000 0.0000 0.0000 36.5922 0.0000 5.4141
# 5 -0.7614 37.1261 15.2899 0.0000 35.0576 0.0000
# 6 0.0000 0.0000 0.0000 5.4141 0.0000 16.4575
#
#
#
# Elastic Compliance Matrix: (Units=1/GPa)
#
#
# Indices 1 2 3 4 5 6 
#
# 1 0.020147 -0.003302 -0.002770 0.000000 0.005142 0.000000
# 2 -0.003302 0.010031 -0.005821 0.000000 -0.008156 0.000000
# 3 -0.002770 -0.005821 0.026014 0.000000 -0.005241 0.000000
# 4 0.000000 0.000000 0.000000 0.028726 0.000000 -0.009450
# 5 0.005142 -0.008156 -0.005241 0.000000 0.039559 0.000000
# 6 0.000000 0.000000 0.000000 -0.009450 0.000000 0.063871
#
#
# Mechanical properties :
#
#
# Convention : Reuss Voigt Hill
#
# Bulk Modulus (GPa) = 30.85862 48.64227 39.75044
# Shear Modulus (GPa) = 22.42792 30.38432 26.40612
#
# Velocity S-wave (km/s) = 3.24057 3.77182 3.51624
# Velocity P-wave (km/s) = 5.33390 6.46099 5.92431
#
# Compressibility (1/GPa) = 0.03240586
#
# Stress axis : x y z
#
# Youngs Moduli (GPa) = 49.63423 99.69317 38.44140
#
# Poissons Ratio (x) = 0.32915 0.10650
# Poissons Ratio (y) = 0.16387 0.22376
# Poissons Ratio (z) = 0.13751 0.58030
#
# Static dielectric constant tensor:
#      x y z
#    x 1.822350 0.000000 -0.006040 
#    y 0.000000 1.737530 0.000000 
#    z -0.006040 0.000000 1.782100 
# 
# From -- ./inp_files/139972.got.cif
#   From: 2010.05.17/outbox.cif.g08.bks.cpg/sg12_70_cif.got.tgz:139972.got - 2010.06.03 13:09:07.
