data_PCOD9222536
_publ_section_title
;
Structure prediction by ZEFSAII (Michael W. Deem and Ramdas Pophale) SiO2 
 PCOD9222536
Probable space group: C 2/M
;
_chemical_formula_sum "Si O2"
_cell_formula_units_Z 28
_cell_length_a 7.008102
_cell_length_b 13.243925
_cell_length_c 11.762501
_cell_angle_alpha 90.000000
_cell_angle_beta 68.719065
_cell_angle_gamma 90.000000
_cell_volume 1017.290810
_symmetry_space_group_name_H-M "C 2/M"
_symmetry_group_IT_number 12
_symmetry_cell_setting 'monoclinic'
loop_
_space_group_symop_operation_xyz
x,y,z
-x,y,-z
-x,-y,-z
x,-y,z
1/2+x,1/2+y,z
1/2-x,1/2+y,-z
1/2-x,1/2-y,-z
1/2+x,1/2-y,z
loop_
_atom_site_type_symbol
_atom_site_label
_atom_site_fract_x
_atom_site_fract_y
_atom_site_fract_z
Si Si1 0.014227 0.388573 0.793327
Si Si2 0.445820 0.341513 0.141619
Si Si3 0.213209 0.632478 0.515633
Si Si4 0.522290 0.500000 0.303984
O O1 0.014539 0.500000 0.849738
O O2 0.787144 0.377329 0.788055
O O3 0.176806 0.396894 0.654810
O O4 0.038478 0.279530 0.846662
O O5 0.578854 0.409213 0.197748
O O6 0.500000 0.364355 0.000000
O O7 0.250000 0.750000 0.500000
O O8 0.399198 0.583819 0.409708
O O9 0.000000 0.608151 0.500000
#
# Coordination Sequence:
#
# PCOD9222536 Si02
#       4
#     8   8   8   4
#     4  12  24  45  70  99 133 179 221 278 336 390
#     4  12  26  46  67  98 137 179 227 270 327 403
#     4  12  21  40  65  97 131 166 217 275 333 391
#     4  12  22  40  73  92 133 179 218 268 350 378
#
# _framework density 27.524084999999999
#
# number of rings (size 3 to 8) (size 9 to 14) (size 15 to 20)
#    0.000    0.000    8.571    1.714    0.000    0.571 
#    2.571    0.714    0.000    0.000    0.000    0.000 
#    0.000    0.000    0.000    0.000    0.000    0.000 
#
# Total GULP energy -78072.033201 kJ/mol
# GULP energy per Si atom -5576.573800 kJ/mol
# Density = 2.746144 g / cm^3
# Si number density = 27.524085 Si / 1000 Ang^3
#
#
#
# Elastic Constant Matrix: (Units=GPa)
#
#
# Indices 1 2 3 4 5 6 
#
# 1 123.6434 -3.9393 -21.0441 0.0000 0.0374 0.0000
# 2 -3.9393 299.7067 13.3780 0.0000 12.1636 0.0000
# 3 -21.0441 13.3780 134.2431 0.0000 25.9959 0.0000
# 4 0.0000 0.0000 0.0000 133.6338 0.0000 -194.0448
# 5 0.0374 12.1636 25.9959 0.0000 23.0550 0.0000
# 6 0.0000 0.0000 0.0000 -194.0448 0.0000 435.4830
#
#
#
# Elastic Compliance Matrix: (Units=1/GPa)
#
#
# Indices 1 2 3 4 5 6 
#
# 1 0.008379 0.000115 0.001684 0.000000 -0.001973 0.000000
# 2 0.000115 0.003411 0.000034 0.000000 -0.001838 0.000000
# 3 0.001684 0.000034 0.009869 0.000000 -0.011148 0.000000
# 4 0.000000 0.000000 0.000000 0.021200 0.000000 0.009446
# 5 -0.001973 -0.001838 -0.011148 0.000000 0.056918 0.000000
# 6 0.000000 0.000000 0.000000 0.009446 0.000000 0.006505
#
#
# Mechanical properties :
#
#
# Convention : Reuss Voigt Hill
#
# Bulk Modulus (GPa) = 39.48689 59.37582 49.43135
# Shear Modulus (GPa) = 45.02206 156.38095 100.70151
#
# Velocity S-wave (km/s) = 4.04881 7.54582 6.05526
# Velocity P-wave (km/s) = 6.01952 9.87615 8.17841
#
# Compressibility (1/GPa) = 0.02532486
#
# Stress axis : x y z
#
# Youngs Moduli (GPa) = 119.35074 293.15242 101.33159
#
# Poissons Ratio (x) = -0.03372 -0.17065
# Poissons Ratio (y) = -0.01373 -0.00345
# Poissons Ratio (z) = -0.20100 -0.00999
#
# Static dielectric constant tensor:
#      x y z
#    x 2.591790 0.000000 0.184890 
#    y 0.000000 2.065200 0.000000 
#    z 0.184890 0.000000 2.110380 
# 
# From -- ./inp_files/126774.got.cif
#   From: 2010.05.17/outbox.cif.g08.bks.cpg/sg12_64_cif.got.tgz:126774.got - 2010.06.03 13:09:07.
