data_PCOD9222758
_publ_section_title
;
Structure prediction by ZEFSAII (Michael W. Deem and Ramdas Pophale) SiO2 
 PCOD9222758
Probable space group: C 2/M
;
_chemical_formula_sum "Si O2"
_cell_formula_units_Z 26
_cell_length_a 14.211350
_cell_length_b 7.586213
_cell_length_c 10.575918
_cell_angle_alpha 90.000000
_cell_angle_beta 78.709191
_cell_angle_gamma 90.000000
_cell_volume 1118.125980
_symmetry_space_group_name_H-M "C 2/M"
_symmetry_group_IT_number 12
_symmetry_cell_setting 'monoclinic'
loop_
_space_group_symop_operation_xyz
x,y,z
-x,y,-z
-x,-y,-z
x,-y,z
1/2+x,1/2+y,z
1/2-x,1/2+y,-z
1/2-x,1/2-y,-z
1/2+x,1/2-y,z
loop_
_atom_site_type_symbol
_atom_site_label
_atom_site_fract_x
_atom_site_fract_y
_atom_site_fract_z
Si Si1 0.640143 0.804120 0.502749
Si Si2 0.000000 0.000000 0.500000
Si Si3 0.360874 0.709128 0.980629
Si Si4 0.536399 0.284556 0.783492
O O1 0.750000 0.750000 0.500000
O O2 0.580780 0.654632 0.446302
O O3 0.587182 0.802129 0.652329
O O4 0.636349 0.000000 0.447773
O O5 0.373738 0.500000 0.971582
O O6 0.429845 0.775388 0.850680
O O7 0.250000 0.750000 0.000000
O O8 0.402646 0.757093 0.106560
O O9 0.539029 0.500000 0.755458
#
# Coordination Sequence:
#
# PCOD9222758 Si02
#       4
#     8   2   8   8
#     4  12  25  46  73 102 138 185 234 290 353 412
#     4  12  26  48  72  98 140 178 242 286 348 418
#     4   9  19  35  61  90 129 173 214 265 337 399
#     4   9  19  40  61  89 135 175 214 280 332 403
#
# _framework density 23.253195000000002
#
# number of rings (size 3 to 8) (size 9 to 14) (size 15 to 20)
#    0.000    1.846    3.077    2.308    0.000    4.923 
#    0.000    6.154    0.000    0.000    0.000    0.000 
#    0.000    0.000    0.000    0.000    0.000    0.000 
#
# Total GULP energy -72426.809252 kJ/mol
# GULP energy per Si atom -5571.293019 kJ/mol
# Density = 2.320027 g / cm^3
# Si number density = 23.253195 Si / 1000 Ang^3
#
#
#
# Elastic Constant Matrix: (Units=GPa)
#
#
# Indices 1 2 3 4 5 6 
#
# 1 159.1457 40.3358 26.6924 0.0000 -45.7026 0.0000
# 2 40.3358 148.6135 5.9436 0.0000 2.4034 0.0000
# 3 26.6924 5.9436 92.2336 0.0000 -23.2930 0.0000
# 4 0.0000 0.0000 0.0000 24.0173 0.0000 -3.1328
# 5 -45.7026 2.4034 -23.2930 0.0000 28.4642 0.0000
# 6 0.0000 0.0000 0.0000 -3.1328 0.0000 42.1033
#
#
#
# Elastic Compliance Matrix: (Units=1/GPa)
#
#
# Indices 1 2 3 4 5 6 
#
# 1 0.014233 -0.004375 0.002556 0.000000 0.025314 0.000000
# 2 -0.004375 0.008122 -0.001518 0.000000 -0.008952 0.000000
# 3 0.002556 -0.001518 0.014204 0.000000 0.015855 0.000000
# 4 0.000000 0.000000 0.000000 0.042045 0.000000 0.003128
# 5 0.025314 -0.008952 0.015855 0.000000 0.089506 0.000000
# 6 0.000000 0.000000 0.000000 0.003128 0.000000 0.023984
#
#
# Mechanical properties :
#
#
# Convention : Reuss Voigt Hill
#
# Bulk Modulus (GPa) = 33.46169 60.65959 47.06064
# Shear Modulus (GPa) = 23.95437 40.71837 32.33637
#
# Velocity S-wave (km/s) = 3.21308 4.18914 3.73315
# Velocity P-wave (km/s) = 5.30910 7.03859 6.23411
#
# Compressibility (1/GPa) = 0.02988493
#
# Stress axis : x y z
#
# Youngs Moduli (GPa) = 70.25887 123.12702 70.40051
#
# Poissons Ratio (x) = 0.53864 -0.17992
# Poissons Ratio (y) = 0.30736 0.10688
# Poissons Ratio (z) = -0.17956 0.18692
#
# Static dielectric constant tensor:
#      x y z
#    x 1.922930 0.000000 0.133580 
#    y 0.000000 1.874360 0.000000 
#    z 0.133580 0.000000 1.921030 
# 
# From -- ./inp_files/137997.got.cif
#   From: 2010.05.17/outbox.cif.g08.bks.cpg/sg12_69_cif.got.tgz:137997.got - 2010.06.03 13:09:07.
