data_PCOD9222051
_publ_section_title
;
Structure prediction by ZEFSAII (Michael W. Deem and Ramdas Pophale) SiO2 
 PCOD9222051
Probable space group: C 2/M
;
_chemical_formula_sum "Si O2"
_cell_formula_units_Z 34
_cell_length_a 10.224182
_cell_length_b 7.722187
_cell_length_c 25.682466
_cell_angle_alpha 90.000000
_cell_angle_beta 45.484098
_cell_angle_gamma 90.000000
_cell_volume 1445.869775
_symmetry_space_group_name_H-M "C 2/M"
_symmetry_group_IT_number 12
_symmetry_cell_setting 'monoclinic'
loop_
_space_group_symop_operation_xyz
x,y,z
-x,y,-z
-x,-y,-z
x,-y,z
1/2+x,1/2+y,z
1/2-x,1/2+y,-z
1/2-x,1/2-y,-z
1/2+x,1/2-y,z
loop_
_atom_site_type_symbol
_atom_site_label
_atom_site_fract_x
_atom_site_fract_y
_atom_site_fract_z
Si Si1 0.463878 0.301761 0.434693
Si Si2 0.704326 0.793335 0.953582
Si Si3 0.938867 0.699504 0.707052
Si Si4 0.549945 0.203137 0.788717
Si Si5 0.000000 0.500000 0.500000
O O1 0.493624 0.500000 0.443007
O O2 0.250000 0.250000 0.500000
O O3 0.510345 0.290587 0.360878
O O4 0.561863 0.154733 0.441275
O O5 0.860247 0.721482 0.872242
O O6 0.704258 0.000000 0.946208
O O7 0.500000 0.726870 0.000000
O O8 0.750000 0.750000 0.000000
O O9 0.998247 0.500000 0.685319
O O10 0.717885 0.707672 0.771350
O O11 0.023482 0.769070 0.737018
O O12 0.595743 0.000000 0.772926
#
# Coordination Sequence:
#
# PCOD9222051 Si02
#       5
#     8   8   8   8   2
#     4  12  26  46  72 103 139 185 236 294 351 421
#     4  11  24  42  67  97 132 174 222 275 335 406
#     4  11  25  45  68 100 139 181 228 285 345 412
#     4  11  25  43  67 100 136 177 226 278 343 410
#     4  12  26  48  72 100 140 184 238 292 354 418
#
# _framework density 23.515256999999998
#
# number of rings (size 3 to 8) (size 9 to 14) (size 15 to 20)
#    0.000    0.706    2.353    3.882    3.294    9.412 
#    0.000    0.000    0.000    0.000    0.000    0.000 
#    0.000    0.000    0.000    0.000    0.000    0.000 
#
# Total GULP energy -94956.594101 kJ/mol
# GULP energy per Si atom -5585.682006 kJ/mol
# Density = 2.346174 g / cm^3
# Si number density = 23.515257 Si / 1000 Ang^3
#
#
#
# Elastic Constant Matrix: (Units=GPa)
#
#
# Indices 1 2 3 4 5 6 
#
# 1 91.0679 1.4274 8.0301 0.0000 9.2904 0.0000
# 2 1.4274 149.9895 1.7008 0.0000 13.7644 0.0000
# 3 8.0301 1.7008 106.3618 0.0000 6.6960 0.0000
# 4 0.0000 0.0000 0.0000 39.4930 0.0000 2.8073
# 5 9.2904 13.7644 6.6960 0.0000 48.3913 0.0000
# 6 0.0000 0.0000 0.0000 2.8073 0.0000 9.2755
#
#
#
# Elastic Compliance Matrix: (Units=1/GPa)
#
#
# Indices 1 2 3 4 5 6 
#
# 1 0.011256 0.000093 -0.000720 0.000000 -0.002088 0.000000
# 2 0.000093 0.006847 0.000007 0.000000 -0.001966 0.000000
# 3 -0.000720 0.000007 0.009531 0.000000 -0.001183 0.000000
# 4 0.000000 0.000000 0.000000 0.025878 0.000000 -0.007832
# 5 -0.002088 -0.001966 -0.001183 0.000000 0.021789 0.000000
# 6 0.000000 0.000000 0.000000 -0.007832 0.000000 0.110181
#
#
# Mechanical properties :
#
#
# Convention : Reuss Voigt Hill
#
# Bulk Modulus (GPa) = 37.88858 41.08174 39.48516
# Shear Modulus (GPa) = 25.57310 41.84936 33.71123
#
# Velocity S-wave (km/s) = 3.30132 4.22319 3.79039
# Velocity P-wave (km/s) = 5.53886 6.42562 5.99865
#
# Compressibility (1/GPa) = 0.02639318
#
# Stress axis : x y z
#
# Youngs Moduli (GPa) = 88.84297 146.05772 104.92569
#
# Poissons Ratio (x) = -0.01353 0.07553
# Poissons Ratio (y) = -0.00823 -0.00077
# Poissons Ratio (z) = 0.06395 -0.00107
#
# Static dielectric constant tensor:
#      x y z
#    x 1.942560 0.000000 -0.053700 
#    y 0.000000 1.885960 0.000000 
#    z -0.053700 0.000000 1.871460 
# 
# From -- ./inp_files/357288.got.cif
#   From: 2010.05.17/outbox.cif.g08.bks.cpg/sg12_179_cif.got.tgz:357288.got - 2010.06.03 13:09:07.
