data_PCOD9222691
_publ_section_title
;
Structure prediction by ZEFSAII (Michael W. Deem and Ramdas Pophale) SiO2 
 PCOD9222691
Probable space group: C 2/M
;
_chemical_formula_sum "Si O2"
_cell_formula_units_Z 28
_cell_length_a 9.464267
_cell_length_b 12.716116
_cell_length_c 16.594085
_cell_angle_alpha 90.000000
_cell_angle_beta 135.969210
_cell_angle_gamma 90.000000
_cell_volume 1388.057941
_symmetry_space_group_name_H-M "C 2/M"
_symmetry_group_IT_number 12
_symmetry_cell_setting 'monoclinic'
loop_
_space_group_symop_operation_xyz
x,y,z
-x,y,-z
-x,-y,-z
x,-y,z
1/2+x,1/2+y,z
1/2-x,1/2+y,-z
1/2-x,1/2-y,-z
1/2+x,1/2-y,z
loop_
_atom_site_type_symbol
_atom_site_label
_atom_site_fract_x
_atom_site_fract_y
_atom_site_fract_z
Si Si1 0.051254 0.000000 0.816749
Si Si2 0.376037 0.000000 0.270727
Si Si3 0.467990 0.196182 0.577659
Si Si4 0.712146 0.612783 0.737986
Si Si5 0.892864 0.500000 0.092105
O O1 0.094709 0.901831 0.774721
O O2 0.828522 0.000000 0.760752
O O3 0.216880 0.000000 0.955167
O O4 0.501353 0.897105 0.346618
O O5 0.320962 0.000000 0.154348
O O6 0.500000 0.155406 0.500000
O O7 0.250000 0.250000 0.500000
O O8 0.636935 0.285833 0.662350
O O9 0.665326 0.500000 0.674979
O O10 0.048343 0.598907 0.146033
#
# Coordination Sequence:
#
# PCOD9222691 Si02
#       5
#     4   4   8   8   4
#     4   9  19  40  63  87 118 145 189 246 293 326
#     4  12  24  37  56  92 122 143 196 238 286 350
#     4  12  25  39  60  84 119 158 190 238 290 332
#     4   8  20  40  62  82 115 146 205 225 276 352
#     4   9  19  39  64  85 117 152 189 236 289 342
#
# _framework density 20.172066999999998
#
# number of rings (size 3 to 8) (size 9 to 14) (size 15 to 20)
#    1.714    0.000    0.000    6.000    2.000    0.571 
#    0.000    8.571    0.000    0.000    0.000    0.000 
#    0.000    0.000    0.000    0.000    0.000    0.000 
#
# Total GULP energy -78043.932803 kJ/mol
# GULP energy per Si atom -5574.566629 kJ/mol
# Density = 2.012615 g / cm^3
# Si number density = 20.172067 Si / 1000 Ang^3
#
#
#
# Elastic Constant Matrix: (Units=GPa)
#
#
# Indices 1 2 3 4 5 6 
#
# 1 76.2725 -25.9366 -5.3283 0.0000 -1.6939 0.0000
# 2 -25.9366 80.5030 19.9912 0.0000 7.9504 0.0000
# 3 -5.3283 19.9912 60.9032 0.0000 6.0593 0.0000
# 4 0.0000 0.0000 0.0000 -8.0343 0.0000 -3.3756
# 5 -1.6939 7.9504 6.0593 0.0000 37.1905 0.0000
# 6 0.0000 0.0000 0.0000 -3.3756 0.0000 6.5742
#
#
#
# Elastic Compliance Matrix: (Units=1/GPa)
#
#
# Indices 1 2 3 4 5 6 
#
# 1 0.014733 0.004845 -0.000270 0.000000 -0.000321 0.000000
# 2 0.004845 0.015298 -0.004365 0.000000 -0.002338 0.000000
# 3 -0.000270 -0.004365 0.018029 0.000000 -0.002017 0.000000
# 4 0.000000 0.000000 0.000000 -0.102381 0.000000 -0.052568
# 5 -0.000321 -0.002338 -0.002017 0.000000 0.027702 0.000000
# 6 0.000000 0.000000 0.000000 -0.052568 0.000000 0.125118
#
#
# Mechanical properties :
#
#
# Convention : Reuss Voigt Hill
#
# Bulk Modulus (GPa) = 20.62660 21.68126 21.15393
# Shear Modulus (GPa) = 43.76818 22.40959 33.08888
#
# Velocity S-wave (km/s) = 4.66310 3.33667 4.05449
# Velocity P-wave (km/s) = 6.26420 5.06122 5.69457
#
# Compressibility (1/GPa) = 0.04848109
#
# Stress axis : x y z
#
# Youngs Moduli (GPa) = 67.87696 65.36886 55.46528
#
# Poissons Ratio (x) = -0.31672 0.01495
# Poissons Ratio (y) = -0.32888 0.24210
# Poissons Ratio (z) = 0.01830 0.28533
#
# Static dielectric constant tensor:
#      x y z
#    x 1.744960 0.000000 0.004440 
#    y 0.000000 1.697720 0.000000 
#    z 0.004440 0.000000 1.683920 
# 
# From -- ./inp_files/194325.got.cif
#   From: 2010.05.17/outbox.cif.g08.bks.cpg/sg12_98_cif.got.tgz:194325.got - 2010.06.03 13:09:07.
