data_PCOD9222717
_publ_section_title
;
Structure prediction by ZEFSAII (Michael W. Deem and Ramdas Pophale) SiO2 
 PCOD9222717
Probable space group: C 2/M
;
_chemical_formula_sum "Si O2"
_cell_formula_units_Z 48
_cell_length_a 14.565912
_cell_length_b 26.646889
_cell_length_c 11.396836
_cell_angle_alpha 90.000000
_cell_angle_beta 149.755634
_cell_angle_gamma 90.000000
_cell_volume 2228.081064
_symmetry_space_group_name_H-M "C 2/M"
_symmetry_group_IT_number 12
_symmetry_cell_setting 'monoclinic'
loop_
_space_group_symop_operation_xyz
x,y,z
-x,y,-z
-x,-y,-z
x,-y,z
1/2+x,1/2+y,z
1/2-x,1/2+y,-z
1/2-x,1/2-y,-z
1/2+x,1/2-y,z
loop_
_atom_site_type_symbol
_atom_site_label
_atom_site_fract_x
_atom_site_fract_y
_atom_site_fract_z
Si Si1 0.269850 0.665251 0.497906
Si Si2 0.282296 0.714308 0.262424
Si Si3 0.779584 0.444072 0.895090
Si Si4 0.858572 0.943081 0.516922
Si Si5 0.886998 0.347940 0.137962
Si Si6 0.393789 0.680827 0.988198
O O1 0.229189 0.684494 0.321722
O O2 0.319121 0.606092 0.548835
O O3 0.447043 0.692953 0.742696
O O4 0.090093 0.672720 0.376820
O O5 0.500000 0.717375 0.500000
O O6 0.215773 0.685277 0.073228
O O7 0.192162 0.768622 0.157617
O O8 0.847595 0.500000 0.992953
O O9 0.571472 0.440133 0.713300
O O10 0.758744 0.437625 0.732392
O O11 0.895769 0.402402 0.087959
O O12 0.829104 0.000000 0.529985
O O13 0.765472 0.347892 0.119806
O O14 0.500000 0.653522 0.000000
#
# Coordination Sequence:
#
# PCOD9222717 Si02
#       6
#     8   8   8   8   8   8
#     4  12  25  43  68  96 136 169 212 269 325 390
#     4  12  25  44  69  95 131 167 214 269 332 386
#     4   9  17  33  62  99 134 164 205 259 324 393
#     4   9  17  34  63  99 135 167 200 258 330 390
#     4  12  24  42  66  97 132 174 208 264 329 384
#     4  12  29  46  64  91 127 175 229 266 317 377
#
# _framework density 21.543201
#
# number of rings (size 3 to 8) (size 9 to 14) (size 15 to 20)
#    0.000    1.000    5.000    3.000    2.333    2.000 
#    0.000    1.667    0.000    2.000    0.000    2.333 
#    0.000    0.000    0.000    0.000    0.000    0.000 
#
# Total GULP energy -134300.689516 kJ/mol
# GULP energy per Si atom -5595.862063 kJ/mol
# Density = 2.149417 g / cm^3
# Si number density = 21.543201 Si / 1000 Ang^3
#
#
#
# Elastic Constant Matrix: (Units=GPa)
#
#
# Indices 1 2 3 4 5 6 
#
# 1 99.5422 8.0121 16.2543 0.0000 17.3900 0.0000
# 2 8.0121 88.2008 29.1085 0.0000 -2.6418 0.0000
# 3 16.2543 29.1085 62.5716 0.0000 25.8170 0.0000
# 4 0.0000 0.0000 0.0000 18.5730 0.0000 10.4575
# 5 17.3900 -2.6418 25.8170 0.0000 31.5219 0.0000
# 6 0.0000 0.0000 0.0000 10.4575 0.0000 6.3966
#
#
#
# Elastic Compliance Matrix: (Units=1/GPa)
#
#
# Indices 1 2 3 4 5 6 
#
# 1 0.011253 -0.001390 0.000503 0.000000 -0.006736 0.000000
# 2 -0.001390 0.015706 -0.011789 0.000000 0.011738 0.000000
# 3 0.000503 -0.011789 0.033013 0.000000 -0.028304 -0.000001
# 4 0.000000 0.000000 0.000000 0.677287 0.000000 -1.107267
# 5 -0.006736 0.011738 -0.028304 0.000000 0.059605 0.000001
# 6 0.000000 0.000000 -0.000001 -1.107267 0.000001 1.966557
#
#
# Mechanical properties :
#
#
# Convention : Reuss Voigt Hill
#
# Bulk Modulus (GPa) = 28.88453 39.67380 34.27917
# Shear Modulus (GPa) = 1.78552 24.42762 13.10657
#
# Velocity S-wave (km/s) = 0.91138 3.37098 2.46922
# Velocity P-wave (km/s) = 3.81370 5.79718 4.90671
#
# Compressibility (1/GPa) = 0.03462061
#
# Stress axis : x y z
#
# Youngs Moduli (GPa) = 88.86876 63.66924 30.29070
#
# Poissons Ratio (x) = 0.08849 -0.01523
# Poissons Ratio (y) = 0.12352 0.35709
# Poissons Ratio (z) = -0.04468 0.75058
#
# Static dielectric constant tensor:
#      x y z
#    x 1.813720 0.000000 0.024470 
#    y 0.000000 1.787620 0.000000 
#    z 0.024470 0.000000 1.788020 
# 
# From -- ./inp_files/149838.got.cif
#   From: 2010.05.17/outbox.cif.g08.bks.cpg/sg12_75_cif.got.tgz:149838.got - 2010.06.03 13:09:07.
