data_PCOD9222841
_publ_section_title
;
Structure prediction by ZEFSAII (Michael W. Deem and Ramdas Pophale) SiO2 
 PCOD9222841
Probable space group: C 2/M
;
_chemical_formula_sum "Si O2"
_cell_formula_units_Z 64
_cell_length_a 35.679262
_cell_length_b 14.257942
_cell_length_c 7.072554
_cell_angle_alpha 90.000000
_cell_angle_beta 84.085893
_cell_angle_gamma 90.000000
_cell_volume 3578.749192
_symmetry_space_group_name_H-M "C 2/M"
_symmetry_group_IT_number 12
_symmetry_cell_setting 'monoclinic'
loop_
_space_group_symop_operation_xyz
x,y,z
-x,y,-z
-x,-y,-z
x,-y,z
1/2+x,1/2+y,z
1/2-x,1/2+y,-z
1/2-x,1/2-y,-z
1/2+x,1/2-y,z
loop_
_atom_site_type_symbol
_atom_site_label
_atom_site_fract_x
_atom_site_fract_y
_atom_site_fract_z
Si Si1 0.050031 0.609876 0.145035
Si Si2 0.889612 0.393070 0.383999
Si Si3 0.278285 0.605580 0.279746
Si Si4 0.528728 0.109582 0.714116
Si Si5 0.318703 0.209901 0.311664
Si Si6 0.632932 0.106964 0.170461
Si Si7 0.296296 0.211104 0.769758
Si Si8 0.755987 0.105056 0.737709
O O1 0.054024 0.500000 0.198725
O O2 0.092310 0.647581 0.132160
O O3 0.013982 0.648185 0.281375
O O4 0.037849 0.612351 0.933349
O O5 0.892882 0.500000 0.305894
O O6 0.931934 0.353416 0.389012
O O7 0.860647 0.331795 0.277053
O O8 0.871924 0.401135 0.600187
O O9 0.288614 0.500000 0.219361
O O10 0.309746 0.686048 0.240928
O O11 0.239366 0.641091 0.205277
O O12 0.268498 0.603722 0.510016
O O13 0.526413 0.000000 0.660125
O O14 0.308857 0.213971 0.542342
O O15 0.286940 0.140911 0.244498
O O16 0.668887 0.173159 0.127578
O O17 0.638831 0.000000 0.095903
O O18 0.281271 0.315010 0.821375
O O19 0.759458 0.000000 0.809851
#
# Coordination Sequence:
#
# PCOD9222841 Si02
#       8
#     8   8   8   8   8   8   8   8
#     4   8  14  24  35  46  63  88 114 136 159 192
#     4   9  15  21  31  48  69  90 110 135 166 195
#     4   8  12  18  28  41  61  90 117 138 163 194
#     4   8  14  24  35  46  63  88 114 136 159 192
#     4   8  13  19  27  43  66  88 111 139 166 192
#     4   9  15  21  31  48  69  90 110 135 166 195
#     4   8  13  19  27  43  66  88 111 139 166 192
#     4   8  12  18  28  41  61  90 117 138 163 194
#
# _framework density 17.883343
#
# number of rings (size 3 to 8) (size 9 to 14) (size 15 to 20)
#    0.000    3.750    0.000    3.000    0.000    3.500 
#    0.000    2.500    0.000    0.000    0.000    3.500 
#    0.000    4.000    0.000   12.500    0.000    2.500 
#
# Total GULP energy -178303.393367 kJ/mol
# GULP energy per Si atom -5571.981043 kJ/mol
# Density = 1.784264 g / cm^3
# Si number density = 17.883343 Si / 1000 Ang^3
#
#
#
# Elastic Constant Matrix: (Units=GPa)
#
#
# Indices 1 2 3 4 5 6 
#
# 1 151.2953 66.3970 22.0922 0.0000 24.6117 0.0000
# 2 66.3970 101.2911 9.5727 0.0000 11.8803 0.0000
# 3 22.0922 9.5727 50.3040 0.0000 4.0095 0.0000
# 4 0.0000 0.0000 0.0000 4.2722 0.0000 3.1114
# 5 24.6117 11.8803 4.0095 0.0000 33.4405 0.0000
# 6 0.0000 0.0000 0.0000 3.1114 0.0000 20.2888
#
#
#
# Elastic Compliance Matrix: (Units=1/GPa)
#
#
# Indices 1 2 3 4 5 6 
#
# 1 0.010551 -0.006009 -0.003071 0.000000 -0.005263 0.000000
# 2 -0.006009 0.013867 0.000041 0.000000 -0.000509 0.000000
# 3 -0.003071 0.000041 0.021244 0.000000 -0.000302 0.000000
# 4 0.000000 0.000000 0.000000 0.263503 0.000000 -0.040409
# 5 -0.005263 -0.000509 -0.000302 0.000000 0.033994 0.000000
# 6 0.000000 0.000000 0.000000 -0.040409 0.000000 0.055485
#
#
# Mechanical properties :
#
#
# Convention : Reuss Voigt Hill
#
# Bulk Modulus (GPa) = 36.25258 55.44599 45.84929
# Shear Modulus (GPa) = 11.73935 25.25552 18.49743
#
# Velocity S-wave (km/s) = 2.56489 3.76205 3.21960
# Velocity P-wave (km/s) = 5.39326 7.06699 6.28608
#
# Compressibility (1/GPa) = 0.02758424
#
# Stress axis : x y z
#
# Youngs Moduli (GPa) = 94.77686 72.11234 47.07192
#
# Poissons Ratio (x) = 0.43331 0.14455
# Poissons Ratio (y) = 0.56950 -0.00191
# Poissons Ratio (z) = 0.29104 -0.00293
#
# Static dielectric constant tensor:
#      x y z
#    x 1.666290 0.000000 -0.017910 
#    y 0.000000 1.582490 0.000000 
#    z -0.017910 0.000000 1.745170 
# 
# From -- ./inp_files/111176.got.cif
#   From: 2010.05.17/outbox.cif.g08.bks.cpg/sg12_56_cif.got.tgz:111176.got - 2010.06.03 13:09:07.
