data_PCOD9222771
_publ_section_title
;
Structure prediction by ZEFSAII (Michael W. Deem and Ramdas Pophale) SiO2 
 PCOD9222771
Probable space group: C 2/M
;
_chemical_formula_sum "Si O2"
_cell_formula_units_Z 36
_cell_length_a 13.272148
_cell_length_b 27.579157
_cell_length_c 8.348910
_cell_angle_alpha 90.000000
_cell_angle_beta 33.939374
_cell_angle_gamma 90.000000
_cell_volume 1706.206388
_symmetry_space_group_name_H-M "C 2/M"
_symmetry_group_IT_number 12
_symmetry_cell_setting 'monoclinic'
loop_
_space_group_symop_operation_xyz
x,y,z
-x,y,-z
-x,-y,-z
x,-y,z
1/2+x,1/2+y,z
1/2-x,1/2+y,-z
1/2-x,1/2-y,-z
1/2+x,1/2-y,z
loop_
_atom_site_type_symbol
_atom_site_label
_atom_site_fract_x
_atom_site_fract_y
_atom_site_fract_z
Si Si1 0.271066 0.894452 0.015781
Si Si2 0.000000 0.675455 0.500000
Si Si3 0.737982 0.000000 0.975616
Si Si4 0.640898 0.500000 0.558016
Si Si5 0.852094 0.892612 0.456215
Si Si6 0.200394 0.204651 0.672653
O O1 0.240235 0.888628 0.246826
O O2 0.069349 0.890828 0.203612
O O3 0.349039 0.948291 0.880847
O O4 0.404341 0.856642 0.761865
O O5 0.158414 0.705328 0.370189
O O6 0.791871 0.000000 0.715741
O O7 0.924375 0.000000 0.829038
O O8 0.692033 0.446629 0.555346
O O9 0.794640 0.847559 0.423500
O O10 0.250000 0.250000 0.500000
O O11 0.000000 0.210213 0.000000
#
# Coordination Sequence:
#
# PCOD9222771 Si02
#       6
#     8   4   4   4   8   8
#     4   9  18  35  66  98 135 178 214 270 317 390
#     4  12  26  43  68  98 132 165 220 272 338 378
#     4   7  12  27  54  97 135 170 219 254 315 377
#     4   7  12  28  63  95 125 178 216 257 312 392
#     4   9  18  40  67  96 135 175 223 261 325 386
#     4  12  29  49  69  97 131 170 220 276 329 392
#
# _framework density 21.099440999999999
#
# number of rings (size 3 to 8) (size 9 to 14) (size 15 to 20)
#    0.000    2.444    2.222    2.667    3.111    3.111 
#    0.000    2.778    0.000    4.000    0.000    0.000 
#    0.000    0.000    0.000    0.000    0.000    0.000 
#
# Total GULP energy -100470.428005 kJ/mol
# GULP energy per Si atom -5581.690445 kJ/mol
# Density = 2.105142 g / cm^3
# Si number density = 21.099441 Si / 1000 Ang^3
#
#
#
# Elastic Constant Matrix: (Units=GPa)
#
#
# Indices 1 2 3 4 5 6 
#
# 1 83.9883 50.4348 36.4656 0.0000 -22.3480 0.0000
# 2 50.4348 140.2300 45.3004 0.0000 -2.7326 0.0000
# 3 36.4656 45.3004 88.3882 0.0000 -9.7706 0.0000
# 4 0.0000 0.0000 0.0000 -137.1101 0.0000 121.5020
# 5 -22.3480 -2.7326 -9.7706 0.0000 11.7243 0.0000
# 6 0.0000 0.0000 0.0000 121.5020 0.0000 -56.3730
#
#
#
# Elastic Compliance Matrix: (Units=1/GPa)
#
#
# Indices 1 2 3 4 5 6 
#
# 1 0.037721 -0.011544 -0.002198 0.000000 0.067379 0.000000
# 2 -0.011544 0.012114 -0.003928 0.000000 -0.022454 0.000000
# 3 -0.002198 -0.003928 0.015057 0.000000 0.007443 0.000000
# 4 0.000000 0.000000 0.000000 0.008015 0.000000 0.017275
# 5 0.067379 -0.022454 0.007443 0.000000 0.214694 0.000000
# 6 0.000000 0.000000 0.000000 0.017275 0.000000 0.019494
#
#
# Mechanical properties :
#
#
# Convention : Reuss Voigt Hill
#
# Bulk Modulus (GPa) = 33.83837 64.11199 48.97518
# Shear Modulus (GPa) = 14.19302 -24.32470 -5.06584
#
# Velocity S-wave (km/s) = 2.59641 -3.39906 -1.55118
# Velocity P-wave (km/s) = 5.00608 3.87902 4.47815
#
# Compressibility (1/GPa) = 0.02955225
#
# Stress axis : x y z
#
# Youngs Moduli (GPa) = 26.51041 82.54603 66.41613
#
# Poissons Ratio (x) = 0.95289 0.14596
# Poissons Ratio (y) = 0.30603 0.26091
# Poissons Ratio (z) = 0.05826 0.32428
#
# Static dielectric constant tensor:
#      x y z
#    x 1.619140 0.000000 0.068980 
#    y 0.000000 1.751600 0.000000 
#    z 0.068980 0.000000 1.687020 
# 
# From -- ./inp_files/67263.got.cif
#   From: 2010.05.17/outbox.cif.g08.bks.cpg/sg12_34_cif.got.tgz:67263.got - 2010.06.03 13:09:07.
