data_PCOD9222193
_publ_section_title
;
Structure prediction by ZEFSAII (Michael W. Deem and Ramdas Pophale) SiO2 
 PCOD9222193
Probable space group: C 2/M
;
_chemical_formula_sum "Si O2"
_cell_formula_units_Z 40
_cell_length_a 19.736095
_cell_length_b 14.840064
_cell_length_c 18.520174
_cell_angle_alpha 90.000000
_cell_angle_beta 22.441429
_cell_angle_gamma 90.000000
_cell_volume 2070.657914
_symmetry_space_group_name_H-M "C 2/M"
_symmetry_group_IT_number 12
_symmetry_cell_setting 'monoclinic'
loop_
_space_group_symop_operation_xyz
x,y,z
-x,y,-z
-x,-y,-z
x,-y,z
1/2+x,1/2+y,z
1/2-x,1/2+y,-z
1/2-x,1/2-y,-z
1/2+x,1/2-y,z
loop_
_atom_site_type_symbol
_atom_site_label
_atom_site_fract_x
_atom_site_fract_y
_atom_site_fract_z
Si Si1 0.169669 0.096950 0.425820
Si Si2 0.254627 0.401227 0.819750
Si Si3 0.544520 0.107456 0.371630
Si Si4 0.415518 0.291660 0.002555
Si Si5 0.240179 0.780616 0.592204
O O1 0.216946 0.097393 0.294639
O O2 0.252552 0.185663 0.374410
O O3 0.957655 0.104677 0.646843
O O4 0.226656 0.000000 0.399774
O O5 0.180147 0.500000 0.913850
O O6 0.144627 0.312917 0.947545
O O7 0.500000 0.125551 0.500000
O O8 0.738857 0.149050 0.169660
O O9 0.401913 0.157840 0.461257
O O10 0.540325 0.000000 0.364299
O O11 0.500000 0.301198 0.000000
O O12 0.556469 0.321138 0.802957
O O13 0.250000 0.750000 0.500000
#
# Coordination Sequence:
#
# PCOD9222193 Si02
#       5
#     8   8   8   8   8
#     4   9  17  34  60  89 125 161 193 245 313 381
#     4   9  17  32  61  95 122 153 201 251 305 380
#     4  11  24  45  70  95 128 171 231 288 322 372
#     4  12  22  38  70  98 122 169 224 267 322 397
#     4  12  26  42  65  95 133 170 212 270 338 392
#
# _framework density 19.317533000000001
#
# number of rings (size 3 to 8) (size 9 to 14) (size 15 to 20)
#    0.000    1.400    6.000    1.200    0.000    4.000 
#    0.000    0.000    0.000    0.000    0.000    0.000 
#    0.000    0.000    0.000    0.000    0.000    0.000 
#
# Total GULP energy -111603.330596 kJ/mol
# GULP energy per Si atom -5580.166530 kJ/mol
# Density = 1.927357 g / cm^3
# Si number density = 19.317533 Si / 1000 Ang^3
#
#
#
# Elastic Constant Matrix: (Units=GPa)
#
#
# Indices 1 2 3 4 5 6 
#
# 1 59.7122 38.3283 59.2736 0.0007 -8.2112 0.0010
# 2 38.3283 88.0674 47.1623 -0.0022 -17.7048 -0.0003
# 3 59.2736 47.1623 142.0919 0.0052 -17.9128 -0.0032
# 4 0.0007 -0.0022 0.0052 7.7506 -0.0025 7.8504
# 5 -8.2112 -17.7048 -17.9128 -0.0025 21.9043 0.0008
# 6 0.0010 -0.0003 -0.0032 7.8504 0.0008 -4.4353
#
#
#
# Elastic Compliance Matrix: (Units=1/GPa)
#
#
# Indices 1 2 3 4 5 6 
#
# 1 0.033462 -0.009322 -0.011409 -0.000005 -0.004321 0.000006
# 2 -0.009322 0.017893 -0.000744 0.000004 0.010360 0.000006
# 3 -0.011409 -0.000744 0.012743 0.000002 0.005542 -0.000008
# 4 -0.000005 0.000004 0.000002 0.046199 0.000005 0.081770
# 5 -0.004321 0.010360 0.005542 0.000005 0.056939 0.000013
# 6 0.000006 0.000006 -0.000008 0.081770 0.000013 -0.080731
#
#
# Mechanical properties :
#
#
# Convention : Reuss Voigt Hill
#
# Bulk Modulus (GPa) = 47.28860 64.37777 55.83318
# Shear Modulus (GPa) = 36.62873 14.71773 25.67323
#
# Velocity S-wave (km/s) = 4.35919 2.76322 3.64952
# Velocity P-wave (km/s) = 7.06184 6.60143 6.83551
#
# Compressibility (1/GPa) = 0.02114674
#
# Stress axis : x y z
#
# Youngs Moduli (GPa) = 29.88481 55.88689 78.47556
#
# Poissons Ratio (x) = 0.52097 0.89535
# Poissons Ratio (y) = 0.27858 0.05842
# Poissons Ratio (z) = 0.34096 0.04160
#
# Static dielectric constant tensor:
#      x y z
#    x 1.933090 0.000000 0.223490 
#    y 0.000000 1.679200 0.000000 
#    z 0.223490 0.000000 1.996880 
# 
# From -- ./inp_files/284413.got.cif
#   From: 2010.05.17/outbox.cif.g08.bks.cpg/sg12_143_cif.got.tgz:284413.got - 2010.06.03 13:09:07.
