data_PCOD9222780
_publ_section_title
;
Structure prediction by ZEFSAII (Michael W. Deem and Ramdas Pophale) SiO2 
 PCOD9222780
Probable space group: C 2/M
;
_chemical_formula_sum "Si O2"
_cell_formula_units_Z 28
_cell_length_a 13.191053
_cell_length_b 19.020828
_cell_length_c 9.294085
_cell_angle_alpha 90.000000
_cell_angle_beta 30.854136
_cell_angle_gamma 90.000000
_cell_volume 1195.940193
_symmetry_space_group_name_H-M "C 2/M"
_symmetry_group_IT_number 12
_symmetry_cell_setting 'monoclinic'
loop_
_space_group_symop_operation_xyz
x,y,z
-x,y,-z
-x,-y,-z
x,-y,z
1/2+x,1/2+y,z
1/2-x,1/2+y,-z
1/2-x,1/2-y,-z
1/2+x,1/2-y,z
loop_
_atom_site_type_symbol
_atom_site_label
_atom_site_fract_x
_atom_site_fract_y
_atom_site_fract_z
Si Si1 0.278357 0.841657 0.259131
Si Si2 0.000000 0.741651 0.500000
Si Si3 0.709415 0.647517 0.663574
Si Si4 0.927038 0.500000 0.426191
Si Si5 0.735840 0.500000 0.218748
O O1 0.180706 0.828984 0.533556
O O2 0.282431 0.925163 0.233020
O O3 0.172110 0.799709 0.259979
O O4 0.500000 0.815253 0.000000
O O5 0.882282 0.692201 0.532310
O O6 0.795815 0.568570 0.555986
O O7 0.500000 0.650005 0.000000
O O8 0.000000 0.500000 0.500000
O O9 0.127012 0.500000 0.088822
O O10 0.500000 0.500000 0.500000
#
# Coordination Sequence:
#
# PCOD9222780 Si02
#       5
#     8   4   8   4   4
#     4  12  26  49  76 106 151 197 250 305 370 440
#     4  12  28  48  74 112 156 190 252 302 374 450
#     4  12  28  48  76 111 151 199 246 304 378 437
#     4  12  26  50  78 109 150 192 251 313 368 435
#     4  12  26  49  80 111 142 197 254 313 365 431
#
# _framework density 23.412541999999998
#
# number of rings (size 3 to 8) (size 9 to 14) (size 15 to 20)
#    0.000    0.000    5.714    3.429    4.000    4.571 
#    0.000    0.000    0.000    0.000    0.000    0.000 
#    0.000    0.000    0.000    0.000    0.000    0.000 
#
# Total GULP energy -78230.411767 kJ/mol
# GULP energy per Si atom -5587.886555 kJ/mol
# Density = 2.335925 g / cm^3
# Si number density = 23.412542 Si / 1000 Ang^3
#
#
#
# Elastic Constant Matrix: (Units=GPa)
#
#
# Indices 1 2 3 4 5 6 
#
# 1 144.6110 60.1597 74.0743 0.0117 -18.0478 -0.0033
# 2 60.1597 191.9520 33.5311 -0.0044 -7.0278 -0.0021
# 3 74.0743 33.5311 208.6147 -0.0156 -4.3634 -0.0067
# 4 0.0117 -0.0044 -0.0156 -90.9627 -0.0189 -36.7271
# 5 -18.0478 -7.0278 -4.3634 -0.0189 54.5107 0.0014
# 6 -0.0033 -0.0021 -0.0067 -36.7271 0.0014 34.3319
#
#
#
# Elastic Compliance Matrix: (Units=1/GPa)
#
#
# Indices 1 2 3 4 5 6 
#
# 1 0.009828 -0.002451 -0.003039 0.000001 0.002695 0.000001
# 2 -0.002451 0.005992 -0.000094 0.000000 -0.000046 0.000000
# 3 -0.003039 -0.000094 0.005876 -0.000001 -0.000548 0.000000
# 4 0.000001 0.000000 -0.000001 -0.007677 -0.000002 -0.008213
# 5 0.002695 -0.000046 -0.000548 -0.000002 0.019187 -0.000003
# 6 0.000001 0.000000 0.000000 -0.008213 -0.000003 0.020341
#
#
# Mechanical properties :
#
#
# Convention : Reuss Voigt Hill
#
# Bulk Modulus (GPa) = 94.97861 97.85644 96.41752
# Shear Modulus (GPa) = 73.28685 24.73682 49.01183
#
# Velocity S-wave (km/s) = 5.60092 3.25401 4.58033
# Velocity P-wave (km/s) = 9.08199 7.48368 8.32130
#
# Compressibility (1/GPa) = 0.01052869
#
# Stress axis : x y z
#
# Youngs Moduli (GPa) = 101.75340 166.87857 170.17289
#
# Poissons Ratio (x) = 0.40894 0.51721
# Poissons Ratio (y) = 0.24935 0.01600
# Poissons Ratio (z) = 0.30926 0.01569
#
# Static dielectric constant tensor:
#      x y z
#    x 1.893510 -0.000010 0.018590 
#    y -0.000010 1.914860 0.000000 
#    z 0.018590 0.000000 1.872120 
# 
# From -- ./inp_files/63070.got.cif
#   From: 2010.05.17/outbox.cif.g08.bks.cpg/sg12_32_cif.got.tgz:63070.got - 2010.06.03 13:09:07.
