data_PCOD9222788
_publ_section_title
;
Structure prediction by ZEFSAII (Michael W. Deem and Ramdas Pophale) SiO2 
 PCOD9222788
Probable space group: C 2/M
;
_chemical_formula_sum "Si O2"
_cell_formula_units_Z 24
_cell_length_a 9.570733
_cell_length_b 18.423437
_cell_length_c 7.500230
_cell_angle_alpha 90.000000
_cell_angle_beta 45.307348
_cell_angle_gamma 90.000000
_cell_volume 940.140243
_symmetry_space_group_name_H-M "C 2/M"
_symmetry_group_IT_number 12
_symmetry_cell_setting 'monoclinic'
loop_
_space_group_symop_operation_xyz
x,y,z
-x,y,-z
-x,-y,-z
x,-y,z
1/2+x,1/2+y,z
1/2-x,1/2+y,-z
1/2-x,1/2-y,-z
1/2+x,1/2-y,z
loop_
_atom_site_type_symbol
_atom_site_label
_atom_site_fract_x
_atom_site_fract_y
_atom_site_fract_z
Si Si1 0.630178 0.081264 0.604398
Si Si2 0.109091 0.804812 0.731390
Si Si3 0.798394 0.084338 0.851531
O O1 0.732266 0.132606 0.370034
O O2 0.750217 0.086764 0.683943
O O3 0.645924 0.000000 0.524590
O O4 0.409080 0.095040 0.863778
O O5 0.250000 0.750000 0.500000
O O6 0.939522 0.849701 0.780632
O O7 0.000000 0.771535 0.000000
O O8 0.864740 0.000000 0.829976
#
# Coordination Sequence:
#
# PCOD9222788 Si02
#       3
#     8   8   8
#     4   9  20  44  76 105 132 173 230 292 346 402
#     4  12  28  45  64 100 144 191 227 278 341 412
#     4   9  20  44  78 105 133 176 230 287 346 408
#
# _framework density 25.528106999999999
#
# number of rings (size 3 to 8) (size 9 to 14) (size 15 to 20)
#    0.000    2.000    0.000    4.000    4.667    8.000 
#    6.000    3.333    0.000    0.000    0.000    0.000 
#    0.000    0.000    0.000    0.000    0.000    0.000 
#
# Total GULP energy -67129.904159 kJ/mol
# GULP energy per Si atom -5594.158680 kJ/mol
# Density = 2.547000 g / cm^3
# Si number density = 25.528107 Si / 1000 Ang^3
#
#
#
# Elastic Constant Matrix: (Units=GPa)
#
#
# Indices 1 2 3 4 5 6 
#
# 1 109.7003 62.4141 32.2598 0.0000 3.6196 0.0000
# 2 62.4141 131.3938 79.9335 0.0000 -18.6174 0.0000
# 3 32.2598 79.9335 190.1366 0.0000 -22.5253 0.0000
# 4 0.0000 0.0000 0.0000 57.2087 0.0000 -25.6808
# 5 3.6196 -18.6174 -22.5253 0.0000 43.1036 0.0000
# 6 0.0000 0.0000 0.0000 -25.6808 0.0000 9.5300
#
#
#
# Elastic Compliance Matrix: (Units=1/GPa)
#
#
# Indices 1 2 3 4 5 6 
#
# 1 0.013127 -0.006931 0.000214 0.000000 -0.003984 0.000000
# 2 -0.006931 0.014106 -0.004225 0.000000 0.004467 0.000000
# 3 0.000214 -0.004225 0.007228 0.000000 0.001935 0.000000
# 4 0.000000 0.000000 0.000000 -0.083376 0.000000 -0.224675
# 5 -0.003984 0.004467 0.001935 0.000000 0.026475 0.000000
# 6 0.000000 0.000000 0.000000 -0.224675 0.000000 -0.500506
#
#
# Mechanical properties :
#
#
# Convention : Reuss Voigt Hill
#
# Bulk Modulus (GPa) = 79.49637 86.71618 83.10628
# Shear Modulus (GPa) = -10.06299 39.07668 14.50684
#
# Velocity S-wave (km/s) = -1.98758 3.91670 2.38643
# Velocity P-wave (km/s) = 5.09323 7.38219 6.34183
#
# Compressibility (1/GPa) = 0.01257919
#
# Stress axis : x y z
#
# Youngs Moduli (GPa) = 76.17705 70.89117 138.34236
#
# Poissons Ratio (x) = 0.49132 -0.02966
# Poissons Ratio (y) = 0.52795 0.58452
# Poissons Ratio (z) = -0.01633 0.29953
#
# Static dielectric constant tensor:
#      x y z
#    x 2.111830 0.000000 0.012260 
#    y 0.000000 2.045820 0.000000 
#    z 0.012260 0.000000 1.998220 
# 
# From -- ./inp_files/47687.got.cif
#   From: 2010.05.17/outbox.cif.g08.bks.cpg/sg12_24_cif.got.tgz:47687.got - 2010.06.03 13:09:07.
