data_PCOD9222990
_publ_section_title
;
Structure prediction by ZEFSAII (Michael W. Deem and Ramdas Pophale) SiO2 
 PCOD9222990
Probable space group: C 2/M
;
_chemical_formula_sum "Si O2"
_cell_formula_units_Z 36
_cell_length_a 9.910839
_cell_length_b 18.571385
_cell_length_c 13.407100
_cell_angle_alpha 90.000000
_cell_angle_beta 143.490420
_cell_angle_gamma 90.000000
_cell_volume 1468.166388
_symmetry_space_group_name_H-M "C 2/M"
_symmetry_group_IT_number 12
_symmetry_cell_setting 'monoclinic'
loop_
_space_group_symop_operation_xyz
x,y,z
-x,y,-z
-x,-y,-z
x,-y,z
1/2+x,1/2+y,z
1/2-x,1/2+y,-z
1/2-x,1/2-y,-z
1/2+x,1/2-y,z
loop_
_atom_site_type_symbol
_atom_site_label
_atom_site_fract_x
_atom_site_fract_y
_atom_site_fract_z
Si Si1 0.056200 0.817122 0.159461
Si Si2 0.947660 0.229467 0.310711
Si Si3 0.500000 0.159442 0.500000
Si Si4 0.682057 0.580865 0.728930
Si Si5 0.323942 0.919337 0.048216
O O1 0.190016 0.756702 0.177814
O O2 0.263674 0.871510 0.318536
O O3 0.975697 0.775509 0.210327
O O4 0.842023 0.863313 0.996849
O O5 0.976830 0.149800 0.373351
O O6 0.076398 0.288531 0.453700
O O7 0.593832 0.500000 0.658762
O O8 0.755548 0.582257 0.889833
O O9 0.906445 0.592516 0.795091
O O10 0.284147 0.000000 0.062360
#
# Coordination Sequence:
#
# PCOD9222990 Si02
#       5
#     8   8   4   8   8
#     4   9  17  28  45  64  86 113 141 174 212 248
#     4   9  17  28  45  64  86 113 141 174 212 248
#     4   8  18  28  42  64  86 116 140 174 206 244
#     4   8  14  26  44  65  86 108 140 179 212 246
#     4   8  14  26  44  65  86 108 140 179 212 246
#
# _framework density 24.520382000000001
#
# number of rings (size 3 to 8) (size 9 to 14) (size 15 to 20)
#    1.333    2.222    0.000    2.000    0.000    0.889 
#    0.000    1.111    0.000    1.333    0.000    3.111 
#    0.000    0.000    0.000    0.000    0.000    0.000 
#
# Total GULP energy -100277.132693 kJ/mol
# GULP energy per Si atom -5570.951816 kJ/mol
# Density = 2.446457 g / cm^3
# Si number density = 24.520382 Si / 1000 Ang^3
#
#
#
# Elastic Constant Matrix: (Units=GPa)
#
#
# Indices 1 2 3 4 5 6 
#
# 1 97.9927 18.3116 13.0173 0.0000 17.8199 -0.0001
# 2 18.3116 95.7695 27.6748 0.0000 23.7096 0.0000
# 3 13.0173 27.6748 46.8149 0.0001 -1.5737 -0.0002
# 4 0.0000 0.0000 0.0001 12.1092 0.0000 17.0626
# 5 17.8199 23.7096 -1.5737 0.0000 30.9510 -0.0001
# 6 -0.0001 0.0000 -0.0002 17.0626 -0.0001 26.0061
#
#
#
# Elastic Compliance Matrix: (Units=1/GPa)
#
#
# Indices 1 2 3 4 5 6 
#
# 1 0.012001 0.000792 -0.004065 0.000001 -0.007723 -0.000001
# 2 0.000792 0.016786 -0.010609 0.000003 -0.013854 -0.000002
# 3 -0.004065 -0.010609 0.029164 -0.000006 0.011950 0.000004
# 4 0.000001 0.000003 -0.000006 1.093529 -0.000006 -0.717462
# 5 -0.007723 -0.013854 0.011950 -0.000006 0.047976 0.000004
# 6 -0.000001 -0.000002 0.000004 -0.717462 0.000004 0.509178
#
#
# Mechanical properties :
#
#
# Convention : Reuss Voigt Hill
#
# Bulk Modulus (GPa) = 33.12615 39.84271 36.48443
# Shear Modulus (GPa) = 2.86293 25.91816 14.39055
#
# Velocity S-wave (km/s) = 1.08172 3.25469 2.42519
# Velocity P-wave (km/s) = 3.88576 5.51435 4.77007
#
# Compressibility (1/GPa) = 0.03018763
#
# Stress axis : x y z
#
# Youngs Moduli (GPa) = 83.32476 59.57425 34.28867
#
# Poissons Ratio (x) = -0.04718 0.13938
# Poissons Ratio (y) = -0.06598 0.36376
# Poissons Ratio (z) = 0.33870 0.63201
#
# Static dielectric constant tensor:
#      x y z
#    x 2.026400 0.000000 -0.029970 
#    y 0.000000 1.945460 0.000000 
#    z -0.029970 0.000000 2.172100 
# 
# From -- ./inp_files/251569.got.cif
#   From: 2010.05.17/outbox.cif.g08.bks.cpg/sg12_126_cif.got.tgz:251569.got - 2010.06.03 13:09:07.
