data_PCOD9222032
_publ_section_title
;
Structure prediction by ZEFSAII (Michael W. Deem and Ramdas Pophale) SiO2 
 PCOD9222032
Probable space group: C 2/M
;
_chemical_formula_sum "Si O2"
_cell_formula_units_Z 44
_cell_length_a 8.512983
_cell_length_b 17.688529
_cell_length_c 19.789774
_cell_angle_alpha 90.000000
_cell_angle_beta 127.972970
_cell_angle_gamma 90.000000
_cell_volume 2349.126790
_symmetry_space_group_name_H-M "C 2/M"
_symmetry_group_IT_number 12
_symmetry_cell_setting 'monoclinic'
loop_
_space_group_symop_operation_xyz
x,y,z
-x,y,-z
-x,-y,-z
x,-y,z
1/2+x,1/2+y,z
1/2-x,1/2+y,-z
1/2-x,1/2-y,-z
1/2+x,1/2-y,z
loop_
_atom_site_type_symbol
_atom_site_label
_atom_site_fract_x
_atom_site_fract_y
_atom_site_fract_z
Si Si1 0.394042 0.409943 0.047086
Si Si2 0.729667 0.198460 0.560807
Si Si3 0.000000 0.670191 0.000000
Si Si4 0.361762 0.195294 0.719447
Si Si5 0.688069 0.716208 0.159520
Si Si6 0.039590 0.911191 0.588146
O O1 0.399460 0.500000 0.064276
O O2 0.532392 0.352428 0.126600
O O3 0.500000 0.402351 0.000000
O O4 0.168251 0.378484 0.002904
O O5 0.500000 0.175390 0.500000
O O6 0.750000 0.250000 0.500000
O O7 0.801019 0.246960 0.643606
O O8 0.873250 0.127905 0.589543
O O9 0.112287 0.727006 0.081259
O O10 0.284961 0.233690 0.766946
O O11 0.593766 0.183228 0.794862
O O12 0.250062 0.119304 0.669461
O O13 0.000000 0.887147 0.500000
O O14 0.027820 0.000000 0.588112
#
# Coordination Sequence:
#
# PCOD9222032 Si02
#       6
#     8   8   4   8   8   8
#     4  11  24  43  67  98 131 171 225 281 337 395
#     4  12  20  39  67  92 125 169 214 260 323 399
#     4  12  23  46  67  96 134 186 224 266 343 406
#     4  12  22  38  66  97 121 171 218 270 317 386
#     4  12  23  40  68  94 127 170 230 269 315 398
#     4  11  24  42  64  97 133 167 212 267 329 391
#
# _framework density 18.730364000000002
#
# number of rings (size 3 to 8) (size 9 to 14) (size 15 to 20)
#    0.000    0.364    8.182    1.909    0.000    1.091 
#    0.000    4.545    0.000    0.000    0.000    0.000 
#    0.000    0.000    0.000    0.000    0.000    0.000 
#
# Total GULP energy -122739.838495 kJ/mol
# GULP energy per Si atom -5579.083568 kJ/mol
# Density = 1.868773 g / cm^3
# Si number density = 18.730364 Si / 1000 Ang^3
#
#
#
# Elastic Constant Matrix: (Units=GPa)
#
#
# Indices 1 2 3 4 5 6 
#
# 1 97.4632 29.3156 21.0865 0.0000 25.1332 0.0000
# 2 29.3156 96.7110 31.4002 0.0000 7.8759 0.0000
# 3 21.0865 31.4002 90.8571 0.0000 -6.7562 0.0000
# 4 0.0000 0.0000 0.0000 13.7117 0.0000 14.5295
# 5 25.1332 7.8759 -6.7562 0.0000 43.3030 0.0000
# 6 0.0000 0.0000 0.0000 14.5295 0.0000 26.6545
#
#
#
# Elastic Compliance Matrix: (Units=1/GPa)
#
#
# Indices 1 2 3 4 5 6 
#
# 1 0.013704 -0.002572 -0.002882 0.000000 -0.007935 0.000000
# 2 -0.002572 0.012470 -0.003815 0.000000 -0.001370 0.000000
# 3 -0.002882 -0.003815 0.013324 0.000000 0.004445 0.000000
# 4 0.000000 0.000000 0.000000 0.172665 0.000000 -0.094121
# 5 -0.007935 -0.001370 0.004445 0.000000 0.028642 0.000000
# 6 0.000000 0.000000 0.000000 -0.094121 0.000000 0.088823
#
#
# Mechanical properties :
#
#
# Convention : Reuss Voigt Hill
#
# Bulk Modulus (GPa) = 47.70756 49.84843 48.77800
# Shear Modulus (GPa) = 14.07853 30.28244 22.18048
#
# Velocity S-wave (km/s) = 2.74458 4.02525 3.44495
# Velocity P-wave (km/s) = 5.96403 6.94802 6.47475
#
# Compressibility (1/GPa) = 0.02096104
#
# Stress axis : x y z
#
# Youngs Moduli (GPa) = 72.97290 80.19339 75.05313
#
# Poissons Ratio (x) = 0.20627 0.21627
# Poissons Ratio (y) = 0.18769 0.28629
# Poissons Ratio (z) = 0.21028 0.30590
#
# Static dielectric constant tensor:
#      x y z
#    x 1.943580 0.000000 0.271330 
#    y 0.000000 1.623250 0.000000 
#    z 0.271330 0.000000 1.969100 
# 
# From -- ./inp_files/257298.got.cif
#   From: 2010.05.17/outbox.cif.g08.bks.cpg/sg12_129_cif.got.tgz:257298.got - 2010.06.03 13:09:07.
