data_PCOD9222571
_publ_section_title
;
Structure prediction by ZEFSAII (Michael W. Deem and Ramdas Pophale) SiO2 
 PCOD9222571
Probable space group: C 2/M
;
_chemical_formula_sum "Si O2"
_cell_formula_units_Z 44
_cell_length_a 15.758950
_cell_length_b 25.598374
_cell_length_c 5.046050
_cell_angle_alpha 90.000000
_cell_angle_beta 76.563611
_cell_angle_gamma 90.000000
_cell_volume 1979.876938
_symmetry_space_group_name_H-M "C 2/M"
_symmetry_group_IT_number 12
_symmetry_cell_setting 'monoclinic'
loop_
_space_group_symop_operation_xyz
x,y,z
-x,y,-z
-x,-y,-z
x,-y,z
1/2+x,1/2+y,z
1/2-x,1/2+y,-z
1/2-x,1/2-y,-z
1/2+x,1/2-y,z
loop_
_atom_site_type_symbol
_atom_site_label
_atom_site_fract_x
_atom_site_fract_y
_atom_site_fract_z
Si Si1 0.940542 0.822859 0.804841
Si Si2 0.900292 0.338225 0.498887
Si Si3 0.301987 0.409204 0.966007
Si Si4 0.807928 0.561988 0.449548
Si Si5 0.839417 0.279000 0.016165
Si Si6 0.938971 0.000000 0.794910
O O1 0.913303 0.763793 0.894082
O O2 0.000000 0.825478 0.500000
O O3 0.849786 0.854725 0.866404
O O4 0.000000 0.844265 0.000000
O O5 0.888301 0.398935 0.437645
O O6 0.847774 0.326166 0.804204
O O7 0.000000 0.326486 0.500000
O O8 0.858873 0.301940 0.295170
O O9 0.266540 0.419076 0.287617
O O10 0.226524 0.424713 0.817043
O O11 0.377915 0.450182 0.849725
O O12 0.822610 0.500000 0.470790
O O13 0.750000 0.250000 0.000000
O O14 0.000000 0.000000 0.500000
O O15 0.000000 0.000000 0.000000
#
# Coordination Sequence:
#
# PCOD9222571 Si02
#       6
#     8   8   8   8   8   4
#     4  12  24  41  65  97 137 175 216 273 333 401
#     4  12  26  45  71 102 137 175 228 288 344 405
#     4  12  24  43  64  98 132 179 228 272 333 403
#     4  12  24  45  69  96 131 180 227 284 340 397
#     4  12  25  45  70 101 134 179 225 274 343 414
#     4  12  22  38  62  92 131 174 223 276 328 386
#
# _framework density 22.223602
#
# number of rings (size 3 to 8) (size 9 to 14) (size 15 to 20)
#    0.000    0.000    1.818   10.364    0.000    0.364 
#    0.000    0.000    0.000    4.364    0.000    0.000 
#    0.000    0.000    0.000    0.000    0.000    0.000 
#
# Total GULP energy -123096.496752 kJ/mol
# GULP energy per Si atom -5595.295307 kJ/mol
# Density = 2.217302 g / cm^3
# Si number density = 22.223602 Si / 1000 Ang^3
#
#
#
# Elastic Constant Matrix: (Units=GPa)
#
#
# Indices 1 2 3 4 5 6 
#
# 1 110.9247 20.7110 21.7562 0.0000 14.8057 0.0000
# 2 20.7110 120.5779 1.1450 0.0000 0.4507 0.0000
# 3 21.7562 1.1450 119.9292 0.0000 11.1262 0.0000
# 4 0.0000 0.0000 0.0000 -7.0178 0.0000 6.7577
# 5 14.8057 0.4507 11.1262 0.0000 31.1871 0.0000
# 6 0.0000 0.0000 0.0000 6.7577 0.0000 47.5161
#
#
#
# Elastic Compliance Matrix: (Units=1/GPa)
#
#
# Indices 1 2 3 4 5 6 
#
# 1 0.010192 -0.001721 -0.001433 0.000000 -0.004302 0.000000
# 2 -0.001721 0.008585 0.000172 0.000000 0.000632 0.000000
# 3 -0.001433 0.000172 0.008826 0.000000 -0.002471 0.000000
# 4 0.000000 0.000000 0.000000 -0.125332 0.000000 0.017824
# 5 -0.004302 0.000632 -0.002471 0.000000 0.034979 0.000000
# 6 0.000000 0.000000 0.000000 0.017824 0.000000 0.018511
#
#
# Mechanical properties :
#
#
# Convention : Reuss Voigt Hill
#
# Bulk Modulus (GPa) = 46.21620 48.73959 47.47789
# Shear Modulus (GPa) = -160.96996 34.85840 -63.05578
#
# Velocity S-wave (km/s) = -8.51993 3.96476 -5.33244
# Velocity P-wave (km/s) = 8.71461 6.55273 4.06241
#
# Compressibility (1/GPa) = 0.02163743
#
# Stress axis : x y z
#
# Youngs Moduli (GPa) = 98.11813 116.48238 113.30355
#
# Poissons Ratio (x) = 0.20045 0.16240
# Poissons Ratio (y) = 0.16885 -0.01944
# Poissons Ratio (z) = 0.14063 -0.01999
#
# Static dielectric constant tensor:
#      x y z
#    x 1.853340 0.000000 -0.008490 
#    y 0.000000 1.807860 0.000000 
#    z -0.008490 0.000000 1.783800 
# 
# From -- ./inp_files/12089.got.cif
#   From: 2010.05.17/outbox.cif.g08.bks.cpg/sg12_7_cif.got.tgz:12089.got - 2010.06.03 13:09:07.
