data_PCOD9222864
_publ_section_title
;
Structure prediction by ZEFSAII (Michael W. Deem and Ramdas Pophale) SiO2 
 PCOD9222864
Probable space group: C 2/M
;
_chemical_formula_sum "Si O2"
_cell_formula_units_Z 64
_cell_length_a 13.552790
_cell_length_b 30.511396
_cell_length_c 13.869066
_cell_angle_alpha 90.000000
_cell_angle_beta 148.933801
_cell_angle_gamma 90.000000
_cell_volume 2959.452329
_symmetry_space_group_name_H-M "C 2/M"
_symmetry_group_IT_number 12
_symmetry_cell_setting 'monoclinic'
loop_
_space_group_symop_operation_xyz
x,y,z
-x,y,-z
-x,-y,-z
x,-y,z
1/2+x,1/2+y,z
1/2-x,1/2+y,-z
1/2-x,1/2-y,-z
1/2+x,1/2-y,z
loop_
_atom_site_type_symbol
_atom_site_label
_atom_site_fract_x
_atom_site_fract_y
_atom_site_fract_z
Si Si1 0.725641 0.949825 0.064009
Si Si2 0.693546 0.805726 0.066464
Si Si3 0.452715 0.869378 0.336913
Si Si4 0.869501 0.854481 0.738431
Si Si5 0.087685 0.621245 0.226667
Si Si6 0.003817 0.125808 0.635297
Si Si7 0.863267 0.067348 0.963184
Si Si8 0.173550 0.206349 0.046400
O O1 0.528249 0.921939 0.904862
O O2 0.796024 0.951435 0.010100
O O3 0.711021 0.000000 0.085533
O O4 0.879808 0.919075 0.247843
O O5 0.682382 0.755783 0.090245
O O6 0.846156 0.834679 0.253141
O O7 0.503533 0.835555 0.898684
O O8 0.759331 0.799241 0.009539
O O9 0.645263 0.862477 0.558225
O O10 0.524850 0.874880 0.286074
O O11 0.326415 0.913064 0.245328
O O12 0.314116 0.827303 0.217851
O O13 0.915887 0.858714 0.664436
O O14 0.002373 0.891770 0.895032
O O15 0.955655 0.810496 0.855799
O O16 0.317261 0.618854 0.413143
O O17 0.000000 0.044015 0.000000
#
# Coordination Sequence:
#
# PCOD9222864 Si02
#       8
#     8   8   8   8   8   8   8   8
#     4   9  17  27  37  48  60  76 103 139 177 215
#     4   8  13  20  31  49  68  82  98 117 138 175
#     4   8  14  24  35  46  62  82 100 121 154 194
#     4   8  14  24  35  46  62  82 100 121 154 194
#     4   8  14  24  35  46  62  82 100 121 154 194
#     4   8  14  24  35  46  62  82 100 121 154 194
#     4   9  17  27  37  48  60  76 103 139 177 215
#     4   8  13  20  31  49  68  82  98 117 138 175
#
# _framework density 21.625623999999998
#
# number of rings (size 3 to 8) (size 9 to 14) (size 15 to 20)
#    0.000    3.750    0.000    3.000    0.000    2.250 
#    0.000    5.000    0.000    0.000    0.000    7.000 
#    0.000    0.000    0.000    0.000    0.000    0.000 
#
# Total GULP energy -178379.957652 kJ/mol
# GULP energy per Si atom -5574.373677 kJ/mol
# Density = 2.157640 g / cm^3
# Si number density = 21.625624 Si / 1000 Ang^3
#
#
#
# Elastic Constant Matrix: (Units=GPa)
#
#
# Indices 1 2 3 4 5 6 
#
# 1 63.0048 10.8700 24.9457 0.0000 -0.0276 0.0000
# 2 10.8700 184.5751 87.5710 0.0000 14.1764 0.0000
# 3 24.9457 87.5710 185.8772 0.0000 30.9481 0.0000
# 4 0.0000 0.0000 0.0000 -0.7235 0.0000 -0.3967
# 5 -0.0276 14.1764 30.9481 0.0000 34.4270 0.0000
# 6 0.0000 0.0000 0.0000 -0.3967 0.0000 -0.3097
#
#
#
# Elastic Compliance Matrix: (Units=1/GPa)
#
#
# Indices 1 2 3 4 5 6 
#
# 1 0.016934 0.000111 -0.002728 0.000000 0.002420 0.000000
# 2 0.000111 0.006978 -0.003321 0.000000 0.000112 0.000000
# 3 -0.002728 -0.003321 0.008330 0.000000 -0.006123 0.000000
# 4 0.000000 0.000000 0.000000 -4.644503 0.000000 5.949843
# 5 0.002420 0.000112 -0.006123 0.000000 0.034507 0.000000
# 6 0.000000 0.000000 0.000000 5.949843 0.000000-10.851420
#
#
# Mechanical properties :
#
#
# Convention : Reuss Voigt Hill
#
# Bulk Modulus (GPa) = 49.10080 75.58115 62.34098
# Shear Modulus (GPa) = -0.32445 27.35013 13.51284
#
# Velocity S-wave (km/s) = -0.38776 3.56013 2.50242
# Velocity P-wave (km/s) = 4.74908 7.20591 6.10241
#
# Compressibility (1/GPa) = 0.02036626
#
# Stress axis : x y z
#
# Youngs Moduli (GPa) = 59.05363 143.29782 120.04525
#
# Poissons Ratio (x) = -0.01592 0.32747
# Poissons Ratio (y) = -0.00656 0.39871
# Poissons Ratio (z) = 0.16109 0.47594
#
# Static dielectric constant tensor:
#      x y z
#    x 1.944820 0.000000 -0.000540 
#    y 0.000000 1.733560 0.000000 
#    z -0.000540 0.000000 1.764780 
# 
# From -- ./inp_files/323210.got.cif
#   From: 2010.05.17/outbox.cif.g08.bks.cpg/sg12_162_cif.got.tgz:323210.got - 2010.06.03 13:09:07.
