data_PCOD9222737
_publ_section_title
;
Structure prediction by ZEFSAII (Michael W. Deem and Ramdas Pophale) SiO2 
 PCOD9222737
Probable space group: C 2/M
;
_chemical_formula_sum "Si O2"
_cell_formula_units_Z 56
_cell_length_a 9.455653
_cell_length_b 15.393669
_cell_length_c 23.474732
_cell_angle_alpha 90.000000
_cell_angle_beta 127.171395
_cell_angle_gamma 90.000000
_cell_volume 2722.706935
_symmetry_space_group_name_H-M "C 2/M"
_symmetry_group_IT_number 12
_symmetry_cell_setting 'monoclinic'
loop_
_space_group_symop_operation_xyz
x,y,z
-x,y,-z
-x,-y,-z
x,-y,z
1/2+x,1/2+y,z
1/2-x,1/2+y,-z
1/2-x,1/2-y,-z
1/2+x,1/2-y,z
loop_
_atom_site_type_symbol
_atom_site_label
_atom_site_fract_x
_atom_site_fract_y
_atom_site_fract_z
Si Si1 0.860719 0.103270 0.634259
Si Si2 0.895429 0.894069 0.206205
Si Si3 0.223183 0.894069 0.206205
Si Si4 0.831640 0.159860 0.500000
Si Si5 0.457942 0.103270 0.365741
Si Si6 0.516024 0.106472 0.069434
Si Si7 0.692281 0.393529 0.069435
O O1 0.880660 0.117559 0.572392
O O2 0.673672 0.136769 0.615781
O O3 0.020200 0.136050 0.713334
O O4 0.857496 0.000000 0.641272
O O5 0.699724 0.863966 0.142644
O O6 0.038723 0.871462 0.192483
O O7 0.887820 0.000000 0.205860
O O8 0.380196 0.863950 0.286666
O O9 0.228204 0.863965 0.142644
O O10 0.229757 0.000000 0.205860
O O11 0.750000 0.250000 0.500000
O O12 0.663482 0.117560 0.427607
O O13 0.000000 0.164670 0.500000
O O14 0.433685 0.000000 0.358729
O O15 0.347696 0.134753 0.065131
O O16 0.517108 0.000000 0.069804
O O17 0.500000 0.133579 0.000000
O O18 0.692314 0.500000 0.069808
O O19 0.500000 0.366427 0.000000
#
# Coordination Sequence:
#
# PCOD9222737 Si02
#       7
#     8   8   8   8   8   8   8
#     4   9  18  34  55  76 100 130 162 199 246 298
#     4   8  14  25  41  61  86 118 154 190 231 281
#     4   8  14  25  41  61  86 118 154 190 231 281
#     4  12  25  38  53  73  99 129 163 204 247 294
#     4   9  18  34  55  76 100 130 162 199 246 298
#     4   9  15  21  31  50  80 118 156 193 232 275
#     4   9  15  21  31  50  80 118 156 193 232 275
#
# _framework density 20.567765999999999
#
# number of rings (size 3 to 8) (size 9 to 14) (size 15 to 20)
#    0.000    2.857    0.000    4.286    0.000    6.857 
#    0.000    2.857    0.000    0.000    0.000    0.000 
#    0.000    1.143    0.000   12.000    0.000   16.571 
#
# Total GULP energy -156155.330612 kJ/mol
# GULP energy per Si atom -5576.976093 kJ/mol
# Density = 2.052095 g / cm^3
# Si number density = 20.567766 Si / 1000 Ang^3
#
#
#
# Elastic Constant Matrix: (Units=GPa)
#
#
# Indices 1 2 3 4 5 6 
#
# 1 192.0559 8.9176 155.3925 0.0000 -1.1659 0.0000
# 2 8.9176 16.3939 10.2077 0.0000 -0.0688 0.0000
# 3 155.3925 10.2077 205.2627 0.0000 0.4647 0.0000
# 4 0.0000 0.0000 0.0000 -36.1322 0.0000 2.4407
# 5 -1.1659 -0.0688 0.4647 0.0000 29.1730 0.0000
# 6 0.0000 0.0000 0.0000 2.4407 0.0000 9.5719
#
#
#
# Elastic Compliance Matrix: (Units=1/GPa)
#
#
# Indices 1 2 3 4 5 6 
#
# 1 0.013468 -0.001005 -0.010148 0.000000 0.000697 0.000000
# 2 -0.001005 0.063024 -0.002374 0.000000 0.000146 0.000000
# 3 -0.010148 -0.002374 0.012673 0.000000 -0.000613 0.000000
# 4 0.000000 0.000000 0.000000 -0.027208 0.000000 0.006937
# 5 0.000697 0.000146 -0.000613 0.000000 0.034316 0.000000
# 6 0.000000 0.000000 0.000000 0.006937 0.000000 0.102704
#
#
# Mechanical properties :
#
#
# Convention : Reuss Voigt Hill
#
# Bulk Modulus (GPa) = 16.09973 84.74981 50.42477
# Shear Modulus (GPa) = 20.26472 16.46882 18.36677
#
# Velocity S-wave (km/s) = 3.14230 2.83275 2.99153
# Velocity P-wave (km/s) = 4.58367 7.21068 6.04169
#
# Compressibility (1/GPa) = 0.06211286
#
# Stress axis : x y z
#
# Youngs Moduli (GPa) = 74.24976 15.86704 78.90583
#
# Poissons Ratio (x) = 0.01594 0.80070
# Poissons Ratio (y) = 0.07461 0.18731
# Poissons Ratio (z) = 0.75345 0.03767
#
# Static dielectric constant tensor:
#      x y z
#    x 1.618510 0.000000 -0.014060 
#    y 0.000000 1.829400 0.000000 
#    z -0.014060 0.000000 1.881650 
# 
# From -- ./inp_files/333387.got.cif
#   From: 2010.05.17/outbox.cif.g08.bks.cpg/sg12_167_cif.got.tgz:333387.got - 2010.06.03 13:09:07.
