data_PCOD9222849
_publ_section_title
;
Structure prediction by ZEFSAII (Michael W. Deem and Ramdas Pophale) SiO2 
 PCOD9222849
Probable space group: C 2/M
;
_chemical_formula_sum "Si O2"
_cell_formula_units_Z 40
_cell_length_a 25.432174
_cell_length_b 7.362010
_cell_length_c 22.494342
_cell_angle_alpha 90.000000
_cell_angle_beta 149.900581
_cell_angle_gamma 90.000000
_cell_volume 2112.155174
_symmetry_space_group_name_H-M "C 2/M"
_symmetry_group_IT_number 12
_symmetry_cell_setting 'monoclinic'
loop_
_space_group_symop_operation_xyz
x,y,z
-x,y,-z
-x,-y,-z
x,-y,z
1/2+x,1/2+y,z
1/2-x,1/2+y,-z
1/2-x,1/2-y,-z
1/2+x,1/2-y,z
loop_
_atom_site_type_symbol
_atom_site_label
_atom_site_fract_x
_atom_site_fract_y
_atom_site_fract_z
Si Si1 0.831104 0.720789 0.336941
Si Si2 0.394730 0.218853 0.186104
Si Si3 0.996342 0.279030 0.592059
Si Si4 0.393607 0.277740 0.927244
Si Si5 0.835301 0.213352 0.000264
O O1 0.830372 0.500000 0.336551
O O2 0.891294 0.780393 0.455425
O O3 0.712518 0.779281 0.210355
O O4 0.905725 0.772621 0.354507
O O5 0.479432 0.280776 0.317361
O O6 0.405759 0.267473 0.127925
O O7 0.392759 0.000000 0.186050
O O8 0.279988 0.287021 0.095489
O O9 0.994358 0.500000 0.590370
O O10 0.395463 0.500000 0.928505
O O11 0.500000 0.217033 0.000000
O O12 0.381897 0.216879 0.984285
O O13 0.818369 0.000000 0.973525
#
# Coordination Sequence:
#
# PCOD9222849 Si02
#       5
#     8   8   8   8   8
#     4   8  12  19  32  53  76  96 121 156 196 225
#     4   9  15  24  39  58  79 101 125 158 194 228
#     4   8  12  19  34  54  76  95 117 158 199 224
#     4   9  15  23  36  54  78 103 126 155 190 229
#     4   9  16  25  37  57  81 102 126 155 192 232
#
# _framework density 18.938002999999998
#
# number of rings (size 3 to 8) (size 9 to 14) (size 15 to 20)
#    0.000    3.400    2.000    1.200    0.000    0.000 
#    0.000    0.000    0.000    1.800    0.000    4.200 
#    0.000    0.000    0.000    0.000    0.000    0.000 
#
# Total GULP energy -111442.797578 kJ/mol
# GULP energy per Si atom -5572.139879 kJ/mol
# Density = 1.889490 g / cm^3
# Si number density = 18.938003 Si / 1000 Ang^3
#
#
#
# Elastic Constant Matrix: (Units=GPa)
#
#
# Indices 1 2 3 4 5 6 
#
# 1 113.4679 3.3855 95.0447 0.0000 -7.2907 0.0000
# 2 3.3855 65.4999 -5.5455 0.0000 4.0589 0.0000
# 3 95.0447 -5.5455 179.3653 0.0000 -13.6455 0.0000
# 4 0.0000 0.0000 0.0000 3.7259 0.0000 -10.1000
# 5 -7.2907 4.0589 -13.6455 0.0000 27.5108 0.0000
# 6 0.0000 0.0000 0.0000 -10.1000 0.0000 -0.5232
#
#
#
# Elastic Compliance Matrix: (Units=1/GPa)
#
#
# Indices 1 2 3 4 5 6 
#
# 1 0.016004 -0.001563 -0.008509 0.000000 0.000251 0.000000
# 2 -0.001563 0.015578 0.001147 0.000000 -0.002144 0.000000
# 3 -0.008509 0.001147 0.010325 0.000000 0.002697 0.000000
# 4 0.000000 0.000000 0.000000 0.005033 0.000000 -0.097153
# 5 0.000251 -0.002144 0.002697 0.000000 0.038070 0.000000
# 6 0.000000 0.000000 0.000000 -0.097153 0.000000 -0.035840
#
#
# Mechanical properties :
#
#
# Convention : Reuss Voigt Hill
#
# Bulk Modulus (GPa) = 41.57148 60.45583 51.01366
# Shear Modulus (GPa) = 66.63149 23.83926 45.23537
#
# Velocity S-wave (km/s) = 5.93805 3.55181 4.89264
# Velocity P-wave (km/s) = 8.30740 6.98662 7.67547
#
# Compressibility (1/GPa) = 0.02405495
#
# Stress axis : x y z
#
# Youngs Moduli (GPa) = 62.48560 64.19336 96.85250
#
# Poissons Ratio (x) = 0.10035 0.82417
# Poissons Ratio (y) = 0.09768 -0.11108
# Poissons Ratio (z) = 0.53172 -0.07362
#
# Static dielectric constant tensor:
#      x y z
#    x 1.618730 0.000000 -0.030090 
#    y 0.000000 1.756300 0.000000 
#    z -0.030090 0.000000 1.678760 
# 
# From -- ./inp_files/153292.got.cif
#   From: 2010.05.17/outbox.cif.g08.bks.cpg/sg12_77_cif.got.tgz:153292.got - 2010.06.03 13:09:07.
