data_PCOD9222753
_publ_section_title
;
Structure prediction by ZEFSAII (Michael W. Deem and Ramdas Pophale) SiO2 
 PCOD9222753
Probable space group: C 2/M
;
_chemical_formula_sum "Si O2"
_cell_formula_units_Z 28
_cell_length_a 9.413282
_cell_length_b 32.129234
_cell_length_c 5.071169
_cell_angle_alpha 90.000000
_cell_angle_beta 58.812264
_cell_angle_gamma 90.000000
_cell_volume 1312.069710
_symmetry_space_group_name_H-M "C 2/M"
_symmetry_group_IT_number 12
_symmetry_cell_setting 'monoclinic'
loop_
_space_group_symop_operation_xyz
x,y,z
-x,y,-z
-x,-y,-z
x,-y,z
1/2+x,1/2+y,z
1/2-x,1/2+y,-z
1/2-x,1/2-y,-z
1/2+x,1/2-y,z
loop_
_atom_site_type_symbol
_atom_site_label
_atom_site_fract_x
_atom_site_fract_y
_atom_site_fract_z
Si Si1 0.198081 0.777337 0.304631
Si Si2 0.313687 0.870545 0.271725
Si Si3 0.119301 0.500000 0.139332
Si Si4 0.314971 0.416376 0.081919
O O1 0.250000 0.750000 0.500000
O O2 0.289916 0.821151 0.265909
O O3 0.000000 0.784570 0.500000
O O4 0.250000 0.750000 0.000000
O O5 0.276866 0.891378 0.591282
O O6 0.500000 0.881744 0.000000
O O7 0.188482 0.888307 0.174150
O O8 0.228465 0.458743 0.069769
O O9 0.000000 0.500000 0.500000
O O10 0.000000 0.500000 0.000000
O O11 0.500000 0.425031 0.000000
#
# Coordination Sequence:
#
# PCOD9222753 Si02
#       4
#     8   8   4   8
#     4  12  25  44  67  97 133 174 220 272 328 390
#     4  12  25  44  68  97 132 175 220 270 328 392
#     4  12  25  44  69  98 133 174 219 270 329 394
#     4  12  25  44  68  99 133 172 219 273 328 389
#
# _framework density 21.340328
#
# number of rings (size 3 to 8) (size 9 to 14) (size 15 to 20)
#    0.000    0.000    0.000   12.429    0.000    0.000 
#    0.000    4.286    0.000    0.000    0.000    0.000 
#    0.000    0.000    0.000    0.000    0.000    0.000 
#
# Total GULP energy -78350.611185 kJ/mol
# GULP energy per Si atom -5596.472228 kJ/mol
# Density = 2.129176 g / cm^3
# Si number density = 21.340328 Si / 1000 Ang^3
#
#
#
# Elastic Constant Matrix: (Units=GPa)
#
#
# Indices 1 2 3 4 5 6 
#
# 1 147.4780 49.6712 36.8053 0.0000 13.8983 0.0000
# 2 49.6712 184.3450 46.0108 0.0000 24.9703 0.0000
# 3 36.8053 46.0108 114.7309 0.0000 24.0975 0.0000
# 4 0.0000 0.0000 0.0000 27.9965 0.0000 16.8560
# 5 13.8983 24.9703 24.0975 0.0000 58.9506 0.0000
# 6 0.0000 0.0000 0.0000 16.8560 0.0000 13.6828
#
#
#
# Elastic Compliance Matrix: (Units=1/GPa)
#
#
# Indices 1 2 3 4 5 6 
#
# 1 0.007803 -0.001602 -0.001769 0.000000 -0.000438 0.000000
# 2 -0.001602 0.006519 -0.001750 0.000000 -0.001668 0.000000
# 3 -0.001769 -0.001750 0.010657 0.000000 -0.003198 0.000000
# 4 0.000000 0.000000 0.000000 0.138286 0.000000 -0.170356
# 5 -0.000438 -0.001668 -0.003198 0.000000 0.019081 0.000000
# 6 0.000000 0.000000 0.000000 -0.170356 0.000000 0.282947
#
#
# Mechanical properties :
#
#
# Convention : Reuss Voigt Hill
#
# Bulk Modulus (GPa) = 67.85305 79.05873 73.45589
# Shear Modulus (GPa) = 10.40700 41.06376 25.73538
#
# Velocity S-wave (km/s) = 2.21072 4.39137 3.47645
# Velocity P-wave (km/s) = 6.19525 7.92712 7.11408
#
# Compressibility (1/GPa) = 0.01473773
#
# Stress axis : x y z
#
# Youngs Moduli (GPa) = 128.15870 153.39881 93.83494
#
# Poissons Ratio (x) = 0.24569 0.16597
# Poissons Ratio (y) = 0.20526 0.16422
# Poissons Ratio (z) = 0.22669 0.26847
#
# Static dielectric constant tensor:
#      x y z
#    x 1.738000 0.000000 -0.014590 
#    y 0.000000 1.657280 0.000000 
#    z -0.014590 0.000000 1.730250 
# 
# From -- ./inp_files/3689.got.cif
#   From: 2010.05.17/outbox.cif.g08.bks.cpg/sg12_2_cif.got.tgz:3689.got - 2010.06.03 13:09:07.
