data_PCOD9222986
_publ_section_title
;
Structure prediction by ZEFSAII (Michael W. Deem and Ramdas Pophale) SiO2 
 PCOD9222986
Probable space group: C 2/M
;
_chemical_formula_sum "Si O2"
_cell_formula_units_Z 64
_cell_length_a 9.515740
_cell_length_b 14.677209
_cell_length_c 28.913556
_cell_angle_alpha 90.000000
_cell_angle_beta 131.164023
_cell_angle_gamma 90.000000
_cell_volume 3040.069598
_symmetry_space_group_name_H-M "C 2/M"
_symmetry_group_IT_number 12
_symmetry_cell_setting 'monoclinic'
loop_
_space_group_symop_operation_xyz
x,y,z
-x,y,-z
-x,-y,-z
x,-y,z
1/2+x,1/2+y,z
1/2-x,1/2+y,-z
1/2-x,1/2-y,-z
1/2+x,1/2-y,z
loop_
_atom_site_type_symbol
_atom_site_label
_atom_site_fract_x
_atom_site_fract_y
_atom_site_fract_z
Si Si1 0.195895 0.393260 0.269175
Si Si2 0.839535 0.111259 0.500001
Si Si3 0.119192 0.393260 0.730825
Si Si4 0.403759 0.344912 0.867525
Si Si5 0.668799 0.346579 1.000000
Si Si6 0.566342 0.155086 0.867526
Si Si7 0.077117 0.611642 0.618360
Si Si8 0.396326 0.388358 0.618362
O O1 0.211691 0.500000 0.283641
O O2 0.404987 0.357426 0.318194
O O3 0.050561 0.352958 0.275280
O O4 0.099807 0.388105 0.198118
O O5 0.633764 0.138573 0.439119
O O6 0.877295 0.138573 0.560883
O O7 0.000000 0.143484 0.500000
O O8 0.843364 0.000000 0.500001
O O9 0.077129 0.500000 0.716360
O O10 0.307331 0.388103 0.801881
O O11 0.132204 0.357426 0.681805
O O12 0.486152 0.249999 0.868077
O O13 0.233487 0.332689 0.866744
O O14 0.569182 0.390812 0.933670
O O15 0.834502 0.390813 0.066329
O O16 0.500000 0.331522 0.000000
O O17 0.750000 0.250000 0.000000
O O18 0.081821 0.500000 0.618164
O O19 0.224729 0.643934 0.612365
O O20 0.390834 0.500000 0.618165
#
# Coordination Sequence:
#
# PCOD9222986 Si02
#       8
#     8   8   8   8   8   8   8   8
#     4   9  17  29  43  61  88 119 147 177 218 265
#     4   9  15  23  37  57  82 113 146 179 216 257
#     4   9  17  29  43  61  88 119 147 177 218 265
#     4   9  17  29  46  66  87 113 146 183 220 260
#     4   8  14  26  43  63  85 109 141 180 220 258
#     4   9  17  29  46  66  87 113 146 183 220 260
#     4   9  16  25  38  58  84 113 145 181 218 255
#     4   9  16  25  38  58  84 113 145 181 218 255
#
# _framework density 21.052149
#
# number of rings (size 3 to 8) (size 9 to 14) (size 15 to 20)
#    0.000    3.125    0.000    1.125    0.000    5.500 
#    0.000    0.625    0.000    3.750    0.000    0.875 
#    0.000   14.000    0.000    0.000    0.000    0.000 
#
# Total GULP energy -178257.823281 kJ/mol
# GULP energy per Si atom -5570.556978 kJ/mol
# Density = 2.100423 g / cm^3
# Si number density = 21.052149 Si / 1000 Ang^3
#
#
#
# Elastic Constant Matrix: (Units=GPa)
#
#
# Indices 1 2 3 4 5 6 
#
# 1 113.2310 11.9924 113.1484 0.0000 -0.1846 0.0000
# 2 11.9924 38.7466 1.1681 0.0000 -0.1677 0.0000
# 3 113.1484 1.1681 216.7052 0.0000 1.8141 0.0000
# 4 0.0000 0.0000 0.0000 33.0955 0.0000 0.4404
# 5 -0.1846 -0.1677 1.8141 0.0000 -6.0414 0.0000
# 6 0.0000 0.0000 0.0000 0.4404 0.0000 4.9120
#
#
#
# Elastic Compliance Matrix: (Units=1/GPa)
#
#
# Indices 1 2 3 4 5 6 
#
# 1 0.019608 -0.005777 -0.010177 0.000000 -0.003495 0.000000
# 2 -0.005777 0.027512 0.002866 0.000000 0.000273 0.000000
# 3 -0.010177 0.002866 0.009886 0.000000 0.003200 0.000000
# 4 0.000000 0.000000 0.000000 0.030252 0.000000 -0.002712
# 5 -0.003495 0.000273 0.003200 0.000000 -0.164465 0.000000
# 6 0.000000 0.000000 0.000000 -0.002712 0.000000 0.203827
#
#
# Mechanical properties :
#
#
# Convention : Reuss Voigt Hill
#
# Bulk Modulus (GPa) = 32.43781 69.03338 50.73560
# Shear Modulus (GPa) = 30.66138 22.55148 26.60643
#
# Velocity S-wave (km/s) = 3.82049 3.27650 3.55890
# Velocity P-wave (km/s) = 5.90790 6.86853 6.40625
#
# Compressibility (1/GPa) = 0.03082822
#
# Stress axis : x y z
#
# Youngs Moduli (GPa) = 51.00082 36.34837 101.15103
#
# Poissons Ratio (x) = 0.20998 1.02944
# Poissons Ratio (y) = 0.29463 -0.28988
# Poissons Ratio (z) = 0.51905 -0.10417
#
# Static dielectric constant tensor:
#      x y z
#    x 1.719880 0.000000 0.001210 
#    y 0.000000 1.814650 0.000000 
#    z 0.001210 0.000000 1.797550 
# 
# From -- ./inp_files/319089.got.cif
#   From: 2010.05.17/outbox.cif.g08.bks.cpg/sg12_160_cif.got.tgz:319089.got - 2010.06.03 13:09:07.
