data_PCOD9222528
_publ_section_title
;
Structure prediction by ZEFSAII (Michael W. Deem and Ramdas Pophale) SiO2 
 PCOD9222528
Probable space group: C 2/M
;
_chemical_formula_sum "Si O2"
_cell_formula_units_Z 32
_cell_length_a 8.082082
_cell_length_b 20.139426
_cell_length_c 11.293195
_cell_angle_alpha 90.000000
_cell_angle_beta 45.912231
_cell_angle_gamma 90.000000
_cell_volume 1320.315803
_symmetry_space_group_name_H-M "C 2/M"
_symmetry_group_IT_number 12
_symmetry_cell_setting 'monoclinic'
loop_
_space_group_symop_operation_xyz
x,y,z
-x,y,-z
-x,-y,-z
x,-y,z
1/2+x,1/2+y,z
1/2-x,1/2+y,-z
1/2-x,1/2-y,-z
1/2+x,1/2-y,z
loop_
_atom_site_type_symbol
_atom_site_label
_atom_site_fract_x
_atom_site_fract_y
_atom_site_fract_z
Si Si1 0.451646 0.429032 0.833739
Si Si2 0.024647 0.793430 0.120634
Si Si3 0.747728 0.195140 0.604939
Si Si4 0.903113 0.428422 0.772922
O O1 0.433591 0.500000 0.776466
O O2 0.451964 0.352434 0.794973
O O3 0.700053 0.430313 0.776116
O O4 0.236667 0.428837 0.033108
O O5 0.824037 0.742339 0.249843
O O6 0.250000 0.750000 0.000000
O O7 0.000000 0.821718 0.000000
O O8 0.750000 0.250000 0.500000
O O9 0.564909 0.135534 0.679651
O O10 0.000000 0.166847 0.500000
O O11 0.027635 0.500000 0.702057
#
# Coordination Sequence:
#
# PCOD9222528 Si02
#       4
#     8   8   8   8
#     4   9  16  32  61  89 112 146 203 254 286 337
#     4  12  21  37  62  88 114 153 203 244 288 346
#     4  12  25  40  58  90 129 159 192 244 304 359
#     4   9  17  34  59  85 114 156 199 243 294 347
#
# _framework density 24.236626000000001
#
# number of rings (size 3 to 8) (size 9 to 14) (size 15 to 20)
#    0.000    1.500    5.000    4.500    0.000    0.500 
#    0.000    1.250    0.000   10.500    0.000    0.000 
#    0.000    0.000    0.000    0.000    0.000    0.000 
#
# Total GULP energy -89229.336840 kJ/mol
# GULP energy per Si atom -5576.833553 kJ/mol
# Density = 2.418146 g / cm^3
# Si number density = 24.236626 Si / 1000 Ang^3
#
#
#
# Elastic Constant Matrix: (Units=GPa)
#
#
# Indices 1 2 3 4 5 6 
#
# 1 33.7196 35.8121 38.0462 0.0000 -3.5275 0.0000
# 2 35.8121 251.5581 57.0061 0.0000 -21.2458 0.0000
# 3 38.0462 57.0061 82.6618 0.0000 -25.2980 0.0000
# 4 0.0000 0.0000 0.0000 38.6545 0.0000 -15.3670
# 5 -3.5275 -21.2458 -25.2980 0.0000 33.2775 0.0000
# 6 0.0000 0.0000 0.0000 -15.3670 0.0000 25.4317
#
#
#
# Elastic Compliance Matrix: (Units=1/GPa)
#
#
# Indices 1 2 3 4 5 6 
#
# 1 0.076456 -0.003894 -0.040119 0.000000 -0.024881 0.000000
# 2 -0.003894 0.004922 -0.000999 0.000000 0.001970 0.000000
# 3 -0.040119 -0.000999 0.038777 0.000000 0.024588 0.000000
# 4 0.000000 0.000000 0.000000 0.034049 0.000000 0.020574
# 5 -0.024881 0.001970 0.024588 0.000000 0.047363 0.000000
# 6 0.000000 0.000000 0.000000 0.020574 0.000000 0.051753
#
#
# Mechanical properties :
#
#
# Convention : Reuss Voigt Hill
#
# Bulk Modulus (GPa) = 33.18903 69.96317 51.57610
# Shear Modulus (GPa) = 14.14871 35.27773 24.71322
#
# Velocity S-wave (km/s) = 2.41876 3.81931 3.19668
# Velocity P-wave (km/s) = 4.63940 6.95549 5.91198
#
# Compressibility (1/GPa) = 0.03013043
#
# Stress axis : x y z
#
# Youngs Moduli (GPa) = 13.07942 203.14965 25.78856
#
# Poissons Ratio (x) = 0.79113 1.03461
# Poissons Ratio (y) = 0.05094 0.02577
# Poissons Ratio (z) = 0.52473 0.20301
#
# Static dielectric constant tensor:
#      x y z
#    x 1.999780 0.000000 0.072080 
#    y 0.000000 1.996890 0.000000 
#    z 0.072080 0.000000 1.969300 
# 
# From -- ./inp_files/196339.got.cif
#   From: 2010.05.17/outbox.cif.g08.bks.cpg/sg12_99_cif.got.tgz:196339.got - 2010.06.03 13:09:07.
