data_PCOD9222769
_publ_section_title
;
Structure prediction by ZEFSAII (Michael W. Deem and Ramdas Pophale) SiO2 
 PCOD9222769
Probable space group: C 2/M
;
_chemical_formula_sum "Si O2"
_cell_formula_units_Z 24
_cell_length_a 16.181395
_cell_length_b 9.824302
_cell_length_c 6.658726
_cell_angle_alpha 90.000000
_cell_angle_beta 75.002906
_cell_angle_gamma 90.000000
_cell_volume 1022.488631
_symmetry_space_group_name_H-M "C 2/M"
_symmetry_group_IT_number 12
_symmetry_cell_setting 'monoclinic'
loop_
_space_group_symop_operation_xyz
x,y,z
-x,y,-z
-x,-y,-z
x,-y,z
1/2+x,1/2+y,z
1/2-x,1/2+y,-z
1/2-x,1/2-y,-z
1/2+x,1/2-y,z
loop_
_atom_site_type_symbol
_atom_site_label
_atom_site_fract_x
_atom_site_fract_y
_atom_site_fract_z
Si Si1 0.688932 0.155994 0.405380
Si Si2 0.625858 0.650571 0.115975
Si Si3 0.550933 0.761571 0.788962
O O1 0.750000 0.250000 0.500000
O O2 0.674096 0.231457 0.203847
O O3 0.599111 0.160890 0.585541
O O4 0.715360 0.000000 0.368856
O O5 0.658128 0.500000 0.142764
O O6 0.525270 0.665027 0.240040
O O7 0.618737 0.677474 0.882148
O O8 0.500000 0.841993 0.000000
#
# Coordination Sequence:
#
# PCOD9222769 Si02
#       3
#     8   8   8
#     4  12  26  41  61  91 128 167 204 255 310 364
#     4   9  20  40  68  95 122 159 205 254 304 367
#     4   8  21  41  65  96 117 160 204 253 302 365
#
# _framework density 23.472145999999999
#
# number of rings (size 3 to 8) (size 9 to 14) (size 15 to 20)
#    2.000    0.000    0.000    4.000    0.000   12.667 
#    0.000    0.000    0.000    0.000    0.000    0.000 
#    0.000    0.000    0.000    0.000    0.000    0.000 
#
# Total GULP energy -66871.511132 kJ/mol
# GULP energy per Si atom -5572.625928 kJ/mol
# Density = 2.341872 g / cm^3
# Si number density = 23.472146 Si / 1000 Ang^3
#
#
#
# Elastic Constant Matrix: (Units=GPa)
#
#
# Indices 1 2 3 4 5 6 
#
# 1 63.7783 39.1887 22.2886 0.0000 9.4234 0.0000
# 2 39.1887 199.4388 33.9467 0.0000 20.3075 0.0000
# 3 22.2886 33.9467 76.0905 0.0000 -12.4816 0.0000
# 4 0.0000 0.0000 0.0000 10.4805 0.0000 -7.8579
# 5 9.4234 20.3075 -12.4816 0.0000 53.9954 0.0000
# 6 0.0000 0.0000 0.0000 -7.8579 0.0000 22.9944
#
#
#
# Elastic Compliance Matrix: (Units=1/GPa)
#
#
# Indices 1 2 3 4 5 6 
#
# 1 0.019630 -0.002603 -0.005187 0.000000 -0.003646 0.000000
# 2 -0.002603 0.006179 -0.002392 0.000000 -0.002423 0.000000
# 3 -0.005187 -0.002392 0.016656 0.000000 0.005655 0.000000
# 4 0.000000 0.000000 0.000000 0.128283 0.000000 0.043838
# 5 -0.003646 -0.002423 0.005655 0.000000 0.021375 0.000000
# 6 0.000000 0.000000 0.000000 0.043838 0.000000 0.058470
#
#
# Mechanical properties :
#
#
# Convention : Reuss Voigt Hill
#
# Bulk Modulus (GPa) = 45.24395 58.90620 52.07507
# Shear Modulus (GPa) = 17.96468 33.75298 25.85883
#
# Velocity S-wave (km/s) = 2.76952 3.79621 3.32276
# Velocity P-wave (km/s) = 5.43548 6.66076 6.07907
#
# Compressibility (1/GPa) = 0.02210240
#
# Stress axis : x y z
#
# Youngs Moduli (GPa) = 50.94210 161.82954 60.03763
#
# Poissons Ratio (x) = 0.42126 0.31140
# Poissons Ratio (y) = 0.13261 0.14359
# Poissons Ratio (z) = 0.26423 0.38705
#
# Static dielectric constant tensor:
#      x y z
#    x 1.992040 0.000000 -0.055960 
#    y 0.000000 1.817020 0.000000 
#    z -0.055960 0.000000 1.907490 
# 
# From -- ./inp_files/55325.got.cif
#   From: 2010.05.17/outbox.cif.g08.bks.cpg/sg12_28_cif.got.tgz:55325.got - 2010.06.03 13:09:07.
