data_PCOD9222017
_publ_section_title
;
Structure prediction by ZEFSAII (Michael W. Deem and Ramdas Pophale) SiO2 
 PCOD9222017
Probable space group: C 2/M
;
_chemical_formula_sum "Si O2"
_cell_formula_units_Z 42
_cell_length_a 20.179040
_cell_length_b 7.545553
_cell_length_c 14.624850
_cell_angle_alpha 90.000000
_cell_angle_beta 63.822414
_cell_angle_gamma 90.000000
_cell_volume 1998.407593
_symmetry_space_group_name_H-M "C 2/M"
_symmetry_group_IT_number 12
_symmetry_cell_setting 'monoclinic'
loop_
_space_group_symop_operation_xyz
x,y,z
-x,y,-z
-x,-y,-z
x,-y,z
1/2+x,1/2+y,z
1/2-x,1/2+y,-z
1/2-x,1/2-y,-z
1/2+x,1/2-y,z
loop_
_atom_site_type_symbol
_atom_site_label
_atom_site_fract_x
_atom_site_fract_y
_atom_site_fract_z
Si Si1 0.247297 0.294236 0.770485
Si Si2 0.954407 0.796015 0.405613
Si Si3 0.810690 0.711391 0.386349
Si Si4 0.105908 0.216427 0.216707
Si Si5 0.000000 0.500000 0.500000
Si Si6 0.326916 0.710206 0.005066
O O1 0.264648 0.500000 0.741709
O O2 0.218124 0.217868 0.693519
O O3 0.322737 0.219607 0.769187
O O4 0.184670 0.286347 0.887262
O O5 0.887752 0.786886 0.374900
O O6 0.030041 0.732537 0.310603
O O7 0.945002 0.657571 0.492884
O O8 0.961610 0.000000 0.430844
O O9 0.820473 0.500000 0.372110
O O10 0.750000 0.750000 0.500000
O O11 0.108288 0.000000 0.213710
O O12 0.113817 0.273921 0.105968
O O13 0.335198 0.500000 0.010721
O O14 0.250000 0.750000 0.000000
#
# Coordination Sequence:
#
# PCOD9222017 Si02
#       6
#     8   8   8   8   2   8
#     4   9  19  36  58  85 120 158 197 247 304 360
#     4  11  24  44  65  90 126 162 201 262 310 359
#     4  11  24  42  61  88 125 161 205 254 306 373
#     4   8  17  35  60  87 118 157 200 246 304 358
#     4  12  26  44  64  94 122 156 220 250 304 378
#     4   9  16  31  54  85 117 150 198 248 293 358
#
# _framework density 21.016735000000001
#
# number of rings (size 3 to 8) (size 9 to 14) (size 15 to 20)
#    0.000    2.286    0.952    2.571    2.667    1.524 
#    8.571    0.952    0.000    5.714    0.000    0.000 
#    0.000    0.000    0.000    0.000    0.000    0.000 
#
# Total GULP energy -116922.300042 kJ/mol
# GULP energy per Si atom -5567.728573 kJ/mol
# Density = 2.096890 g / cm^3
# Si number density = 21.016735 Si / 1000 Ang^3
#
#
#
# Elastic Constant Matrix: (Units=GPa)
#
#
# Indices 1 2 3 4 5 6 
#
# 1 118.5156 11.2445 67.0354 0.0000 14.2407 0.0000
# 2 11.2445 90.8446 1.4126 0.0000 1.6552 0.0001
# 3 67.0354 1.4126 121.0276 0.0000 21.6932 0.0000
# 4 0.0000 0.0000 0.0000 10.3296 0.0000 -0.0963
# 5 14.2407 1.6552 21.6932 0.0000 35.1511 0.0000
# 6 0.0000 0.0001 0.0000 -0.0963 0.0000 20.6263
#
#
#
# Elastic Compliance Matrix: (Units=1/GPa)
#
#
# Indices 1 2 3 4 5 6 
#
# 1 0.012493 -0.001426 -0.006755 0.000000 -0.000825 0.000000
# 2 -0.001426 0.011180 0.000731 0.000000 -0.000400 0.000000
# 3 -0.006755 0.000731 0.012943 0.000000 -0.005285 0.000000
# 4 0.000000 0.000000 0.000000 0.096814 0.000000 0.000452
# 5 -0.000825 -0.000400 -0.005285 0.000000 0.032064 0.000000
# 6 0.000000 0.000000 0.000000 0.000452 0.000000 0.048484
#
#
# Mechanical properties :
#
#
# Convention : Reuss Voigt Hill
#
# Bulk Modulus (GPa) = 46.04940 54.41919 50.23429
# Shear Modulus (GPa) = 21.17596 29.93441 25.55518
#
# Velocity S-wave (km/s) = 3.17768 3.77810 3.49082
# Velocity P-wave (km/s) = 5.95163 6.70683 6.34048
#
# Compressibility (1/GPa) = 0.02171581
#
# Stress axis : x y z
#
# Youngs Moduli (GPa) = 80.04428 89.44325 77.26182
#
# Poissons Ratio (x) = 0.12757 0.52192
# Poissons Ratio (y) = 0.11417 -0.05649
# Poissons Ratio (z) = 0.54071 -0.06540
#
# Static dielectric constant tensor:
#      x y z
#    x 1.733510 0.000000 0.008660 
#    y 0.000000 2.231560 0.000000 
#    z 0.008660 0.000000 1.826870 
# 
# From -- ./inp_files/220755.got.cif
#   From: 2010.05.17/outbox.cif.g08.bks.cpg/sg12_111_cif.got.tgz:220755.got - 2010.06.03 13:09:07.
