data_PCOD9222560
_publ_section_title
;
Structure prediction by ZEFSAII (Michael W. Deem and Ramdas Pophale) SiO2 
 PCOD9222560
Probable space group: C 2/M
;
_chemical_formula_sum "Si O2"
_cell_formula_units_Z 64
_cell_length_a 19.630037
_cell_length_b 28.308851
_cell_length_c 12.016275
_cell_angle_alpha 90.000000
_cell_angle_beta 147.158407
_cell_angle_gamma 90.000000
_cell_volume 3621.324563
_symmetry_space_group_name_H-M "C 2/M"
_symmetry_group_IT_number 12
_symmetry_cell_setting 'monoclinic'
loop_
_space_group_symop_operation_xyz
x,y,z
-x,y,-z
-x,-y,-z
x,-y,z
1/2+x,1/2+y,z
1/2-x,1/2+y,-z
1/2-x,1/2-y,-z
1/2+x,1/2-y,z
loop_
_atom_site_type_symbol
_atom_site_label
_atom_site_fract_x
_atom_site_fract_y
_atom_site_fract_z
Si Si1 0.394872 0.944626 0.517271
Si Si2 0.703043 0.700331 0.741111
Si Si3 0.643595 0.191561 0.683140
Si Si4 0.005180 0.716801 0.874122
Si Si5 0.698746 0.849966 0.518335
Si Si6 0.659765 0.358650 0.889943
Si Si7 0.915612 0.181986 0.658748
Si Si8 0.180109 0.554806 0.843655
O O1 0.332548 0.905171 0.508998
O O2 0.340886 0.938351 0.317819
O O3 0.544458 0.935317 0.713117
O O4 0.377123 0.000000 0.523166
O O5 0.649089 0.752009 0.693821
O O6 0.647201 0.662671 0.750036
O O7 0.668462 0.688828 0.566885
O O8 0.852813 0.703553 0.961813
O O9 0.500000 0.175454 0.500000
O O10 0.695215 0.173433 0.635905
O O11 0.730771 0.171115 0.898717
O O12 0.909168 0.677199 0.698942
O O13 0.965943 0.766650 0.765629
O O14 0.000000 0.721563 0.000000
O O15 0.829602 0.839743 0.637117
O O16 0.533504 0.349892 0.785723
O O17 0.711874 0.411423 0.964026
O O18 0.208403 0.500000 0.900685
#
# Coordination Sequence:
#
# PCOD9222560 Si02
#       8
#     8   8   8   8   8   8   8   8
#     4   9  18  36  63  92 119 147 189 251 304 341
#     4  12  24  41  56  84 123 158 204 245 288 349
#     4  12  22  36  59  89 118 151 198 245 295 349
#     4  12  23  39  59  84 118 166 204 239 291 353
#     4  12  23  38  61  87 125 157 196 245 297 354
#     4  12  24  37  60  87 122 159 196 244 302 348
#     4  12  26  40  55  86 124 164 200 241 288 360
#     4   9  18  36  62  92 117 146 196 247 295 353
#
# _framework density 17.673092
#
# number of rings (size 3 to 8) (size 9 to 14) (size 15 to 20)
#    0.000    0.750    5.000    5.625    0.000    0.000 
#    0.000    0.625    0.000    4.125    0.000    0.000 
#    0.000    0.000    0.000    0.000    0.000    0.000 
#
# Total GULP energy -178943.011182 kJ/mol
# GULP energy per Si atom -5591.969099 kJ/mol
# Density = 1.763287 g / cm^3
# Si number density = 17.673092 Si / 1000 Ang^3
#
#
#
# Elastic Constant Matrix: (Units=GPa)
#
#
# Indices 1 2 3 4 5 6 
#
# 1 100.4026 36.9194 35.6922 0.0000 11.5904 0.0000
# 2 36.9194 107.6146 29.5888 0.0000 11.0670 0.0000
# 3 35.6922 29.5888 60.9013 0.0000 5.1266 0.0000
# 4 0.0000 0.0000 0.0000 27.6224 0.0000 0.6202
# 5 11.5904 11.0670 5.1266 0.0000 36.9979 0.0000
# 6 0.0000 0.0000 0.0000 0.6202 0.0000 19.5436
#
#
#
# Elastic Compliance Matrix: (Units=1/GPa)
#
#
# Indices 1 2 3 4 5 6 
#
# 1 0.013498 -0.002599 -0.006432 0.000000 -0.002560 0.000000
# 2 -0.002599 0.011462 -0.003871 0.000000 -0.002078 0.000000
# 3 -0.006432 -0.003871 0.022061 0.000000 0.000116 0.000000
# 4 0.000000 0.000000 0.000000 0.036228 0.000000 -0.001150
# 5 -0.002560 -0.002078 0.000116 0.000000 0.028436 0.000000
# 6 0.000000 0.000000 0.000000 -0.001150 0.000000 0.051204
#
#
# Mechanical properties :
#
#
# Convention : Reuss Voigt Hill
#
# Bulk Modulus (GPa) = 47.13357 52.59104 49.86230
# Shear Modulus (GPa) = 25.54082 27.94731 26.74406
#
# Velocity S-wave (km/s) = 3.80568 3.98093 3.89429
# Velocity P-wave (km/s) = 6.78517 7.13812 6.96388
#
# Compressibility (1/GPa) = 0.02121630
#
# Stress axis : x y z
#
# Youngs Moduli (GPa) = 74.08675 87.24501 45.32949
#
# Poissons Ratio (x) = 0.22673 0.29158
# Poissons Ratio (y) = 0.19254 0.17546
# Poissons Ratio (z) = 0.47656 0.33771
#
# Static dielectric constant tensor:
#      x y z
#    x 1.604810 0.000000 0.004790 
#    y 0.000000 1.593230 0.000000 
#    z 0.004790 0.000000 1.604560 
# 
# From -- ./inp_files/170614.got.cif
#   From: 2010.05.17/outbox.cif.g08.bks.cpg/sg12_86_cif.got.tgz:170614.got - 2010.06.03 13:09:07.
