data_PCOD9222980
_publ_section_title
;
Structure prediction by ZEFSAII (Michael W. Deem and Ramdas Pophale) SiO2 
 PCOD9222980
Probable space group: C 2/M
;
_chemical_formula_sum "Si O2"
_cell_formula_units_Z 48
_cell_length_a 12.267115
_cell_length_b 13.817764
_cell_length_c 10.365569
_cell_angle_alpha 90.000000
_cell_angle_beta 77.978487
_cell_angle_gamma 90.000000
_cell_volume 1718.474356
_symmetry_space_group_name_H-M "C 2/M"
_symmetry_group_IT_number 12
_symmetry_cell_setting 'monoclinic'
loop_
_space_group_symop_operation_xyz
x,y,z
-x,y,-z
-x,-y,-z
x,-y,z
1/2+x,1/2+y,z
1/2-x,1/2+y,-z
1/2-x,1/2-y,-z
1/2+x,1/2-y,z
loop_
_atom_site_type_symbol
_atom_site_label
_atom_site_fract_x
_atom_site_fract_y
_atom_site_fract_z
Si Si1 0.139743 0.888010 0.338014
Si Si2 0.232807 0.381704 0.445188
Si Si3 0.031165 0.388335 0.665690
Si Si4 0.071753 0.888341 0.766111
Si Si5 0.111983 0.248522 0.141937
Si Si6 0.368901 0.893825 0.078340
O O1 0.191265 0.845116 0.453718
O O2 0.006201 0.887372 0.344884
O O3 0.182036 0.834009 0.198808
O O4 0.169768 0.000000 0.329597
O O5 0.238903 0.500000 0.440213
O O6 0.108063 0.361659 0.524658
O O7 0.304549 0.354955 0.301225
O O8 0.994708 0.500000 0.662552
O O9 0.930569 0.320066 0.733361
O O10 0.112233 0.384152 0.771797
O O11 0.000878 0.812284 0.865326
O O12 0.071210 0.000000 0.812911
O O13 0.162010 0.311047 0.016752
O O14 0.318426 0.000000 0.060790
O O15 0.500000 0.901436 0.000000
#
# Coordination Sequence:
#
# PCOD9222980 Si02
#       6
#     8   8   8   8   8   8
#     4   8  15  26  41  61  82 105 131 159 194 236
#     4   9  15  26  42  61  84 104 127 163 202 234
#     4   9  17  27  42  62  80 102 132 167 203 231
#     4   8  15  25  41  61  82 105 130 159 194 236
#     4   9  15  24  40  61  82 103 130 164 197 232
#     4   8  14  26  41  56  76 103 135 167 196 227
#
# _framework density 27.931754000000002
#
# number of rings (size 3 to 8) (size 9 to 14) (size 15 to 20)
#    1.000    2.500    0.000    2.000    0.000    2.667 
#    0.000    0.833    0.000   18.000    0.000   14.000 
#    0.000    0.000    0.000    0.000    0.000    0.000 
#
# Total GULP energy -134035.296848 kJ/mol
# GULP energy per Si atom -5584.804035 kJ/mol
# Density = 2.786818 g / cm^3
# Si number density = 27.931754 Si / 1000 Ang^3
#
#
#
# Elastic Constant Matrix: (Units=GPa)
#
#
# Indices 1 2 3 4 5 6 
#
# 1 86.7519 25.8258 22.6024 0.0000 -2.4857 0.0000
# 2 25.8258 163.7294 37.1380 0.0000 11.1327 0.0000
# 3 22.6024 37.1380 134.9256 0.0000 2.4206 0.0000
# 4 0.0000 0.0000 0.0000 22.0694 0.0000 12.4348
# 5 -2.4857 11.1327 2.4206 0.0000 29.2632 0.0000
# 6 0.0000 0.0000 0.0000 12.4348 0.0000 20.2971
#
#
#
# Elastic Compliance Matrix: (Units=1/GPa)
#
#
# Indices 1 2 3 4 5 6 
#
# 1 0.012526 -0.001726 -0.001656 0.000000 0.001858 0.000000
# 2 -0.001726 0.006915 -0.001567 0.000000 -0.002648 0.000000
# 3 -0.001656 -0.001567 0.008124 0.000000 -0.000217 0.000000
# 4 0.000000 0.000000 0.000000 0.069197 0.000000 -0.042393
# 5 0.001858 -0.002648 -0.000217 0.000000 0.035356 0.000000
# 6 0.000000 0.000000 0.000000 -0.042393 0.000000 0.075240
#
#
# Mechanical properties :
#
#
# Convention : Reuss Voigt Hill
#
# Bulk Modulus (GPa) = 56.60518 61.83770 59.22144
# Shear Modulus (GPa) = 22.40685 34.31532 28.36108
#
# Velocity S-wave (km/s) = 2.83539 3.50886 3.18995
# Velocity P-wave (km/s) = 5.57035 6.21313 5.90050
#
# Compressibility (1/GPa) = 0.01766623
#
# Stress axis : x y z
#
# Youngs Moduli (GPa) = 79.83488 144.60558 123.09052
#
# Poissons Ratio (x) = 0.24964 0.20389
# Poissons Ratio (y) = 0.13782 0.19285
# Poissons Ratio (z) = 0.13224 0.22656
#
# Static dielectric constant tensor:
#      x y z
#    x 2.283920 0.000000 -0.076050 
#    y 0.000000 2.191920 0.000000 
#    z -0.076050 0.000000 2.265150 
# 
# From -- ./inp_files/282500.got.cif
#   From: 2010.05.17/outbox.cif.g08.bks.cpg/sg12_142_cif.got.tgz:282500.got - 2010.06.03 13:09:07.
