data_PCOD9222325
_publ_section_title
;
Structure prediction by ZEFSAII (Michael W. Deem and Ramdas Pophale) SiO2 
 PCOD9222325
Probable space group: C 2/M
;
_chemical_formula_sum "Si O2"
_cell_formula_units_Z 32
_cell_length_a 7.250987
_cell_length_b 13.499647
_cell_length_c 12.156278
_cell_angle_alpha 90.000000
_cell_angle_beta 101.512950
_cell_angle_gamma 90.000000
_cell_volume 1165.984794
_symmetry_space_group_name_H-M "C 2/M"
_symmetry_group_IT_number 12
_symmetry_cell_setting 'monoclinic'
loop_
_space_group_symop_operation_xyz
x,y,z
-x,y,-z
-x,-y,-z
x,-y,z
1/2+x,1/2+y,z
1/2-x,1/2+y,-z
1/2-x,1/2-y,-z
1/2+x,1/2-y,z
loop_
_atom_site_type_symbol
_atom_site_label
_atom_site_fract_x
_atom_site_fract_y
_atom_site_fract_z
Si Si1 0.385562 0.616964 0.151371
Si Si2 0.289306 0.882196 0.082327
Si Si3 0.838111 0.180727 0.393477
Si Si4 0.571670 0.885168 0.671341
O O1 0.354383 0.500000 0.154814
O O2 0.586841 0.631721 0.117201
O O3 0.389884 0.652601 0.275327
O O4 0.230439 0.656427 0.045154
O O5 0.428332 0.855312 0.198184
O O6 0.318539 0.000000 0.072479
O O7 0.642607 0.126021 0.392742
O O8 0.000000 0.157703 0.500000
O O9 0.815162 0.300256 0.379734
O O10 0.635120 0.000000 0.669072
#
# Coordination Sequence:
#
# PCOD9222325 Si02
#       4
#     8   8   8   8
#     4   9  18  37  67 100 137 175 218 278 333 392
#     4   8  17  37  66 100 132 170 221 274 338 397
#     4  12  26  44  66  98 136 178 228 269 324 405
#     4  11  25  45  69  98 134 175 222 279 334 389
#
# _framework density 27.444611999999999
#
# number of rings (size 3 to 8) (size 9 to 14) (size 15 to 20)
#    0.000    2.000    0.000    4.500    0.000    4.500 
#    0.000    7.500    0.000    0.000    0.000    0.000 
#    0.000    0.000    0.000    0.000    0.000    0.000 
#
# Total GULP energy -89620.403003 kJ/mol
# GULP energy per Si atom -5601.275188 kJ/mol
# Density = 2.738215 g / cm^3
# Si number density = 27.444612 Si / 1000 Ang^3
#
#
#
# Elastic Constant Matrix: (Units=GPa)
#
#
# Indices 1 2 3 4 5 6 
#
# 1 31.7984 -2.0259 11.9813 0.0000 24.0267 0.0000
# 2 -2.0259 110.1285 17.6387 0.0000 13.2208 0.0000
# 3 11.9813 17.6387 233.8421 0.0000 38.4635 0.0000
# 4 0.0000 0.0000 0.0000 42.2262 0.0000 3.1229
# 5 24.0267 13.2208 38.4635 0.0000 50.9606 0.0000
# 6 0.0000 0.0000 0.0000 3.1229 0.0000 32.7378
#
#
#
# Elastic Compliance Matrix: (Units=1/GPa)
#
#
# Indices 1 2 3 4 5 6 
#
# 1 0.050814 0.003834 0.001383 0.000000 -0.025996 0.000000
# 2 0.003834 0.009687 -0.000247 0.000000 -0.004134 0.000000
# 3 0.001383 -0.000247 0.004933 0.000000 -0.004312 0.000000
# 4 0.000000 0.000000 0.000000 0.023850 0.000000 -0.002275
# 5 -0.025996 -0.004134 -0.004312 0.000000 0.036206 0.000000
# 6 0.000000 0.000000 0.000000 -0.002275 0.000000 0.030763
#
#
# Mechanical properties :
#
#
# Convention : Reuss Voigt Hill
#
# Bulk Modulus (GPa) = 13.26716 47.88414 30.57565
# Shear Modulus (GPa) = 29.16516 48.39659 38.78087
#
# Velocity S-wave (km/s) = 3.26343 4.20387 3.76315
# Velocity P-wave (km/s) = 4.36402 6.40694 5.48149
#
# Compressibility (1/GPa) = 0.07537408
#
# Stress axis : x y z
#
# Youngs Moduli (GPa) = 19.67974 103.23416 202.70204
#
# Poissons Ratio (x) = -0.39580 -0.28039
# Poissons Ratio (y) = -0.07545 0.05009
# Poissons Ratio (z) = -0.02722 0.02551
#
# Static dielectric constant tensor:
#      x y z
#    x 2.228410 0.000000 -0.000700 
#    y 0.000000 2.137140 0.000000 
#    z -0.000700 0.000000 2.170430 
# 
# From -- ./inp_files/117656.got.cif
#   From: 2010.05.17/outbox.cif.g08.bks.cpg/sg12_59_cif.got.tgz:117656.got - 2010.06.03 13:09:07.
