data_PCOD9222703
_publ_section_title
;
Structure prediction by ZEFSAII (Michael W. Deem and Ramdas Pophale) SiO2 
 PCOD9222703
Probable space group: C 2/M
;
_chemical_formula_sum "Si O2"
_cell_formula_units_Z 40
_cell_length_a 8.740226
_cell_length_b 26.071234
_cell_length_c 10.361664
_cell_angle_alpha 90.000000
_cell_angle_beta 119.202489
_cell_angle_gamma 90.000000
_cell_volume 2061.003305
_symmetry_space_group_name_H-M "C 2/M"
_symmetry_group_IT_number 12
_symmetry_cell_setting 'monoclinic'
loop_
_space_group_symop_operation_xyz
x,y,z
-x,y,-z
-x,-y,-z
x,-y,z
1/2+x,1/2+y,z
1/2-x,1/2+y,-z
1/2-x,1/2-y,-z
1/2+x,1/2-y,z
loop_
_atom_site_type_symbol
_atom_site_label
_atom_site_fract_x
_atom_site_fract_y
_atom_site_fract_z
Si Si1 0.035426 0.790256 0.153776
Si Si2 0.953826 0.500000 0.766250
Si Si3 0.445136 0.208885 0.335652
Si Si4 0.709002 0.387818 0.915226
Si Si5 0.056670 0.611968 0.239025
Si Si6 0.210667 0.000000 0.924430
O O1 0.239204 0.802677 0.249833
O O2 0.981074 0.752210 0.244672
O O3 0.920415 0.841577 0.110428
O O4 0.000000 0.764493 0.000000
O O5 0.924028 0.555339 0.691071
O O6 0.830705 0.500000 0.843941
O O7 0.151625 0.500000 0.901443
O O8 0.500000 0.226155 0.500000
O O9 0.550101 0.158130 0.336267
O O10 0.792951 0.381664 0.807257
O O11 0.621235 0.444401 0.889048
O O12 0.874235 0.386740 0.081849
#
# Coordination Sequence:
#
# PCOD9222703 Si02
#       6
#     8   4   8   8   8   4
#     4  12  24  40  60  85 110 149 196 238 281 332
#     4   7  12  26  52  83 112 147 181 221 268 341
#     4  12  26  41  57  82 117 152 187 235 292 340
#     4   9  17  32  59  88 113 145 186 236 272 331
#     4   9  17  33  58  85 115 148 188 225 279 331
#     4   7  12  26  50  86 118 138 175 228 286 318
#
# _framework density 19.408024000000001
#
# number of rings (size 3 to 8) (size 9 to 14) (size 15 to 20)
#    0.000    2.200    2.000    4.800    2.800    0.000 
#    0.000    2.000    0.000    0.000    0.000    4.900 
#    0.000    0.000    0.000    0.000    0.000    0.000 
#
# Total GULP energy -111596.395806 kJ/mol
# GULP energy per Si atom -5579.819790 kJ/mol
# Density = 1.936385 g / cm^3
# Si number density = 19.408024 Si / 1000 Ang^3
#
#
#
# Elastic Constant Matrix: (Units=GPa)
#
#
# Indices 1 2 3 4 5 6 
#
# 1 62.9557 41.2372 24.4538 0.0000 -12.1556 0.0000
# 2 41.2372 131.5309 24.2178 0.0000 -28.1483 0.0000
# 3 24.4538 24.2178 70.3589 0.0000 -19.8024 0.0000
# 4 0.0000 0.0000 0.0000 103.0237 0.0000 -60.0861
# 5 -12.1556 -28.1483 -19.8024 0.0000 17.1036 0.0000
# 6 0.0000 0.0000 0.0000 -60.0861 0.0000 38.0436
#
#
#
# Elastic Compliance Matrix: (Units=1/GPa)
#
#
# Indices 1 2 3 4 5 6 
#
# 1 0.021886 -0.006029 -0.005854 0.000000 -0.001145 0.000000
# 2 -0.006029 0.013604 0.003721 0.000000 0.022412 0.000000
# 3 -0.005854 0.003721 0.023021 0.000000 0.028616 0.000000
# 4 0.000000 0.000000 0.000000 0.123096 0.000000 0.194417
# 5 -0.001145 0.022412 0.028616 0.000000 0.127669 0.000000
# 6 0.000000 0.000000 0.000000 0.194417 0.000000 0.333348
#
#
# Mechanical properties :
#
#
# Convention : Reuss Voigt Hill
#
# Bulk Modulus (GPa) = 23.70417 49.40702 36.55559
# Shear Modulus (GPa) = 7.42932 43.29664 25.36298
#
# Velocity S-wave (km/s) = 1.95864 4.72833 3.61893
# Velocity P-wave (km/s) = 4.16595 7.43785 6.02813
#
# Compressibility (1/GPa) = 0.04218668
#
# Stress axis : x y z
#
# Youngs Moduli (GPa) = 45.69163 73.50682 43.43938
#
# Poissons Ratio (x) = 0.44316 0.25428
# Poissons Ratio (y) = 0.27547 -0.16162
# Poissons Ratio (z) = 0.26747 -0.27349
#
# Static dielectric constant tensor:
#      x y z
#    x 1.677690 0.000000 -0.022390 
#    y 0.000000 1.720990 0.000000 
#    z -0.022390 0.000000 1.658920 
# 
# From -- ./inp_files/122203.got.cif
#   From: 2010.05.17/outbox.cif.g08.bks.cpg/sg12_62_cif.got.tgz:122203.got - 2010.06.03 13:09:07.
