data_PCOD9222322
_publ_section_title
;
Structure prediction by ZEFSAII (Michael W. Deem and Ramdas Pophale) SiO2 
 PCOD9222322
Probable space group: C 2/M
;
_chemical_formula_sum "Si O2"
_cell_formula_units_Z 44
_cell_length_a 14.892513
_cell_length_b 21.808377
_cell_length_c 6.377478
_cell_angle_alpha 90.000000
_cell_angle_beta 104.114636
_cell_angle_gamma 90.000000
_cell_volume 2008.754444
_symmetry_space_group_name_H-M "C 2/M"
_symmetry_group_IT_number 12
_symmetry_cell_setting 'monoclinic'
loop_
_space_group_symop_operation_xyz
x,y,z
-x,y,-z
-x,-y,-z
x,-y,z
1/2+x,1/2+y,z
1/2-x,1/2+y,-z
1/2-x,1/2-y,-z
1/2+x,1/2-y,z
loop_
_atom_site_type_symbol
_atom_site_label
_atom_site_fract_x
_atom_site_fract_y
_atom_site_fract_z
Si Si1 0.051466 0.000000 0.800559
Si Si2 0.396549 0.729234 0.579636
Si Si3 0.500000 0.203088 0.000000
Si Si4 0.105501 0.500000 0.635557
Si Si5 0.738013 0.000000 0.307589
Si Si6 0.655860 0.896049 0.980938
Si Si7 0.231209 0.294422 0.796261
Si Si8 0.000000 0.886208 0.500000
O O1 0.015486 0.065643 0.694494
O O2 0.157181 0.000000 0.743189
O O3 0.000000 0.000000 0.000000
O O4 0.311446 0.716557 0.680305
O O5 0.362030 0.777548 0.385102
O O6 0.419451 0.663369 0.492241
O O7 0.474644 0.755799 0.782068
O O8 0.586744 0.157576 0.013739
O O9 0.193442 0.500000 0.521139
O O10 0.111038 0.441253 0.788570
O O11 0.000000 0.500000 0.500000
O O12 0.693065 0.938213 0.187191
O O13 0.734538 0.861545 0.895526
O O14 0.250000 0.250000 0.000000
#
# Coordination Sequence:
#
# PCOD9222322 Si02
#       8
#     4   8   4   4   4   8   8   4
#     4  11  30  49  76 102 138 191 250 309 360 432
#     4  11  27  43  73 107 147 185 240 297 371 431
#     4  12  24  45  72 113 148 190 240 300 364 448
#     4  11  26  45  72 102 144 193 238 301 355 426
#     4  11  28  47  74 102 140 197 242 308 362 436
#     4  11  26  42  71 102 144 186 244 293 366 432
#     4  11  25  45  69 107 142 196 232 295 368 444
#     4  11  28  46  72 106 138 183 250 302 362 435
#
# _framework density 21.904119999999999
#
# number of rings (size 3 to 8) (size 9 to 14) (size 15 to 20)
#    0.000    0.909    1.818    2.182   14.000    2.909 
#    0.000    0.000    0.000    0.000    0.000    0.000 
#    0.000    0.000    0.000    0.000    0.000    0.000 
#
# Total GULP energy -122515.837268 kJ/mol
# GULP energy per Si atom -5568.901694 kJ/mol
# Density = 2.185427 g / cm^3
# Si number density = 21.904120 Si / 1000 Ang^3
#
#
#
# Elastic Constant Matrix: (Units=GPa)
#
#
# Indices 1 2 3 4 5 6 
#
# 1 66.5089 -13.4636 -0.3830 0.0000 -26.9081 0.0000
# 2 -13.4636 112.1891 18.4475 0.0000 -2.6914 0.0000
# 3 -0.3830 18.4475 72.2677 0.0000 -10.9883 0.0000
# 4 0.0000 0.0000 0.0000 -89.2770 0.0000 -74.2945
# 5 -26.9081 -2.6914 -10.9883 0.0000 36.5085 0.0000
# 6 0.0000 0.0000 0.0000 -74.2945 0.0000 -33.2881
#
#
#
# Elastic Compliance Matrix: (Units=1/GPa)
#
#
# Indices 1 2 3 4 5 6 
#
# 1 0.022731 0.002808 0.002078 0.000000 0.017586 0.000000
# 2 0.002808 0.009651 -0.002123 0.000000 0.002142 0.000000
# 3 0.002078 -0.002123 0.015300 0.000000 0.005980 0.000000
# 4 0.000000 0.000000 0.000000 0.013065 0.000000 -0.029160
# 5 0.017586 0.002142 0.005980 0.000000 0.042310 0.000000
# 6 0.000000 0.000000 0.000000 -0.029160 0.000000 0.035041
#
#
# Mechanical properties :
#
#
# Convention : Reuss Voigt Hill
#
# Bulk Modulus (GPa) = 18.79456 28.90750 23.85103
# Shear Modulus (GPa) = 33.26515 -0.78700 16.23907
#
# Velocity S-wave (km/s) = 3.90124 -0.60006 2.72577
# Velocity P-wave (km/s) = 5.37512 3.57013 4.56277
#
# Compressibility (1/GPa) = 0.05320689
#
# Stress axis : x y z
#
# Youngs Moduli (GPa) = 43.99310 103.61622 65.36129
#
# Poissons Ratio (x) = -0.29097 -0.13579
# Poissons Ratio (y) = -0.12354 0.13876
# Poissons Ratio (z) = -0.09140 0.21997
#
# Static dielectric constant tensor:
#      x y z
#    x 1.910200 0.000000 -0.000410 
#    y 0.000000 2.645220 0.000000 
#    z -0.000410 0.000000 1.899580 
# 
# From -- ./inp_files/16185.got.cif
#   From: 2010.05.17/outbox.cif.g08.bks.cpg/sg12_9_cif.got.tgz:16185.got - 2010.06.03 13:09:07.
