data_PCOD9222600
_publ_section_title
;
Structure prediction by ZEFSAII (Michael W. Deem and Ramdas Pophale) SiO2 
 PCOD9222600
Probable space group: C 2/M
;
_chemical_formula_sum "Si O2"
_cell_formula_units_Z 30
_cell_length_a 8.465798
_cell_length_b 22.249919
_cell_length_c 10.734394
_cell_angle_alpha 90.000000
_cell_angle_beta 39.892263
_cell_angle_gamma 90.000000
_cell_volume 1296.779926
_symmetry_space_group_name_H-M "C 2/M"
_symmetry_group_IT_number 12
_symmetry_cell_setting 'monoclinic'
loop_
_space_group_symop_operation_xyz
x,y,z
-x,y,-z
-x,-y,-z
x,-y,z
1/2+x,1/2+y,z
1/2-x,1/2+y,-z
1/2-x,1/2-y,-z
1/2+x,1/2-y,z
loop_
_atom_site_type_symbol
_atom_site_label
_atom_site_fract_x
_atom_site_fract_y
_atom_site_fract_z
Si Si1 0.010799 0.328253 0.669176
Si Si2 0.752650 0.292797 0.215542
Si Si3 0.950759 0.902567 0.304465
Si Si4 0.000000 0.899246 0.000000
Si Si5 0.500000 0.500000 0.500000
O O1 0.936473 0.262065 0.668443
O O2 0.753621 0.361605 0.850086
O O3 0.166797 0.317795 0.700251
O O4 0.189578 0.368541 0.476533
O O5 0.645156 0.348364 0.203112
O O6 0.000000 0.269789 0.000000
O O7 0.981064 0.948025 0.400554
O O8 0.983723 0.929831 0.146248
#
# Coordination Sequence:
#
# PCOD9222600 Si02
#       5
#     8   8   8   4   2
#     4  12  24  45  74 117 161 200 245 311 387 467
#     4  12  22  44  75 118 160 200 250 306 395 461
#     4  12  27  49  79 107 152 206 257 318 375 448
#     4  12  26  47  74 118 158 195 252 310 390 460
#     4  12  28  58  80 106 146 206 280 310 366 448
#
# _framework density 23.134226999999999
#
# number of rings (size 3 to 8) (size 9 to 14) (size 15 to 20)
#    0.000    0.000    6.667    4.000    0.000    2.667 
#    0.000    8.667    0.000    0.000    0.000    0.000 
#    0.000    0.000    0.000    0.000    0.000    0.000 
#
# Total GULP energy -83687.511885 kJ/mol
# GULP energy per Si atom -5579.167459 kJ/mol
# Density = 2.308157 g / cm^3
# Si number density = 23.134227 Si / 1000 Ang^3
#
#
#
# Elastic Constant Matrix: (Units=GPa)
#
#
# Indices 1 2 3 4 5 6 
#
# 1 165.5477 51.8462 73.2708 0.0000 39.4652 0.0000
# 2 51.8462 132.4320 46.3986 0.0000 15.7419 0.0000
# 3 73.2708 46.3986 136.9049 0.0000 26.2718 0.0000
# 4 0.0000 0.0000 0.0000 -8.1154 0.0000 5.6513
# 5 39.4652 15.7419 26.2718 0.0000 66.2763 0.0000
# 6 0.0000 0.0000 0.0000 5.6513 0.0000 -13.1431
#
#
#
# Elastic Compliance Matrix: (Units=1/GPa)
#
#
# Indices 1 2 3 4 5 6 
#
# 1 0.009029 -0.001883 -0.003516 0.000000 -0.003536 0.000000
# 2 -0.001883 0.009018 -0.002005 0.000000 -0.000226 0.000000
# 3 -0.003516 -0.002005 0.010144 0.000000 -0.001451 0.000000
# 4 0.000000 0.000000 0.000000 -0.175889 0.000000 -0.075630
# 5 -0.003536 -0.000226 -0.001451 0.000000 0.017823 0.000000
# 6 0.000000 0.000000 0.000000 -0.075630 0.000000 -0.108605
#
#
# Mechanical properties :
#
#
# Convention : Reuss Voigt Hill
#
# Bulk Modulus (GPa) = 74.71993 86.43508 80.57751
# Shear Modulus (GPa) = -22.80893 26.56152 1.87629
#
# Velocity S-wave (km/s) = -3.14337 3.39211 0.90156
# Velocity P-wave (km/s) = 4.38111 7.26536 5.99915
#
# Compressibility (1/GPa) = 0.01338331
#
# Stress axis : x y z
#
# Youngs Moduli (GPa) = 110.75236 110.89543 98.58027
#
# Poissons Ratio (x) = 0.20879 0.34658
# Poissons Ratio (y) = 0.20852 0.19767
# Poissons Ratio (z) = 0.38938 0.22236
#
# Static dielectric constant tensor:
#      x y z
#    x 1.897970 0.000000 0.054090 
#    y 0.000000 1.782080 0.000000 
#    z 0.054090 0.000000 1.903080 
# 
# From -- ./inp_files/121580.got.cif
#   From: 2010.05.17/outbox.cif.g08.bks.cpg/sg12_61_cif.got.tgz:121580.got - 2010.06.03 13:09:07.
