data_PCOD9222027
_publ_section_title
;
Structure prediction by ZEFSAII (Michael W. Deem and Ramdas Pophale) SiO2 
 PCOD9222027
Probable space group: C 2/M
;
_chemical_formula_sum "Si O2"
_cell_formula_units_Z 40
_cell_length_a 15.894091
_cell_length_b 23.775826
_cell_length_c 10.656669
_cell_angle_alpha 90.000000
_cell_angle_beta 157.431557
_cell_angle_gamma 90.000000
_cell_volume 1545.549083
_symmetry_space_group_name_H-M "C 2/M"
_symmetry_group_IT_number 12
_symmetry_cell_setting 'monoclinic'
loop_
_space_group_symop_operation_xyz
x,y,z
-x,y,-z
-x,-y,-z
x,-y,z
1/2+x,1/2+y,z
1/2-x,1/2+y,-z
1/2-x,1/2-y,-z
1/2+x,1/2-y,z
loop_
_atom_site_type_symbol
_atom_site_label
_atom_site_fract_x
_atom_site_fract_y
_atom_site_fract_z
Si Si1 0.698812 0.920160 0.366280
Si Si2 0.077169 0.594291 0.470039
Si Si3 0.202950 0.792663 0.546186
Si Si4 0.746078 0.705299 0.181398
Si Si5 0.372369 0.564184 0.197473
O O1 0.667532 0.935346 0.469449
O O2 0.700946 0.852765 0.355285
O O3 0.940582 0.936340 0.650771
O O4 0.500000 0.939585 0.000000
O O5 0.000000 0.568321 0.500000
O O6 0.242337 0.645912 0.725876
O O7 0.827856 0.607618 0.084300
O O8 0.250000 0.750000 0.500000
O O9 0.291598 0.761565 0.790229
O O10 0.938087 0.798198 0.177990
O O11 0.000000 0.709402 0.500000
O O12 0.500000 0.576568 0.500000
O O13 0.283411 0.500000 0.083689
#
# Coordination Sequence:
#
# PCOD9222027 Si02
#       5
#     8   8   8   8   8
#     4  12  24  43  74 104 139 191 237 286 356 423
#     4  11  25  46  70 103 144 182 231 293 354 419
#     4  12  24  40  65  98 142 181 234 285 338 409
#     4  11  24  42  63  96 138 188 232 284 345 415
#     4  11  26  48  74 106 139 178 238 303 360 423
#
# _framework density 25.880769999999998
#
# number of rings (size 3 to 8) (size 9 to 14) (size 15 to 20)
#    0.000    0.600    4.000    4.800    0.000    4.800 
#    0.000    1.000    0.000    0.000    0.000    0.000 
#    0.000    0.000    0.000    0.000    0.000    0.000 
#
# Total GULP energy -111688.219630 kJ/mol
# GULP energy per Si atom -5584.410981 kJ/mol
# Density = 2.582186 g / cm^3
# Si number density = 25.880770 Si / 1000 Ang^3
#
#
#
# Elastic Constant Matrix: (Units=GPa)
#
#
# Indices 1 2 3 4 5 6 
#
# 1 139.1170 -12.3412 11.9768 0.0000 1.7505 0.0000
# 2 -12.3412 109.6622 20.9347 0.0000 -9.4725 0.0000
# 3 11.9768 20.9347 135.2877 0.0000 -0.7254 0.0000
# 4 0.0000 0.0000 0.0000 -20.1188 0.0000 49.8591
# 5 1.7505 -9.4725 -0.7254 0.0000 50.2590 0.0000
# 6 0.0000 0.0000 0.0000 49.8591 0.0000 -36.6912
#
#
#
# Elastic Compliance Matrix: (Units=1/GPa)
#
#
# Indices 1 2 3 4 5 6 
#
# 1 0.007344 0.000972 -0.000801 0.000000 -0.000084 0.000000
# 2 0.000972 0.009682 -0.001575 0.000000 0.001768 0.000000
# 3 -0.000801 -0.001575 0.007705 0.000000 -0.000158 0.000000
# 4 0.000000 0.000000 0.000000 0.020993 0.000000 0.028528
# 5 -0.000084 0.001768 -0.000158 0.000000 0.020231 0.000000
# 6 0.000000 0.000000 0.000000 0.028528 0.000000 0.011511
#
#
# Mechanical properties :
#
#
# Convention : Reuss Voigt Hill
#
# Bulk Modulus (GPa) = 45.61156 47.24529 46.42843
# Shear Modulus (GPa) = 57.08899 22.92290 40.00595
#
# Velocity S-wave (km/s) = 4.70174 2.97932 3.93590
# Velocity P-wave (km/s) = 6.86565 5.48906 6.21558
#
# Compressibility (1/GPa) = 0.02192426
#
# Stress axis : x y z
#
# Youngs Moduli (GPa) = 136.15700 103.28795 129.77897
#
# Poissons Ratio (x) = -0.10042 0.10396
# Poissons Ratio (y) = -0.13237 0.20437
# Poissons Ratio (z) = 0.10907 0.16265
#
# Static dielectric constant tensor:
#      x y z
#    x 2.169650 0.000000 -0.051050 
#    y 0.000000 2.201620 0.000000 
#    z -0.051050 0.000000 2.137090 
# 
# From -- ./inp_files/161134.got.cif
#   From: 2010.05.17/outbox.cif.g08.bks.cpg/sg12_81_cif.got.tgz:161134.got - 2010.06.03 13:09:07.
