data_PCOD9222959
_publ_section_title
;
Structure prediction by ZEFSAII (Michael W. Deem and Ramdas Pophale) SiO2 
 PCOD9222959
Probable space group: C 2/M
;
_chemical_formula_sum "Si O2"
_cell_formula_units_Z 40
_cell_length_a 13.754139
_cell_length_b 21.177474
_cell_length_c 17.526801
_cell_angle_alpha 90.000000
_cell_angle_beta 22.036873
_cell_angle_gamma 90.000000
_cell_volume 1915.476230
_symmetry_space_group_name_H-M "C 2/M"
_symmetry_group_IT_number 12
_symmetry_cell_setting 'monoclinic'
loop_
_space_group_symop_operation_xyz
x,y,z
-x,y,-z
-x,-y,-z
x,-y,z
1/2+x,1/2+y,z
1/2-x,1/2+y,-z
1/2-x,1/2-y,-z
1/2+x,1/2-y,z
loop_
_atom_site_type_symbol
_atom_site_label
_atom_site_fract_x
_atom_site_fract_y
_atom_site_fract_z
Si Si1 0.695877 0.320260 0.918221
Si Si2 0.051543 0.644407 0.785576
Si Si3 0.231460 0.930516 0.243829
Si Si4 0.899192 0.182769 0.764415
Si Si5 0.757320 0.781902 0.355801
O O1 0.818974 0.254095 0.796652
O O2 0.905676 0.362162 0.810674
O O3 0.500000 0.350433 0.000000
O O4 0.500827 0.298015 0.125767
O O5 0.199717 0.587762 0.719096
O O6 0.228638 0.706452 0.648120
O O7 0.830520 0.662376 0.009759
O O8 0.091676 0.871237 0.305641
O O9 0.112075 0.000000 0.324203
O O10 0.500000 0.933825 0.000000
O O11 0.161752 0.188545 0.622265
O O12 0.500000 0.803307 0.500000
#
# Coordination Sequence:
#
# PCOD9222959 Si02
#       5
#     8   8   8   8   8
#     4   9  15  26  43  60  87 117 135 165 214 259
#     4   8  15  26  39  59  86 113 137 167 214 255
#     4   9  15  25  44  65  82 105 144 184 206 235
#     4   8  14  25  40  61  88 111 135 172 217 250
#     4   9  16  26  42  64  88 111 138 174 209 249
#
# _framework density 20.882535000000001
#
# number of rings (size 3 to 8) (size 9 to 14) (size 15 to 20)
#    0.000    3.400    0.000    5.400    0.000    0.000 
#    0.000    9.000    0.000    1.800    0.000    0.000 
#    0.000    0.000    0.000    0.000    0.000    3.200 
#
# Total GULP energy -111564.034837 kJ/mol
# GULP energy per Si atom -5578.201742 kJ/mol
# Density = 2.083501 g / cm^3
# Si number density = 20.882535 Si / 1000 Ang^3
#
#
#
# Elastic Constant Matrix: (Units=GPa)
#
#
# Indices 1 2 3 4 5 6 
#
# 1 146.5719 62.9885 26.4681 -0.0445 -34.6620 -0.0040
# 2 62.9885 85.2314 33.2584 -0.2080 -8.7498 -0.0066
# 3 26.4681 33.2584 72.2403 -0.2552 -10.7310 0.0805
# 4 -0.0445 -0.2080 -0.2552 17.6894 0.1803 -2.1305
# 5 -34.6620 -8.7498 -10.7310 0.1803 44.0523 0.0143
# 6 -0.0040 -0.0066 0.0805 -2.1305 0.0143 16.8014
#
#
#
# Elastic Compliance Matrix: (Units=1/GPa)
#
#
# Indices 1 2 3 4 5 6 
#
# 1 0.012277 -0.008478 0.000611 -0.000146 0.008126 -0.000029
# 2 -0.008478 0.020227 -0.006847 0.000170 -0.004322 0.000064
# 3 0.000611 -0.006847 0.017266 0.000127 0.003326 -0.000072
# 4 -0.000146 0.000170 0.000127 0.057414 -0.000288 0.007280
# 5 0.008126 -0.004322 0.003326 -0.000288 0.029047 -0.000077
# 6 -0.000029 0.000064 -0.000072 0.007280 -0.000077 0.060442
#
#
# Mechanical properties :
#
#
# Convention : Reuss Voigt Hill
#
# Bulk Modulus (GPa) = 49.15935 61.05261 55.10598
# Shear Modulus (GPa) = 21.47011 27.79719 24.63365
#
# Velocity S-wave (km/s) = 3.20994 3.65241 3.43830
# Velocity P-wave (km/s) = 6.10985 6.86196 6.49680
#
# Compressibility (1/GPa) = 0.02034201
#
# Stress axis : x y z
#
# Youngs Moduli (GPa) = 81.45273 49.43925 57.91809
#
# Poissons Ratio (x) = 0.41914 -0.03542
# Poissons Ratio (y) = 0.69055 0.39659
# Poissons Ratio (z) = -0.04981 0.33853
#
# Static dielectric constant tensor:
#      x y z
#    x 1.834880 -0.000070 0.028510 
#    y -0.000070 1.687670 0.000190 
#    z 0.028510 0.000190 1.866560 
# 
# From -- ./inp_files/79458.got.cif
#   From: 2010.05.17/outbox.cif.g08.bks.cpg/sg12_40_cif.got.tgz:79458.got - 2010.06.03 13:09:07.
