data_PCOD9222209
_publ_section_title
;
Structure prediction by ZEFSAII (Michael W. Deem and Ramdas Pophale) SiO2 
 PCOD9222209
Probable space group: C 2/M
;
_chemical_formula_sum "Si O2"
_cell_formula_units_Z 38
_cell_length_a 5.493407
_cell_length_b 27.329375
_cell_length_c 11.157532
_cell_angle_alpha 90.000000
_cell_angle_beta 94.911835
_cell_angle_gamma 90.000000
_cell_volume 1668.944107
_symmetry_space_group_name_H-M "C 2/M"
_symmetry_group_IT_number 12
_symmetry_cell_setting 'monoclinic'
loop_
_space_group_symop_operation_xyz
x,y,z
-x,y,-z
-x,-y,-z
x,-y,z
1/2+x,1/2+y,z
1/2-x,1/2+y,-z
1/2-x,1/2-y,-z
1/2+x,1/2-y,z
loop_
_atom_site_type_symbol
_atom_site_label
_atom_site_fract_x
_atom_site_fract_y
_atom_site_fract_z
Si Si1 0.587929 0.353298 0.639950
Si Si2 0.247669 0.719799 0.171071
Si Si3 0.000000 0.358208 0.000000
Si Si4 0.405334 0.949348 0.630606
Si Si5 0.310909 0.583214 0.819536
Si Si6 0.000000 0.000000 0.000000
O O1 0.500000 0.345052 0.500000
O O2 0.721178 0.305987 0.698668
O O3 0.759338 0.400330 0.642240
O O4 0.402799 0.372806 0.735741
O O5 0.502579 0.747299 0.156590
O O6 0.193451 0.676381 0.075620
O O7 0.854790 0.391377 0.086672
O O8 0.500000 0.948851 0.500000
O O9 0.631641 0.947678 0.728633
O O10 0.261208 0.000000 0.642944
O O11 0.486180 0.544366 0.894669
#
# Coordination Sequence:
#
# PCOD9222209 Si02
#       6
#     8   8   4   8   8   2
#     4  12  27  48  77 107 153 193 254 326 392 462
#     4  12  28  50  80 113 152 205 264 327 398 468
#     4  12  26  51  77 104 154 204 262 318 388 464
#     4  11  24  45  75 109 149 200 254 312 377 457
#     4  12  26  46  70 109 151 205 248 315 383 452
#     4  12  28  42  70 108 158 204 256 300 362 472
#
# _framework density 22.768886999999999
#
# number of rings (size 3 to 8) (size 9 to 14) (size 15 to 20)
#    0.000    0.211    5.263    3.158    1.474    3.368 
#    0.000    0.000    0.000    0.000    0.000    0.000 
#    0.000    0.000    0.000    0.000    0.000    0.000 
#
# Total GULP energy -105948.246767 kJ/mol
# GULP energy per Si atom -5576.223514 kJ/mol
# Density = 2.271706 g / cm^3
# Si number density = 22.768887 Si / 1000 Ang^3
#
#
#
# Elastic Constant Matrix: (Units=GPa)
#
#
# Indices 1 2 3 4 5 6 
#
# 1 80.1287 35.6369 37.9462 0.0000 -11.1744 0.0000
# 2 35.6369 93.3556 38.1641 0.0000 -3.1516 0.0000
# 3 37.9462 38.1641 164.9726 0.0000 7.2672 0.0000
# 4 0.0000 0.0000 0.0000 99.6316 0.0000 0.4259
# 5 -11.1744 -3.1516 7.2672 0.0000 41.6422 0.0000
# 6 0.0000 0.0000 0.0000 0.4259 0.0000 34.1675
#
#
#
# Elastic Compliance Matrix: (Units=1/GPa)
#
#
# Indices 1 2 3 4 5 6 
#
# 1 0.016737 -0.005054 -0.002884 0.000000 0.004612 0.000000
# 2 -0.005054 0.013437 -0.001946 0.000000 0.000000 0.000000
# 3 -0.002884 -0.001946 0.007271 0.000000 -0.002190 0.000000
# 4 0.000000 0.000000 0.000000 0.010038 0.000000 -0.000125
# 5 0.004612 0.000000 -0.002190 0.000000 0.025634 0.000000
# 6 0.000000 0.000000 0.000000 -0.000125 0.000000 0.029269
#
#
# Mechanical properties :
#
#
# Convention : Reuss Voigt Hill
#
# Bulk Modulus (GPa) = 56.57016 62.43902 59.50459
# Shear Modulus (GPa) = 39.04877 50.20225 44.62551
#
# Velocity S-wave (km/s) = 4.14576 4.70069 4.43192
# Velocity P-wave (km/s) = 6.91489 7.54616 7.23741
#
# Compressibility (1/GPa) = 0.01767716
#
# Stress axis : x y z
#
# Youngs Moduli (GPa) = 59.74951 74.42351 137.52366
#
# Poissons Ratio (x) = 0.37617 0.39656
# Poissons Ratio (y) = 0.30200 0.26759
# Poissons Ratio (z) = 0.17229 0.14481
#
# Static dielectric constant tensor:
#      x y z
#    x 1.795810 0.000000 0.071370 
#    y 0.000000 6.126090 0.000000 
#    z 0.071370 0.000000 1.806030 
# 
# From -- ./inp_files/115550.got.cif
#   From: 2010.05.17/outbox.cif.g08.bks.cpg/sg12_58_cif.got.tgz:115550.got - 2010.06.03 13:09:07.
