data_PCOD9222880
_publ_section_title
;
Structure prediction by ZEFSAII (Michael W. Deem and Ramdas Pophale) SiO2 
 PCOD9222880
Probable space group: C 2/M
;
_chemical_formula_sum "Si O2"
_cell_formula_units_Z 56
_cell_length_a 34.701343
_cell_length_b 7.436228
_cell_length_c 22.266013
_cell_angle_alpha 90.000000
_cell_angle_beta 148.642554
_cell_angle_gamma 90.000000
_cell_volume 2989.911414
_symmetry_space_group_name_H-M "C 2/M"
_symmetry_group_IT_number 12
_symmetry_cell_setting 'monoclinic'
loop_
_space_group_symop_operation_xyz
x,y,z
-x,y,-z
-x,-y,-z
x,-y,z
1/2+x,1/2+y,z
1/2-x,1/2+y,-z
1/2-x,1/2-y,-z
1/2+x,1/2-y,z
loop_
_atom_site_type_symbol
_atom_site_label
_atom_site_fract_x
_atom_site_fract_y
_atom_site_fract_z
Si Si1 0.418114 0.720298 0.411416
Si Si2 0.627381 0.792566 0.319068
Si Si3 0.241064 0.780442 0.578111
Si Si4 0.877793 0.215089 0.490420
Si Si5 0.509071 0.783951 0.250372
Si Si6 0.311632 0.283763 0.163648
Si Si7 0.351670 0.214083 0.082179
O O1 0.500000 0.775252 0.500000
O O2 0.417873 0.500000 0.411575
O O3 0.398423 0.783056 0.452162
O O4 0.358354 0.779655 0.282569
O O5 0.676203 0.718133 0.328891
O O6 0.686057 0.785428 0.452333
O O7 0.553876 0.712918 0.251821
O O8 0.611164 0.000000 0.282654
O O9 0.200345 0.723320 0.584942
O O10 0.241053 0.000000 0.575625
O O11 0.941275 0.251555 0.624237
O O12 0.872433 0.000000 0.478400
O O13 0.426489 0.714440 0.151824
O O14 0.505470 0.000000 0.238801
O O15 0.307868 0.500000 0.162514
O O16 0.351541 0.242225 0.153731
O O17 0.227271 0.214982 0.046430
O O18 0.351241 0.000000 0.071518
#
# Coordination Sequence:
#
# PCOD9222880 Si02
#       7
#     8   8   8   8   8   8   8
#     4   9  16  25  38  56  75  95 121 151 182 217
#     4   8  13  21  33  49  71  97 119 142 177 217
#     4   8  13  21  33  50  71  94 120 148 177 210
#     4   9  16  25  38  56  76  98 125 154 181 213
#     4   9  16  25  37  55  78 100 121 147 182 222
#     4   9  17  29  43  56  72  97 125 152 184 217
#     4   9  17  28  41  57  75  95 122 154 184 216
#
# _framework density 18.729651
#
# number of rings (size 3 to 8) (size 9 to 14) (size 15 to 20)
#    0.000    3.286    0.000    0.857    0.000    1.714 
#    0.000    0.714    0.000    2.571    0.000    1.000 
#    0.000    8.000    0.000    0.000    0.000  146.286 
#
# Total GULP energy -155910.154051 kJ/mol
# GULP energy per Si atom -5568.219788 kJ/mol
# Density = 1.868702 g / cm^3
# Si number density = 18.729651 Si / 1000 Ang^3
#
#
#
# Elastic Constant Matrix: (Units=GPa)
#
#
# Indices 1 2 3 4 5 6 
#
# 1 203.5494 10.1896 62.6459 0.0000 32.3195 0.0000
# 2 10.1896 60.4437 3.3831 0.0000 1.5976 0.0000
# 3 62.6459 3.3831 57.3152 0.0000 11.6215 0.0000
# 4 0.0000 0.0000 0.0000 7.7791 0.0000 -5.0211
# 5 32.3195 1.5976 11.6215 0.0000 26.7740 0.0000
# 6 0.0000 0.0000 0.0000 -5.0211 0.0000 12.9661
#
#
#
# Elastic Compliance Matrix: (Units=1/GPa)
#
#
# Indices 1 2 3 4 5 6 
#
# 1 0.008420 -0.000805 -0.007790 0.000000 -0.006735 0.000000
# 2 -0.000805 0.016686 -0.000109 0.000000 0.000024 0.000000
# 3 -0.007790 -0.000109 0.026382 0.000000 -0.002041 0.000000
# 4 0.000000 0.000000 0.000000 0.171390 0.000000 0.066371
# 5 -0.006735 0.000024 -0.002041 0.000000 0.046364 0.000000
# 6 0.000000 0.000000 0.000000 0.066371 0.000000 0.102827
#
#
# Mechanical properties :
#
#
# Convention : Reuss Voigt Hill
#
# Bulk Modulus (GPa) = 29.34437 52.63840 40.99139
# Shear Modulus (GPa) = 12.47389 25.84315 19.15852
#
# Velocity S-wave (km/s) = 2.58349 3.71859 3.20175
# Velocity P-wave (km/s) = 4.95990 6.82661 5.96671
#
# Compressibility (1/GPa) = 0.03407808
#
# Stress axis : x y z
#
# Youngs Moduli (GPa) = 118.76560 59.93199 37.90422
#
# Poissons Ratio (x) = 0.04827 0.29527
# Poissons Ratio (y) = 0.09565 0.00415
# Poissons Ratio (z) = 0.92518 0.00656
#
# Static dielectric constant tensor:
#      x y z
#    x 1.708720 0.000000 0.034910 
#    y 0.000000 1.700310 0.000000 
#    z 0.034910 0.000000 1.609030 
# 
# From -- ./inp_files/239275.got.cif
#   From: 2010.05.17/outbox.cif.g08.bks.cpg/sg12_120_cif.got.tgz:239275.got - 2010.06.03 13:09:07.
