data_PCOD9222180
_publ_section_title
;
Structure prediction by ZEFSAII (Michael W. Deem and Ramdas Pophale) SiO2 
 PCOD9222180
Probable space group: C 2/M
;
_chemical_formula_sum "Si O2"
_cell_formula_units_Z 32
_cell_length_a 11.387970
_cell_length_b 18.844998
_cell_length_c 9.882238
_cell_angle_alpha 90.000000
_cell_angle_beta 142.438694
_cell_angle_gamma 90.000000
_cell_volume 1292.854866
_symmetry_space_group_name_H-M "C 2/M"
_symmetry_group_IT_number 12
_symmetry_cell_setting 'monoclinic'
loop_
_space_group_symop_operation_xyz
x,y,z
-x,y,-z
-x,-y,-z
x,-y,z
1/2+x,1/2+y,z
1/2-x,1/2+y,-z
1/2-x,1/2-y,-z
1/2+x,1/2-y,z
loop_
_atom_site_type_symbol
_atom_site_label
_atom_site_fract_x
_atom_site_fract_y
_atom_site_fract_z
Si Si1 0.133359 0.417205 0.330330
Si Si2 0.403965 0.693778 0.090612
Si Si3 0.297972 0.190045 0.363718
Si Si4 0.294520 0.581758 0.188603
O O1 0.171038 0.500000 0.396997
O O2 0.154635 0.369226 0.482193
O O3 0.259643 0.398432 0.312712
O O4 0.914618 0.413137 0.074513
O O5 0.610400 0.731024 0.251231
O O6 0.425676 0.633589 0.221724
O O7 0.250000 0.750000 0.000000
O O8 0.304564 0.661140 0.866058
O O9 0.500000 0.224063 0.500000
O O10 0.356226 0.500000 0.238842
#
# Coordination Sequence:
#
# PCOD9222180 Si02
#       4
#     8   8   8   8
#     4   9  19  38  69 103 138 181 230 280 343 409
#     4  11  26  46  67 100 139 178 232 289 342 413
#     4  11  24  45  67  98 133 176 228 281 351 407
#     4   9  19  41  69 100 139 182 228 286 339 400
#
# _framework density 24.751422999999999
#
# number of rings (size 3 to 8) (size 9 to 14) (size 15 to 20)
#    0.000    2.000    2.500    1.500    0.000    8.500 
#    4.500    5.000    0.000    0.000    0.000    0.000 
#    0.000    0.000    0.000    0.000    0.000    0.000 
#
# Total GULP energy -89503.909445 kJ/mol
# GULP energy per Si atom -5593.994340 kJ/mol
# Density = 2.469509 g / cm^3
# Si number density = 24.751423 Si / 1000 Ang^3
#
#
#
# Elastic Constant Matrix: (Units=GPa)
#
#
# Indices 1 2 3 4 5 6 
#
# 1 174.7027 57.6460 53.0450 0.0000 26.6095 0.0000
# 2 57.6460 74.7489 56.1776 0.0000 -20.8138 0.0000
# 3 53.0450 56.1776 186.3777 0.0000 -11.9519 0.0000
# 4 0.0000 0.0000 0.0000 28.4583 0.0000 2.3087
# 5 26.6095 -20.8138 -11.9519 0.0000 61.8863 0.0000
# 6 0.0000 0.0000 0.0000 2.3087 0.0000 19.4815
#
#
#
# Elastic Compliance Matrix: (Units=1/GPa)
#
#
# Indices 1 2 3 4 5 6 
#
# 1 0.010260 -0.009706 -0.000493 0.000000 -0.007771 0.000000
# 2 -0.009706 0.028060 -0.004883 0.000000 0.012667 0.000000
# 3 -0.000493 -0.004883 0.006972 0.000000 -0.000084 0.000000
# 4 0.000000 0.000000 0.000000 0.035480 0.000000 -0.004205
# 5 -0.007771 0.012667 -0.000084 0.000000 0.023744 0.000000
# 6 0.000000 0.000000 0.000000 -0.004205 0.000000 0.051829
#
#
# Mechanical properties :
#
#
# Convention : Reuss Voigt Hill
#
# Bulk Modulus (GPa) = 66.09922 85.50741 75.80331
# Shear Modulus (GPa) = 26.10251 39.89592 32.99921
#
# Velocity S-wave (km/s) = 3.25096 4.01916 3.65530
# Velocity P-wave (km/s) = 6.39178 7.49397 6.96471
#
# Compressibility (1/GPa) = 0.01512877
#
# Stress axis : x y z
#
# Youngs Moduli (GPa) = 97.46752 35.63748 143.42570
#
# Poissons Ratio (x) = 0.34589 0.07070
# Poissons Ratio (y) = 0.94599 0.70038
# Poissons Ratio (z) = 0.04804 0.17403
#
# Static dielectric constant tensor:
#      x y z
#    x 2.067270 0.000000 0.045580 
#    y 0.000000 1.918330 0.000000 
#    z 0.045580 0.000000 1.990440 
# 
# From -- ./inp_files/51118.got.cif
#   From: 2010.05.17/outbox.cif.g08.bks.cpg/sg12_26_cif.got.tgz:51118.got - 2010.06.03 13:09:07.
