data_PCOD9222297
_publ_section_title
;
Structure prediction by ZEFSAII (Michael W. Deem and Ramdas Pophale) SiO2 
 PCOD9222297
Probable space group: C 2/M
;
_chemical_formula_sum "Si O2"
_cell_formula_units_Z 44
_cell_length_a 16.321970
_cell_length_b 13.106965
_cell_length_c 27.672152
_cell_angle_alpha 90.000000
_cell_angle_beta 159.325702
_cell_angle_gamma 90.000000
_cell_volume 2090.067155
_symmetry_space_group_name_H-M "C 2/M"
_symmetry_group_IT_number 12
_symmetry_cell_setting 'monoclinic'
loop_
_space_group_symop_operation_xyz
x,y,z
-x,y,-z
-x,-y,-z
x,-y,z
1/2+x,1/2+y,z
1/2-x,1/2+y,-z
1/2-x,1/2-y,-z
1/2+x,1/2-y,z
loop_
_atom_site_type_symbol
_atom_site_label
_atom_site_fract_x
_atom_site_fract_y
_atom_site_fract_z
Si Si1 0.333370 0.224510 0.144620
Si Si2 0.773944 0.500000 0.570566
Si Si3 0.249390 0.884003 0.383083
Si Si4 0.658152 0.777403 0.156059
Si Si5 0.509386 0.000000 0.214593
Si Si6 0.750189 0.500000 0.755799
Si Si7 0.427463 0.837271 0.584934
O O1 0.556862 0.299280 0.264148
O O2 0.245166 0.242752 0.150990
O O3 0.382723 0.106661 0.158029
O O4 0.115271 0.258843 0.991644
O O5 0.515225 0.500000 0.408042
O O6 0.914351 0.407669 0.624492
O O7 0.777991 0.500000 0.630094
O O8 0.500000 0.856058 0.500000
O O9 0.312185 0.887207 0.474588
O O10 0.184084 0.000000 0.331710
O O11 0.817682 0.710931 0.280516
O O12 0.707383 0.896673 0.191171
O O13 0.590488 0.000000 0.204177
O O14 0.250000 0.750000 0.500000
#
# Coordination Sequence:
#
# PCOD9222297 Si02
#       7
#     8   4   8   8   4   4   8
#     4  11  26  46  73 100 146 185 236 292 350 423
#     4  12  21  41  72  97 135 180 233 287 337 414
#     4  11  25  44  69 105 142 185 231 292 356 416
#     4  11  26  45  71 103 135 188 237 290 348 422
#     4  12  27  46  65 109 146 183 227 296 363 420
#     4  12  27  43  71 107 137 183 240 296 354 409
#     4  12  21  41  67  97 133 177 231 283 338 413
#
# _framework density 21.051956000000001
#
# number of rings (size 3 to 8) (size 9 to 14) (size 15 to 20)
#    0.000    0.545    6.364    0.273    5.091    3.636 
#    0.000    0.000    0.000    0.000    0.000    0.000 
#    0.000    0.000    0.000    0.000    0.000    0.000 
#
# Total GULP energy -122815.141962 kJ/mol
# GULP energy per Si atom -5582.506453 kJ/mol
# Density = 2.100404 g / cm^3
# Si number density = 21.051956 Si / 1000 Ang^3
#
#
#
# Elastic Constant Matrix: (Units=GPa)
#
#
# Indices 1 2 3 4 5 6 
#
# 1 63.4176 21.9487 6.2392 0.0036 16.1326 -0.0006
# 2 21.9487 168.2233 83.4488 0.0063 18.7764 -0.0016
# 3 6.2392 83.4488 153.8362 0.0129 15.4917 -0.0075
# 4 0.0036 0.0063 0.0129 26.4969 -0.0017 8.3066
# 5 16.1326 18.7764 15.4917 -0.0017 22.0906 -0.0007
# 6 -0.0006 -0.0016 -0.0075 8.3066 -0.0007 16.6807
#
#
#
# Elastic Compliance Matrix: (Units=1/GPa)
#
#
# Indices 1 2 3 4 5 6 
#
# 1 0.019811 -0.001806 0.001591 -0.000005 -0.014048 0.000003
# 2 -0.001806 0.008660 -0.004321 0.000001 -0.003011 -0.000002
# 3 0.001591 -0.004321 0.009175 -0.000006 -0.003923 0.000007
# 4 -0.000005 0.000001 -0.000006 0.044722 0.000010 -0.022271
# 5 -0.014048 -0.003011 -0.003923 0.000010 0.060838 -0.000005
# 6 0.000003 -0.000002 0.000007 -0.022271 -0.000005 0.071040
#
#
# Mechanical properties :
#
#
# Convention : Reuss Voigt Hill
#
# Bulk Modulus (GPa) = 34.99789 67.63894 51.31842
# Shear Modulus (GPa) = 21.47384 31.30968 26.39176
#
# Velocity S-wave (km/s) = 3.19727 3.86068 3.54453
# Velocity P-wave (km/s) = 5.50370 7.21612 6.41729
#
# Compressibility (1/GPa) = 0.02857315
#
# Stress axis : x y z
#
# Youngs Moduli (GPa) = 50.47787 115.47755 108.99298
#
# Poissons Ratio (x) = 0.20854 -0.17339
# Poissons Ratio (y) = 0.09116 0.47096
# Poissons Ratio (z) = -0.08030 0.49898
#
# Static dielectric constant tensor:
#      x y z
#    x 1.845780 -0.000020 -0.051430 
#    y -0.000020 1.706660 0.000010 
#    z -0.051430 0.000010 1.777630 
# 
# From -- ./inp_files/154146.got.cif
#   From: 2010.05.17/outbox.cif.g08.bks.cpg/sg12_78_cif.got.tgz:154146.got - 2010.06.03 13:09:07.
