data_PCOD9222124
_publ_section_title
;
Structure prediction by ZEFSAII (Michael W. Deem and Ramdas Pophale) SiO2 
 PCOD9222124
Probable space group: C 2/M
;
_chemical_formula_sum "Si O2"
_cell_formula_units_Z 40
_cell_length_a 18.373682
_cell_length_b 16.794035
_cell_length_c 12.194903
_cell_angle_alpha 90.000000
_cell_angle_beta 150.586931
_cell_angle_gamma 90.000000
_cell_volume 1847.998912
_symmetry_space_group_name_H-M "C 2/M"
_symmetry_group_IT_number 12
_symmetry_cell_setting 'monoclinic'
loop_
_space_group_symop_operation_xyz
x,y,z
-x,y,-z
-x,-y,-z
x,-y,z
1/2+x,1/2+y,z
1/2-x,1/2+y,-z
1/2-x,1/2-y,-z
1/2+x,1/2-y,z
loop_
_atom_site_type_symbol
_atom_site_label
_atom_site_fract_x
_atom_site_fract_y
_atom_site_fract_z
Si Si1 0.139514 0.407346 0.517940
Si Si2 0.131441 0.090124 0.592925
Si Si3 0.183535 0.356876 0.982328
Si Si4 0.333442 0.333891 0.594266
Si Si5 0.674634 0.675700 0.048421
O O1 0.124603 0.500000 0.528600
O O2 0.243105 0.396941 0.547485
O O3 0.217345 0.357830 0.717076
O O4 0.980459 0.371170 0.278105
O O5 0.159695 0.143095 0.524220
O O6 0.000000 0.120756 0.500000
O O7 0.093511 0.000000 0.509284
O O8 0.273717 0.089545 0.858774
O O9 0.291962 0.370140 0.021448
O O10 0.202408 0.267525 0.053572
O O11 0.250000 0.250000 0.500000
O O12 0.503394 0.330901 0.856505
#
# Coordination Sequence:
#
# PCOD9222124 Si02
#       5
#     8   8   8   8   8
#     4  12  27  45  70 109 148 184 234 301 366 421
#     4  11  24  43  71 101 139 185 236 290 351 427
#     4  11  24  45  73 103 140 185 241 294 350 426
#     4  12  24  47  72 103 140 190 236 294 355 429
#     4  11  25  44  73 100 140 193 239 283 351 431
#
# _framework density 21.645033999999999
#
# number of rings (size 3 to 8) (size 9 to 14) (size 15 to 20)
#    0.000    0.600    4.000    3.600    0.000    5.600 
#    0.000    2.000    0.000    0.000    0.000    0.000 
#    0.000    0.000    0.000    0.000    0.000    0.000 
#
# Total GULP energy -111915.797865 kJ/mol
# GULP energy per Si atom -5595.789893 kJ/mol
# Density = 2.159577 g / cm^3
# Si number density = 21.645034 Si / 1000 Ang^3
#
#
#
# Elastic Constant Matrix: (Units=GPa)
#
#
# Indices 1 2 3 4 5 6 
#
# 1 131.4463 46.7838 49.0590 0.0000 -10.0967 0.0000
# 2 46.7838 115.1949 54.3191 0.0000 -16.6074 0.0000
# 3 49.0590 54.3191 159.1097 0.0000 -20.8666 0.0000
# 4 0.0000 0.0000 0.0000 21.0851 0.0000 5.7175
# 5 -10.0967 -16.6074 -20.8666 0.0000 30.2957 0.0000
# 6 0.0000 0.0000 0.0000 5.7175 0.0000 -24.2979
#
#
#
# Elastic Compliance Matrix: (Units=1/GPa)
#
#
# Indices 1 2 3 4 5 6 
#
# 1 0.009349 -0.002881 -0.001866 0.000000 0.000251 0.000000
# 2 -0.002881 0.011596 -0.002597 0.000000 0.003607 0.000000
# 3 -0.001866 -0.002597 0.008221 0.000000 0.003617 0.000000
# 4 0.000000 0.000000 0.000000 0.044582 0.000000 0.010491
# 5 0.000251 0.003607 0.003617 0.000000 0.037560 0.000000
# 6 0.000000 0.000000 0.000000 0.010491 0.000000 -0.038687
#
#
# Mechanical properties :
#
#
# Convention : Reuss Voigt Hill
#
# Bulk Modulus (GPa) = 69.07249 78.45273 73.76261
# Shear Modulus (GPa) = 54.26803 22.45585 38.36194
#
# Velocity S-wave (km/s) = 5.01261 3.22446 4.21446
# Velocity P-wave (km/s) = 8.09212 7.08425 7.60490
#
# Compressibility (1/GPa) = 0.01447754
#
# Stress axis : x y z
#
# Youngs Moduli (GPa) = 106.96661 86.23895 121.63294
#
# Poissons Ratio (x) = 0.24842 0.22699
# Poissons Ratio (y) = 0.30812 0.31593
# Poissons Ratio (z) = 0.19962 0.22400
#
# Static dielectric constant tensor:
#      x y z
#    x 1.769700 0.000000 0.001190 
#    y 0.000000 1.795510 0.000000 
#    z 0.001190 0.000000 1.798460 
# 
# From -- ./inp_files/47136.got.cif
#   From: 2010.05.17/outbox.cif.g08.bks.cpg/sg12_24_cif.got.tgz:47136.got - 2010.06.03 13:09:07.
