data_PCOD9222742
_publ_section_title
;
Structure prediction by ZEFSAII (Michael W. Deem and Ramdas Pophale) SiO2 
 PCOD9222742
Probable space group: C 2/M
;
_chemical_formula_sum "Si O2"
_cell_formula_units_Z 40
_cell_length_a 28.086394
_cell_length_b 8.696672
_cell_length_c 19.644402
_cell_angle_alpha 90.000000
_cell_angle_beta 152.273586
_cell_angle_gamma 90.000000
_cell_volume 2232.412423
_symmetry_space_group_name_H-M "C 2/M"
_symmetry_group_IT_number 12
_symmetry_cell_setting 'monoclinic'
loop_
_space_group_symop_operation_xyz
x,y,z
-x,y,-z
-x,-y,-z
x,-y,z
1/2+x,1/2+y,z
1/2-x,1/2+y,-z
1/2-x,1/2-y,-z
1/2+x,1/2-y,z
loop_
_atom_site_type_symbol
_atom_site_label
_atom_site_fract_x
_atom_site_fract_y
_atom_site_fract_z
Si Si1 0.384390 0.812706 0.360821
Si Si2 0.271837 0.685137 0.953817
Si Si3 0.327349 0.817105 0.653971
Si Si4 0.213913 0.185741 0.249457
Si Si5 0.446335 0.314402 0.072507
O O1 0.500000 0.757017 0.500000
O O2 0.317727 0.766784 0.211293
O O3 0.318993 0.767656 0.344358
O O4 0.386576 0.000000 0.364558
O O5 0.271749 0.500000 0.956590
O O6 0.250000 0.750000 0.000000
O O7 0.377831 0.730715 0.051193
O O8 0.250000 0.750000 0.500000
O O9 0.298042 0.759597 0.692313
O O10 0.442960 0.760268 0.787212
O O11 0.323289 0.000000 0.646094
O O12 0.213335 0.000000 0.255552
O O13 0.120860 0.224783 0.079814
O O14 0.456889 0.500000 0.085883
#
# Coordination Sequence:
#
# PCOD9222742 Si02
#       5
#     8   8   8   8   8
#     4   8  15  30  53  79 105 136 175 211 248 304
#     4   9  18  32  52  79 109 141 176 216 259 304
#     4  12  25  38  54  78 107 137 175 223 273 324
#     4   9  18  35  58  80 106 142 178 215 262 313
#     4   9  19  37  57  77 107 145 182 219 263 316
#
# _framework density 17.917836000000001
#
# number of rings (size 3 to 8) (size 9 to 14) (size 15 to 20)
#    0.000    2.600    0.000    4.800    0.000    5.600 
#    0.000    5.000    0.000    1.200    0.000    0.000 
#    0.000    0.000    0.000    0.000    0.000    0.000 
#
# Total GULP energy -111571.703871 kJ/mol
# GULP energy per Si atom -5578.585194 kJ/mol
# Density = 1.787705 g / cm^3
# Si number density = 17.917836 Si / 1000 Ang^3
#
#
#
# Elastic Constant Matrix: (Units=GPa)
#
#
# Indices 1 2 3 4 5 6 
#
# 1 211.1325 59.3869 132.5487 0.0000 0.7084 0.0000
# 2 59.3869 45.7522 52.7080 0.0000 1.4901 0.0000
# 3 132.5487 52.7080 143.8397 0.0000 22.5667 0.0000
# 4 0.0000 0.0000 0.0000 22.3542 0.0000 -6.5691
# 5 0.7084 1.4901 22.5667 0.0000 31.9205 0.0000
# 6 0.0000 0.0000 0.0000 -6.5691 0.0000 32.4199
#
#
#
# Elastic Compliance Matrix: (Units=1/GPa)
#
#
# Indices 1 2 3 4 5 6 
#
# 1 0.013640 -0.003308 -0.012748 0.000000 0.008864 0.000000
# 2 -0.003308 0.041094 -0.013183 0.000000 0.007475 0.000000
# 3 -0.012748 -0.013183 0.026308 0.000000 -0.017700 0.000000
# 4 0.000000 0.000000 0.000000 0.047567 0.000000 0.009638
# 5 0.008864 0.007475 -0.017700 0.000000 0.043296 0.000000
# 6 0.000000 0.000000 0.000000 0.009638 0.000000 0.032798
#
#
# Mechanical properties :
#
#
# Convention : Reuss Voigt Hill
#
# Bulk Modulus (GPa) = 44.31863 98.89018 71.60441
# Shear Modulus (GPa) = 18.47049 27.74429 23.10739
#
# Velocity S-wave (km/s) = 3.21416 3.93926 3.59504
# Velocity P-wave (km/s) = 6.20987 8.71786 7.56847
#
# Compressibility (1/GPa) = 0.02256387
#
# Stress axis : x y z
#
# Youngs Moduli (GPa) = 73.31190 24.33438 38.01185
#
# Poissons Ratio (x) = 0.08049 0.48459
# Poissons Ratio (y) = 0.24248 0.50112
# Poissons Ratio (z) = 0.93460 0.32081
#
# Static dielectric constant tensor:
#      x y z
#    x 1.607670 0.000000 0.013720 
#    y 0.000000 1.607200 0.000000 
#    z 0.013720 0.000000 1.595780 
# 
# From -- ./inp_files/211214.got.cif
#   From: 2010.05.17/outbox.cif.g08.bks.cpg/sg12_106_cif.got.tgz:211214.got - 2010.06.03 13:09:07.
