data_PCOD9222696
_publ_section_title
;
Structure prediction by ZEFSAII (Michael W. Deem and Ramdas Pophale) SiO2 
 PCOD9222696
Probable space group: C 2/M
;
_chemical_formula_sum "Si O2"
_cell_formula_units_Z 56
_cell_length_a 8.838954
_cell_length_b 30.180845
_cell_length_c 21.221504
_cell_angle_alpha 90.000000
_cell_angle_beta 30.444645
_cell_angle_gamma 90.000000
_cell_volume 2868.561753
_symmetry_space_group_name_H-M "C 2/M"
_symmetry_group_IT_number 12
_symmetry_cell_setting 'monoclinic'
loop_
_space_group_symop_operation_xyz
x,y,z
-x,y,-z
-x,-y,-z
x,-y,z
1/2+x,1/2+y,z
1/2-x,1/2+y,-z
1/2-x,1/2-y,-z
1/2+x,1/2-y,z
loop_
_atom_site_type_symbol
_atom_site_label
_atom_site_fract_x
_atom_site_fract_y
_atom_site_fract_z
Si Si1 0.492098 0.051038 0.608645
Si Si2 0.001631 0.051761 0.321260
Si Si3 0.185597 0.300265 0.999508
Si Si4 0.651405 0.873789 0.636803
Si Si5 0.852892 0.211420 0.363520
Si Si6 0.717388 0.202181 0.272091
Si Si7 0.194812 0.640811 0.766178
O O1 0.786674 0.058493 0.459425
O O2 0.212665 0.057943 0.662325
O O3 0.490618 0.082691 0.668825
O O4 0.495897 0.000000 0.626557
O O5 0.247482 0.090224 0.233358
O O6 0.099994 0.000000 0.286740
O O7 0.524757 0.315910 0.866001
O O8 0.250000 0.250000 0.000000
O O9 0.000000 0.300358 0.000000
O O10 0.017507 0.330387 0.111627
O O11 0.539045 0.833994 0.633448
O O12 0.595916 0.860932 0.729090
O O13 0.000000 0.880218 0.500000
O O14 0.500000 0.218135 0.500000
O O15 0.882428 0.208562 0.278325
O O16 0.055324 0.252122 0.313278
O O17 0.988194 0.166933 0.344432
#
# Coordination Sequence:
#
# PCOD9222696 Si02
#       7
#     8   8   8   8   8   8   8
#     4   9  19  37  63  94 136 175 206 258 324 393
#     4   9  19  38  64  96 130 170 216 261 319 386
#     4  12  26  47  67  89 122 171 231 271 312 378
#     4  12  24  38  60  99 136 167 207 261 329 391
#     4  12  24  40  63  92 127 168 207 262 333 390
#     4  12  24  43  61  87 127 168 215 269 314 381
#     4  12  24  38  66  95 129 175 216 267 319 380
#
# _framework density 19.521978000000001
#
# number of rings (size 3 to 8) (size 9 to 14) (size 15 to 20)
#    0.000    0.857    4.286    4.286    4.000    0.857 
#    0.000    0.000    0.000    1.286    0.000    2.000 
#    0.000    0.000    0.000    0.000    0.000    0.000 
#
# Total GULP energy -156359.911379 kJ/mol
# GULP energy per Si atom -5584.282549 kJ/mol
# Density = 1.947754 g / cm^3
# Si number density = 19.521978 Si / 1000 Ang^3
#
#
#
# Elastic Constant Matrix: (Units=GPa)
#
#
# Indices 1 2 3 4 5 6 
#
# 1 111.3441 59.4858 21.9614 -0.0002 16.3369 -0.0001
# 2 59.4858 112.6456 24.5985 0.0001 3.3297 0.0002
# 3 21.9614 24.5985 75.6600 0.0025 8.5429 -0.0004
# 4 -0.0002 0.0001 0.0025 18.7715 -0.0002 1.4360
# 5 16.3369 3.3297 8.5429 -0.0002 25.8451 0.0001
# 6 -0.0001 0.0002 -0.0004 1.4360 0.0001 41.9752
#
#
#
# Elastic Compliance Matrix: (Units=1/GPa)
#
#
# Indices 1 2 3 4 5 6 
#
# 1 0.014011 -0.006968 -0.000938 0.000000 -0.007649 0.000000
# 2 -0.006968 0.013022 -0.002617 0.000000 0.003592 0.000000
# 3 -0.000938 -0.002617 0.014787 -0.000002 -0.003958 0.000000
# 4 0.000000 0.000000 -0.000002 0.053412 0.000001 -0.001827
# 5 -0.007649 0.003592 -0.003958 0.000001 0.044372 0.000000
# 6 0.000000 0.000000 0.000000 -0.001827 0.000000 0.023886
#
#
# Mechanical properties :
#
#
# Convention : Reuss Voigt Hill
#
# Bulk Modulus (GPa) = 48.13490 56.86013 52.49751
# Shear Modulus (GPa) = 26.11492 30.22529 28.17010
#
# Velocity S-wave (km/s) = 3.66145 3.93907 3.80280
# Velocity P-wave (km/s) = 6.52574 7.06243 6.79938
#
# Compressibility (1/GPa) = 0.02077495
#
# Stress axis : x y z
#
# Youngs Moduli (GPa) = 71.37175 76.79086 67.62749
#
# Poissons Ratio (x) = 0.53509 0.06342
# Poissons Ratio (y) = 0.49733 0.17697
# Poissons Ratio (z) = 0.06693 0.20095
#
# Static dielectric constant tensor:
#      x y z
#    x 1.678870 0.000000 0.017480 
#    y 0.000000 1.694220 0.000000 
#    z 0.017480 0.000000 1.765200 
# 
# From -- ./inp_files/302992.got.cif
#   From: 2010.05.17/outbox.cif.g08.bks.cpg/sg12_152_cif.got.tgz:302992.got - 2010.06.03 13:09:07.
