data_PCOD9222891
_publ_section_title
;
Structure prediction by ZEFSAII (Michael W. Deem and Ramdas Pophale) SiO2 
 PCOD9222891
Probable space group: C 2/M
;
_chemical_formula_sum "Si O2"
_cell_formula_units_Z 48
_cell_length_a 13.777267
_cell_length_b 7.430996
_cell_length_c 19.269961
_cell_angle_alpha 90.000000
_cell_angle_beta 106.813590
_cell_angle_gamma 90.000000
_cell_volume 1888.498866
_symmetry_space_group_name_H-M "C 2/M"
_symmetry_group_IT_number 12
_symmetry_cell_setting 'monoclinic'
loop_
_space_group_symop_operation_xyz
x,y,z
-x,y,-z
-x,-y,-z
x,-y,z
1/2+x,1/2+y,z
1/2-x,1/2+y,-z
1/2-x,1/2-y,-z
1/2+x,1/2-y,z
loop_
_atom_site_type_symbol
_atom_site_label
_atom_site_fract_x
_atom_site_fract_y
_atom_site_fract_z
Si Si1 0.895848 0.785137 0.015432
Si Si2 0.272203 0.707422 0.869091
Si Si3 0.480093 0.213374 0.834281
Si Si4 0.874690 0.716982 0.678272
Si Si5 0.170365 0.707543 0.713612
Si Si6 0.994170 0.720140 0.577555
O O1 0.918257 0.752625 0.101160
O O2 0.892635 0.000000 0.006200
O O3 0.803159 0.709910 0.950006
O O4 0.000000 0.717985 0.000000
O O5 0.240621 0.500000 0.872936
O O6 0.383447 0.703100 0.854098
O O7 0.200954 0.789027 0.794548
O O8 0.465719 0.265573 0.750964
O O9 0.466518 0.000000 0.834762
O O10 0.866368 0.500000 0.677569
O O11 0.773601 0.792693 0.690566
O O12 0.897978 0.771835 0.604631
O O13 0.140180 0.500000 0.721628
O O14 0.087385 0.783518 0.644403
O O15 0.997388 0.500000 0.575973
O O16 0.000000 0.783124 0.500000
#
# Coordination Sequence:
#
# PCOD9222891 Si02
#       6
#     8   8   8   8   8   8
#     4   8  13  21  34  55  85 118 152 190 226 262
#     4   8  14  24  38  59  87 118 153 191 227 265
#     4   9  15  22  36  60  88 119 153 187 227 274
#     4   9  18  32  49  71 100 129 156 194 243 285
#     4   9  17  31  52  74  95 125 164 198 231 281
#     4   9  18  33  53  75  97 124 159 196 237 289
#
# _framework density 25.417014000000002
#
# number of rings (size 3 to 8) (size 9 to 14) (size 15 to 20)
#    0.000    3.333    0.000    1.500    0.000    4.333 
#    0.000    0.833    0.000    2.000    0.000    0.000 
#    0.000    0.000    0.000    0.000    0.000    8.833 
#
# Total GULP energy -134017.447294 kJ/mol
# GULP energy per Si atom -5584.060304 kJ/mol
# Density = 2.535916 g / cm^3
# Si number density = 25.417014 Si / 1000 Ang^3
#
#
#
# Elastic Constant Matrix: (Units=GPa)
#
#
# Indices 1 2 3 4 5 6 
#
# 1 71.6503 -2.0580 46.8511 0.0000 -11.3626 0.0000
# 2 -2.0580 87.6733 6.6617 0.0000 0.4474 0.0000
# 3 46.8511 6.6617 179.6284 0.0000 -32.5803 0.0000
# 4 0.0000 0.0000 0.0000 2.8319 0.0000 -9.5546
# 5 -11.3626 0.4474 -32.5803 0.0000 49.7016 0.0000
# 6 0.0000 0.0000 0.0000 -9.5546 0.0000 12.6095
#
#
#
# Elastic Compliance Matrix: (Units=1/GPa)
#
#
# Indices 1 2 3 4 5 6 
#
# 1 0.016924 0.000714 -0.004245 0.000000 0.001080 0.000000
# 2 0.000714 0.011477 -0.000682 0.000000 -0.000387 0.000000
# 3 -0.004245 -0.000682 0.007405 0.000000 0.003890 0.000000
# 4 0.000000 0.000000 0.000000 -0.226864 0.000000 -0.171902
# 5 0.001080 -0.000387 0.003890 0.000000 0.022920 0.000000
# 6 0.000000 0.000000 0.000000 -0.171902 0.000000 -0.050950
#
#
# Mechanical properties :
#
#
# Convention : Reuss Voigt Hill
#
# Bulk Modulus (GPa) = 36.52246 49.09573 42.80909
# Shear Modulus (GPa) = -24.80949 32.19509 3.69280
#
# Velocity S-wave (km/s) = -3.12765 3.56290 1.20666
# Velocity P-wave (km/s) = 1.16516 6.02359 4.33828
#
# Compressibility (1/GPa) = 0.02738041
#
# Stress axis : x y z
#
# Youngs Moduli (GPa) = 59.08742 87.13419 135.04411
#
# Poissons Ratio (x) = -0.06224 0.57323
# Poissons Ratio (y) = -0.04221 0.09212
# Poissons Ratio (z) = 0.25081 0.05944
#
# Static dielectric constant tensor:
#      x y z
#    x 2.062430 0.000000 -0.003310 
#    y 0.000000 1.927500 0.000000 
#    z -0.003310 0.000000 2.019650 
# 
# From -- ./inp_files/313370.got.cif
#   From: 2010.05.17/outbox.cif.g08.bks.cpg/sg12_157_cif.got.tgz:313370.got - 2010.06.03 13:09:07.
