data_PCOD9222366
_publ_section_title
;
Structure prediction by ZEFSAII (Michael W. Deem and Ramdas Pophale) SiO2 
 PCOD9222366
Probable space group: C 2/M
;
_chemical_formula_sum "Si O2"
_cell_formula_units_Z 26
_cell_length_a 13.806533
_cell_length_b 7.772989
_cell_length_c 21.935166
_cell_angle_alpha 90.000000
_cell_angle_beta 151.806852
_cell_angle_gamma 90.000000
_cell_volume 1112.154716
_symmetry_space_group_name_H-M "C 2/M"
_symmetry_group_IT_number 12
_symmetry_cell_setting 'monoclinic'
loop_
_space_group_symop_operation_xyz
x,y,z
-x,y,-z
-x,-y,-z
x,-y,z
1/2+x,1/2+y,z
1/2-x,1/2+y,-z
1/2-x,1/2-y,-z
1/2+x,1/2-y,z
loop_
_atom_site_type_symbol
_atom_site_label
_atom_site_fract_x
_atom_site_fract_y
_atom_site_fract_z
Si Si1 0.255965 0.311834 0.817454
Si Si2 0.882280 0.197057 0.131793
Si Si3 0.000000 0.500000 0.000000
Si Si4 0.655296 0.292664 0.639191
O O1 0.350912 0.500000 0.860365
O O2 0.156262 0.305377 0.828837
O O3 0.099756 0.273686 0.675892
O O4 0.412774 0.154097 0.905893
O O5 0.120392 0.213948 0.248319
O O6 0.822321 0.000000 0.116870
O O7 0.750000 0.250000 0.000000
O O8 0.500000 0.239970 0.500000
O O9 0.667476 0.500000 0.645738
#
# Coordination Sequence:
#
# PCOD9222366 Si02
#       4
#     8   8   2   8
#     4  12  25  44  71 102 143 189 231 294 355 421
#     4  12  25  44  69 105 144 183 239 296 350 424
#     4  12  22  44  66 102 142 178 230 288 354 418
#     4  11  25  47  72 103 145 190 239 295 354 422
#
# _framework density 23.378042000000001
#
# number of rings (size 3 to 8) (size 9 to 14) (size 15 to 20)
#    0.000    0.308    3.077    6.000    0.000    3.692 
#    0.000    0.000    0.000    0.000    0.000    0.000 
#    0.000    0.000    0.000    0.000    0.000    0.000 
#
# Total GULP energy -72591.016492 kJ/mol
# GULP energy per Si atom -5583.924346 kJ/mol
# Density = 2.332483 g / cm^3
# Si number density = 23.378042 Si / 1000 Ang^3
#
#
#
# Elastic Constant Matrix: (Units=GPa)
#
#
# Indices 1 2 3 4 5 6 
#
# 1 106.4922 17.5744 64.2151 0.0001 -34.6255 0.0000
# 2 17.5744 208.1077 45.7822 0.0002 -16.4858 0.0001
# 3 64.2151 45.7822 218.5220 0.0009 -50.5110 0.0003
# 4 0.0001 0.0002 0.0009 17.2848 0.0003 -11.2275
# 5 -34.6255 -16.4858 -50.5110 0.0003 47.3026 0.0000
# 6 0.0000 0.0001 0.0003 -11.2275 0.0000 33.8918
#
#
#
# Elastic Compliance Matrix: (Units=1/GPa)
#
#
# Indices 1 2 3 4 5 6 
#
# 1 0.013049 -0.000056 -0.002150 0.000000 0.007236 0.000000
# 2 -0.000056 0.005063 -0.000858 0.000000 0.000808 0.000000
# 3 -0.002150 -0.000858 0.006579 -0.000001 0.005152 0.000000
# 4 0.000000 0.000000 -0.000001 0.073717 -0.000001 0.024421
# 5 0.007236 0.000808 0.005152 -0.000001 0.032221 0.000000
# 6 0.000000 0.000000 0.000000 0.024421 0.000000 0.037596
#
#
# Mechanical properties :
#
#
# Convention : Reuss Voigt Hill
#
# Bulk Modulus (GPa) = 53.86987 87.58503 70.72745
# Shear Modulus (GPa) = 27.69502 46.73251 37.21377
#
# Velocity S-wave (km/s) = 3.44562 4.47586 3.99410
# Velocity P-wave (km/s) = 6.23881 8.01605 7.18261
#
# Compressibility (1/GPa) = 0.01856325
#
# Stress axis : x y z
#
# Youngs Moduli (GPa) = 76.63397 197.52855 152.00801
#
# Poissons Ratio (x) = 0.01100 0.32686
# Poissons Ratio (y) = 0.00427 0.13035
# Poissons Ratio (z) = 0.16478 0.16939
#
# Static dielectric constant tensor:
#      x y z
#    x 1.712320 0.000000 -0.135440 
#    y 0.000000 1.851550 0.000000 
#    z -0.135440 0.000000 1.807340 
# 
# From -- ./inp_files/186112.got.cif
#   From: 2010.05.17/outbox.cif.g08.bks.cpg/sg12_94_cif.got.tgz:186112.got - 2010.06.03 13:09:07.
