data_PCOD9222941
_publ_section_title
;
Structure prediction by ZEFSAII (Michael W. Deem and Ramdas Pophale) SiO2 
 PCOD9222941
Probable space group: C 2/M
;
_chemical_formula_sum "Si O2"
_cell_formula_units_Z 48
_cell_length_a 23.383643
_cell_length_b 7.457094
_cell_length_c 20.543213
_cell_angle_alpha 90.000000
_cell_angle_beta 44.397026
_cell_angle_gamma 90.000000
_cell_volume 2506.203067
_symmetry_space_group_name_H-M "C 2/M"
_symmetry_group_IT_number 12
_symmetry_cell_setting 'monoclinic'
loop_
_space_group_symop_operation_xyz
x,y,z
-x,y,-z
-x,-y,-z
x,-y,z
1/2+x,1/2+y,z
1/2-x,1/2+y,-z
1/2-x,1/2-y,-z
1/2+x,1/2-y,z
loop_
_atom_site_type_symbol
_atom_site_label
_atom_site_fract_x
_atom_site_fract_y
_atom_site_fract_z
Si Si1 0.344146 0.216338 0.781719
Si Si2 0.695149 0.285705 0.980695
Si Si3 0.130753 0.214744 0.643204
Si Si4 0.907350 0.719587 0.590286
Si Si5 0.695106 0.785066 0.449748
Si Si6 0.046937 0.786229 0.179402
O O1 0.253051 0.281625 0.875487
O O2 0.376903 0.279719 0.685794
O O3 0.405709 0.260356 0.790668
O O4 0.340480 0.000000 0.782070
O O5 0.687465 0.500000 0.978590
O O6 0.750000 0.250000 0.000000
O O7 0.606005 0.215334 0.073837
O O8 0.213510 0.284218 0.609878
O O9 0.141342 0.248121 0.557633
O O10 0.044746 0.285773 0.739632
O O11 0.130138 0.000000 0.652218
O O12 0.906867 0.500000 0.591006
O O13 0.848152 0.780130 0.580298
O O14 0.000000 0.774590 0.500000
O O15 0.701024 0.000000 0.439454
O O16 0.040812 0.000000 0.174623
#
# Coordination Sequence:
#
# PCOD9222941 Si02
#       6
#     8   8   8   8   8   8
#     4   9  16  26  41  60  80 103 132 162 191 227
#     4   8  14  24  38  56  78 102 127 158 193 227
#     4   9  17  28  42  59  79 103 130 161 195 231
#     4   9  16  25  39  59  80 101 127 160 195 229
#     4   9  17  29  43  58  78 104 132 161 193 228
#     4   9  16  26  40  59  82 104 127 158 198 235
#
# _framework density 19.152477999999999
#
# number of rings (size 3 to 8) (size 9 to 14) (size 15 to 20)
#    0.000    3.167    0.000    1.000    0.000    2.000 
#    0.000    0.833    0.000    4.000    0.000    7.000 
#    0.000    0.000    0.000   32.833    0.000   25.667 
#
# Total GULP energy -133724.377423 kJ/mol
# GULP energy per Si atom -5571.849059 kJ/mol
# Density = 1.910889 g / cm^3
# Si number density = 19.152478 Si / 1000 Ang^3
#
#
#
# Elastic Constant Matrix: (Units=GPa)
#
#
# Indices 1 2 3 4 5 6 
#
# 1 64.8366 0.5541 67.4186 -0.0002 -3.4484 -0.0013
# 2 0.5541 59.8105 5.3287 -0.0161 -1.6978 -0.0168
# 3 67.4186 5.3287 212.8671 0.0033 -18.7069 0.0086
# 4 -0.0002 -0.0161 0.0033 24.3940 0.0009 14.7710
# 5 -3.4484 -1.6978 -18.7069 0.0009 27.8504 -0.0042
# 6 -0.0013 -0.0168 0.0086 14.7710 -0.0042 17.4876
#
#
#
# Elastic Compliance Matrix: (Units=1/GPa)
#
#
# Indices 1 2 3 4 5 6 
#
# 1 0.023131 0.000395 -0.007526 -0.000003 -0.002167 0.000008
# 2 0.000395 0.016780 -0.000479 0.000002 0.000750 0.000015
# 3 -0.007526 -0.000479 0.007449 0.000001 0.004042 -0.000005
# 4 -0.000003 0.000002 0.000001 0.083909 -0.000013 -0.070874
# 5 -0.002167 0.000750 0.004042 -0.000013 0.038399 0.000019
# 6 0.000008 0.000015 -0.000005 -0.070874 0.000019 0.117047
#
#
# Mechanical properties :
#
#
# Convention : Reuss Voigt Hill
#
# Bulk Modulus (GPa) = 31.11596 53.79079 42.45337
# Shear Modulus (GPa) = 15.99244 31.56059 23.77651
#
# Velocity S-wave (km/s) = 2.89278 4.06379 3.52722
# Velocity P-wave (km/s) = 5.23825 7.08277 6.22916
#
# Compressibility (1/GPa) = 0.03213784
#
# Stress axis : x y z
#
# Youngs Moduli (GPa) = 43.23256 59.59550 134.25211
#
# Poissons Ratio (x) = -0.02352 1.01041
# Poissons Ratio (y) = -0.01706 0.06433
# Poissons Ratio (z) = 0.32538 0.02856
#
# Static dielectric constant tensor:
#      x y z
#    x 1.630520 0.000000 -0.029900 
#    y 0.000000 1.718110 0.000000 
#    z -0.029900 0.000000 1.706310 
# 
# From -- ./inp_files/164027.got.cif
#   From: 2010.05.17/outbox.cif.g08.bks.cpg/sg12_83_cif.got.tgz:164027.got - 2010.06.03 13:09:07.
