data_PCOD9222814
_publ_section_title
;
Structure prediction by ZEFSAII (Michael W. Deem and Ramdas Pophale) SiO2 
 PCOD9222814
Probable space group: C 2/M
;
_chemical_formula_sum "Si O2"
_cell_formula_units_Z 56
_cell_length_a 7.163332
_cell_length_b 17.719159
_cell_length_c 23.553195
_cell_angle_alpha 90.000000
_cell_angle_beta 56.060420
_cell_angle_gamma 90.000000
_cell_volume 2480.223303
_symmetry_space_group_name_H-M "C 2/M"
_symmetry_group_IT_number 12
_symmetry_cell_setting 'monoclinic'
loop_
_space_group_symop_operation_xyz
x,y,z
-x,y,-z
-x,-y,-z
x,-y,z
1/2+x,1/2+y,z
1/2-x,1/2+y,-z
1/2-x,1/2-y,-z
1/2+x,1/2-y,z
loop_
_atom_site_type_symbol
_atom_site_label
_atom_site_fract_x
_atom_site_fract_y
_atom_site_fract_z
Si Si1 0.072013 0.679846 0.215299
Si Si2 0.117129 0.855671 0.225294
Si Si3 0.567023 0.587755 0.629971
Si Si4 0.863903 0.365866 0.075333
Si Si5 0.753383 0.091104 0.514144
Si Si6 0.937939 0.588551 0.339378
Si Si7 0.287824 0.306155 0.070556
O O1 0.047417 0.769460 0.225506
O O2 0.280624 0.670614 0.137383
O O3 0.852829 0.648636 0.220225
O O4 0.088862 0.638189 0.272046
O O5 0.950067 0.886537 0.302057
O O6 0.180665 0.894309 0.153485
O O7 0.624293 0.500000 0.622999
O O8 0.730411 0.621215 0.553040
O O9 0.316015 0.593336 0.644421
O O10 0.775489 0.284754 0.067226
O O11 0.069592 0.340625 0.079834
O O12 0.000000 0.405760 0.000000
O O13 0.581888 0.116610 0.592311
O O14 0.000000 0.103147 0.500000
O O15 0.723201 0.000000 0.516254
O O16 0.998975 0.500000 0.327669
O O17 0.500000 0.333578 0.000000
#
# Coordination Sequence:
#
# PCOD9222814 Si02
#       7
#     8   8   8   8   8   8   8
#     4   9  17  27  40  60  84 107 130 161 201 239
#     4   9  17  27  40  60  84 107 130 161 201 239
#     4   8  13  23  40  60  80 103 134 168 197 228
#     4   9  15  23  36  54  75 100 130 161 193 228
#     4   7  10  18  35  58  79  99 128 167 200 222
#     4   8  13  23  40  60  80 103 134 168 197 228
#     4   9  15  23  36  54  75 100 130 161 193 228
#
# _framework density 22.578613000000001
#
# number of rings (size 3 to 8) (size 9 to 14) (size 15 to 20)
#    0.000    3.571    0.000    3.429    0.000    1.143 
#    0.000    0.714    0.000    1.714    0.000    0.000 
#    0.000    3.429    0.000    0.000    0.000    7.714 
#
# Total GULP energy -155898.678556 kJ/mol
# GULP energy per Si atom -5567.809948 kJ/mol
# Density = 2.252722 g / cm^3
# Si number density = 22.578613 Si / 1000 Ang^3
#
#
#
# Elastic Constant Matrix: (Units=GPa)
#
#
# Indices 1 2 3 4 5 6 
#
# 1 59.3972 -1.7454 19.0762 -0.0001 6.8092 0.0000
# 2 -1.7454 14.4760 50.9362 0.0000 4.8216 0.0000
# 3 19.0762 50.9362 293.5535 -0.0001 23.3498 0.0000
# 4 -0.0001 0.0000 -0.0001 38.5603 0.0000 -4.0078
# 5 6.8092 4.8216 23.3498 0.0000 33.7411 0.0000
# 6 0.0000 0.0000 0.0000 -4.0078 0.0000 -18.8858
#
#
#
# Elastic Compliance Matrix: (Units=1/GPa)
#
#
# Indices 1 2 3 4 5 6 
#
# 1 0.019048 0.017571 -0.004001 0.000000 -0.003586 0.000000
# 2 0.017571 0.194169 -0.034228 0.000000 -0.007606 0.000000
# 3 -0.004001 -0.034228 0.009686 0.000000 -0.001004 0.000000
# 4 0.000000 0.000000 0.000000 0.025374 0.000000 -0.005385
# 5 -0.003586 -0.007606 -0.001004 0.000000 0.032143 0.000000
# 6 0.000000 0.000000 0.000000 -0.005385 0.000000 -0.051807
#
#
# Mechanical properties :
#
#
# Convention : Reuss Voigt Hill
#
# Bulk Modulus (GPa) = 5.50706 55.99562 30.75134
# Shear Modulus (GPa) = 15.13047 30.62710 22.87879
#
# Velocity S-wave (km/s) = 2.59148 3.68702 3.18668
# Velocity P-wave (km/s) = 3.37620 6.55588 5.21432
#
# Compressibility (1/GPa) = 0.18158505
#
# Stress axis : x y z
#
# Youngs Moduli (GPa) = 52.49808 5.15014 103.24642
#
# Poissons Ratio (x) = -0.09049 0.41313
# Poissons Ratio (y) = -0.92242 3.53395
# Poissons Ratio (z) = 0.21006 0.17628
#
# Static dielectric constant tensor:
#      x y z
#    x 1.932520 0.000000 -0.001070 
#    y 0.000000 1.730050 0.000000 
#    z -0.001070 0.000000 1.981040 
# 
# From -- ./inp_files/333565.got.cif
#   From: 2010.05.17/outbox.cif.g08.bks.cpg/sg12_167_cif.got.tgz:333565.got - 2010.06.03 13:09:07.
