data_PCOD9222158
_publ_section_title
;
Structure prediction by ZEFSAII (Michael W. Deem and Ramdas Pophale) SiO2 
 PCOD9222158
Probable space group: C 2/M
;
_chemical_formula_sum "Si O2"
_cell_formula_units_Z 40
_cell_length_a 18.061441
_cell_length_b 13.594371
_cell_length_c 21.244468
_cell_angle_alpha 90.000000
_cell_angle_beta 19.806525
_cell_angle_gamma 90.000000
_cell_volume 1767.496423
_symmetry_space_group_name_H-M "C 2/M"
_symmetry_group_IT_number 12
_symmetry_cell_setting 'monoclinic'
loop_
_space_group_symop_operation_xyz
x,y,z
-x,y,-z
-x,-y,-z
x,-y,z
1/2+x,1/2+y,z
1/2-x,1/2+y,-z
1/2-x,1/2-y,-z
1/2+x,1/2-y,z
loop_
_atom_site_type_symbol
_atom_site_label
_atom_site_fract_x
_atom_site_fract_y
_atom_site_fract_z
Si Si1 0.442251 0.186925 0.975236
Si Si2 0.174187 0.107507 0.415583
Si Si3 0.882230 0.114890 0.862348
Si Si4 0.842208 0.702879 0.489254
Si Si5 0.770281 0.114348 0.090149
O O1 0.602845 0.133556 0.798470
O O2 0.500000 0.154090 0.000000
O O3 0.209565 0.164419 0.127869
O O4 0.449348 0.305506 0.967986
O O5 0.107503 0.203536 0.507652
O O6 0.000000 0.098278 0.500000
O O7 0.190071 0.000000 0.435966
O O8 0.129075 0.144166 0.683449
O O9 0.875313 0.000000 0.855310
O O10 0.738549 0.134484 0.040256
O O11 0.750000 0.750000 0.500000
O O12 0.050938 0.636993 0.305071
O O13 0.831930 0.000000 0.047075
#
# Coordination Sequence:
#
# PCOD9222158 Si02
#       5
#     8   8   8   8   8
#     4  12  24  45  69  97 141 185 226 286 344 407
#     4  11  26  46  69 103 144 181 226 286 348 412
#     4  11  24  44  71 103 139 179 229 287 342 406
#     4  12  23  43  71 101 141 181 226 281 340 406
#     4  11  24  45  73 103 137 180 231 283 340 408
#
# _framework density 22.630880000000001
#
# number of rings (size 3 to 8) (size 9 to 14) (size 15 to 20)
#    0.000    0.600    4.000    4.200    0.000    5.200 
#    0.000    0.000    0.000    3.000    0.000    0.000 
#    0.000    0.000    0.000    0.000    0.000    0.000 
#
# Total GULP energy -111721.356207 kJ/mol
# GULP energy per Si atom -5586.067810 kJ/mol
# Density = 2.257937 g / cm^3
# Si number density = 22.630880 Si / 1000 Ang^3
#
#
#
# Elastic Constant Matrix: (Units=GPa)
#
#
# Indices 1 2 3 4 5 6 
#
# 1 86.4318 41.9491 8.4010 -0.1447 13.6038 0.1199
# 2 41.9491 134.3104 19.0488 -0.0743 6.0800 0.0884
# 3 8.4010 19.0488 95.9422 -0.1820 6.9774 0.1595
# 4 -0.1447 -0.0743 -0.1820 15.7665 0.0702 14.0142
# 5 13.6038 6.0800 6.9774 0.0702 29.6774 -0.0572
# 6 0.1199 0.0884 0.1595 14.0142 -0.0572 17.2083
#
#
#
# Elastic Compliance Matrix: (Units=1/GPa)
#
#
# Indices 1 2 3 4 5 6 
#
# 1 0.014565 -0.004286 0.000000 0.000823 -0.005802 -0.000769
# 2 -0.004286 0.008967 -0.001439 -0.000053 0.000466 0.000042
# 3 0.000000 -0.001439 0.010876 0.000792 -0.002266 -0.000746
# 4 0.000823 -0.000053 0.000792 0.229839 -0.001457 -0.187196
# 5 -0.005802 0.000466 -0.002266 -0.001457 0.036799 0.001368
# 6 -0.000769 0.000042 -0.000746 -0.187196 0.001368 0.210579
#
#
# Mechanical properties :
#
#
# Convention : Reuss Voigt Hill
#
# Bulk Modulus (GPa) = 43.55482 50.60915 47.08198
# Shear Modulus (GPa) = 9.42104 29.01613 19.21859
#
# Velocity S-wave (km/s) = 2.04254 3.58459 2.91730
# Velocity P-wave (km/s) = 4.98499 6.28839 5.67424
#
# Compressibility (1/GPa) = 0.02295957
#
# Stress axis : x y z
#
# Youngs Moduli (GPa) = 68.65557 111.52091 91.94416
#
# Poissons Ratio (x) = 0.47794 -0.00003
# Poissons Ratio (y) = 0.29423 0.13232
# Poissons Ratio (z) = -0.00002 0.16049
#
# Static dielectric constant tensor:
#      x y z
#    x 1.847550 0.000000 -0.021330 
#    y 0.000000 2.050880 -0.000060 
#    z -0.021330 -0.000060 1.937750 
# 
# From -- ./inp_files/316616.got.cif
#   From: 2010.05.17/outbox.cif.g08.bks.cpg/sg12_159_cif.got.tgz:316616.got - 2010.06.03 13:09:07.
