data_PCOD9222083
_publ_section_title
;
Structure prediction by ZEFSAII (Michael W. Deem and Ramdas Pophale) SiO2 
 PCOD9222083
Probable space group: C 2/M
;
_chemical_formula_sum "Si O2"
_cell_formula_units_Z 40
_cell_length_a 28.818507
_cell_length_b 12.752533
_cell_length_c 6.783230
_cell_angle_alpha 90.000000
_cell_angle_beta 122.618006
_cell_angle_gamma 90.000000
_cell_volume 2099.725546
_symmetry_space_group_name_H-M "C 2/M"
_symmetry_group_IT_number 12
_symmetry_cell_setting 'monoclinic'
loop_
_space_group_symop_operation_xyz
x,y,z
-x,y,-z
-x,-y,-z
x,-y,z
1/2+x,1/2+y,z
1/2-x,1/2+y,-z
1/2-x,1/2-y,-z
1/2+x,1/2-y,z
loop_
_atom_site_type_symbol
_atom_site_label
_atom_site_fract_x
_atom_site_fract_y
_atom_site_fract_z
Si Si1 0.198234 0.177198 0.822499
Si Si2 0.664416 0.500000 0.061142
Si Si3 0.937228 0.500000 0.791690
Si Si4 0.500000 0.680127 0.500000
Si Si5 0.363069 0.000000 0.005547
Si Si6 0.264039 0.500000 0.387324
Si Si7 0.964906 0.000000 0.122445
Si Si8 0.600027 0.826122 0.599557
O O1 0.149190 0.252203 0.642700
O O2 0.215372 0.100762 0.686108
O O3 0.250000 0.250000 0.000000
O O4 0.175792 0.102027 0.948455
O O5 0.709825 0.500000 0.337204
O O6 0.602611 0.500000 0.015892
O O7 0.902643 0.500000 0.910737
O O8 0.922494 0.400097 0.624169
O O9 0.000000 0.500000 0.000000
O O10 0.484302 0.602981 0.285551
O O11 0.551161 0.753746 0.566158
O O12 0.301615 0.000000 0.780797
O O13 0.375724 0.900017 0.172396
O O14 0.000000 0.000000 0.000000
#
# Coordination Sequence:
#
# PCOD9222083 Si02
#       8
#     8   4   4   4   4   4   4   8
#     4  11  24  45  67  96 134 176 219 266 335 394
#     4  11  26  44  67  99 139 171 221 282 324 388
#     4  11  26  44  67  99 129 167 223 275 324 388
#     4  11  24  45  66  90 128 175 214 269 322 390
#     4  11  24  43  65  99 130 166 220 272 329 389
#     4  11  26  40  66  99 135 170 218 274 323 393
#     4  11  26  42  65  99 131 167 222 269 326 389
#     4  11  24  44  69  91 131 174 214 270 331 390
#
# _framework density 19.050107000000001
#
# number of rings (size 3 to 8) (size 9 to 14) (size 15 to 20)
#    0.000    1.000    4.000    1.200    5.600    6.400 
#    0.000    0.000    0.000    0.000    0.000    0.000 
#    0.000    0.000    0.000    0.000    0.000    0.000 
#
# Total GULP energy -111790.574994 kJ/mol
# GULP energy per Si atom -5589.528750 kJ/mol
# Density = 1.900675 g / cm^3
# Si number density = 19.050107 Si / 1000 Ang^3
#
#
#
# Elastic Constant Matrix: (Units=GPa)
#
#
# Indices 1 2 3 4 5 6 
#
# 1 159.8433 54.2774 55.1586 0.0000 21.6097 0.0000
# 2 54.2774 120.9283 39.5419 0.0000 14.5050 0.0000
# 3 55.1586 39.5419 118.1312 0.0000 15.1284 0.0000
# 4 0.0000 0.0000 0.0000 10.2102 0.0000 10.6397
# 5 21.6097 14.5050 15.1284 0.0000 40.9858 0.0000
# 6 0.0000 0.0000 0.0000 10.6397 0.0000 39.0879
#
#
#
# Elastic Compliance Matrix: (Units=1/GPa)
#
#
# Indices 1 2 3 4 5 6 
#
# 1 0.008419 -0.002580 -0.002746 0.000000 -0.002513 0.000000
# 2 -0.002580 0.010277 -0.002040 0.000000 -0.001524 0.000000
# 3 -0.002746 -0.002040 0.010656 0.000000 -0.001763 0.000000
# 4 0.000000 0.000000 0.000000 0.136723 0.000000 -0.037216
# 5 -0.002513 -0.001524 -0.001763 0.000000 0.026914 0.000000
# 6 0.000000 0.000000 0.000000 -0.037216 0.000000 0.035714
#
#
# Mechanical properties :
#
#
# Convention : Reuss Voigt Hill
#
# Bulk Modulus (GPa) = 68.39656 77.42872 72.91264
# Shear Modulus (GPa) = 20.13623 34.71844 27.42733
#
# Velocity S-wave (km/s) = 3.25470 4.27368 3.79852
# Velocity P-wave (km/s) = 7.07853 8.06756 7.58917
#
# Compressibility (1/GPa) = 0.01462062
#
# Stress axis : x y z
#
# Youngs Moduli (GPa) = 118.77397 97.30286 93.84264
#
# Poissons Ratio (x) = 0.25101 0.25769
# Poissons Ratio (y) = 0.30640 0.19148
# Poissons Ratio (z) = 0.32615 0.19854
#
# Static dielectric constant tensor:
#      x y z
#    x 1.656980 0.000000 0.021430 
#    y 0.000000 1.637530 0.000000 
#    z 0.021430 0.000000 1.641940 
# 
# From -- ./inp_files/30956.got.cif
#   From: 2010.05.17/outbox.cif.g08.bks.cpg/sg12_16_cif.got.tgz:30956.got - 2010.06.03 13:09:07.
