data_PCOD9222879
_publ_section_title
;
Structure prediction by ZEFSAII (Michael W. Deem and Ramdas Pophale) SiO2 
 PCOD9222879
Probable space group: C 2/M
;
_chemical_formula_sum "Si O2"
_cell_formula_units_Z 48
_cell_length_a 14.244516
_cell_length_b 7.367911
_cell_length_c 17.471552
_cell_angle_alpha 90.000000
_cell_angle_beta 105.187510
_cell_angle_gamma 90.000000
_cell_volume 1769.636230
_symmetry_space_group_name_H-M "C 2/M"
_symmetry_group_IT_number 12
_symmetry_cell_setting 'monoclinic'
loop_
_space_group_symop_operation_xyz
x,y,z
-x,y,-z
-x,-y,-z
x,-y,z
1/2+x,1/2+y,z
1/2-x,1/2+y,-z
1/2-x,1/2-y,-z
1/2+x,1/2-y,z
loop_
_atom_site_type_symbol
_atom_site_label
_atom_site_fract_x
_atom_site_fract_y
_atom_site_fract_z
Si Si1 0.311703 0.214700 0.848268
Si Si2 0.803897 0.793804 0.309226
Si Si3 0.399546 0.281607 0.019822
Si Si4 0.104808 0.777647 0.347694
Si Si5 0.017785 0.791279 0.812113
Si Si6 0.114600 0.204634 0.520151
O O1 0.217711 0.281894 0.780099
O O2 0.412247 0.293367 0.834217
O O3 0.314216 0.000000 0.834851
O O4 0.316226 0.236888 0.940690
O O5 0.693947 0.792886 0.317579
O O6 0.855952 0.705382 0.393505
O O7 0.842845 0.000000 0.312379
O O8 0.401246 0.500000 0.024609
O O9 0.410429 0.210721 0.108638
O O10 0.500000 0.220948 0.000000
O O11 0.008592 0.721094 0.278936
O O12 0.127549 0.715079 0.438668
O O13 0.103711 0.000000 0.348976
O O14 0.047171 0.000000 0.808081
O O15 0.000000 0.185960 0.500000
O O16 0.158043 0.000000 0.527958
#
# Coordination Sequence:
#
# PCOD9222879 Si02
#       6
#     8   8   8   8   8   8
#     4   9  15  21  32  53  79 104 131 161 194 235
#     4   9  17  28  42  62  87 111 135 168 207 243
#     4   8  13  21  32  48  75 106 130 158 196 233
#     4   9  16  27  45  65  83 107 139 171 203 243
#     4   8  14  23  34  52  78 104 130 161 197 234
#     4   9  17  29  45  64  84 107 137 172 208 245
#
# _framework density 27.124217999999999
#
# number of rings (size 3 to 8) (size 9 to 14) (size 15 to 20)
#    0.000    3.333    0.000    2.000    0.000    3.667 
#    0.000    0.000    0.000    2.000    0.000    1.167 
#    0.000    0.000    0.000    0.000    0.000    0.000 
#
# Total GULP energy -133854.434034 kJ/mol
# GULP energy per Si atom -5577.268085 kJ/mol
# Density = 2.706248 g / cm^3
# Si number density = 27.124218 Si / 1000 Ang^3
#
#
#
# Elastic Constant Matrix: (Units=GPa)
#
#
# Indices 1 2 3 4 5 6 
#
# 1 50.3968 4.6855 48.9563 0.0000 -0.7751 0.0000
# 2 4.6855 112.3118 22.7340 0.0000 -1.6070 0.0000
# 3 48.9563 22.7340 371.5663 0.0000 22.5295 0.0000
# 4 0.0000 0.0000 0.0000 4.0572 0.0000 2.3960
# 5 -0.7751 -1.6070 22.5295 0.0000 60.1588 0.0000
# 6 0.0000 0.0000 0.0000 2.3960 0.0000 -1.6005
#
#
#
# Elastic Compliance Matrix: (Units=1/GPa)
#
#
# Indices 1 2 3 4 5 6 
#
# 1 0.022890 -0.000310 -0.003084 0.000000 0.001442 0.000000
# 2 -0.000310 0.009032 -0.000538 0.000000 0.000439 0.000000
# 3 -0.003084 -0.000538 0.003207 0.000000 -0.001255 0.000000
# 4 0.000000 0.000000 0.000000 0.130821 0.000000 0.195839
# 5 0.001442 0.000439 -0.001255 0.000000 0.017123 0.000000
# 6 0.000000 0.000000 0.000000 0.195839 0.000000 -0.331620
#
#
# Mechanical properties :
#
#
# Convention : Reuss Voigt Hill
#
# Bulk Modulus (GPa) = 36.67974 76.33629 56.50802
# Shear Modulus (GPa) = -37.99560 43.04970 2.52705
#
# Velocity S-wave (km/s) = -3.74679 3.98820 0.96627
# Velocity P-wave (km/s) = 2.27281 7.02937 4.70353
#
# Compressibility (1/GPa) = 0.02726301
#
# Stress axis : x y z
#
# Youngs Moduli (GPa) = 43.68784 110.71777 311.84445
#
# Poissons Ratio (x) = 0.03432 0.96183
# Poissons Ratio (y) = 0.01354 0.16789
# Poissons Ratio (z) = 0.13475 0.05961
#
# Static dielectric constant tensor:
#      x y z
#    x 2.129370 0.000000 -0.051650 
#    y 0.000000 1.126650 0.000000 
#    z -0.051650 0.000000 2.369880 
# 
# From -- ./inp_files/280523.got.cif
#   From: 2010.05.17/outbox.cif.g08.bks.cpg/sg12_141_cif.got.tgz:280523.got - 2010.06.03 13:09:07.
