data_PCOD9222946
_publ_section_title
;
Structure prediction by ZEFSAII (Michael W. Deem and Ramdas Pophale) SiO2 
 PCOD9222946
Probable space group: C 2/M
;
_chemical_formula_sum "Si O2"
_cell_formula_units_Z 48
_cell_length_a 14.031773
_cell_length_b 22.377853
_cell_length_c 8.211356
_cell_angle_alpha 90.000000
_cell_angle_beta 112.962637
_cell_angle_gamma 90.000000
_cell_volume 2374.061887
_symmetry_space_group_name_H-M "C 2/M"
_symmetry_group_IT_number 12
_symmetry_cell_setting 'monoclinic'
loop_
_space_group_symop_operation_xyz
x,y,z
-x,y,-z
-x,-y,-z
x,-y,z
1/2+x,1/2+y,z
1/2-x,1/2+y,-z
1/2-x,1/2-y,-z
1/2+x,1/2-y,z
loop_
_atom_site_type_symbol
_atom_site_label
_atom_site_fract_x
_atom_site_fract_y
_atom_site_fract_z
Si Si1 0.071605 0.785590 0.704692
Si Si2 0.067604 0.568345 0.875743
Si Si3 0.681284 0.817974 0.623515
Si Si4 0.214187 0.643008 0.152503
Si Si5 0.386318 0.249630 0.760205
Si Si6 0.857418 0.571403 0.581324
O O1 0.112441 0.717983 0.705164
O O2 0.172155 0.827846 0.782601
O O3 0.000000 0.802435 0.500000
O O4 0.995231 0.780941 0.805593
O O5 0.097394 0.500000 0.867965
O O6 0.979247 0.584788 0.689295
O O7 0.169027 0.607146 0.970579
O O8 0.000000 0.570334 0.000000
O O9 0.644499 0.785167 0.429666
O O10 0.798696 0.798697 0.729428
O O11 0.673795 0.888086 0.591301
O O12 0.133194 0.697230 0.125259
O O13 0.203651 0.598783 0.302433
O O14 0.844310 0.500000 0.561709
#
# Coordination Sequence:
#
# PCOD9222946 Si02
#       6
#     8   8   8   8   8   8
#     4   9  15  24  40  57  75 103 131 157 193 230
#     4   8  14  24  39  57  75 101 131 157 192 231
#     4   8  14  24  39  57  75 101 131 157 192 231
#     4   9  15  24  40  57  75 103 131 157 193 230
#     4   8  14  24  39  57  75 101 131 157 192 231
#     4   9  15  24  40  57  75 103 131 157 193 230
#
# _framework density 20.218513000000002
#
# number of rings (size 3 to 8) (size 9 to 14) (size 15 to 20)
#    0.000    3.500    0.000    4.500    0.000    0.000 
#    0.000    0.000    0.000   49.500    0.000    0.000 
#    0.000    0.000    0.000    0.000    0.000 1020.000 
#
# Total GULP energy -133919.671679 kJ/mol
# GULP energy per Si atom -5579.986320 kJ/mol
# Density = 2.017249 g / cm^3
# Si number density = 20.218513 Si / 1000 Ang^3
#
#
#
# Elastic Constant Matrix: (Units=GPa)
#
#
# Indices 1 2 3 4 5 6 
#
# 1 111.1373 53.6198 37.9414 0.0000 27.9152 0.0000
# 2 53.6198 137.7990 46.6163 0.0000 26.6963 0.0000
# 3 37.9414 46.6163 54.8126 0.0000 4.4370 0.0000
# 4 0.0000 0.0000 0.0000 26.7019 0.0000 12.2519
# 5 27.9152 26.6963 4.4370 0.0000 26.6718 0.0000
# 6 0.0000 0.0000 0.0000 12.2519 0.0000 18.2146
#
#
#
# Elastic Compliance Matrix: (Units=1/GPa)
#
#
# Indices 1 2 3 4 5 6 
#
# 1 0.016282 0.000061 -0.010074 0.000000 -0.015426 0.000000
# 2 0.000061 0.012791 -0.010013 0.000000 -0.011200 0.000000
# 3 -0.010074 -0.010013 0.032506 0.000000 0.015158 0.000000
# 4 0.000000 0.000000 0.000000 0.054169 0.000000 -0.036436
# 5 -0.015426 -0.011200 0.015158 0.000000 0.062327 0.000000
# 6 0.000000 0.000000 0.000000 -0.036436 0.000000 0.079409
#
#
# Mechanical properties :
#
#
# Convention : Reuss Voigt Hill
#
# Bulk Modulus (GPa) = 46.45455 64.45601 55.45528
# Shear Modulus (GPa) = 16.40891 25.35575 20.88233
#
# Velocity S-wave (km/s) = 2.85191 3.54515 3.21726
# Velocity P-wave (km/s) = 5.81985 6.97899 6.42561
#
# Compressibility (1/GPa) = 0.02152642
#
# Stress axis : x y z
#
# Youngs Moduli (GPa) = 61.41594 78.18238 30.76362
#
# Poissons Ratio (x) = -0.00474 0.30990
# Poissons Ratio (y) = -0.00373 0.30805
# Poissons Ratio (z) = 0.61868 0.78287
#
# Static dielectric constant tensor:
#      x y z
#    x 1.756800 0.000000 -0.085120 
#    y 0.000000 1.705860 0.000000 
#    z -0.085120 0.000000 1.848090 
# 
# From -- ./inp_files/146718.got.cif
#   From: 2010.05.17/outbox.cif.g08.bks.cpg/sg12_74_cif.got.tgz:146718.got - 2010.06.03 13:09:07.
