data_PCOD9222826
_publ_section_title
;
Structure prediction by ZEFSAII (Michael W. Deem and Ramdas Pophale) SiO2 
 PCOD9222826
Probable space group: C 2/M
;
_chemical_formula_sum "Si O2"
_cell_formula_units_Z 56
_cell_length_a 29.849932
_cell_length_b 14.316455
_cell_length_c 7.163791
_cell_angle_alpha 90.000000
_cell_angle_beta 91.260917
_cell_angle_gamma 90.000000
_cell_volume 3060.670443
_symmetry_space_group_name_H-M "C 2/M"
_symmetry_group_IT_number 12
_symmetry_cell_setting 'monoclinic'
loop_
_space_group_symop_operation_xyz
x,y,z
-x,y,-z
-x,-y,-z
x,-y,z
1/2+x,1/2+y,z
1/2-x,1/2+y,-z
1/2-x,1/2-y,-z
1/2+x,1/2-y,z
loop_
_atom_site_type_symbol
_atom_site_label
_atom_site_fract_x
_atom_site_fract_y
_atom_site_fract_z
Si Si1 0.670321 0.711202 0.139010
Si Si2 0.743710 0.105304 0.755390
Si Si3 0.696563 0.289913 0.708181
Si Si4 0.891943 0.105443 0.376559
Si Si5 0.486779 0.613623 0.289405
Si Si6 0.283027 0.895242 0.804035
Si Si7 0.419318 0.606014 0.811227
O O1 0.704903 0.641269 0.245972
O O2 0.679715 0.814926 0.216199
O O3 0.620279 0.673312 0.130480
O O4 0.686954 0.712506 0.928279
O O5 0.713261 0.185985 0.661248
O O6 0.739099 0.000000 0.684680
O O7 0.730041 0.103454 0.975248
O O8 0.650613 0.327576 0.620900
O O9 0.738235 0.360728 0.693832
O O10 0.910865 0.098310 0.587473
O O11 0.934563 0.138711 0.256366
O O12 0.878295 0.000000 0.316697
O O13 0.500000 0.645642 0.500000
O O14 0.513155 0.500000 0.710404
O O15 0.529350 0.639210 0.165898
O O16 0.296191 0.000000 0.754005
O O17 0.414898 0.500000 0.886857
#
# Coordination Sequence:
#
# PCOD9222826 Si02
#       7
#     8   8   8   8   8   8   8
#     4   9  16  25  40  60  77  98 130 161 186 216
#     4   8  14  25  39  55  78 106 130 151 182 227
#     4   9  16  25  40  60  77  98 130 161 186 216
#     4   9  16  26  40  57  78 103 127 152 186 228
#     4   7  12  24  39  53  72 101 130 148 175 231
#     4   8  14  25  39  55  78 106 130 151 182 227
#     4   9  16  26  40  57  78 103 127 152 186 228
#
# _framework density 18.296645999999999
#
# number of rings (size 3 to 8) (size 9 to 14) (size 15 to 20)
#    0.000    3.571    0.000    4.286    0.000    1.714 
#    0.000    3.571    0.000    5.143    0.000    1.000 
#    0.000    8.000    0.000    0.000    0.000    0.000 
#
# Total GULP energy -156073.809222 kJ/mol
# GULP energy per Si atom -5574.064615 kJ/mol
# Density = 1.825500 g / cm^3
# Si number density = 18.296646 Si / 1000 Ang^3
#
#
#
# Elastic Constant Matrix: (Units=GPa)
#
#
# Indices 1 2 3 4 5 6 
#
# 1 146.7875 73.6483 24.4575 0.0000 4.1395 0.0000
# 2 73.6483 122.4620 14.2145 0.0000 3.8050 0.0000
# 3 24.4575 14.2145 44.0380 0.0000 4.4789 0.0000
# 4 0.0000 0.0000 0.0000 10.2788 0.0000 1.5460
# 5 4.1395 3.8050 4.4789 0.0000 31.3317 0.0000
# 6 0.0000 0.0000 0.0000 1.5460 0.0000 19.5906
#
#
#
# Elastic Compliance Matrix: (Units=1/GPa)
#
#
# Indices 1 2 3 4 5 6 
#
# 1 0.010360 -0.005777 -0.003878 0.000000 -0.000113 0.000000
# 2 -0.005777 0.011718 -0.000514 0.000000 -0.000586 0.000000
# 3 -0.003878 -0.000514 0.025337 0.000000 -0.003047 0.000000
# 4 0.000000 0.000000 0.000000 0.098456 0.000000 -0.007770
# 5 -0.000113 -0.000586 -0.003047 0.000000 0.032438 0.000000
# 6 0.000000 0.000000 0.000000 -0.007770 0.000000 0.051658
#
#
# Mechanical properties :
#
#
# Convention : Reuss Voigt Hill
#
# Bulk Modulus (GPa) = 36.93106 59.76977 48.35042
# Shear Modulus (GPa) = 19.28029 25.63804 22.45916
#
# Velocity S-wave (km/s) = 3.24969 3.74738 3.50737
# Velocity P-wave (km/s) = 5.85739 7.17369 6.54870
#
# Compressibility (1/GPa) = 0.02707748
#
# Stress axis : x y z
#
# Youngs Moduli (GPa) = 96.52110 85.33839 39.46780
#
# Poissons Ratio (x) = 0.49301 0.15304
# Poissons Ratio (y) = 0.55761 0.02030
# Poissons Ratio (z) = 0.37428 0.04389
#
# Static dielectric constant tensor:
#      x y z
#    x 1.662930 0.000000 -0.015430 
#    y 0.000000 1.603520 0.000000 
#    z -0.015430 0.000000 1.766330 
# 
# From -- ./inp_files/110888.got.cif
#   From: 2010.05.17/outbox.cif.g08.bks.cpg/sg12_56_cif.got.tgz:110888.got - 2010.06.03 13:09:07.
