data_PCOD9222359
_publ_section_title
;
Structure prediction by ZEFSAII (Michael W. Deem and Ramdas Pophale) SiO2 
 PCOD9222359
Probable space group: C 2/M
;
_chemical_formula_sum "Si O2"
_cell_formula_units_Z 36
_cell_length_a 5.838073
_cell_length_b 27.520273
_cell_length_c 9.393807
_cell_angle_alpha 90.000000
_cell_angle_beta 96.261427
_cell_angle_gamma 90.000000
_cell_volume 1500.256083
_symmetry_space_group_name_H-M "C 2/M"
_symmetry_group_IT_number 12
_symmetry_cell_setting 'monoclinic'
loop_
_space_group_symop_operation_xyz
x,y,z
-x,y,-z
-x,-y,-z
x,-y,z
1/2+x,1/2+y,z
1/2-x,1/2+y,-z
1/2-x,1/2-y,-z
1/2+x,1/2-y,z
loop_
_atom_site_type_symbol
_atom_site_label
_atom_site_fract_x
_atom_site_fract_y
_atom_site_fract_z
Si Si1 0.334190 0.623905 0.871656
Si Si2 0.396228 0.229863 0.687549
Si Si3 0.511231 0.942901 0.329008
Si Si4 0.850124 0.864483 0.349660
Si Si5 0.500000 0.799780 0.000000
O O1 0.487758 0.652381 0.766850
O O2 0.183786 0.585635 0.771971
O O3 0.185243 0.663066 0.946355
O O4 0.500000 0.599927 0.000000
O O5 0.641769 0.247053 0.639320
O O6 0.357884 0.173104 0.648088
O O7 0.415817 0.231382 0.860838
O O8 0.500000 0.935647 0.500000
O O9 0.749326 0.916835 0.303532
O O10 0.504486 0.000000 0.300572
O O11 0.000000 0.866648 0.500000
#
# Coordination Sequence:
#
# PCOD9222359 Si02
#       5
#     8   8   8   8   4
#     4  12  23  45  76 107 147 199 249 311 384 451
#     4  12  27  45  74 111 152 204 259 316 382 460
#     4  11  25  46  76 111 148 196 253 310 386 467
#     4  12  26  46  75 106 153 196 247 320 387 453
#     4  12  24  44  73 106 146 202 257 308 384 452
#
# _framework density 23.995902999999998
#
# number of rings (size 3 to 8) (size 9 to 14) (size 15 to 20)
#    0.000    0.222    6.667    2.000    0.000    2.667 
#    0.000    3.889    0.000    0.000    0.000    0.000 
#    0.000    0.000    0.000    0.000    0.000    0.000 
#
# Total GULP energy -100836.585768 kJ/mol
# GULP energy per Si atom -5602.032543 kJ/mol
# Density = 2.394129 g / cm^3
# Si number density = 23.995903 Si / 1000 Ang^3
#
#
#
# Elastic Constant Matrix: (Units=GPa)
#
#
# Indices 1 2 3 4 5 6 
#
# 1 155.6058 57.0883 65.7680 0.0000 -6.7224 0.0000
# 2 57.0883 116.5323 36.9610 0.0000 13.6802 0.0000
# 3 65.7680 36.9610 149.0111 0.0000 32.9564 0.0000
# 4 0.0000 0.0000 0.0000 35.9890 0.0000 -0.4686
# 5 -6.7224 13.6802 32.9564 0.0000 56.4141 0.0000
# 6 0.0000 0.0000 0.0000 -0.4686 0.0000 27.0741
#
#
#
# Elastic Compliance Matrix: (Units=1/GPa)
#
#
# Indices 1 2 3 4 5 6 
#
# 1 0.010008 -0.004046 -0.004472 0.000000 0.004786 0.000000
# 2 -0.004046 0.011004 -0.000283 0.000000 -0.002985 0.000000
# 3 -0.004472 -0.000283 0.010172 0.000000 -0.006406 0.000000
# 4 0.000000 0.000000 0.000000 0.027793 0.000000 0.000481
# 5 0.004786 -0.002985 -0.006406 0.000000 0.022763 0.000000
# 6 0.000000 0.000000 0.000000 0.000481 0.000000 0.036944
#
#
# Mechanical properties :
#
#
# Convention : Reuss Voigt Hill
#
# Bulk Modulus (GPa) = 73.63602 82.30933 77.97267
# Shear Modulus (GPa) = 35.50807 41.31757 38.41282
#
# Velocity S-wave (km/s) = 3.85093 4.15403 4.00535
# Velocity P-wave (km/s) = 7.10820 7.57521 7.34542
#
# Compressibility (1/GPa) = 0.01358031
#
# Stress axis : x y z
#
# Youngs Moduli (GPa) = 99.92116 90.87740 98.31011
#
# Poissons Ratio (x) = 0.36771 0.43965
# Poissons Ratio (y) = 0.40431 0.02786
# Poissons Ratio (z) = 0.44685 0.02575
#
# Static dielectric constant tensor:
#      x y z
#    x 1.970640 0.000000 0.010220 
#    y 0.000000 1.875130 0.000000 
#    z 0.010220 0.000000 1.939270 
# 
# From -- ./inp_files/115570.got.cif
#   From: 2010.05.17/outbox.cif.g08.bks.cpg/sg12_58_cif.got.tgz:115570.got - 2010.06.03 13:09:07.
