data_PCOD9222066
_publ_section_title
;
Structure prediction by ZEFSAII (Michael W. Deem and Ramdas Pophale) SiO2 
 PCOD9222066
Probable space group: C 2/M
;
_chemical_formula_sum "Si O2"
_cell_formula_units_Z 24
_cell_length_a 9.256396
_cell_length_b 12.276814
_cell_length_c 13.326275
_cell_angle_alpha 90.000000
_cell_angle_beta 40.137896
_cell_angle_gamma 90.000000
_cell_volume 976.217283
_symmetry_space_group_name_H-M "C 2/M"
_symmetry_group_IT_number 12
_symmetry_cell_setting 'monoclinic'
loop_
_space_group_symop_operation_xyz
x,y,z
-x,y,-z
-x,-y,-z
x,-y,z
1/2+x,1/2+y,z
1/2-x,1/2+y,-z
1/2-x,1/2-y,-z
1/2+x,1/2-y,z
loop_
_atom_site_type_symbol
_atom_site_label
_atom_site_fract_x
_atom_site_fract_y
_atom_site_fract_z
Si Si1 0.542409 0.698761 0.374444
Si Si2 0.780083 0.500000 0.476360
Si Si3 0.218129 0.000000 0.748305
Si Si4 0.997175 0.767782 0.166573
O O1 0.500000 0.768279 0.500000
O O2 0.369120 0.600971 0.480256
O O3 0.489357 0.739473 0.291553
O O4 0.810068 0.682754 0.227874
O O5 0.763099 0.500000 0.605511
O O6 0.046879 0.500000 0.315437
O O7 0.084229 0.886365 0.831834
O O8 0.250000 0.750000 0.000000
#
# Coordination Sequence:
#
# PCOD9222066 Si02
#       4
#     8   4   4   8
#     4  11  24  42  69 101 135 177 230 279 329 403
#     4   9  21  41  68 105 129 175 230 283 330 392
#     4   9  22  41  69  96 140 173 223 283 338 395
#     4  11  25  44  67 101 140 180 219 278 346 402
#
# _framework density 24.584688
#
# number of rings (size 3 to 8) (size 9 to 14) (size 15 to 20)
#    0.000    1.667    0.000    2.500   14.000    1.333 
#    0.000    8.333    0.000    0.000    0.000    0.000 
#    0.000    0.000    0.000    0.000    0.000    0.000 
#
# Total GULP energy -67008.428347 kJ/mol
# GULP energy per Si atom -5584.035696 kJ/mol
# Density = 2.452873 g / cm^3
# Si number density = 24.584688 Si / 1000 Ang^3
#
#
#
# Elastic Constant Matrix: (Units=GPa)
#
#
# Indices 1 2 3 4 5 6 
#
# 1 194.6771 53.6200 79.5774 -0.0005 -47.0708 0.0001
# 2 53.6200 130.0046 86.5446 -0.0005 -38.1744 0.0003
# 3 79.5774 86.5446 161.6384 -0.0022 -61.6008 0.0010
# 4 -0.0005 -0.0005 -0.0022 29.9899 0.0009 -18.1221
# 5 -47.0708 -38.1744 -61.6008 0.0009 75.6370 -0.0003
# 6 0.0001 0.0003 0.0010 -18.1221 -0.0003 37.6284
#
#
#
# Elastic Compliance Matrix: (Units=1/GPa)
#
#
# Indices 1 2 3 4 5 6 
#
# 1 0.006708 -0.000754 -0.002107 0.000000 0.002078 0.000000
# 2 -0.000754 0.012111 -0.005746 0.000000 0.000964 0.000000
# 3 -0.002107 -0.005746 0.012609 0.000001 0.006058 0.000000
# 4 0.000000 0.000000 0.000001 0.047032 0.000000 0.022651
# 5 0.002078 0.000964 0.006058 0.000000 0.019935 0.000000
# 6 0.000000 0.000000 0.000000 0.022651 0.000000 0.037484
#
#
# Mechanical properties :
#
#
# Convention : Reuss Voigt Hill
#
# Bulk Modulus (GPa) = 70.35032 102.86711 86.60872
# Shear Modulus (GPa) = 31.67940 46.42294 39.05117
#
# Velocity S-wave (km/s) = 3.59358 4.35016 3.98984
# Velocity P-wave (km/s) = 6.77466 8.19540 7.51866
#
# Compressibility (1/GPa) = 0.01421458
#
# Stress axis : x y z
#
# Youngs Moduli (GPa) = 149.07457 82.56816 79.30701
#
# Poissons Ratio (x) = 0.06225 0.16708
# Poissons Ratio (y) = 0.11240 0.45571
# Poissons Ratio (z) = 0.31407 0.47445
#
# Static dielectric constant tensor:
#      x y z
#    x 1.989610 0.000000 0.001800 
#    y 0.000000 2.100910 0.000000 
#    z 0.001800 0.000000 1.960620 
# 
# From -- ./inp_files/193836.got.cif
#   From: 2010.05.17/outbox.cif.g08.bks.cpg/sg12_97_cif.got.tgz:193836.got - 2010.06.03 13:09:07.
