data_PCOD9222165
_publ_section_title
;
Structure prediction by ZEFSAII (Michael W. Deem and Ramdas Pophale) SiO2 
 PCOD9222165
Probable space group: C 2/M
;
_chemical_formula_sum "Si O2"
_cell_formula_units_Z 28
_cell_length_a 10.914123
_cell_length_b 16.832478
_cell_length_c 8.795321
_cell_angle_alpha 90.000000
_cell_angle_beta 43.856923
_cell_angle_gamma 90.000000
_cell_volume 1119.525573
_symmetry_space_group_name_H-M "C 2/M"
_symmetry_group_IT_number 12
_symmetry_cell_setting 'monoclinic'
loop_
_space_group_symop_operation_xyz
x,y,z
-x,y,-z
-x,-y,-z
x,-y,z
1/2+x,1/2+y,z
1/2-x,1/2+y,-z
1/2-x,1/2-y,-z
1/2+x,1/2-y,z
loop_
_atom_site_type_symbol
_atom_site_label
_atom_site_fract_x
_atom_site_fract_y
_atom_site_fract_z
Si Si1 0.369111 0.795797 0.239013
Si Si2 0.054855 0.125834 0.115861
Si Si3 0.000000 0.144428 0.500000
Si Si4 0.540293 0.910534 0.287605
O O1 0.387600 0.854070 0.362724
O O2 0.172786 0.799596 0.351857
O O3 0.500000 0.834532 0.000000
O O4 0.457569 0.711512 0.195897
O O5 0.011359 0.097715 0.327971
O O6 0.267516 0.127378 0.915202
O O7 0.000000 0.088026 0.000000
O O8 0.500000 0.916971 0.500000
O O9 0.538534 0.000000 0.224008
#
# Coordination Sequence:
#
# PCOD9222165 Si02
#       4
#     8   8   4   8
#     4  11  24  44  72 109 139 189 240 299 364 418
#     4  11  25  44  72 107 144 185 242 299 357 427
#     4  12  24  44  73 112 143 188 234 298 376 412
#     4  11  25  47  73 102 148 197 239 296 359 432
#
# _framework density 25.010594999999999
#
# number of rings (size 3 to 8) (size 9 to 14) (size 15 to 20)
#    0.000    0.857    2.857    3.429    6.000    1.143 
#    0.000    2.857    0.000    0.000    0.000    0.000 
#    0.000    0.000    0.000    0.000    0.000    0.000 
#
# Total GULP energy -78212.637073 kJ/mol
# GULP energy per Si atom -5586.616934 kJ/mol
# Density = 2.495367 g / cm^3
# Si number density = 25.010595 Si / 1000 Ang^3
#
#
#
# Elastic Constant Matrix: (Units=GPa)
#
#
# Indices 1 2 3 4 5 6 
#
# 1 143.9994 56.1656 55.7030 0.0001 -10.9386 0.0001
# 2 56.1656 128.1356 21.4551 0.0000 -13.2722 0.0000
# 3 55.7030 21.4551 157.7979 0.0001 5.7629 0.0001
# 4 0.0001 0.0000 0.0001 28.0190 -0.0001 20.0321
# 5 -10.9386 -13.2722 5.7629 -0.0001 91.0029 -0.0001
# 6 0.0001 0.0000 0.0001 20.0321 -0.0001 -7.7281
#
#
#
# Elastic Compliance Matrix: (Units=1/GPa)
#
#
# Indices 1 2 3 4 5 6 
#
# 1 0.009538 -0.003611 -0.002905 0.000000 0.000804 0.000000
# 2 -0.003611 0.009494 -0.000051 0.000000 0.000954 0.000000
# 3 -0.002905 -0.000051 0.007400 0.000000 -0.000825 0.000000
# 4 0.000000 0.000000 0.000000 0.012509 0.000000 0.032424
# 5 0.000804 0.000954 -0.000825 0.000000 0.011277 0.000000
# 6 0.000000 0.000000 0.000000 0.032424 0.000000 -0.045352
#
#
# Mechanical properties :
#
#
# Convention : Reuss Voigt Hill
#
# Bulk Modulus (GPa) = 75.20236 77.39780 76.30008
# Shear Modulus (GPa) = 222.88838 42.03272 132.46055
#
# Velocity S-wave (km/s) = 9.45045 4.10396 7.28538
# Velocity P-wave (km/s) = 12.21535 7.31230 10.06689
#
# Compressibility (1/GPa) = 0.01329745
#
# Stress axis : x y z
#
# Youngs Moduli (GPa) = 104.84605 105.32542 135.13767
#
# Poissons Ratio (x) = 0.38033 0.39261
# Poissons Ratio (y) = 0.37860 0.00690
# Poissons Ratio (z) = 0.30460 0.00538
#
# Static dielectric constant tensor:
#      x y z
#    x 2.052370 0.000000 0.115890 
#    y 0.000000 1.908960 0.000000 
#    z 0.115890 0.000000 2.052790 
# 
# From -- ./inp_files/48246.got.cif
#   From: 2010.05.17/outbox.cif.g08.bks.cpg/sg12_25_cif.got.tgz:48246.got - 2010.06.03 13:09:07.
