data_PCOD9222858
_publ_section_title
;
Structure prediction by ZEFSAII (Michael W. Deem and Ramdas Pophale) SiO2 
 PCOD9222858
Probable space group: C 2/M
;
_chemical_formula_sum "Si O2"
_cell_formula_units_Z 64
_cell_length_a 14.129826
_cell_length_b 9.160778
_cell_length_c 23.477073
_cell_angle_alpha 90.000000
_cell_angle_beta 69.652864
_cell_angle_gamma 90.000000
_cell_volume 2849.260807
_symmetry_space_group_name_H-M "C 2/M"
_symmetry_group_IT_number 12
_symmetry_cell_setting 'monoclinic'
loop_
_space_group_symop_operation_xyz
x,y,z
-x,y,-z
-x,-y,-z
x,-y,z
1/2+x,1/2+y,z
1/2-x,1/2+y,-z
1/2-x,1/2-y,-z
1/2+x,1/2-y,z
loop_
_atom_site_type_symbol
_atom_site_label
_atom_site_fract_x
_atom_site_fract_y
_atom_site_fract_z
Si Si1 0.555014 0.834649 0.431305
Si Si2 0.153555 0.176520 0.688002
Si Si3 0.142654 0.176523 0.308695
Si Si4 0.724803 0.340596 0.559730
Si Si5 0.552211 0.670646 0.076283
Si Si6 0.835795 0.169299 0.055275
Si Si7 0.235914 0.167909 0.175347
Si Si8 0.046390 0.332281 0.804272
O O1 0.500000 0.773539 0.500000
O O2 0.564287 0.745301 0.370492
O O3 0.670305 0.850176 0.428100
O O4 0.514333 0.000000 0.430066
O O5 0.250013 0.266852 0.689538
O O6 0.146518 0.214460 0.622918
O O7 0.063634 0.230369 0.746165
O O8 0.166748 0.000000 0.689869
O O9 0.155701 0.223601 0.239450
O O10 0.135332 0.000000 0.311306
O O11 0.691182 0.500000 0.548067
O O12 0.750000 0.250000 0.500000
O O13 0.571810 0.500000 0.084737
O O14 0.443605 0.673116 0.066317
O O15 0.534715 0.765084 0.135888
O O16 0.634885 0.726338 0.013658
O O17 0.756896 0.251100 0.111869
O O18 0.807018 0.000000 0.055994
O O19 0.345673 0.170393 0.184394
O O20 0.211313 0.000000 0.169000
O O21 0.025633 0.500000 0.793614
#
# Coordination Sequence:
#
# PCOD9222858 Si02
#       8
#     8   8   8   8   8   8   8   8
#     4   9  18  32  47  63  84 110 140 171 205 247
#     4   9  16  26  38  52  71  97 127 158 196 238
#     4   9  16  25  37  55  75  95 124 161 200 239
#     4   9  18  30  45  64  84 108 136 169 208 247
#     4   8  13  20  27  37  55  80 111 149 189 228
#     4   8  13  19  27  38  53  78 114 150 184 225
#     4   8  14  21  28  41  62  85 111 148 191 230
#     4   9  15  21  30  45  62  84 116 154 194 232
#
# _framework density 22.461966
#
# number of rings (size 3 to 8) (size 9 to 14) (size 15 to 20)
#    0.000    3.375    0.000    3.375    0.000    6.750 
#    0.000    2.500    0.000    0.000    0.000    0.000 
#    0.000    0.000    0.000    0.000    0.000    1.250 
#
# Total GULP energy -178369.000449 kJ/mol
# GULP energy per Si atom -5574.031264 kJ/mol
# Density = 2.241084 g / cm^3
# Si number density = 22.461966 Si / 1000 Ang^3
#
#
#
# Elastic Constant Matrix: (Units=GPa)
#
#
# Indices 1 2 3 4 5 6 
#
# 1 66.5687 -6.1958 11.3537 0.0000 -16.9166 0.0000
# 2 -6.1958 58.4010 90.9637 0.0000 -2.7442 0.0000
# 3 11.3537 90.9637 282.0458 0.0000 -6.9871 0.0000
# 4 0.0000 0.0000 0.0000 41.3914 0.0000 -2.0897
# 5 -16.9166 -2.7442 -6.9871 0.0000 16.3015 0.0000
# 6 0.0000 0.0000 0.0000 -2.0897 0.0000 -4.7318
#
#
#
# Elastic Compliance Matrix: (Units=1/GPa)
#
#
# Indices 1 2 3 4 5 6 
#
# 1 0.022097 0.007883 -0.002861 0.000000 0.023031 0.000000
# 2 0.007883 0.037237 -0.012097 0.000000 0.009264 0.000000
# 3 -0.002861 -0.012097 0.007518 0.000000 -0.001784 0.000000
# 4 0.000000 0.000000 0.000000 0.023633 0.000000 -0.010437
# 5 0.023031 0.009264 -0.001784 0.000000 0.086040 0.000000
# 6 0.000000 0.000000 0.000000 -0.010437 0.000000 -0.206725
#
#
# Mechanical properties :
#
#
# Convention : Reuss Voigt Hill
#
# Bulk Modulus (GPa) = 18.97495 66.58431 42.77963
# Shear Modulus (GPa) = 3296.73320 31.31847 1664.02583
#
# Velocity S-wave (km/s) = 38.35208 3.73807 27.24752
# Velocity P-wave (km/s) = 44.38065 6.95258 31.76460
#
# Compressibility (1/GPa) = 0.05270107
#
# Stress axis : x y z
#
# Youngs Moduli (GPa) = 45.25585 26.85486 133.01236
#
# Poissons Ratio (x) = -0.21171 0.38061
# Poissons Ratio (y) = -0.35677 1.60910
# Poissons Ratio (z) = 0.12950 0.32487
#
# Static dielectric constant tensor:
#      x y z
#    x 1.630010 0.000000 0.028050 
#    y 0.000000 1.826430 0.000000 
#    z 0.028050 0.000000 1.886310 
# 
# From -- ./inp_files/367045.got.cif
#   From: 2010.05.17/outbox.cif.g08.bks.cpg/sg12_184_cif.got.tgz:367045.got - 2010.06.03 13:09:07.
