data_PCOD9222486
_publ_section_title
;
Structure prediction by ZEFSAII (Michael W. Deem and Ramdas Pophale) SiO2 
 PCOD9222486
Probable space group: C 2/M
;
_chemical_formula_sum "Si O2"
_cell_formula_units_Z 52
_cell_length_a 15.647491
_cell_length_b 23.151999
_cell_length_c 8.894025
_cell_angle_alpha 90.000000
_cell_angle_beta 97.695822
_cell_angle_gamma 90.000000
_cell_volume 3193.023566
_symmetry_space_group_name_H-M "C 2/M"
_symmetry_group_IT_number 12
_symmetry_cell_setting 'monoclinic'
loop_
_space_group_symop_operation_xyz
x,y,z
-x,y,-z
-x,-y,-z
x,-y,z
1/2+x,1/2+y,z
1/2-x,1/2+y,-z
1/2-x,1/2-y,-z
1/2+x,1/2-y,z
loop_
_atom_site_type_symbol
_atom_site_label
_atom_site_fract_x
_atom_site_fract_y
_atom_site_fract_z
Si Si1 0.819686 0.293477 0.599268
Si Si2 0.558997 0.693899 0.789101
Si Si3 0.328815 0.272171 0.917673
Si Si4 0.000000 0.272959 0.500000
Si Si5 0.955805 0.000000 0.831118
Si Si6 0.591124 0.500000 0.612971
Si Si7 0.826325 0.877032 0.410350
Si Si8 0.888838 0.124952 0.760907
O O1 0.750000 0.250000 0.500000
O O2 0.837757 0.266271 0.768959
O O3 0.770901 0.354493 0.603458
O O4 0.908283 0.300796 0.527137
O O5 0.523434 0.735853 0.652414
O O6 0.631953 0.657449 0.718964
O O7 0.483169 0.650527 0.814383
O O8 0.594247 0.726392 0.943023
O O9 0.325063 0.337993 0.851571
O O10 0.250000 0.250000 0.000000
O O11 0.898103 0.943276 0.786541
O O12 0.044812 0.000000 0.759659
O O13 0.000000 0.000000 0.000000
O O14 0.500000 0.500000 0.500000
O O15 0.648475 0.443632 0.601632
O O16 0.868628 0.861343 0.581762
#
# Coordination Sequence:
#
# PCOD9222486 Si02
#       8
#     8   8   8   4   4   4   8   8
#     4  12  22  38  56  82 116 157 197 243 298 351
#     4  12  19  33  56  81 113 150 191 238 289 351
#     4  12  23  34  53  81 116 158 194 244 296 351
#     4  12  22  36  58  80 114 156 196 236 294 354
#     4  12  24  34  54  86 122 154 195 241 291 362
#     4  12  22  38  60  87 114 156 200 233 290 362
#     4  12  21  38  58  82 117 156 196 241 290 355
#     4  12  22  36  54  83 117 160 196 235 292 355
#
# _framework density 16.285504
#
# number of rings (size 3 to 8) (size 9 to 14) (size 15 to 20)
#    0.000    0.000   10.769    1.385    0.000    0.000 
#    0.000    0.000    0.000    0.462    0.000    0.000 
#    0.000    1.231    0.000    0.077    0.000    0.000 
#
# Total GULP energy -144892.631993 kJ/mol
# GULP energy per Si atom -5572.793538 kJ/mol
# Density = 1.624844 g / cm^3
# Si number density = 16.285504 Si / 1000 Ang^3
#
#
#
# Elastic Constant Matrix: (Units=GPa)
#
#
# Indices 1 2 3 4 5 6 
#
# 1 118.5046 63.4664 27.8664 0.0000 -19.1406 0.0000
# 2 63.4664 97.9588 28.3189 0.0000 -4.2980 0.0000
# 3 27.8664 28.3189 123.3388 0.0000 3.9530 0.0000
# 4 0.0000 0.0000 0.0000 14.5867 0.0000 -3.2226
# 5 -19.1406 -4.2980 3.9530 0.0000 32.7012 0.0000
# 6 0.0000 0.0000 0.0000 -3.2226 0.0000 33.3170
#
#
#
# Elastic Compliance Matrix: (Units=1/GPa)
#
#
# Indices 1 2 3 4 5 6 
#
# 1 0.014734 -0.008758 -0.001564 0.000000 0.007662 0.000000
# 2 -0.008758 0.016240 -0.001661 0.000000 -0.002791 0.000000
# 3 -0.001564 -0.001661 0.008913 0.000000 -0.002211 0.000000
# 4 0.000000 0.000000 0.000000 0.070052 0.000000 0.006776
# 5 0.007662 -0.002791 -0.002211 0.000000 0.034965 0.000000
# 6 0.000000 0.000000 0.000000 0.006776 0.000000 0.030670
#
#
# Mechanical properties :
#
#
# Convention : Reuss Voigt Hill
#
# Bulk Modulus (GPa) = 62.80188 64.34508 63.57348
# Shear Modulus (GPa) = 24.40846 30.79769 27.60307
#
# Velocity S-wave (km/s) = 3.87561 4.35341 4.12144
# Velocity P-wave (km/s) = 7.65989 8.05394 7.85939
#
# Compressibility (1/GPa) = 0.01592309
#
# Stress axis : x y z
#
# Youngs Moduli (GPa) = 67.86975 61.57594 112.19335
#
# Poissons Ratio (x) = 0.53927 0.17543
# Poissons Ratio (y) = 0.59439 0.18631
# Poissons Ratio (z) = 0.10613 0.10225
#
# Static dielectric constant tensor:
#      x y z
#    x 1.575400 0.000000 -0.002010 
#    y 0.000000 1.605810 0.000000 
#    z -0.002010 0.000000 1.551520 
# 
# From -- ./inp_files/64782.got.cif
#   From: 2010.05.17/outbox.cif.g08.bks.cpg/sg12_33_cif.got.tgz:64782.got - 2010.06.03 13:09:07.
