data_PCOD9222720
_publ_section_title
;
Structure prediction by ZEFSAII (Michael W. Deem and Ramdas Pophale) SiO2 
 PCOD9222720
Probable space group: C 2/M
;
_chemical_formula_sum "Si O2"
_cell_formula_units_Z 30
_cell_length_a 12.845742
_cell_length_b 19.781151
_cell_length_c 5.180121
_cell_angle_alpha 90.000000
_cell_angle_beta 91.302548
_cell_angle_gamma 90.000000
_cell_volume 1315.947069
_symmetry_space_group_name_H-M "C 2/M"
_symmetry_group_IT_number 12
_symmetry_cell_setting 'monoclinic'
loop_
_space_group_symop_operation_xyz
x,y,z
-x,y,-z
-x,-y,-z
x,-y,z
1/2+x,1/2+y,z
1/2-x,1/2+y,-z
1/2-x,1/2-y,-z
1/2+x,1/2-y,z
loop_
_atom_site_type_symbol
_atom_site_label
_atom_site_fract_x
_atom_site_fract_y
_atom_site_fract_z
Si Si1 0.734598 0.121153 0.218844
Si Si2 0.000000 0.000000 0.000000
Si Si3 0.072159 0.500000 0.254039
Si Si4 0.934930 0.272676 0.745419
Si Si5 0.373494 0.382250 0.723805
O O1 0.677971 0.192859 0.254519
O O2 0.822248 0.109867 0.440049
O O3 0.646537 0.064968 0.252134
O O4 0.783907 0.115332 0.938805
O O5 0.048049 0.940770 0.193359
O O6 0.000000 0.500000 0.500000
O O7 0.000000 0.500000 0.000000
O O8 0.923404 0.191975 0.740978
O O9 0.000000 0.294627 0.500000
O O10 0.000000 0.293449 0.000000
#
# Coordination Sequence:
#
# PCOD9222720 Si02
#       5
#     8   2   4   8   8
#     4  12  25  45  70 102 139 182 230 286 347 411
#     4  12  28  48  72  98 144 180 240 284 346 414
#     4  12  24  43  68 101 135 178 228 285 351 404
#     4  12  24  45  71 105 139 183 230 283 348 411
#     4  12  26  45  69 100 138 183 233 284 345 412
#
# _framework density 22.797269
#
# number of rings (size 3 to 8) (size 9 to 14) (size 15 to 20)
#    0.000    0.000    1.333    9.600    0.000    1.067 
#    0.000    0.000    0.000    0.000    0.000    0.000 
#    0.000    0.000    0.000    0.000    0.000    0.000 
#
# Total GULP energy -83903.376481 kJ/mol
# GULP energy per Si atom -5593.558432 kJ/mol
# Density = 2.274538 g / cm^3
# Si number density = 22.797269 Si / 1000 Ang^3
#
#
#
# Elastic Constant Matrix: (Units=GPa)
#
#
# Indices 1 2 3 4 5 6 
#
# 1 74.1101 22.7507 37.0208 0.0000 6.0971 0.0000
# 2 22.7507 128.3151 9.6757 0.0000 19.1971 0.0000
# 3 37.0208 9.6757 103.2304 0.0000 -10.1250 0.0000
# 4 0.0000 0.0000 0.0000 24.4177 0.0000 -13.7523
# 5 6.0971 19.1971 -10.1250 0.0000 70.4123 0.0000
# 6 0.0000 0.0000 0.0000 -13.7523 0.0000 62.1717
#
#
#
# Elastic Compliance Matrix: (Units=1/GPa)
#
#
# Indices 1 2 3 4 5 6 
#
# 1 0.017470 -0.002365 -0.006216 0.000000 -0.001762 0.000000
# 2 -0.002365 0.008546 -0.000164 0.000000 -0.002149 0.000000
# 3 -0.006216 -0.000164 0.012160 0.000000 0.002331 0.000000
# 4 0.000000 0.000000 0.000000 0.046782 0.000000 0.010348
# 5 -0.001762 -0.002149 0.002331 0.000000 0.015276 0.000000
# 6 0.000000 0.000000 0.000000 0.010348 0.000000 0.018373
#
#
# Mechanical properties :
#
#
# Convention : Reuss Voigt Hill
#
# Bulk Modulus (GPa) = 48.34027 49.39445 48.86736
# Shear Modulus (GPa) = 34.96671 47.14756 41.05714
#
# Velocity S-wave (km/s) = 3.92064 4.55260 4.24838
# Velocity P-wave (km/s) = 6.46109 7.02486 6.74887
#
# Compressibility (1/GPa) = 0.02068669
#
# Stress axis : x y z
#
# Youngs Moduli (GPa) = 57.24217 117.00721 82.23457
#
# Poissons Ratio (x) = 0.27674 0.51118
# Poissons Ratio (y) = 0.13538 0.01346
# Poissons Ratio (z) = 0.35583 0.01915
#
# Static dielectric constant tensor:
#      x y z
#    x 1.833190 0.000000 -0.023010 
#    y 0.000000 1.832590 0.000000 
#    z -0.023010 0.000000 1.800200 
# 
# From -- ./inp_files/6105.got.cif
#   From: 2010.05.17/outbox.cif.g08.bks.cpg/sg12_4_cif.got.tgz:6105.got - 2010.06.03 13:09:07.
