data_PCOD9222607
_publ_section_title
;
Structure prediction by ZEFSAII (Michael W. Deem and Ramdas Pophale) SiO2 
 PCOD9222607
Probable space group: C 2/M
;
_chemical_formula_sum "Si O2"
_cell_formula_units_Z 42
_cell_length_a 9.707034
_cell_length_b 22.254732
_cell_length_c 7.912339
_cell_angle_alpha 90.000000
_cell_angle_beta 71.988121
_cell_angle_gamma 90.000000
_cell_volume 1625.514563
_symmetry_space_group_name_H-M "C 2/M"
_symmetry_group_IT_number 12
_symmetry_cell_setting 'monoclinic'
loop_
_space_group_symop_operation_xyz
x,y,z
-x,y,-z
-x,-y,-z
x,-y,z
1/2+x,1/2+y,z
1/2-x,1/2+y,-z
1/2-x,1/2-y,-z
1/2+x,1/2-y,z
loop_
_atom_site_type_symbol
_atom_site_label
_atom_site_fract_x
_atom_site_fract_y
_atom_site_fract_z
Si Si1 0.245436 0.000000 0.123332
Si Si2 0.295771 0.125050 0.641523
Si Si3 0.503998 0.319251 0.754459
Si Si4 0.789138 0.376227 0.239690
Si Si5 0.000000 0.000000 0.500000
Si Si6 0.500000 0.220931 0.000000
Si Si7 0.237145 0.000000 0.743802
Si Si8 0.000000 0.273711 0.500000
O O1 0.327195 0.937522 0.128728
O O2 0.127793 0.000000 0.318120
O O3 0.180316 0.000000 0.959013
O O4 0.301468 0.119816 0.436411
O O5 0.396603 0.181632 0.641219
O O6 0.134879 0.140243 0.769125
O O7 0.333549 0.060179 0.696049
O O8 0.380415 0.361519 0.728643
O O9 0.579114 0.273986 0.590658
O O10 0.430174 0.270566 0.902519
O O11 0.884185 0.321614 0.133107
O O12 0.874935 0.000000 0.374064
#
# Coordination Sequence:
#
# PCOD9222607 Si02
#       8
#     4   8   8   8   2   4   4   4
#     4  12  29  46  76 111 150 195 251 305 378 437
#     4  12  25  48  75 105 149 198 251 311 377 445
#     4  12  25  44  73 107 141 190 248 311 375 442
#     4  12  25  49  72 105 150 198 241 317 374 447
#     4  12  22  50  72 106 152 186 242 302 364 440
#     4  12  28  43  70 109 152 190 246 304 382 448
#     4  12  29  46  76 113 148 201 249 313 372 441
#     4  12  24  44  74 105 144 195 248 296 374 462
#
# _framework density 25.837975
#
# number of rings (size 3 to 8) (size 9 to 14) (size 15 to 20)
#    0.000    0.000    5.714    3.714    5.333    0.762 
#    0.000    0.000    0.000    0.000    0.000    0.000 
#    0.000    0.000    0.000    0.000    0.000    0.000 
#
# Total GULP energy -117189.778455 kJ/mol
# GULP energy per Si atom -5580.465641 kJ/mol
# Density = 2.577917 g / cm^3
# Si number density = 25.837975 Si / 1000 Ang^3
#
#
#
# Elastic Constant Matrix: (Units=GPa)
#
#
# Indices 1 2 3 4 5 6 
#
# 1 59.8345 16.3989 10.2761 0.0000 -6.2044 0.0000
# 2 16.3989 186.0180 33.5701 0.0000 11.3521 0.0000
# 3 10.2761 33.5701 134.9325 0.0000 10.4963 0.0000
# 4 0.0000 0.0000 0.0000 20.5381 0.0000 17.0903
# 5 -6.2044 11.3521 10.4963 0.0000 35.4291 0.0000
# 6 0.0000 0.0000 0.0000 17.0903 0.0000 -1.3904
#
#
#
# Elastic Compliance Matrix: (Units=1/GPa)
#
#
# Indices 1 2 3 4 5 6 
#
# 1 0.017779 -0.001582 -0.001271 0.000000 0.003997 0.000000
# 2 -0.001582 0.005840 -0.001193 0.000000 -0.001795 0.000000
# 3 -0.001271 -0.001193 0.007976 0.000000 -0.002203 0.000000
# 4 0.000000 0.000000 0.000000 0.004336 0.000000 0.053302
# 5 0.003997 -0.001795 -0.002203 0.000000 0.030153 0.000000
# 6 0.000000 0.000000 0.000000 0.053302 0.000000 -0.064055
#
#
# Mechanical properties :
#
#
# Convention : Reuss Voigt Hill
#
# Bulk Modulus (GPa) = 42.54754 55.69722 49.12238
# Shear Modulus (GPa) = 278.44606 32.28469 155.36537
#
# Velocity S-wave (km/s) = 10.39231 3.53867 7.76281
# Velocity P-wave (km/s) = 12.66898 6.18865 9.97001
#
# Compressibility (1/GPa) = 0.02350312
#
# Stress axis : x y z
#
# Youngs Moduli (GPa) = 56.24572 171.23030 125.37422
#
# Poissons Ratio (x) = 0.27086 0.15940
# Poissons Ratio (y) = 0.08897 0.14956
# Poissons Ratio (z) = 0.07151 0.20426
#
# Static dielectric constant tensor:
#      x y z
#    x 2.053880 0.000000 0.091880 
#    y 0.000000 1.969210 0.000000 
#    z 0.091880 0.000000 2.132370 
# 
# From -- ./inp_files/49260.got.cif
#   From: 2010.05.17/outbox.cif.g08.bks.cpg/sg12_25_cif.got.tgz:49260.got - 2010.06.03 13:09:07.
