data_PCOD9222515
_publ_section_title
;
Structure prediction by ZEFSAII (Michael W. Deem and Ramdas Pophale) SiO2 
 PCOD9222515
Probable space group: C 2/M
;
_chemical_formula_sum "Si O2"
_cell_formula_units_Z 56
_cell_length_a 14.796364
_cell_length_b 29.027407
_cell_length_c 9.618305
_cell_angle_alpha 90.000000
_cell_angle_beta 134.060697
_cell_angle_gamma 90.000000
_cell_volume 2968.596170
_symmetry_space_group_name_H-M "C 2/M"
_symmetry_group_IT_number 12
_symmetry_cell_setting 'monoclinic'
loop_
_space_group_symop_operation_xyz
x,y,z
-x,y,-z
-x,-y,-z
x,-y,z
1/2+x,1/2+y,z
1/2-x,1/2+y,-z
1/2-x,1/2-y,-z
1/2+x,1/2-y,z
loop_
_atom_site_type_symbol
_atom_site_label
_atom_site_fract_x
_atom_site_fract_y
_atom_site_fract_z
Si Si1 0.081929 0.230660 0.955775
Si Si2 0.518725 0.052182 0.283354
Si Si3 0.273883 0.180148 0.853114
Si Si4 0.708378 0.051939 0.737038
Si Si5 0.632942 0.738420 0.476233
Si Si6 0.000000 0.681094 0.500000
Si Si7 0.000000 0.380877 0.000000
Si Si8 0.754670 0.855679 0.887360
O O1 0.983310 0.217359 0.732509
O O2 0.160759 0.275881 0.001466
O O3 0.169742 0.188135 0.089494
O O4 0.000000 0.244814 0.000000
O O5 0.633971 0.060540 0.513228
O O6 0.395529 0.052161 0.250093
O O7 0.509447 0.087939 0.148209
O O8 0.532470 0.000000 0.242845
O O9 0.177962 0.204171 0.645176
O O10 0.378157 0.151476 0.882203
O O11 0.225625 0.148193 0.926033
O O12 0.793797 0.095728 0.863917
O O13 0.761873 0.000000 0.789556
O O14 0.750000 0.750000 0.500000
O O15 0.577026 0.785477 0.479742
O O16 0.893433 0.651778 0.307299
#
# Coordination Sequence:
#
# PCOD9222515 Si02
#       8
#     8   8   8   8   8   4   4   8
#     4  12  23  40  56  82 115 154 201 241 282 343
#     4   9  18  34  55  84 117 152 191 240 299 359
#     4  12  23  37  52  84 118 156 193 233 285 351
#     4   9  19  36  57  83 114 146 194 247 296 352
#     4  12  23  38  56  78 118 159 193 243 287 334
#     4  12  22  34  59  80 110 154 197 232 284 346
#     4  12  21  32  56  84 128 152 189 238 296 358
#     4  12  23  37  61  86 112 157 202 236 295 358
#
# _framework density 18.864135999999998
#
# number of rings (size 3 to 8) (size 9 to 14) (size 15 to 20)
#    0.000    0.857    6.429    3.214    0.000    1.143 
#    0.000    0.000    0.000    0.429    0.000    4.000 
#    0.000    0.000    0.000    0.000    0.000    0.000 
#
# Total GULP energy -156393.351193 kJ/mol
# GULP energy per Si atom -5585.476828 kJ/mol
# Density = 1.882120 g / cm^3
# Si number density = 18.864136 Si / 1000 Ang^3
#
#
#
# Elastic Constant Matrix: (Units=GPa)
#
#
# Indices 1 2 3 4 5 6 
#
# 1 39.7872 14.0595 7.6738 0.0000 -9.0820 0.0000
# 2 14.0595 126.3565 42.0764 0.0000 0.6848 0.0000
# 3 7.6738 42.0764 115.4937 0.0000 0.5571 0.0000
# 4 0.0000 0.0000 0.0000 27.6910 0.0000 -5.1759
# 5 -9.0820 0.6848 0.5571 0.0000 22.3278 0.0000
# 6 0.0000 0.0000 0.0000 -5.1759 0.0000 24.5906
#
#
#
# Elastic Compliance Matrix: (Units=1/GPa)
#
#
# Indices 1 2 3 4 5 6 
#
# 1 0.029096 -0.003004 -0.000897 0.000000 0.011949 0.000000
# 2 -0.003004 0.009318 -0.003188 0.000000 -0.001428 0.000000
# 3 -0.000897 -0.003188 0.009882 0.000000 -0.000513 0.000000
# 4 0.000000 0.000000 0.000000 0.037592 0.000000 0.007912
# 5 0.011949 -0.001428 -0.000513 0.000000 0.049704 0.000000
# 6 0.000000 0.000000 0.000000 0.007912 0.000000 0.042331
#
#
# Mechanical properties :
#
#
# Convention : Reuss Voigt Hill
#
# Bulk Modulus (GPa) = 29.30952 45.47300 37.39126
# Shear Modulus (GPa) = 24.57339 29.44374 27.00856
#
# Velocity S-wave (km/s) = 3.61314 3.95502 3.78794
# Velocity P-wave (km/s) = 5.74258 6.70926 6.24465
#
# Compressibility (1/GPa) = 0.03411861
#
# Stress axis : x y z
#
# Youngs Moduli (GPa) = 34.36946 107.32253 101.19384
#
# Poissons Ratio (x) = 0.32236 0.09073
# Poissons Ratio (y) = 0.10323 0.32262
# Poissons Ratio (z) = 0.03082 0.34216
#
# Static dielectric constant tensor:
#      x y z
#    x 1.674640 0.000000 -0.012270 
#    y 0.000000 1.679020 0.000000 
#    z -0.012270 0.000000 1.679170 
# 
# From -- ./inp_files/68344.got.cif
#   From: 2010.05.17/outbox.cif.g08.bks.cpg/sg12_35_cif.got.tgz:68344.got - 2010.06.03 13:09:07.
