data_PCOD9222867
_publ_section_title
;
Structure prediction by ZEFSAII (Michael W. Deem and Ramdas Pophale) SiO2 
 PCOD9222867
Probable space group: C 2/M
;
_chemical_formula_sum "Si O2"
_cell_formula_units_Z 48
_cell_length_a 29.020553
_cell_length_b 7.398831
_cell_length_c 11.913679
_cell_angle_alpha 90.000000
_cell_angle_beta 78.208871
_cell_angle_gamma 90.000000
_cell_volume 2504.105302
_symmetry_space_group_name_H-M "C 2/M"
_symmetry_group_IT_number 12
_symmetry_cell_setting 'monoclinic'
loop_
_space_group_symop_operation_xyz
x,y,z
-x,y,-z
-x,-y,-z
x,-y,z
1/2+x,1/2+y,z
1/2-x,1/2+y,-z
1/2-x,1/2-y,-z
1/2+x,1/2-y,z
loop_
_atom_site_type_symbol
_atom_site_label
_atom_site_fract_x
_atom_site_fract_y
_atom_site_fract_z
Si Si1 0.427825 0.279741 0.590504
Si Si2 0.044013 0.779223 0.901745
Si Si3 0.345782 0.289488 0.786192
Si Si4 0.242583 0.213013 0.871140
Si Si5 0.641741 0.721741 0.964517
Si Si6 0.525270 0.720029 0.658196
O O1 0.427122 0.500000 0.586184
O O2 0.380256 0.215395 0.673783
O O3 0.439340 0.220669 0.458109
O O4 0.472791 0.229064 0.644438
O O5 0.093532 0.722340 0.930497
O O6 0.037454 0.719344 0.776850
O O7 0.044063 0.000000 0.901607
O O8 0.000000 0.722902 0.000000
O O9 0.358103 0.500000 0.789311
O O10 0.290102 0.280526 0.789474
O O11 0.355135 0.215882 0.907124
O O12 0.189573 0.280626 0.877075
O O13 0.242348 0.000000 0.852893
O O14 0.250000 0.250000 0.000000
O O15 0.642714 0.500000 0.965500
O O16 0.525859 0.500000 0.659631
#
# Coordination Sequence:
#
# PCOD9222867 Si02
#       6
#     8   8   8   8   8   8
#     4   8  13  21  33  51  76 102 126 157 193 225
#     4   9  14  19  30  49  74 101 124 148 186 235
#     4   9  15  24  39  57  78 102 129 160 191 224
#     4   9  16  26  39  56  79 103 128 159 193 227
#     4   8  14  22  32  49  73  98 120 149 190 226
#     4   8  13  20  31  50  76 103 128 154 190 232
#
# _framework density 19.168524000000001
#
# number of rings (size 3 to 8) (size 9 to 14) (size 15 to 20)
#    0.000    3.500    0.000    3.500    0.000    4.000 
#    0.000    0.000    0.000    1.000    0.000    2.333 
#    0.000   60.667    0.000    0.000    0.000    0.667 
#
# Total GULP energy -133692.970172 kJ/mol
# GULP energy per Si atom -5570.540424 kJ/mol
# Density = 1.912490 g / cm^3
# Si number density = 19.168524 Si / 1000 Ang^3
#
#
#
# Elastic Constant Matrix: (Units=GPa)
#
#
# Indices 1 2 3 4 5 6 
#
# 1 171.9337 -2.8905 109.0545 0.0000 -27.2969 0.0000
# 2 -2.8905 59.0810 6.5342 0.0000 -0.3076 0.0000
# 3 109.0545 6.5342 143.8306 0.0000 -24.2970 0.0000
# 4 0.0000 0.0000 0.0000 -3.5083 0.0000 -5.3473
# 5 -27.2969 -0.3076 -24.2970 0.0000 37.7893 0.0000
# 6 0.0000 0.0000 0.0000 -5.3473 0.0000 3.2158
#
#
#
# Elastic Compliance Matrix: (Units=1/GPa)
#
#
# Indices 1 2 3 4 5 6 
#
# 1 0.011639 0.001512 -0.008382 0.000000 0.003031 0.000000
# 2 0.001512 0.017213 -0.001930 0.000000 -0.000008 0.000000
# 3 -0.008382 -0.001930 0.013877 0.000000 0.002852 0.000000
# 4 0.000000 0.000000 0.000000 -0.080646 0.000000 -0.134100
# 5 0.003031 -0.000008 0.002852 0.000000 0.030486 0.000000
# 6 0.000000 0.000000 0.000000 -0.134100 0.000000 0.087981
#
#
# Mechanical properties :
#
#
# Convention : Reuss Voigt Hill
#
# Bulk Modulus (GPa) = 39.79192 66.69352 53.24272
# Shear Modulus (GPa) = 46.93684 24.97585 35.95634
#
# Velocity S-wave (km/s) = 4.95374 3.61357 4.33575
# Velocity P-wave (km/s) = 7.31597 7.23044 7.27333
#
# Compressibility (1/GPa) = 0.02513073
#
# Stress axis : x y z
#
# Youngs Moduli (GPa) = 85.91690 58.09460 72.06019
#
# Poissons Ratio (x) = -0.08785 0.60399
# Poissons Ratio (y) = -0.12992 0.13908
# Poissons Ratio (z) = 0.72013 0.11212
#
# Static dielectric constant tensor:
#      x y z
#    x 1.668530 0.000000 -0.031910 
#    y 0.000000 1.768590 0.000000 
#    z -0.031910 0.000000 1.649370 
# 
# From -- ./inp_files/179196.got.cif
#   From: 2010.05.17/outbox.cif.g08.bks.cpg/sg12_90_cif.got.tgz:179196.got - 2010.06.03 13:09:07.
