data_PCOD9222689
_publ_section_title
;
Structure prediction by ZEFSAII (Michael W. Deem and Ramdas Pophale) SiO2 
 PCOD9222689
Probable space group: C 2/M
;
_chemical_formula_sum "Si O2"
_cell_formula_units_Z 40
_cell_length_a 16.486189
_cell_length_b 18.844605
_cell_length_c 8.886423
_cell_angle_alpha 90.000000
_cell_angle_beta 122.617097
_cell_angle_gamma 90.000000
_cell_volume 2325.395138
_symmetry_space_group_name_H-M "C 2/M"
_symmetry_group_IT_number 12
_symmetry_cell_setting 'monoclinic'
loop_
_space_group_symop_operation_xyz
x,y,z
-x,y,-z
-x,-y,-z
x,-y,z
1/2+x,1/2+y,z
1/2-x,1/2+y,-z
1/2-x,1/2-y,-z
1/2+x,1/2-y,z
loop_
_atom_site_type_symbol
_atom_site_label
_atom_site_fract_x
_atom_site_fract_y
_atom_site_fract_z
Si Si1 0.393498 0.000000 0.963865
Si Si2 0.397569 0.711601 0.467104
Si Si3 0.897569 0.211601 0.828035
Si Si4 0.300565 0.139433 0.368738
Si Si5 0.699435 0.860567 0.267607
Si Si6 0.106502 0.500000 0.676869
O O1 0.399936 0.000000 0.149936
O O2 0.500000 0.000000 0.000000
O O3 0.338692 0.069804 0.850801
O O4 0.500000 0.693573 0.500000
O O5 0.404358 0.709830 0.654359
O O6 0.365145 0.791735 0.393515
O O7 0.309007 0.660343 0.336183
O O8 0.809007 0.160343 0.781830
O O9 0.865145 0.291735 0.836775
O O10 0.000000 0.193573 0.000000
O O11 0.305067 0.130822 0.555067
O O12 0.338692 0.069804 0.326583
O O13 0.000000 0.500000 0.500000
#
# Coordination Sequence:
#
# PCOD9222689 Si02
#       6
#     4   8   8   8   8   4
#     4  12  24  36  53  78 105 136 171 210 256 306
#     4   9  18  33  55  79 104 135 172 212 257 304
#     4   9  18  33  55  79 104 135 172 212 257 304
#     4   9  19  36  54  76 106 138 171 211 256 304
#     4   9  19  36  54  76 106 138 171 211 256 304
#     4  12  24  36  53  78 105 136 171 210 256 306
#
# _framework density 17.201377999999998
#
# number of rings (size 3 to 8) (size 9 to 14) (size 15 to 20)
#    0.000    2.400    0.000    5.400    0.000    6.400 
#    0.000    5.000    0.000    0.000    0.000    0.000 
#    0.000    0.000    0.000    0.000    0.000    0.000 
#
# Total GULP energy -111618.940091 kJ/mol
# GULP energy per Si atom -5580.947005 kJ/mol
# Density = 1.716223 g / cm^3
# Si number density = 17.201378 Si / 1000 Ang^3
#
#
#
# Elastic Constant Matrix: (Units=GPa)
#
#
# Indices 1 2 3 4 5 6 
#
# 1 136.9882 80.3916 48.3863 0.0000 21.9606 0.0000
# 2 80.3916 142.7194 71.2692 0.0000 12.1708 0.0000
# 3 48.3863 71.2692 99.7461 0.0000 27.7263 0.0000
# 4 0.0000 0.0000 0.0000 20.1149 0.0000 -5.0497
# 5 21.9606 12.1708 27.7263 0.0000 28.3785 0.0000
# 6 0.0000 0.0000 0.0000 -5.0497 0.0000 16.3299
#
#
#
# Elastic Compliance Matrix: (Units=1/GPa)
#
#
# Indices 1 2 3 4 5 6 
#
# 1 0.012039 -0.006625 0.000952 0.000000 -0.007405 0.000000
# 2 -0.006625 0.014885 -0.009709 0.000000 0.008229 0.000000
# 3 0.000952 -0.009709 0.021345 0.000000 -0.017427 0.000000
# 4 0.000000 0.000000 0.000000 0.053899 0.000000 0.016667
# 5 -0.007405 0.008229 -0.017427 0.000000 0.054466 0.000000
# 6 0.000000 0.000000 0.000000 0.016667 0.000000 0.066391
#
#
# Mechanical properties :
#
#
# Convention : Reuss Voigt Hill
#
# Bulk Modulus (GPa) = 57.12746 86.61641 71.87194
# Shear Modulus (GPa) = 19.25860 24.92511 22.09185
#
# Velocity S-wave (km/s) = 3.34967 3.81073 3.58761
# Velocity P-wave (km/s) = 6.94575 8.35619 7.68340
#
# Compressibility (1/GPa) = 0.01750472
#
# Stress axis : x y z
#
# Youngs Moduli (GPa) = 83.06558 67.18015 46.84915
#
# Poissons Ratio (x) = 0.44508 -0.04461
# Poissons Ratio (y) = 0.55033 0.45487
# Poissons Ratio (z) = -0.07910 0.65227
#
# Static dielectric constant tensor:
#      x y z
#    x 1.574110 0.000000 0.000400 
#    y 0.000000 1.560540 0.000000 
#    z 0.000400 0.000000 1.573800 
# 
# From -- ./inp_files/74999.got.cif
#   From: 2010.05.17/outbox.cif.g08.bks.cpg/sg12_38_cif.got.tgz:74999.got - 2010.06.03 13:09:07.
