data_PCOD9222566
_publ_section_title
;
Structure prediction by ZEFSAII (Michael W. Deem and Ramdas Pophale) SiO2 
 PCOD9222566
Probable space group: C 2/M
;
_chemical_formula_sum "Si O2"
_cell_formula_units_Z 50
_cell_length_a 14.299295
_cell_length_b 7.744088
_cell_length_c 28.633828
_cell_angle_alpha 90.000000
_cell_angle_beta 133.501583
_cell_angle_gamma 90.000000
_cell_volume 2299.932749
_symmetry_space_group_name_H-M "C 2/M"
_symmetry_group_IT_number 12
_symmetry_cell_setting 'monoclinic'
loop_
_space_group_symop_operation_xyz
x,y,z
-x,y,-z
-x,-y,-z
x,-y,z
1/2+x,1/2+y,z
1/2-x,1/2+y,-z
1/2-x,1/2-y,-z
1/2+x,1/2-y,z
loop_
_atom_site_type_symbol
_atom_site_label
_atom_site_fract_x
_atom_site_fract_y
_atom_site_fract_z
Si Si1 0.102086 0.297549 0.866754
Si Si2 0.186315 0.707252 0.246813
Si Si3 0.853732 0.706899 0.497262
Si Si4 0.855564 0.291849 0.393993
Si Si5 0.579720 0.797671 0.960777
Si Si6 0.269879 0.801326 0.837546
Si Si7 0.500000 0.500000 0.000000
O O1 0.085183 0.500000 0.869844
O O2 0.961167 0.226943 0.803517
O O3 0.139547 0.233896 0.931578
O O4 0.197584 0.279149 0.856381
O O5 0.180592 0.500000 0.239462
O O6 0.263854 0.740884 0.320358
O O7 0.253445 0.774151 0.222225
O O8 0.863206 0.500000 0.497374
O O9 0.750000 0.750000 0.500000
O O10 0.816382 0.768603 0.432468
O O11 0.996506 0.769378 0.560284
O O12 0.856233 0.500000 0.394394
O O13 0.424235 0.795272 0.896668
O O14 0.609539 0.000000 0.983274
O O15 0.585716 0.652973 0.002618
O O16 0.228611 0.000000 0.823850
#
# Coordination Sequence:
#
# PCOD9222566 Si02
#       7
#     8   8   8   8   8   8   2
#     4   9  19  36  58  79 111 145 178 223 278 324
#     4   9  19  35  52  80 109 141 175 225 278 323
#     4   9  19  35  52  70 100 141 179 219 274 318
#     4   9  19  35  51  72 104 137 178 225 263 326
#     4   9  21  40  58  83 118 148 183 235 276 326
#     4   9  19  36  58  79 111 145 178 223 278 324
#     4  12  22  36  68  86 108 154 198 218 280 326
#
# _framework density 21.739767000000001
#
# number of rings (size 3 to 8) (size 9 to 14) (size 15 to 20)
#    0.000    2.880    0.000    3.120    2.240    3.840 
#    2.880    8.800    0.000    0.000    0.000    0.000 
#    0.000    0.000    0.000    0.000    0.000    0.000 
#
# Total GULP energy -139240.050507 kJ/mol
# GULP energy per Si atom -5569.602020 kJ/mol
# Density = 2.169029 g / cm^3
# Si number density = 21.739767 Si / 1000 Ang^3
#
#
#
# Elastic Constant Matrix: (Units=GPa)
#
#
# Indices 1 2 3 4 5 6 
#
# 1 137.9706 14.6283 63.0572 0.0000 -33.1200 0.0000
# 2 14.6283 64.9449 23.5865 0.0000 -5.5196 0.0000
# 3 63.0572 23.5865 161.1198 0.0000 -15.0656 0.0000
# 4 0.0000 0.0000 0.0000 15.8982 0.0000 -8.9171
# 5 -33.1200 -5.5196 -15.0656 0.0000 19.9186 0.0000
# 6 0.0000 0.0000 0.0000 -8.9171 0.0000 30.9160
#
#
#
# Elastic Compliance Matrix: (Units=1/GPa)
#
#
# Indices 1 2 3 4 5 6 
#
# 1 0.013652 -0.000117 -0.003450 0.000000 0.020058 0.000000
# 2 -0.000117 0.016422 -0.002099 0.000000 0.002768 0.000000
# 3 -0.003450 -0.002099 0.007827 0.000000 -0.000399 0.000000
# 4 0.000000 0.000000 0.000000 0.075040 0.000000 0.021644
# 5 0.020058 0.002768 -0.000399 0.000000 0.084022 0.000000
# 6 0.000000 0.000000 0.000000 0.021644 0.000000 0.038588
#
#
# Mechanical properties :
#
#
# Convention : Reuss Voigt Hill
#
# Bulk Modulus (GPa) = 37.64035 62.95326 50.29680
# Shear Modulus (GPa) = 19.55102 30.86410 25.20756
#
# Velocity S-wave (km/s) = 3.00212 3.77199 3.40886
# Velocity P-wave (km/s) = 5.41928 6.92756 6.21931
#
# Compressibility (1/GPa) = 0.02656723
#
# Stress axis : x y z
#
# Youngs Moduli (GPa) = 73.24751 60.89493 127.76387
#
# Poissons Ratio (x) = 0.00714 0.44083
# Poissons Ratio (y) = 0.00859 0.26822
# Poissons Ratio (z) = 0.25273 0.12784
#
# Static dielectric constant tensor:
#      x y z
#    x 1.827360 0.000000 -0.005550 
#    y 0.000000 1.838330 0.000000 
#    z -0.005550 0.000000 1.825300 
# 
# From -- ./inp_files/359455.got.cif
#   From: 2010.05.17/outbox.cif.g08.bks.cpg/sg12_180_cif.got.tgz:359455.got - 2010.06.03 13:09:07.
