data_PCOD9222651
_publ_section_title
;
Structure prediction by ZEFSAII (Michael W. Deem and Ramdas Pophale) SiO2 
 PCOD9222651
Probable space group: C 2/M
;
_chemical_formula_sum "Si O2"
_cell_formula_units_Z 48
_cell_length_a 14.456781
_cell_length_b 32.912096
_cell_length_c 11.093737
_cell_angle_alpha 90.000000
_cell_angle_beta 29.692758
_cell_angle_gamma 90.000000
_cell_volume 2614.665808
_symmetry_space_group_name_H-M "C 2/M"
_symmetry_group_IT_number 12
_symmetry_cell_setting 'monoclinic'
loop_
_space_group_symop_operation_xyz
x,y,z
-x,y,-z
-x,-y,-z
x,-y,z
1/2+x,1/2+y,z
1/2-x,1/2+y,-z
1/2-x,1/2-y,-z
1/2+x,1/2-y,z
loop_
_atom_site_type_symbol
_atom_site_label
_atom_site_fract_x
_atom_site_fract_y
_atom_site_fract_z
Si Si1 0.376004 0.200466 0.521488
Si Si2 0.953698 0.932843 0.195425
Si Si3 0.587857 0.659101 0.695679
Si Si4 0.743106 0.797767 0.980059
Si Si5 0.276002 0.208460 0.269731
Si Si6 0.746234 0.500000 0.903289
Si Si7 0.838803 0.500000 0.512261
O O1 0.500000 0.193178 0.500000
O O2 0.196679 0.173707 0.692432
O O3 0.307006 0.247198 0.601794
O O4 0.529024 0.191314 0.245710
O O5 0.931408 0.889070 0.278953
O O6 0.767451 0.960224 0.415577
O O7 0.000000 0.928051 0.000000
O O8 0.119213 0.960161 0.064322
O O9 0.385388 0.679511 0.906972
O O10 0.705651 0.677189 0.449927
O O11 0.795378 0.803633 0.782222
O O12 0.750000 0.750000 0.000000
O O13 0.500000 0.211939 0.000000
O O14 0.797149 0.500000 0.703163
O O15 0.940008 0.500000 0.754771
#
# Coordination Sequence:
#
# PCOD9222651 Si02
#       7
#     8   8   8   8   8   4   4
#     4  12  25  38  57  83 113 161 209 248 299 344
#     4   9  20  34  54  90 122 148 186 236 294 353
#     4  12  25  38  57  88 123 153 196 256 294 351
#     4  12  23  41  59  79 110 160 209 250 295 342
#     4  12  23  42  61  77 114 162 213 251 296 351
#     4   8  15  35  60  83 111 159 184 225 287 369
#     4   8  15  35  62  79 117 153 185 220 295 363
#
# _framework density 18.357987000000001
#
# number of rings (size 3 to 8) (size 9 to 14) (size 15 to 20)
#    0.000    1.167    5.000    3.000    2.333    1.333 
#    3.000    0.000    0.000    0.000    0.000   11.667 
#    0.000    0.000    0.000    0.000    0.000    0.000 
#
# Total GULP energy -133988.002139 kJ/mol
# GULP energy per Si atom -5582.833422 kJ/mol
# Density = 1.831620 g / cm^3
# Si number density = 18.357987 Si / 1000 Ang^3
#
#
#
# Elastic Constant Matrix: (Units=GPa)
#
#
# Indices 1 2 3 4 5 6 
#
# 1 96.4030 63.1361 46.3085 0.0000 -23.6752 0.0000
# 2 63.1361 153.6484 52.5886 0.0000 -25.4501 0.0000
# 3 46.3085 52.5886 113.4697 0.0000 -28.3662 0.0000
# 4 0.0000 0.0000 0.0000 12.2956 0.0000 3.4279
# 5 -23.6752 -25.4501 -28.3662 0.0000 43.1277 0.0000
# 6 0.0000 0.0000 0.0000 3.4279 0.0000 9.3431
#
#
#
# Elastic Compliance Matrix: (Units=1/GPa)
#
#
# Indices 1 2 3 4 5 6 
#
# 1 0.016084 -0.004828 -0.003389 0.000000 0.003752 0.000000
# 2 -0.004828 0.009444 -0.002006 0.000000 0.001604 0.000000
# 3 -0.003389 -0.002006 0.012404 0.000000 0.005115 0.000000
# 4 0.000000 0.000000 0.000000 0.090597 0.000000 -0.033239
# 5 0.003752 0.001604 0.005115 0.000000 0.029557 0.000000
# 6 0.000000 0.000000 0.000000 -0.033239 0.000000 0.119226
#
#
# Mechanical properties :
#
#
# Convention : Reuss Voigt Hill
#
# Bulk Modulus (GPa) = 57.18327 76.39864 66.79095
# Shear Modulus (GPa) = 16.46978 26.38580 21.42779
#
# Velocity S-wave (km/s) = 2.99849 3.79528 3.42016
# Velocity P-wave (km/s) = 6.57301 7.80461 7.21514
#
# Compressibility (1/GPa) = 0.01748763
#
# Stress axis : x y z
#
# Youngs Moduli (GPa) = 62.17272 105.88305 80.61816
#
# Poissons Ratio (x) = 0.51120 0.27320
# Poissons Ratio (y) = 0.30017 0.16171
# Poissons Ratio (z) = 0.21069 0.21239
#
# Static dielectric constant tensor:
#      x y z
#    x 1.689320 0.000000 0.010360 
#    y 0.000000 1.588150 0.000000 
#    z 0.010360 0.000000 1.698280 
# 
# From -- ./inp_files/149660.got.cif
#   From: 2010.05.17/outbox.cif.g08.bks.cpg/sg12_75_cif.got.tgz:149660.got - 2010.06.03 13:09:07.
