data_PCOD9222843
_publ_section_title
;
Structure prediction by ZEFSAII (Michael W. Deem and Ramdas Pophale) SiO2 
 PCOD9222843
Probable space group: C 2/M
;
_chemical_formula_sum "Si O2"
_cell_formula_units_Z 56
_cell_length_a 15.960117
_cell_length_b 7.289214
_cell_length_c 17.279633
_cell_angle_alpha 90.000000
_cell_angle_beta 80.451133
_cell_angle_gamma 90.000000
_cell_volume 1982.402477
_symmetry_space_group_name_H-M "C 2/M"
_symmetry_group_IT_number 12
_symmetry_cell_setting 'monoclinic'
loop_
_space_group_symop_operation_xyz
x,y,z
-x,y,-z
-x,-y,-z
x,-y,z
1/2+x,1/2+y,z
1/2-x,1/2+y,-z
1/2-x,1/2-y,-z
1/2+x,1/2-y,z
loop_
_atom_site_type_symbol
_atom_site_label
_atom_site_fract_x
_atom_site_fract_y
_atom_site_fract_z
Si Si1 0.438782 0.777462 0.668528
Si Si2 0.045682 0.217949 0.088661
Si Si3 0.415953 0.287786 0.229808
Si Si4 0.195119 0.280645 0.191370
Si Si5 0.824658 0.219033 0.051684
Si Si6 0.875211 0.722048 0.520985
Si Si7 0.799386 0.212977 0.375573
O O1 0.510346 0.709814 0.715727
O O2 0.348622 0.722030 0.721913
O O3 0.440585 0.722309 0.578340
O O4 0.443497 0.000000 0.669595
O O5 0.962932 0.290344 0.146900
O O6 0.121661 0.240695 0.139443
O O7 0.031760 0.000000 0.081105
O O8 0.089156 0.287889 0.002778
O O9 0.395488 0.500000 0.215560
O O10 0.337803 0.207610 0.290851
O O11 0.203201 0.500000 0.195028
O O12 0.282635 0.213175 0.138379
O O13 0.834903 0.000000 0.056591
O O14 0.750000 0.250000 0.000000
O O15 0.878310 0.500000 0.517487
O O16 0.869641 0.780205 0.433152
O O17 0.785260 0.786868 0.571764
O O18 0.780785 0.000000 0.362112
#
# Coordination Sequence:
#
# PCOD9222843 Si02
#       7
#     8   8   8   8   8   8   8
#     4   9  17  28  42  61  84 107 131 162 200 238
#     4   8  13  21  33  51  75 101 127 155 188 225
#     4   9  17  28  42  61  84 107 131 162 200 238
#     4   8  13  21  33  51  75 101 127 155 188 225
#     4   8  12  18  30  48  71  99 127 153 183 220
#     4   9  18  32  47  61  78 103 135 167 198 235
#     4   9  18  32  47  61  78 103 135 167 198 235
#
# _framework density 28.248550999999999
#
# number of rings (size 3 to 8) (size 9 to 14) (size 15 to 20)
#    0.000    3.429    0.000    0.000    0.000    1.714 
#    0.000    2.857    0.000    0.000    0.000    1.000 
#    0.000    8.000    0.000    0.000    0.000  285.857 
#
# Total GULP energy -156532.960632 kJ/mol
# GULP energy per Si atom -5590.462880 kJ/mol
# Density = 2.818426 g / cm^3
# Si number density = 28.248551 Si / 1000 Ang^3
#
#
#
# Elastic Constant Matrix: (Units=GPa)
#
#
# Indices 1 2 3 4 5 6 
#
# 1 118.8982 -2.3057 33.1163 0.0000 -4.2496 0.0000
# 2 -2.3057 127.2190 3.2355 0.0000 0.8122 0.0000
# 3 33.1163 3.2355 262.2809 0.0000 -0.7178 0.0000
# 4 0.0000 0.0000 0.0000 19.8682 0.0000 9.0954
# 5 -4.2496 0.8122 -0.7178 0.0000 69.4439 0.0000
# 6 0.0000 0.0000 0.0000 9.0954 0.0000 -4.4551
#
#
#
# Elastic Compliance Matrix: (Units=1/GPa)
#
#
# Indices 1 2 3 4 5 6 
#
# 1 0.008740 0.000183 -0.001104 0.000000 0.000521 0.000000
# 2 0.000183 0.007867 -0.000120 0.000000 -0.000082 0.000000
# 3 -0.001104 -0.000120 0.003954 0.000000 -0.000025 0.000000
# 4 0.000000 0.000000 0.000000 0.026017 0.000000 0.053115
# 5 0.000521 -0.000082 -0.000025 0.000000 0.014433 0.000000
# 6 0.000000 0.000000 0.000000 0.053115 0.000000 -0.116025
#
#
# Mechanical properties :
#
#
# Convention : Reuss Voigt Hill
#
# Bulk Modulus (GPa) = 54.11842 64.05446 59.08644
# Shear Modulus (GPa) = -106.90156 48.59486 -29.15335
#
# Velocity S-wave (km/s) = -6.15836 4.15210 -3.21601
# Velocity P-wave (km/s) = 5.60068 6.76100 2.67801
#
# Compressibility (1/GPa) = 0.01847800
#
# Stress axis : x y z
#
# Youngs Moduli (GPa) = 114.41188 127.10729 252.93604
#
# Poissons Ratio (x) = -0.02328 0.27935
# Poissons Ratio (y) = -0.02096 0.03045
# Poissons Ratio (z) = 0.12636 0.01530
#
# Static dielectric constant tensor:
#      x y z
#    x 2.285070 0.000000 -0.019890 
#    y 0.000000 1.935190 0.000000 
#    z -0.019890 0.000000 2.188070 
# 
# From -- ./inp_files/319005.got.cif
#   From: 2010.05.17/outbox.cif.g08.bks.cpg/sg12_160_cif.got.tgz:319005.got - 2010.06.03 13:09:07.
