data_PCOD9222466
_publ_section_title
;
Structure prediction by ZEFSAII (Michael W. Deem and Ramdas Pophale) SiO2 
 PCOD9222466
Probable space group: C 2/M
;
_chemical_formula_sum "Si O2"
_cell_formula_units_Z 48
_cell_length_a 20.948959
_cell_length_b 24.466274
_cell_length_c 11.980487
_cell_angle_alpha 90.000000
_cell_angle_beta 20.012707
_cell_angle_gamma 90.000000
_cell_volume 2101.459272
_symmetry_space_group_name_H-M "C 2/M"
_symmetry_group_IT_number 12
_symmetry_cell_setting 'monoclinic'
loop_
_space_group_symop_operation_xyz
x,y,z
-x,y,-z
-x,-y,-z
x,-y,z
1/2+x,1/2+y,z
1/2-x,1/2+y,-z
1/2-x,1/2-y,-z
1/2+x,1/2-y,z
loop_
_atom_site_type_symbol
_atom_site_label
_atom_site_fract_x
_atom_site_fract_y
_atom_site_fract_z
Si Si1 0.345930 0.561719 0.653096
Si Si2 0.280409 0.130399 0.356947
Si Si3 0.460461 0.901889 0.684098
Si Si4 0.344665 0.308214 0.849360
Si Si5 0.963443 0.226201 0.244542
Si Si6 0.227492 0.336511 0.396942
O O1 0.500000 0.573691 0.500000
O O2 0.387798 0.500000 0.547010
O O3 0.315853 0.599170 0.590360
O O4 0.149765 0.564483 0.041343
O O5 0.219817 0.123542 0.586600
O O6 0.235626 0.195486 0.428973
O O7 0.500000 0.118512 0.000000
O O8 0.500000 0.929404 0.500000
O O9 0.641022 0.873939 0.442031
O O10 0.313961 0.853319 0.897275
O O11 0.500000 0.313463 0.500000
O O12 0.450213 0.302860 0.790267
O O13 0.250000 0.250000 0.000000
O O14 0.934039 0.291015 0.306642
O O15 0.105824 0.201988 0.919813
#
# Coordination Sequence:
#
# PCOD9222466 Si02
#       6
#     8   8   8   8   8   8
#     4  11  27  53  83 107 133 179 242 308 373 432
#     4  12  25  46  72 102 143 188 238 293 353 425
#     4  12  23  42  68 106 146 186 235 300 357 425
#     4  12  22  35  61  98 145 192 246 294 345 408
#     4  12  24  41  64  98 156 200 245 285 337 427
#     4  12  25  40  64 106 147 203 243 280 349 422
#
# _framework density 22.841270999999999
#
# number of rings (size 3 to 8) (size 9 to 14) (size 15 to 20)
#    0.000    0.167    5.000    6.000    0.000    0.667 
#    0.000    0.000    0.000    2.000    0.000    0.000 
#    0.000    0.000    0.000    0.000    0.000    0.000 
#
# Total GULP energy -133761.838804 kJ/mol
# GULP energy per Si atom -5573.409950 kJ/mol
# Density = 2.278928 g / cm^3
# Si number density = 22.841271 Si / 1000 Ang^3
#
#
#
# Elastic Constant Matrix: (Units=GPa)
#
#
# Indices 1 2 3 4 5 6 
#
# 1 175.8586 22.0644 40.1006 0.0011 10.5522 0.0009
# 2 22.0644 79.0325 13.8678 -0.0279 0.6974 0.0008
# 3 40.1006 13.8678 88.4134 -0.0788 20.0760 -0.0042
# 4 0.0011 -0.0279 -0.0788 14.8400 0.0008 0.0911
# 5 10.5522 0.6974 20.0760 0.0008 42.8571 0.0016
# 6 0.0009 0.0008 -0.0042 0.0911 0.0016 25.6747
#
#
#
# Elastic Compliance Matrix: (Units=1/GPa)
#
#
# Indices 1 2 3 4 5 6 
#
# 1 0.006479 -0.001340 -0.002654 -0.000017 -0.000331 -0.000001
# 2 -0.001340 0.013315 -0.001686 0.000016 0.000903 -0.000001
# 3 -0.002654 -0.001686 0.014127 0.000072 -0.005937 0.000003
# 4 -0.000017 0.000016 0.000072 0.067388 -0.000031 -0.000239
# 5 -0.000331 0.000903 -0.005937 -0.000031 0.026181 -0.000002
# 6 -0.000001 -0.000001 0.000003 -0.000239 -0.000002 0.038950
#
#
# Mechanical properties :
#
#
# Convention : Reuss Voigt Hill
#
# Bulk Modulus (GPa) = 44.32223 55.04110 49.68166
# Shear Modulus (GPa) = 26.98051 34.49247 30.73649
#
# Velocity S-wave (km/s) = 3.44061 3.89021 3.67230
# Velocity P-wave (km/s) = 5.93551 6.65791 6.30707
#
# Compressibility (1/GPa) = 0.02256204
#
# Stress axis : x y z
#
# Youngs Moduli (GPa) = 154.33341 75.10301 70.78892
#
# Poissons Ratio (x) = 0.10067 0.18784
# Poissons Ratio (y) = 0.20687 0.11932
# Poissons Ratio (z) = 0.40953 0.12659
#
# Static dielectric constant tensor:
#      x y z
#    x 1.741930 -0.000030 0.020120 
#    y -0.000030 1.804860 0.000030 
#    z 0.020120 0.000030 1.917200 
# 
# From -- ./inp_files/170670.got.cif
#   From: 2010.05.17/outbox.cif.g08.bks.cpg/sg12_86_cif.got.tgz:170670.got - 2010.06.03 13:09:07.
