data_PCOD9222491
_publ_section_title
;
Structure prediction by ZEFSAII (Michael W. Deem and Ramdas Pophale) SiO2 
 PCOD9222491
Probable space group: C 2/M
;
_chemical_formula_sum "Si O2"
_cell_formula_units_Z 56
_cell_length_a 20.465975
_cell_length_b 13.989461
_cell_length_c 11.836248
_cell_angle_alpha 90.000000
_cell_angle_beta 126.197807
_cell_angle_gamma 90.000000
_cell_volume 2734.713400
_symmetry_space_group_name_H-M "C 2/M"
_symmetry_group_IT_number 12
_symmetry_cell_setting 'monoclinic'
loop_
_space_group_symop_operation_xyz
x,y,z
-x,y,-z
-x,-y,-z
x,-y,z
1/2+x,1/2+y,z
1/2-x,1/2+y,-z
1/2-x,1/2-y,-z
1/2+x,1/2-y,z
loop_
_atom_site_type_symbol
_atom_site_label
_atom_site_fract_x
_atom_site_fract_y
_atom_site_fract_z
Si Si1 0.092632 0.885119 0.198570
Si Si2 0.347799 0.388916 0.972523
Si Si3 0.790976 0.114291 0.353325
Si Si4 0.227376 0.385109 0.518861
Si Si5 0.134368 0.791989 0.772294
Si Si6 0.165531 0.391281 0.687634
Si Si7 0.470368 0.386323 0.636395
O O1 0.095113 0.853189 0.071688
O O2 0.182321 0.869916 0.341374
O O3 0.034092 0.850729 0.237942
O O4 0.081764 0.000000 0.180559
O O5 0.369131 0.500000 0.024787
O O6 0.258333 0.394194 0.826442
O O7 0.345995 0.322603 0.080166
O O8 0.730378 0.148859 0.391570
O O9 0.794959 0.168138 0.238449
O O10 0.881856 0.128530 0.494194
O O11 0.779341 0.000000 0.325158
O O12 0.216818 0.500000 0.501930
O O13 0.168247 0.353739 0.559936
O O14 0.123535 0.681864 0.728908
O O15 0.048572 0.841739 0.660106
O O16 0.134731 0.500000 0.657583
O O17 0.481913 0.500000 0.647200
#
# Coordination Sequence:
#
# PCOD9222491 Si02
#       7
#     8   8   8   8   8   8   8
#     4   7  12  25  44  62  85 116 140 162 202 259
#     4   9  17  30  46  66  90 112 138 175 217 258
#     4   9  17  29  45  67  94 115 132 166 220 272
#     4   7  12  27  47  60  77 113 149 172 204 250
#     4  12  20  25  42  69  93 115 141 171 214 261
#     4   9  19  34  46  57  82 119 155 185 206 235
#     4   9  17  29  44  66  95 119 136 162 210 269
#
# _framework density 20.477464999999999
#
# number of rings (size 3 to 8) (size 9 to 14) (size 15 to 20)
#    0.000    3.143    0.000    5.571    0.000    2.286 
#    0.000    2.143    0.000    1.714    0.000    2.000 
#    0.000   10.286    0.000    0.000    0.000    0.000 
#
# Total GULP energy -156047.552262 kJ/mol
# GULP energy per Si atom -5573.126867 kJ/mol
# Density = 2.043086 g / cm^3
# Si number density = 20.477465 Si / 1000 Ang^3
#
#
#
# Elastic Constant Matrix: (Units=GPa)
#
#
# Indices 1 2 3 4 5 6 
#
# 1 54.2646 33.6239 22.8620 0.0000 -39.5820 0.0000
# 2 33.6239 60.9597 25.9804 0.0000 -31.2576 0.0000
# 3 22.8620 25.9804 54.0254 0.0000 -41.2642 0.0000
# 4 0.0000 0.0000 0.0000 25.5000 0.0000 -9.1041
# 5 -39.5820 -31.2576 -41.2642 0.0000 47.0077 0.0000
# 6 0.0000 0.0000 0.0000 -9.1041 0.0000 11.8233
#
#
#
# Elastic Compliance Matrix: (Units=1/GPa)
#
#
# Indices 1 2 3 4 5 6 
#
# 1 0.083320 -0.013168 0.054540 0.000000 0.109278 0.000000
# 2 -0.013168 0.027047 -0.006575 0.000000 0.001125 0.000000
# 3 0.054540 -0.006575 0.092039 0.000000 0.122346 0.000000
# 4 0.000000 0.000000 0.000000 0.054084 0.000000 0.041646
# 5 0.109278 0.001125 0.122346 0.000000 0.221434 0.000000
# 6 0.000000 0.000000 0.000000 0.041646 0.000000 0.116647
#
#
# Mechanical properties :
#
#
# Convention : Reuss Voigt Hill
#
# Bulk Modulus (GPa) = 3.67649 37.13134 20.40392
# Shear Modulus (GPa) = 8.12158 22.65176 15.38667
#
# Velocity S-wave (km/s) = 1.99367 3.32954 2.74413
# Velocity P-wave (km/s) = 2.66438 5.74049 4.47505
#
# Compressibility (1/GPa) = 0.27199854
#
# Stress axis : x y z
#
# Youngs Moduli (GPa) = 12.00194 36.97335 10.86493
#
# Poissons Ratio (x) = 0.48688 -0.59257
# Poissons Ratio (y) = 0.15805 0.07144
# Poissons Ratio (z) = -0.65458 0.24310
#
# Static dielectric constant tensor:
#      x y z
#    x 1.759280 0.000000 -0.037510 
#    y 0.000000 1.742770 0.000000 
#    z -0.037510 0.000000 1.813260 
# 
# From -- ./inp_files/166786.got.cif
#   From: 2010.05.17/outbox.cif.g08.bks.cpg/sg12_84_cif.got.tgz:166786.got - 2010.06.03 13:09:07.
