data_PCOD9222665
_publ_section_title
;
Structure prediction by ZEFSAII (Michael W. Deem and Ramdas Pophale) SiO2 
 PCOD9222665
Probable space group: C 2/M
;
_chemical_formula_sum "Si O2"
_cell_formula_units_Z 34
_cell_length_a 16.956777
_cell_length_b 20.090565
_cell_length_c 4.894355
_cell_angle_alpha 90.000000
_cell_angle_beta 81.046451
_cell_angle_gamma 90.000000
_cell_volume 1647.048821
_symmetry_space_group_name_H-M "C 2/M"
_symmetry_group_IT_number 12
_symmetry_cell_setting 'monoclinic'
loop_
_space_group_symop_operation_xyz
x,y,z
-x,y,-z
-x,-y,-z
x,-y,z
1/2+x,1/2+y,z
1/2-x,1/2+y,-z
1/2-x,1/2-y,-z
1/2+x,1/2-y,z
loop_
_atom_site_type_symbol
_atom_site_label
_atom_site_fract_x
_atom_site_fract_y
_atom_site_fract_z
Si Si1 0.323063 0.198476 0.945778
Si Si2 0.218771 0.924529 0.041790
Si Si3 0.608322 0.602785 0.600670
Si Si4 0.081986 0.260530 0.602029
Si Si5 0.500000 0.500000 0.000000
O O1 0.287605 0.128282 0.059450
O O2 0.396062 0.220303 0.100956
O O3 0.250000 0.250000 0.000000
O O4 0.351310 0.204150 0.619842
O O5 0.144202 0.920310 0.291707
O O6 0.247516 0.000000 0.026682
O O7 0.181991 0.905895 0.769478
O O8 0.587196 0.680273 0.586959
O O9 0.539730 0.558081 0.774829
O O10 0.000000 0.280221 0.500000
#
# Coordination Sequence:
#
# PCOD9222665 Si02
#       5
#     8   8   8   8   2
#     4  12  23  43  71  94 130 175 234 281 324 393
#     4  12  24  43  64  97 129 173 230 274 327 387
#     4  12  25  39  63  93 138 183 215 254 319 418
#     4  12  26  42  66  99 134 175 223 280 339 389
#     4  12  28  38  60  98 152 182 200 242 336 430
#
# _framework density 20.642983000000001
#
# number of rings (size 3 to 8) (size 9 to 14) (size 15 to 20)
#    0.000    0.000    7.059    2.824    6.588    0.941 
#    0.000    0.000    0.000    4.235    0.000    0.000 
#    0.000    0.000    0.000    0.000    0.000    0.000 
#
# Total GULP energy -94832.459416 kJ/mol
# GULP energy per Si atom -5578.379966 kJ/mol
# Density = 2.059600 g / cm^3
# Si number density = 20.642983 Si / 1000 Ang^3
#
#
#
# Elastic Constant Matrix: (Units=GPa)
#
#
# Indices 1 2 3 4 5 6 
#
# 1 61.5097 51.8010 3.4242 0.0000 5.3172 0.0000
# 2 51.8010 113.9375 15.8585 0.0000 -7.1486 0.0000
# 3 3.4242 15.8585 83.7758 0.0000 -2.8698 0.0000
# 4 0.0000 0.0000 0.0000 -5.0029 0.0000 -39.2970
# 5 5.3172 -7.1486 -2.8698 0.0000 45.4734 0.0000
# 6 0.0000 0.0000 0.0000 -39.2970 0.0000 -16.1734
#
#
#
# Elastic Compliance Matrix: (Units=1/GPa)
#
#
# Indices 1 2 3 4 5 6 
#
# 1 0.027636 -0.013053 0.001163 0.000000 -0.005210 0.000000
# 2 -0.013053 0.015259 -0.002225 0.000000 0.003785 0.000000
# 3 0.001163 -0.002225 0.012320 0.000000 0.000292 0.000000
# 4 0.000000 0.000000 0.000000 0.011052 0.000000 -0.026854
# 5 -0.005210 0.003785 0.000292 0.000000 0.023213 0.000000
# 6 0.000000 0.000000 0.000000 -0.026854 0.000000 0.003419
#
#
# Mechanical properties :
#
#
# Convention : Reuss Voigt Hill
#
# Bulk Modulus (GPa) = 37.05939 44.59892 40.82915
# Shear Modulus (GPa) = 38.42431 17.40205 27.91318
#
# Velocity S-wave (km/s) = 4.31904 2.90660 3.68120
# Velocity P-wave (km/s) = 6.54704 5.73726 6.15548
#
# Compressibility (1/GPa) = 0.02698372
#
# Stress axis : x y z
#
# Youngs Moduli (GPa) = 36.18422 65.53690 81.16684
#
# Poissons Ratio (x) = 0.85548 -0.09439
# Poissons Ratio (y) = 0.47233 0.18061
# Poissons Ratio (z) = -0.04208 0.14583
#
# Static dielectric constant tensor:
#      x y z
#    x 1.813740 0.000000 0.045610 
#    y 0.000000 1.698480 0.000000 
#    z 0.045610 0.000000 1.764570 
# 
# From -- ./inp_files/10802.got.cif
#   From: 2010.05.17/outbox.cif.g08.bks.cpg/sg12_6_cif.got.tgz:10802.got - 2010.06.03 13:09:07.
