data_PCOD9222020
_publ_section_title
;
Structure prediction by ZEFSAII (Michael W. Deem and Ramdas Pophale) SiO2 
 PCOD9222020
Probable space group: C 2/M
;
_chemical_formula_sum "Si O2"
_cell_formula_units_Z 48
_cell_length_a 9.470985
_cell_length_b 15.916565
_cell_length_c 31.014408
_cell_angle_alpha 90.000000
_cell_angle_beta 32.034055
_cell_angle_gamma 90.000000
_cell_volume 2479.879193
_symmetry_space_group_name_H-M "C 2/M"
_symmetry_group_IT_number 12
_symmetry_cell_setting 'monoclinic'
loop_
_space_group_symop_operation_xyz
x,y,z
-x,y,-z
-x,-y,-z
x,-y,z
1/2+x,1/2+y,z
1/2-x,1/2+y,-z
1/2-x,1/2-y,-z
1/2+x,1/2-y,z
loop_
_atom_site_type_symbol
_atom_site_label
_atom_site_fract_x
_atom_site_fract_y
_atom_site_fract_z
Si Si1 0.079783 0.767786 0.797506
Si Si2 0.367881 0.094596 0.079947
Si Si3 0.723196 0.184200 0.046759
Si Si4 0.399744 0.594973 0.430682
Si Si5 0.301185 0.904743 0.616239
Si Si6 0.862012 0.724160 0.310644
O O1 0.070925 0.711687 0.757015
O O2 0.381399 0.796496 0.727230
O O3 0.870789 0.843106 0.847526
O O4 0.984637 0.718061 0.864338
O O5 0.595124 0.103881 0.057092
O O6 0.271637 0.000000 0.101049
O O7 0.500000 0.119053 0.000000
O O8 0.750000 0.250000 0.000000
O O9 0.000000 0.172324 0.000000
O O10 0.502628 0.500000 0.411589
O O11 0.323291 0.601013 0.399729
O O12 0.610808 0.666572 0.387331
O O13 0.119965 0.603197 0.528020
O O14 0.198674 0.823611 0.668182
O O15 0.242845 0.000000 0.647541
#
# Coordination Sequence:
#
# PCOD9222020 Si02
#       6
#     8   8   8   8   8   8
#     4  12  23  37  60  90 120 162 192 244 308 364
#     4  11  24  42  63  90 121 156 202 255 307 362
#     4  12  20  40  68  86 115 160 207 246 290 365
#     4   9  19  38  62  87 117 162 210 250 293 360
#     4   9  19  38  62  86 120 163 205 248 300 361
#     4  12  22  37  60  93 124 157 205 246 312 363
#
# _framework density 19.355781
#
# number of rings (size 3 to 8) (size 9 to 14) (size 15 to 20)
#    0.000    1.167    6.667    1.500    0.000    1.667 
#    0.000    0.833    0.000    2.000    0.000    0.000 
#    0.000    0.000    0.000    0.000    0.000    0.000 
#
# Total GULP energy -133971.779643 kJ/mol
# GULP energy per Si atom -5582.157485 kJ/mol
# Density = 1.931173 g / cm^3
# Si number density = 19.355781 Si / 1000 Ang^3
#
#
#
# Elastic Constant Matrix: (Units=GPa)
#
#
# Indices 1 2 3 4 5 6 
#
# 1 89.1525 16.4051 17.6928 -0.0166 -22.9976 0.0097
# 2 16.4051 80.3237 29.7259 -0.0006 -14.0859 -0.0004
# 3 17.6928 29.7259 50.3376 -0.0096 -15.5931 0.0123
# 4 -0.0166 -0.0006 -0.0096 20.7046 0.0189 2.9182
# 5 -22.9976 -14.0859 -15.5931 0.0189 42.4148 -0.0213
# 6 0.0097 -0.0004 0.0123 2.9182 -0.0213 16.1201
#
#
#
# Elastic Compliance Matrix: (Units=1/GPa)
#
#
# Indices 1 2 3 4 5 6 
#
# 1 0.013414 -0.000795 -0.002340 0.000004 0.006148 0.000001
# 2 -0.000795 0.016141 -0.008718 -0.000007 0.001724 0.000011
# 3 -0.002340 -0.008718 0.027702 0.000007 0.006020 -0.000013
# 4 0.000004 -0.000007 0.000007 0.049563 -0.000024 -0.008972
# 5 0.006148 0.001724 0.006020 -0.000024 0.029696 0.000035
# 6 0.000001 0.000011 -0.000013 -0.008972 0.000035 0.063659
#
#
# Mechanical properties :
#
#
# Convention : Reuss Voigt Hill
#
# Bulk Modulus (GPa) = 29.80761 38.60682 34.20722
# Shear Modulus (GPa) = 21.27082 26.24722 23.75902
#
# Velocity S-wave (km/s) = 3.31862 3.68644 3.50736
# Velocity P-wave (km/s) = 5.48795 6.17325 5.84066
#
# Compressibility (1/GPa) = 0.03354848
#
# Stress axis : x y z
#
# Youngs Moduli (GPa) = 74.55140 61.95513 36.09910
#
# Poissons Ratio (x) = 0.04927 0.08449
# Poissons Ratio (y) = 0.05928 0.31471
# Poissons Ratio (z) = 0.17448 0.54013
#
# Static dielectric constant tensor:
#      x y z
#    x 1.685150 0.000000 0.003160 
#    y 0.000000 1.672120 -0.000010 
#    z 0.003160 -0.000010 1.680100 
# 
# From -- ./inp_files/372846.got.cif
#   From: 2010.05.17/outbox.cif.g08.bks.cpg/sg12_187_cif.got.tgz:372846.got - 2010.06.03 13:09:07.
