data_PCOD9222972
_publ_section_title
;
Structure prediction by ZEFSAII (Michael W. Deem and Ramdas Pophale) SiO2 
 PCOD9222972
Probable space group: C 2/M
;
_chemical_formula_sum "Si O2"
_cell_formula_units_Z 56
_cell_length_a 28.935436
_cell_length_b 7.631081
_cell_length_c 14.195366
_cell_angle_alpha 90.000000
_cell_angle_beta 56.284949
_cell_angle_gamma 90.000000
_cell_volume 2607.269714
_symmetry_space_group_name_H-M "C 2/M"
_symmetry_group_IT_number 12
_symmetry_cell_setting 'monoclinic'
loop_
_space_group_symop_operation_xyz
x,y,z
-x,y,-z
-x,-y,-z
x,-y,z
1/2+x,1/2+y,z
1/2-x,1/2+y,-z
1/2-x,1/2-y,-z
1/2+x,1/2-y,z
loop_
_atom_site_type_symbol
_atom_site_label
_atom_site_fract_x
_atom_site_fract_y
_atom_site_fract_z
Si Si1 0.186426 0.709776 0.044387
Si Si2 0.963563 0.711270 0.259791
Si Si3 0.157061 0.710411 0.276938
Si Si4 0.449663 0.214508 0.489449
Si Si5 0.783171 0.712164 0.190245
Si Si6 0.448375 0.303489 0.986003
Si Si7 0.368764 0.196555 0.228156
O O1 0.178026 0.500000 0.049279
O O2 0.152861 0.776720 0.173219
O O3 0.250000 0.750000 0.000000
O O4 0.183851 0.777392 0.940651
O O5 0.960084 0.500000 0.261133
O O6 0.958476 0.772511 0.372307
O O7 0.911437 0.778247 0.255232
O O8 0.022652 0.753996 0.144591
O O9 0.151841 0.500000 0.277267
O O10 0.108165 0.774404 0.399407
O O11 0.218449 0.746678 0.247907
O O12 0.500000 0.267159 0.500000
O O13 0.449172 0.000000 0.487661
O O14 0.787083 0.500000 0.187515
O O15 0.811722 0.778613 0.254099
O O16 0.426539 0.500000 0.005671
O O17 0.500000 0.301193 0.000000
O O18 0.404035 0.187568 0.090771
O O19 0.356457 0.000000 0.276403
#
# Coordination Sequence:
#
# PCOD9222972 Si02
#       7
#     8   8   8   8   8   8   8
#     4   8  14  25  42  63  87 115 146 183 226 270
#     4   9  17  31  50  70  95 126 160 198 235 276
#     4   9  17  30  47  67  91 119 155 197 235 273
#     4   9  18  32  51  72  91 119 162 205 240 277
#     4   9  17  29  46  69  96 124 152 185 231 285
#     4   9  17  29  46  69  97 126 155 190 233 278
#     4   9  17  29  47  72  99 127 158 190 230 283
#
# _framework density 21.478406
#
# number of rings (size 3 to 8) (size 9 to 14) (size 15 to 20)
#    0.000    3.143    0.000    0.429    0.000    3.429 
#    0.000    5.714    0.000    6.857    0.000    0.000 
#    0.000    0.000    0.000    0.000    0.000    0.000 
#
# Total GULP energy -155944.240627 kJ/mol
# GULP energy per Si atom -5569.437165 kJ/mol
# Density = 2.142952 g / cm^3
# Si number density = 21.478406 Si / 1000 Ang^3
#
#
#
# Elastic Constant Matrix: (Units=GPa)
#
#
# Indices 1 2 3 4 5 6 
#
# 1 108.2776 -0.9760 42.8983 0.0000 18.0749 0.0000
# 2 -0.9760 49.5068 2.0978 -0.0001 -0.7276 -0.0003
# 3 42.8983 2.0978 132.0608 0.0000 14.9036 0.0000
# 4 0.0000 -0.0001 0.0000 27.6450 0.0000 4.7157
# 5 18.0749 -0.7276 14.9036 0.0000 25.4770 0.0000
# 6 0.0000 -0.0003 0.0000 4.7157 0.0000 17.9845
#
#
#
# Elastic Compliance Matrix: (Units=1/GPa)
#
#
# Indices 1 2 3 4 5 6 
#
# 1 0.011500 0.000261 -0.003019 0.000000 -0.006385 0.000000
# 2 0.000261 0.020235 -0.000482 0.000000 0.000675 0.000000
# 3 -0.003019 -0.000482 0.008909 0.000000 -0.003083 0.000000
# 4 0.000000 0.000000 0.000000 0.037867 0.000000 -0.009929
# 5 -0.006385 0.000675 -0.003083 0.000000 0.045604 0.000000
# 6 0.000000 0.000000 0.000000 -0.009929 0.000000 0.058207
#
#
# Mechanical properties :
#
#
# Convention : Reuss Voigt Hill
#
# Bulk Modulus (GPa) = 29.27239 41.98728 35.62984
# Shear Modulus (GPa) = 24.97632 30.60963 27.79298
#
# Velocity S-wave (km/s) = 3.41377 3.77919 3.60112
# Velocity P-wave (km/s) = 5.40340 6.21563 5.82370
#
# Compressibility (1/GPa) = 0.03416188
#
# Stress axis : x y z
#
# Youngs Moduli (GPa) = 86.95735 49.41999 112.25083
#
# Poissons Ratio (x) = -0.01289 0.33890
# Poissons Ratio (y) = -0.02268 0.05414
# Poissons Ratio (z) = 0.26254 0.02384
#
# Static dielectric constant tensor:
#      x y z
#    x 1.810930 0.000000 0.015260 
#    y 0.000000 1.822060 0.000000 
#    z 0.015260 0.000000 1.771390 
# 
# From -- ./inp_files/248888.got.cif
#   From: 2010.05.17/outbox.cif.g08.bks.cpg/sg12_125_cif.got.tgz:248888.got - 2010.06.03 13:09:07.
