data_PCOD9222367
_publ_section_title
;
Structure prediction by ZEFSAII (Michael W. Deem and Ramdas Pophale) SiO2 
 PCOD9222367
Probable space group: C 2/M
;
_chemical_formula_sum "Si O2"
_cell_formula_units_Z 40
_cell_length_a 14.726521
_cell_length_b 8.847913
_cell_length_c 13.778219
_cell_angle_alpha 90.000000
_cell_angle_beta 79.336377
_cell_angle_gamma 90.000000
_cell_volume 1764.284072
_symmetry_space_group_name_H-M "C 2/M"
_symmetry_group_IT_number 12
_symmetry_cell_setting 'monoclinic'
loop_
_space_group_symop_operation_xyz
x,y,z
-x,y,-z
-x,-y,-z
x,-y,z
1/2+x,1/2+y,z
1/2-x,1/2+y,-z
1/2-x,1/2-y,-z
1/2+x,1/2-y,z
loop_
_atom_site_type_symbol
_atom_site_label
_atom_site_fract_x
_atom_site_fract_y
_atom_site_fract_z
Si Si1 0.130643 0.176156 0.780152
Si Si2 0.885762 0.323281 0.415426
Si Si3 0.540741 0.173252 0.099631
Si Si4 0.299044 0.677380 0.837468
Si Si5 0.109546 0.677508 0.367959
O O1 0.151493 0.225463 0.665843
O O2 0.194986 0.268976 0.840699
O O3 0.025748 0.221703 0.823537
O O4 0.145753 0.000000 0.790585
O O5 0.861307 0.500000 0.406211
O O6 0.859352 0.276603 0.529765
O O7 0.997927 0.314487 0.389345
O O8 0.644298 0.232535 0.092183
O O9 0.535187 0.000000 0.135718
O O10 0.500000 0.179254 0.000000
O O11 0.303768 0.500000 0.853888
O O12 0.348511 0.724153 0.726199
O O13 0.133865 0.500000 0.348710
#
# Coordination Sequence:
#
# PCOD9222367 Si02
#       5
#     8   8   8   8   8
#     4  12  25  41  65  96 130 169 211 259 311 373
#     4   9  18  35  61  91 127 170 212 257 309 367
#     4  11  25  47  72  95 124 161 203 260 324 381
#     4  12  25  41  65  96 130 169 211 259 311 373
#     4   9  18  35  61  91 127 170 212 257 309 367
#
# _framework density 22.672086
#
# number of rings (size 3 to 8) (size 9 to 14) (size 15 to 20)
#    0.000    1.400    2.000    5.400    0.000    4.000 
#    0.000    2.000    0.000    0.000    0.000    0.000 
#    0.000    0.000    0.000    0.000    0.000    0.000 
#
# Total GULP energy -111978.944361 kJ/mol
# GULP energy per Si atom -5598.947218 kJ/mol
# Density = 2.262048 g / cm^3
# Si number density = 22.672086 Si / 1000 Ang^3
#
#
#
# Elastic Constant Matrix: (Units=GPa)
#
#
# Indices 1 2 3 4 5 6 
#
# 1 69.9799 -4.5433 2.0312 0.0000 18.9538 0.0000
# 2 -4.5433 73.5886 9.2774 0.0000 11.0701 0.0000
# 3 2.0312 9.2774 70.5225 0.0000 19.2165 0.0000
# 4 0.0000 0.0000 0.0000 27.3445 0.0000 6.2624
# 5 18.9538 11.0701 19.2165 0.0000 36.9987 0.0000
# 6 0.0000 0.0000 0.0000 6.2624 0.0000 30.5135
#
#
#
# Elastic Compliance Matrix: (Units=1/GPa)
#
#
# Indices 1 2 3 4 5 6 
#
# 1 0.017270 0.002405 0.002089 0.000000 -0.010652 0.000000
# 2 0.002405 0.014606 -0.000541 0.000000 -0.005322 0.000000
# 3 0.002089 -0.000541 0.016819 0.000000 -0.009643 0.000000
# 4 0.000000 0.000000 0.000000 0.038374 0.000000 -0.007876
# 5 -0.010652 -0.005322 -0.009643 0.000000 0.039086 0.000000
# 6 0.000000 0.000000 0.000000 -0.007876 0.000000 0.034389
#
#
# Mechanical properties :
#
#
# Convention : Reuss Voigt Hill
#
# Bulk Modulus (GPa) = 17.66732 25.29128 21.47930
# Shear Modulus (GPa) = 29.15378 32.79305 30.97342
#
# Velocity S-wave (km/s) = 3.58982 3.80729 3.70015
# Velocity P-wave (km/s) = 4.99919 5.52329 5.26776
#
# Compressibility (1/GPa) = 0.05660166
#
# Stress axis : x y z
#
# Youngs Moduli (GPa) = 57.90270 68.46371 59.45812
#
# Poissons Ratio (x) = -0.16468 -0.12419
# Poissons Ratio (y) = -0.13927 0.03215
# Poissons Ratio (z) = -0.12094 0.03702
#
# Static dielectric constant tensor:
#      x y z
#    x 1.851800 0.000000 -0.002360 
#    y 0.000000 1.748440 0.000000 
#    z -0.002360 0.000000 1.855630 
# 
# From -- ./inp_files/211357.got.cif
#   From: 2010.05.17/outbox.cif.g08.bks.cpg/sg12_106_cif.got.tgz:211357.got - 2010.06.03 13:09:07.
