data_PCOD9222085
_publ_section_title
;
Structure prediction by ZEFSAII (Michael W. Deem and Ramdas Pophale) SiO2 
 PCOD9222085
Probable space group: C 2/M
;
_chemical_formula_sum "Si O2"
_cell_formula_units_Z 56
_cell_length_a 8.924956
_cell_length_b 17.855606
_cell_length_c 29.195979
_cell_angle_alpha 90.000000
_cell_angle_beta 139.838366
_cell_angle_gamma 90.000000
_cell_volume 3000.731507
_symmetry_space_group_name_H-M "C 2/M"
_symmetry_group_IT_number 12
_symmetry_cell_setting 'monoclinic'
loop_
_space_group_symop_operation_xyz
x,y,z
-x,y,-z
-x,-y,-z
x,-y,z
1/2+x,1/2+y,z
1/2-x,1/2+y,-z
1/2-x,1/2-y,-z
1/2+x,1/2-y,z
loop_
_atom_site_type_symbol
_atom_site_label
_atom_site_fract_x
_atom_site_fract_y
_atom_site_fract_z
Si Si1 0.607771 0.410385 0.071774
Si Si2 0.660406 0.167793 0.635711
Si Si3 0.643746 0.590180 0.228978
Si Si4 0.481850 0.332207 0.364289
Si Si5 0.675360 0.410356 0.500000
Si Si6 0.998858 0.409820 0.771023
Si Si7 0.751100 0.089615 0.071774
O O1 0.640068 0.500000 0.072417
O O2 0.419093 0.401423 0.067637
O O3 0.851242 0.383436 0.149895
O O4 0.500000 0.378714 0.000000
O O5 0.790346 0.128914 0.708567
O O6 0.581898 0.250000 0.632759
O O7 0.828806 0.171595 0.631522
O O8 0.429468 0.121511 0.569676
O O9 0.634733 0.500000 0.232638
O O10 0.398233 0.616564 0.149895
O O11 0.842408 0.604851 0.236963
O O12 0.581085 0.378490 0.430323
O O13 0.247510 0.371086 0.291433
O O14 0.500000 0.388128 0.500000
O O15 0.682775 0.500000 0.500000
O O16 0.971542 0.500000 0.767362
O O17 0.722020 0.000000 0.072418
O O18 0.500000 0.121286 0.000000
#
# Coordination Sequence:
#
# PCOD9222085 Si02
#       7
#     8   8   8   8   8   8   8
#     4   8  14  25  44  72 106 142 179 222 271 322
#     4  12  25  40  59  83 113 147 185 227 271 323
#     4   9  18  34  55  80 112 148 185 227 277 329
#     4  12  25  40  59  83 113 147 185 227 271 323
#     4  11  24  43  66  89 115 145 176 217 270 323
#     4   9  18  34  55  80 112 148 185 227 277 329
#     4   8  14  25  44  72 106 142 179 222 271 322
#
# _framework density 18.662116999999999
#
# number of rings (size 3 to 8) (size 9 to 14) (size 15 to 20)
#    0.000    2.143    0.000    6.000    0.000    6.286 
#    0.000    2.857    0.000    0.857    0.000    6.000 
#    0.000    0.000    0.000    0.000    0.000    0.000 
#
# Total GULP energy -156273.069217 kJ/mol
# GULP energy per Si atom -5581.181043 kJ/mol
# Density = 1.861964 g / cm^3
# Si number density = 18.662117 Si / 1000 Ang^3
#
#
#
# Elastic Constant Matrix: (Units=GPa)
#
#
# Indices 1 2 3 4 5 6 
#
# 1 114.6497 42.5570 87.4203 0.0000 1.4750 0.0000
# 2 42.5570 43.2247 47.0072 0.0000 0.2235 0.0000
# 3 87.4203 47.0072 208.1009 -0.0002 3.2098 -0.0001
# 4 0.0000 0.0000 -0.0002 -26.9524 -0.0002 -2.5633
# 5 1.4750 0.2235 3.2098 -0.0002 28.4126 0.0000
# 6 0.0000 0.0000 -0.0001 -2.5633 0.0000 24.2009
#
#
#
# Elastic Compliance Matrix: (Units=1/GPa)
#
#
# Indices 1 2 3 4 5 6 
#
# 1 0.016139 -0.011294 -0.004224 0.000000 -0.000272 0.000000
# 2 -0.011294 0.038581 -0.003982 0.000000 0.000733 0.000000
# 3 -0.004224 -0.003982 0.007489 0.000000 -0.000595 0.000000
# 4 0.000000 0.000000 0.000000 -0.036732 0.000000 -0.003891
# 5 -0.000272 0.000733 -0.000595 0.000000 0.035271 0.000000
# 6 0.000000 0.000000 0.000000 -0.003891 0.000000 0.040909
#
#
# Mechanical properties :
#
#
# Convention : Reuss Voigt Hill
#
# Bulk Modulus (GPa) = 43.08862 79.99381 61.54121
# Shear Modulus (GPa) = 33.69419 17.73160 25.71289
#
# Velocity S-wave (km/s) = 4.25371 3.08578 3.71592
# Velocity P-wave (km/s) = 6.87491 7.46012 7.17348
#
# Compressibility (1/GPa) = 0.02320799
#
# Stress axis : x y z
#
# Youngs Moduli (GPa) = 61.96077 25.91936 133.53716
#
# Poissons Ratio (x) = 0.29275 0.56412
# Poissons Ratio (y) = 0.69981 0.53169
# Poissons Ratio (z) = 0.26175 0.10320
#
# Static dielectric constant tensor:
#      x y z
#    x 1.621630 0.000000 0.002160 
#    y 0.000000 1.625930 0.000000 
#    z 0.002160 0.000000 1.664810 
# 
# From -- ./inp_files/356757.got.cif
#   From: 2010.05.17/outbox.cif.g08.bks.cpg/sg12_179_cif.got.tgz:356757.got - 2010.06.03 13:09:07.
