data_PCOD9222908
_publ_section_title
;
Structure prediction by ZEFSAII (Michael W. Deem and Ramdas Pophale) SiO2 
 PCOD9222908
Probable space group: C 2/M
;
_chemical_formula_sum "Si O2"
_cell_formula_units_Z 64
_cell_length_a 24.318460
_cell_length_b 7.418661
_cell_length_c 23.770395
_cell_angle_alpha 90.000000
_cell_angle_beta 144.149626
_cell_angle_gamma 90.000000
_cell_volume 2511.605153
_symmetry_space_group_name_H-M "C 2/M"
_symmetry_group_IT_number 12
_symmetry_cell_setting 'monoclinic'
loop_
_space_group_symop_operation_xyz
x,y,z
-x,y,-z
-x,-y,-z
x,-y,z
1/2+x,1/2+y,z
1/2-x,1/2+y,-z
1/2-x,1/2-y,-z
1/2+x,1/2-y,z
loop_
_atom_site_type_symbol
_atom_site_label
_atom_site_fract_x
_atom_site_fract_y
_atom_site_fract_z
Si Si1 0.009595 0.704737 0.946961
Si Si2 0.503844 0.780545 0.567829
Si Si3 0.789932 0.794878 0.225211
Si Si4 0.557454 0.289086 0.868107
Si Si5 0.425783 0.783794 0.613239
Si Si6 0.641983 0.286003 0.830918
Si Si7 0.346896 0.793054 0.658147
Si Si8 0.705858 0.208566 0.269096
O O1 0.041399 0.500000 0.982867
O O2 0.071345 0.772386 0.946274
O O3 0.903962 0.704781 0.836626
O O4 0.000000 0.794267 0.000000
O O5 0.500000 0.726566 0.500000
O O6 0.600204 0.701208 0.670245
O O7 0.424287 0.724752 0.546871
O O8 0.508675 0.000000 0.573516
O O9 0.791178 0.712119 0.163357
O O10 0.749627 0.707827 0.248877
O O11 0.751774 0.000000 0.191090
O O12 0.545174 0.500000 0.845919
O O13 0.637680 0.220252 0.891989
O O14 0.456971 0.202910 0.768786
O O15 0.532865 0.744794 0.721997
O O16 0.355506 0.710992 0.602780
O O17 0.414152 0.000000 0.604313
O O18 0.660454 0.500000 0.845863
O O19 0.291155 0.711230 0.665251
O O20 0.315451 0.000000 0.627654
O O21 0.739782 0.000000 0.300373
#
# Coordination Sequence:
#
# PCOD9222908 Si02
#       8
#     8   8   8   8   8   8   8   8
#     4   9  17  29  44  61  81 106 136 167 197 232
#     4   9  17  28  41  59  83 108 134 165 201 240
#     4   9  16  27  43  61  81 105 133 164 198 237
#     4   9  15  23  37  58  81 102 127 161 199 235
#     4   8  13  22  38  57  75  99 131 166 199 229
#     4   8  14  23  36  56  79 101 126 159 197 234
#     4   8  13  23  39  58  78 100 131 167 198 231
#     4   8  14  25  42  62  80 100 130 167 201 233
#
# _framework density 25.481711000000001
#
# number of rings (size 3 to 8) (size 9 to 14) (size 15 to 20)
#    0.000    3.500    0.000    1.125    0.000    1.000 
#    0.000    2.500    0.000    1.500    0.000    0.000 
#    0.000    0.000    0.000    0.000    0.000    0.625 
#
# Total GULP energy -178166.647986 kJ/mol
# GULP energy per Si atom -5567.707750 kJ/mol
# Density = 2.542371 g / cm^3
# Si number density = 25.481711 Si / 1000 Ang^3
#
#
#
# Elastic Constant Matrix: (Units=GPa)
#
#
# Indices 1 2 3 4 5 6 
#
# 1 300.4712 15.3814 52.8293 0.0000 -92.0971 0.0000
# 2 15.3814 93.0553 1.1648 0.0000 -11.0746 -0.0002
# 3 52.8293 1.1648 54.6688 0.0000 -8.7227 0.0000
# 4 0.0000 0.0000 0.0000 -4.5189 0.0000 -6.8561
# 5 -92.0971 -11.0746 -8.7227 0.0000 59.5689 0.0000
# 6 0.0000 -0.0002 0.0000 -6.8561 0.0000 13.2265
#
#
#
# Elastic Compliance Matrix: (Units=1/GPa)
#
#
# Indices 1 2 3 4 5 6 
#
# 1 0.007748 0.000120 -0.005708 0.000000 0.011165 0.000000
# 2 0.000120 0.010992 0.000006 0.000000 0.002229 0.000000
# 3 -0.005708 0.000006 0.022936 0.000000 -0.005466 0.000000
# 4 0.000000 0.000000 0.000000 -0.123873 0.000000 -0.064211
# 5 0.011165 0.002229 -0.005466 0.000000 0.033663 0.000000
# 6 0.000000 0.000000 0.000000 -0.064211 0.000000 0.042322
#
#
# Mechanical properties :
#
#
# Convention : Reuss Voigt Hill
#
# Bulk Modulus (GPa) = 32.77611 65.21627 48.99619
# Shear Modulus (GPa) = 330.62540 38.90994 184.76767
#
# Velocity S-wave (km/s) = 11.40315 3.91189 8.52451
# Velocity P-wave (km/s) = 13.64794 6.78622 10.77773
#
# Compressibility (1/GPa) = 0.03051003
#
# Stress axis : x y z
#
# Youngs Moduli (GPa) = 129.06992 90.97722 43.59974
#
# Poissons Ratio (x) = -0.01088 0.24888
# Poissons Ratio (y) = -0.01543 -0.00026
# Poissons Ratio (z) = 0.73676 -0.00054
#
# Static dielectric constant tensor:
#      x y z
#    x 2.146800 0.000000 -0.093410 
#    y 0.000000 1.990970 0.000000 
#    z -0.093410 0.000000 2.085540 
# 
# From -- ./inp_files/323745.got.cif
#   From: 2010.05.17/outbox.cif.g08.bks.cpg/sg12_162_cif.got.tgz:323745.got - 2010.06.03 13:09:07.
