data_PCOD9222787
_publ_section_title
;
Structure prediction by ZEFSAII (Michael W. Deem and Ramdas Pophale) SiO2 
 PCOD9222787
Probable space group: C 2/M
;
_chemical_formula_sum "Si O2"
_cell_formula_units_Z 40
_cell_length_a 10.616434
_cell_length_b 19.826664
_cell_length_c 12.550646
_cell_angle_alpha 90.000000
_cell_angle_beta 39.938967
_cell_angle_gamma 90.000000
_cell_volume 1695.937953
_symmetry_space_group_name_H-M "C 2/M"
_symmetry_group_IT_number 12
_symmetry_cell_setting 'monoclinic'
loop_
_space_group_symop_operation_xyz
x,y,z
-x,y,-z
-x,-y,-z
x,-y,z
1/2+x,1/2+y,z
1/2-x,1/2+y,-z
1/2-x,1/2-y,-z
1/2+x,1/2-y,z
loop_
_atom_site_type_symbol
_atom_site_label
_atom_site_fract_x
_atom_site_fract_y
_atom_site_fract_z
Si Si1 0.315411 0.576711 0.378236
Si Si2 0.776441 0.575115 0.023059
Si Si3 0.698404 0.305757 0.443701
Si Si4 0.720229 0.419000 0.824982
Si Si5 0.925409 0.712871 0.946322
O O1 0.242621 0.500000 0.446904
O O2 0.306866 0.624418 0.485785
O O3 0.220869 0.606864 0.329891
O O4 0.543352 0.571132 0.194521
O O5 0.853943 0.500000 0.996742
O O6 0.830947 0.591987 0.864119
O O7 0.839295 0.641673 0.042611
O O8 0.500000 0.297480 0.500000
O O9 0.750000 0.250000 0.500000
O O10 0.884906 0.300680 0.246545
O O11 0.719546 0.500000 0.811307
O O12 0.500000 0.399776 0.000000
O O13 0.750000 0.750000 0.000000
O O14 0.000000 0.753478 0.000000
#
# Coordination Sequence:
#
# PCOD9222787 Si02
#       5
#     8   8   8   8   8
#     4   9  18  36  65  99 135 174 219 274 333 390
#     4   9  18  36  64  98 134 174 222 272 325 391
#     4  12  27  47  69  97 135 176 223 279 340 399
#     4   7  12  26  53  90 128 167 210 257 314 382
#     4  12  27  47  70  97 132 178 228 275 332 404
#
# _framework density 23.585768000000002
#
# number of rings (size 3 to 8) (size 9 to 14) (size 15 to 20)
#    0.000    2.200    0.000    6.000    0.000    7.200 
#    0.000    0.000    0.000    4.200    0.000    0.000 
#    0.000    0.000    0.000    0.000    0.000    0.000 
#
# Total GULP energy -111558.479653 kJ/mol
# GULP energy per Si atom -5577.923983 kJ/mol
# Density = 2.353209 g / cm^3
# Si number density = 23.585768 Si / 1000 Ang^3
#
#
#
# Elastic Constant Matrix: (Units=GPa)
#
#
# Indices 1 2 3 4 5 6 
#
# 1 138.3147 47.5084 69.2777 -0.0005 13.5637 0.0005
# 2 47.5084 99.8631 31.8279 0.0000 3.2924 0.0001
# 3 69.2777 31.8279 130.5126 -0.0004 0.3199 0.0005
# 4 -0.0005 0.0000 -0.0004 31.4989 0.0002 5.3833
# 5 13.5637 3.2924 0.3199 0.0002 39.8390 -0.0002
# 6 0.0005 0.0001 0.0005 5.3833 -0.0002 23.5144
#
#
#
# Elastic Compliance Matrix: (Units=1/GPa)
#
#
# Indices 1 2 3 4 5 6 
#
# 1 0.011423 -0.003673 -0.005159 0.000000 -0.003544 0.000000
# 2 -0.003673 0.012069 -0.000994 0.000000 0.000261 0.000000
# 3 -0.005159 -0.000994 0.010639 0.000000 0.001753 0.000000
# 4 0.000000 0.000000 0.000000 0.033040 0.000000 -0.007564
# 5 -0.003544 0.000261 0.001753 0.000000 0.026272 0.000000
# 6 0.000000 0.000000 0.000000 -0.007564 0.000000 0.044259
#
#
# Mechanical properties :
#
#
# Convention : Reuss Voigt Hill
#
# Bulk Modulus (GPa) = 69.06880 73.99093 71.52987
# Shear Modulus (GPa) = 30.82968 33.64221 32.23594
#
# Velocity S-wave (km/s) = 3.61935 3.78084 3.70097
# Velocity P-wave (km/s) = 6.84207 7.10625 6.97541
#
# Compressibility (1/GPa) = 0.01447832
#
# Stress axis : x y z
#
# Youngs Moduli (GPa) = 87.54131 82.85376 93.99598
#
# Poissons Ratio (x) = 0.30435 0.48493
# Poissons Ratio (y) = 0.32156 0.09345
# Poissons Ratio (z) = 0.45163 0.08237
#
# Static dielectric constant tensor:
#      x y z
#    x 2.141650 0.000000 0.056610 
#    y 0.000000 1.899860 0.000000 
#    z 0.056610 0.000000 1.962220 
# 
# From -- ./inp_files/133643.got.cif
#   From: 2010.05.17/outbox.cif.g08.bks.cpg/sg12_67_cif.got.tgz:133643.got - 2010.06.03 13:09:07.
