data_PCOD9222897
_publ_section_title
;
Structure prediction by ZEFSAII (Michael W. Deem and Ramdas Pophale) SiO2 
 PCOD9222897
Probable space group: C 2/M
;
_chemical_formula_sum "Si O2"
_cell_formula_units_Z 56
_cell_length_a 28.492165
_cell_length_b 7.731801
_cell_length_c 16.843670
_cell_angle_alpha 90.000000
_cell_angle_beta 115.215208
_cell_angle_gamma 90.000000
_cell_volume 3357.021760
_symmetry_space_group_name_H-M "C 2/M"
_symmetry_group_IT_number 12
_symmetry_cell_setting 'monoclinic'
loop_
_space_group_symop_operation_xyz
x,y,z
-x,y,-z
-x,-y,-z
x,-y,z
1/2+x,1/2+y,z
1/2-x,1/2+y,-z
1/2-x,1/2-y,-z
1/2+x,1/2-y,z
loop_
_atom_site_type_symbol
_atom_site_label
_atom_site_fract_x
_atom_site_fract_y
_atom_site_fract_z
Si Si1 0.446626 0.794466 0.000231
Si Si2 0.195599 0.791935 0.364541
Si Si3 0.985219 0.211217 0.363193
Si Si4 0.582698 0.288911 0.540649
Si Si5 0.188293 0.792101 0.540704
Si Si6 0.100962 0.207366 0.190599
Si Si7 0.506722 0.293728 0.809522
O O1 0.448883 0.738015 0.093000
O O2 0.449814 0.000000 0.002689
O O3 0.500000 0.721071 0.000000
O O4 0.402615 0.745142 0.905717
O O5 0.186166 0.727546 0.447890
O O6 0.254771 0.749682 0.385598
O O7 0.151759 0.727133 0.272669
O O8 0.191528 0.000000 0.364138
O O9 0.939871 0.267815 0.390623
O O10 0.039770 0.259431 0.443696
O O11 0.982207 0.273114 0.270677
O O12 0.983958 0.000000 0.361446
O O13 0.583536 0.500000 0.542693
O O14 0.639478 0.227992 0.556130
O O15 0.184117 0.000000 0.534202
O O16 0.047987 0.274752 0.194254
O O17 0.100301 0.000000 0.198217
O O18 0.500644 0.500000 0.798209
#
# Coordination Sequence:
#
# PCOD9222897 Si02
#       7
#     8   8   8   8   8   8   8
#     4   9  17  27  38  55  80 106 129 156 194 237
#     4   9  17  27  39  57  80 106 135 163 192 226
#     4   8  13  21  37  61  83 103 130 162 193 225
#     4   8  13  22  37  59  84 105 129 163 195 222
#     4   9  16  26  40  58  81 107 133 161 192 227
#     4   9  16  26  40  57  78 104 133 163 192 226
#     4   9  15  24  40  60  80 103 131 160 191 229
#
# _framework density 16.681453000000001
#
# number of rings (size 3 to 8) (size 9 to 14) (size 15 to 20)
#    0.000    3.286    0.000    2.143    0.000    5.714 
#    0.000    0.000    0.000    3.429    0.000    3.000 
#    0.000    0.000    0.000    0.000    0.000    0.000 
#
# Total GULP energy -155905.260454 kJ/mol
# GULP energy per Si atom -5568.045016 kJ/mol
# Density = 1.664349 g / cm^3
# Si number density = 16.681453 Si / 1000 Ang^3
#
#
#
# Elastic Constant Matrix: (Units=GPa)
#
#
# Indices 1 2 3 4 5 6 
#
# 1 115.4916 4.8503 78.7617 0.0000 0.9418 0.0000
# 2 4.8503 24.0006 4.3294 0.0000 -2.6781 0.0000
# 3 78.7617 4.3294 163.5247 0.0000 -0.3144 0.0000
# 4 0.0000 0.0000 0.0000 3.0991 0.0000 6.3469
# 5 0.9418 -2.6781 -0.3144 0.0000 21.0057 0.0000
# 6 0.0000 0.0000 0.0000 6.3469 0.0000 10.9493
#
#
#
# Elastic Compliance Matrix: (Units=1/GPa)
#
#
# Indices 1 2 3 4 5 6 
#
# 1 0.012963 -0.001599 -0.006203 0.000000 -0.000878 0.000000
# 2 -0.001599 0.042666 -0.000349 0.000000 0.005506 0.000000
# 3 -0.006203 -0.000349 0.009113 0.000000 0.000370 0.000000
# 4 0.000000 0.000000 0.000000 -1.724116 0.000000 0.999409
# 5 -0.000878 0.005506 0.000370 0.000000 0.048353 0.000000
# 6 0.000000 0.000000 0.000000 0.999409 0.000000 -0.487992
#
#
# Mechanical properties :
#
#
# Convention : Reuss Voigt Hill
#
# Bulk Modulus (GPa) = 20.64379 53.21106 36.92743
# Shear Modulus (GPa) = -2.41947 21.34919 9.46486
#
# Velocity S-wave (km/s) = -1.20563 3.58133 2.38457
# Velocity P-wave (km/s) = 3.23483 7.00492 5.45587
#
# Compressibility (1/GPa) = 0.04844071
#
# Stress axis : x y z
#
# Youngs Moduli (GPa) = 77.14094 23.43778 109.73368
#
# Poissons Ratio (x) = 0.03747 0.68069
# Poissons Ratio (y) = 0.12333 0.03829
# Poissons Ratio (z) = 0.47852 0.00818
#
# Static dielectric constant tensor:
#      x y z
#    x 1.555560 0.000000 -0.005680 
#    y 0.000000 1.617840 0.000000 
#    z -0.005680 0.000000 1.580890 
# 
# From -- ./inp_files/243250.got.cif
#   From: 2010.05.17/outbox.cif.g08.bks.cpg/sg12_122_cif.got.tgz:243250.got - 2010.06.03 13:09:07.
