data_PCOD9222053
_publ_section_title
;
Structure prediction by ZEFSAII (Michael W. Deem and Ramdas Pophale) SiO2 
 PCOD9222053
Probable space group: C 2/M
;
_chemical_formula_sum "Si O2"
_cell_formula_units_Z 32
_cell_length_a 20.177812
_cell_length_b 7.759817
_cell_length_c 10.461710
_cell_angle_alpha 90.000000
_cell_angle_beta 83.041833
_cell_angle_gamma 90.000000
_cell_volume 1625.989564
_symmetry_space_group_name_H-M "C 2/M"
_symmetry_group_IT_number 12
_symmetry_cell_setting 'monoclinic'
loop_
_space_group_symop_operation_xyz
x,y,z
-x,y,-z
-x,-y,-z
x,-y,z
1/2+x,1/2+y,z
1/2-x,1/2+y,-z
1/2-x,1/2-y,-z
1/2+x,1/2-y,z
loop_
_atom_site_type_symbol
_atom_site_label
_atom_site_fract_x
_atom_site_fract_y
_atom_site_fract_z
Si Si1 0.393045 0.000000 0.598974
Si Si2 0.800517 0.703327 0.100956
Si Si3 0.944689 0.805515 0.118411
Si Si4 0.963999 0.500000 0.309301
Si Si5 0.284916 0.295592 0.626340
O O1 0.420694 0.000000 0.447978
O O2 0.457901 0.000000 0.673212
O O3 0.347758 0.830654 0.628639
O O4 0.814168 0.500000 0.092081
O O5 0.871109 0.797110 0.074989
O O6 0.765770 0.739962 0.245136
O O7 0.750000 0.750000 0.000000
O O8 0.947242 0.667971 0.230669
O O9 0.958118 0.000000 0.160239
O O10 0.000000 0.760207 0.000000
O O11 0.301315 0.500000 0.624794
O O12 0.250000 0.250000 0.500000
#
# Coordination Sequence:
#
# PCOD9222053 Si02
#       5
#     4   8   8   4   8
#     4  11  26  42  70  98 129 178 222 268 333 389
#     4  11  25  41  66 102 134 169 223 279 330 392
#     4  11  25  43  68  95 133 179 218 267 336 396
#     4  11  25  46  66  96 135 174 224 270 321 405
#     4  11  24  42  67  99 134 172 221 273 331 394
#
# _framework density 19.680322
#
# number of rings (size 3 to 8) (size 9 to 14) (size 15 to 20)
#    0.000    1.000    2.500    2.625    7.000    4.000 
#    0.000    2.500    0.000    0.000    0.000    0.000 
#    0.000    0.000    0.000    0.000    0.000    0.000 
#
# Total GULP energy -89520.131647 kJ/mol
# GULP energy per Si atom -5595.008228 kJ/mol
# Density = 1.963553 g / cm^3
# Si number density = 19.680322 Si / 1000 Ang^3
#
#
#
# Elastic Constant Matrix: (Units=GPa)
#
#
# Indices 1 2 3 4 5 6 
#
# 1 136.1454 44.1704 45.3534 0.0000 -8.7849 0.0000
# 2 44.1704 73.4304 29.7630 0.0000 -10.6442 0.0000
# 3 45.3534 29.7630 88.4797 0.0000 8.3725 0.0000
# 4 0.0000 0.0000 0.0000 -3.0398 0.0000 -10.7312
# 5 -8.7849 -10.6442 8.3725 0.0000 26.2873 0.0000
# 6 0.0000 0.0000 0.0000 -10.7312 0.0000 33.6329
#
#
#
# Elastic Compliance Matrix: (Units=1/GPa)
#
#
# Indices 1 2 3 4 5 6 
#
# 1 0.010247 -0.004005 -0.004202 0.000000 0.003141 0.000000
# 2 -0.004005 0.019324 -0.005218 0.000000 0.008148 0.000000
# 3 -0.004202 -0.005218 0.016027 0.000000 -0.008622 0.000000
# 4 0.000000 0.000000 0.000000 -0.154709 0.000000 -0.049362
# 5 0.003141 0.008148 -0.008622 0.000000 0.045136 0.000000
# 6 0.000000 0.000000 0.000000 -0.049362 0.000000 0.013983
#
#
# Mechanical properties :
#
#
# Convention : Reuss Voigt Hill
#
# Bulk Modulus (GPa) = 53.34338 59.62544 56.48441
# Shear Modulus (GPa) = -296.02032 23.29400 -136.36316
#
# Velocity S-wave (km/s) = -12.27766 3.44411 -8.33304
# Velocity P-wave (km/s) = 13.18424 6.79548 7.98891
#
# Compressibility (1/GPa) = 0.01874647
#
# Stress axis : x y z
#
# Youngs Moduli (GPa) = 97.58778 51.74983 62.39345
#
# Poissons Ratio (x) = 0.20727 0.26221
# Poissons Ratio (y) = 0.39086 0.32558
# Poissons Ratio (z) = 0.41011 0.27004
#
# Static dielectric constant tensor:
#      x y z
#    x 1.681040 0.000000 -0.000450 
#    y 0.000000 1.679180 0.000000 
#    z -0.000450 0.000000 1.673610 
# 
# From -- ./inp_files/81716.got.cif
#   From: 2010.05.17/outbox.cif.g08.bks.cpg/sg12_41_cif.got.tgz:81716.got - 2010.06.03 13:09:07.
