data_PCOD9222190
_publ_section_title
;
Structure prediction by ZEFSAII (Michael W. Deem and Ramdas Pophale) SiO2 
 PCOD9222190
Probable space group: C 2/M
;
_chemical_formula_sum "Si O2"
_cell_formula_units_Z 48
_cell_length_a 13.904524
_cell_length_b 17.927984
_cell_length_c 8.440383
_cell_angle_alpha 90.000000
_cell_angle_beta 93.474511
_cell_angle_gamma 90.000000
_cell_volume 2100.151895
_symmetry_space_group_name_H-M "C 2/M"
_symmetry_group_IT_number 12
_symmetry_cell_setting 'monoclinic'
loop_
_space_group_symop_operation_xyz
x,y,z
-x,y,-z
-x,-y,-z
x,-y,z
1/2+x,1/2+y,z
1/2-x,1/2+y,-z
1/2-x,1/2-y,-z
1/2+x,1/2-y,z
loop_
_atom_site_type_symbol
_atom_site_label
_atom_site_fract_x
_atom_site_fract_y
_atom_site_fract_z
Si Si1 0.286969 0.741088 0.827298
Si Si2 0.039553 0.078578 0.825665
Si Si3 0.315364 0.000000 0.454268
Si Si4 0.968260 0.668741 0.821154
Si Si5 0.146215 0.117563 0.362043
Si Si6 0.512815 0.000000 0.270632
Si Si7 0.601976 0.720287 0.653556
O O1 0.357832 0.808420 0.795146
O O2 0.335606 0.662192 0.799428
O O3 0.201859 0.739776 0.693756
O O4 0.250000 0.750000 0.000000
O O5 0.950532 0.074626 0.693884
O O6 0.093522 0.153303 0.780574
O O7 0.095725 0.000000 0.816256
O O8 0.000000 0.082708 0.000000
O O9 0.239319 0.930666 0.425420
O O10 0.404464 0.000000 0.337366
O O11 0.386792 0.000000 0.614816
O O12 0.983916 0.580630 0.811456
O O13 0.024433 0.716647 0.693429
O O14 0.000000 0.694898 0.000000
O O15 0.111367 0.178007 0.488444
#
# Coordination Sequence:
#
# PCOD9222190 Si02
#       7
#     8   8   4   8   8   4   8
#     4  12  25  44  71 107 147 191 247 300 363 447
#     4  11  24  45  70 103 144 186 233 296 368 440
#     4  11  26  48  72 110 152 190 246 314 370 446
#     4  12  25  48  75 106 151 197 254 308 369 441
#     4  12  25  45  75 106 144 191 242 301 373 442
#     4  11  27  50  74 104 148 198 253 310 370 432
#     4  12  25  44  73 107 145 192 243 305 372 438
#
# _framework density 22.855488000000001
#
# number of rings (size 3 to 8) (size 9 to 14) (size 15 to 20)
#    0.000    0.333    4.167    4.750    1.167    3.333 
#    1.500    0.000    0.000    0.000    0.000    0.000 
#    0.000    0.000    0.000    0.000    0.000    0.000 
#
# Total GULP energy -133943.526381 kJ/mol
# GULP energy per Si atom -5580.980266 kJ/mol
# Density = 2.280347 g / cm^3
# Si number density = 22.855488 Si / 1000 Ang^3
#
#
#
# Elastic Constant Matrix: (Units=GPa)
#
#
# Indices 1 2 3 4 5 6 
#
# 1 98.6316 24.9340 26.2832 0.0000 -9.6688 0.0000
# 2 24.9340 144.4468 32.5780 0.0000 -22.7143 0.0000
# 3 26.2832 32.5780 109.8792 0.0000 -7.0484 0.0000
# 4 0.0000 0.0000 0.0000 2.0616 0.0000 11.2288
# 5 -9.6688 -22.7143 -7.0484 0.0000 29.4085 0.0000
# 6 0.0000 0.0000 0.0000 11.2288 0.0000 29.0397
#
#
#
# Elastic Compliance Matrix: (Units=1/GPa)
#
#
# Indices 1 2 3 4 5 6 
#
# 1 0.011229 -0.001071 -0.002219 0.000000 0.002333 0.000000
# 2 -0.001071 0.008429 -0.001877 0.000000 0.005708 0.000000
# 3 -0.002219 -0.001877 0.010205 0.000000 0.000267 0.000000
# 4 0.000000 0.000000 0.000000 -0.438546 0.000000 0.169573
# 5 0.002333 0.005708 0.000267 0.000000 0.039244 0.000000
# 6 0.000000 0.000000 0.000000 0.169573 0.000000 -0.031133
#
#
# Mechanical properties :
#
#
# Convention : Reuss Voigt Hill
#
# Bulk Modulus (GPa) = 51.20299 57.83865 54.52082
# Shear Modulus (GPa) = -13.03003 30.04613 8.50805
#
# Velocity S-wave (km/s) = -2.39028 3.62969 1.93148
# Velocity P-wave (km/s) = 3.85145 6.55190 5.37406
#
# Compressibility (1/GPa) = 0.01953011
#
# Stress axis : x y z
#
# Youngs Moduli (GPa) = 89.05125 118.64201 97.98940
#
# Poissons Ratio (x) = 0.12708 0.21743
# Poissons Ratio (y) = 0.09538 0.18389
# Poissons Ratio (z) = 0.19759 0.22265
#
# Static dielectric constant tensor:
#      x y z
#    x 1.852080 0.000000 0.008770 
#    y 0.000000 2.221010 0.000000 
#    z 0.008770 0.000000 1.852240 
# 
# From -- ./inp_files/61776.got.cif
#   From: 2010.05.17/outbox.cif.g08.bks.cpg/sg12_31_cif.got.tgz:61776.got - 2010.06.03 13:09:07.
