data_PCOD9222253
_publ_section_title
;
Structure prediction by ZEFSAII (Michael W. Deem and Ramdas Pophale) SiO2 
 PCOD9222253
Probable space group: C 2/M
;
_chemical_formula_sum "Si O2"
_cell_formula_units_Z 40
_cell_length_a 7.887740
_cell_length_b 25.810536
_cell_length_c 9.040196
_cell_angle_alpha 90.000000
_cell_angle_beta 95.404276
_cell_angle_gamma 90.000000
_cell_volume 1832.283572
_symmetry_space_group_name_H-M "C 2/M"
_symmetry_group_IT_number 12
_symmetry_cell_setting 'monoclinic'
loop_
_space_group_symop_operation_xyz
x,y,z
-x,y,-z
-x,-y,-z
x,-y,z
1/2+x,1/2+y,z
1/2-x,1/2+y,-z
1/2-x,1/2-y,-z
1/2+x,1/2-y,z
loop_
_atom_site_type_symbol
_atom_site_label
_atom_site_fract_x
_atom_site_fract_y
_atom_site_fract_z
Si Si1 0.598686 0.763507 0.879617
Si Si2 0.471745 0.156802 0.668477
Si Si3 0.062647 0.166826 0.675408
Si Si4 0.058424 0.555767 0.171800
Si Si5 0.534824 0.559167 0.827297
O O1 0.604019 0.802609 0.747036
O O2 0.523366 0.711598 0.795222
O O3 0.500000 0.794842 0.000000
O O4 0.750000 0.750000 0.000000
O O5 0.500000 0.157907 0.500000
O O6 0.271701 0.168057 0.688225
O O7 0.511142 0.100974 0.735252
O O8 0.990910 0.111109 0.728715
O O9 0.000000 0.176277 0.500000
O O10 0.998885 0.500000 0.220980
O O11 0.262475 0.556493 0.183027
O O12 0.000000 0.562537 0.000000
O O13 0.468759 0.500000 0.786193
O O14 0.500000 0.567626 0.000000
#
# Coordination Sequence:
#
# PCOD9222253 Si02
#       5
#     8   8   8   8   8
#     4  12  25  43  67  90 118 159 207 257 306 364
#     4  11  25  41  61  91 128 161 201 255 307 364
#     4  11  25  41  61  92 127 162 202 251 310 366
#     4   9  19  37  63  91 122 160 203 249 299 359
#     4   9  19  38  63  92 123 159 204 250 297 357
#
# _framework density 21.830680999999998
#
# number of rings (size 3 to 8) (size 9 to 14) (size 15 to 20)
#    0.000    1.600    2.000    1.800    5.600    4.000 
#    0.000    0.000    0.000    0.000    0.000    0.000 
#    0.000    0.000    0.000    0.000    0.000    0.000 
#
# Total GULP energy -111373.043991 kJ/mol
# GULP energy per Si atom -5568.652200 kJ/mol
# Density = 2.178099 g / cm^3
# Si number density = 21.830681 Si / 1000 Ang^3
#
#
#
# Elastic Constant Matrix: (Units=GPa)
#
#
# Indices 1 2 3 4 5 6 
#
# 1 24.0815 11.3424 22.0180 0.0000 3.2019 0.0000
# 2 11.3424 188.2707 45.7521 0.0000 20.0032 0.0000
# 3 22.0180 45.7521 311.9135 0.0000 -15.4761 0.0000
# 4 0.0000 0.0000 0.0000 37.3867 0.0000 -0.3477
# 5 3.2019 20.0032 -15.4761 0.0000 41.7223 0.0000
# 6 0.0000 0.0000 0.0000 -0.3477 0.0000 15.3277
#
#
#
# Elastic Compliance Matrix: (Units=1/GPa)
#
#
# Indices 1 2 3 4 5 6 
#
# 1 0.045704 -0.001558 -0.003193 0.000000 -0.003945 0.000000
# 2 -0.001558 0.005955 -0.000916 0.000000 -0.003075 0.000000
# 3 -0.003193 -0.000916 0.003667 0.000000 0.002045 0.000000
# 4 0.000000 0.000000 0.000000 0.026753 0.000000 0.000607
# 5 -0.003945 -0.003075 0.002045 0.000000 0.026503 0.000000
# 6 0.000000 0.000000 0.000000 0.000607 0.000000 0.065255
#
#
# Mechanical properties :
#
#
# Convention : Reuss Voigt Hill
#
# Bulk Modulus (GPa) = 22.73219 75.83229 49.28224
# Shear Modulus (GPa) = 25.02044 48.56421 36.79233
#
# Velocity S-wave (km/s) = 3.38910 4.72167 4.10975
# Velocity P-wave (km/s) = 5.07447 8.03352 6.71892
#
# Compressibility (1/GPa) = 0.04399049
#
# Stress axis : x y z
#
# Youngs Moduli (GPa) = 21.87996 167.93442 272.68410
#
# Poissons Ratio (x) = 0.26169 0.87079
# Poissons Ratio (y) = 0.03409 0.24979
# Poissons Ratio (z) = 0.06987 0.15383
#
# Static dielectric constant tensor:
#      x y z
#    x 1.871350 0.000000 -0.070530 
#    y 0.000000 1.821540 0.000000 
#    z -0.070530 0.000000 1.648030 
# 
# From -- ./inp_files/39241.got.cif
#   From: 2010.05.17/outbox.cif.g08.bks.cpg/sg12_20_cif.got.tgz:39241.got - 2010.06.03 13:09:07.
