data_PCOD9222256
_publ_section_title
;
Structure prediction by ZEFSAII (Michael W. Deem and Ramdas Pophale) SiO2 
 PCOD9222256
Probable space group: C 2/M
;
_chemical_formula_sum "Si O2"
_cell_formula_units_Z 32
_cell_length_a 10.408285
_cell_length_b 27.342978
_cell_length_c 7.346821
_cell_angle_alpha 90.000000
_cell_angle_beta 41.040876
_cell_angle_gamma 90.000000
_cell_volume 1372.851402
_symmetry_space_group_name_H-M "C 2/M"
_symmetry_group_IT_number 12
_symmetry_cell_setting 'monoclinic'
loop_
_space_group_symop_operation_xyz
x,y,z
-x,y,-z
-x,-y,-z
x,-y,z
1/2+x,1/2+y,z
1/2-x,1/2+y,-z
1/2-x,1/2-y,-z
1/2+x,1/2-y,z
loop_
_atom_site_type_symbol
_atom_site_label
_atom_site_fract_x
_atom_site_fract_y
_atom_site_fract_z
Si Si1 0.770277 0.645527 0.048772
Si Si2 0.331944 0.369666 0.416124
Si Si3 0.409802 0.215872 0.419865
Si Si4 0.036225 0.554372 0.743596
O O1 0.740303 0.640824 0.298781
O O2 0.559377 0.642240 0.180380
O O3 0.889886 0.598248 0.848626
O O4 0.900605 0.694083 0.884213
O O5 0.216672 0.333007 0.406915
O O6 0.252919 0.424471 0.469830
O O7 0.500000 0.240897 0.500000
O O8 0.250000 0.250000 0.500000
O O9 0.003521 0.500000 0.705565
O O10 0.000000 0.550952 0.000000
#
# Coordination Sequence:
#
# PCOD9222256 Si02
#       4
#     8   8   8   8
#     4   9  19  38  60  83 122 156 196 242 294 345
#     4   9  19  38  58  84 120 158 191 244 293 346
#     4  11  25  42  60  87 113 153 199 247 297 353
#     4   8  14  27  52  88 122 153 192 237 286 343
#
# _framework density 23.309149999999999
#
# number of rings (size 3 to 8) (size 9 to 14) (size 15 to 20)
#    0.000    2.750    0.000    2.250    3.500    3.000 
#    4.500    5.000    0.000   12.000    0.000   14.000 
#    0.000    0.000    0.000    0.000    0.000    0.000 
#
# Total GULP energy -89305.821740 kJ/mol
# GULP energy per Si atom -5581.613859 kJ/mol
# Density = 2.325610 g / cm^3
# Si number density = 23.309150 Si / 1000 Ang^3
#
#
#
# Elastic Constant Matrix: (Units=GPa)
#
#
# Indices 1 2 3 4 5 6 
#
# 1 117.5521 33.1461 45.2953 0.0000 -32.0679 0.0000
# 2 33.1461 128.9898 54.1858 0.0000 -17.5852 0.0000
# 3 45.2953 54.1858 114.1810 0.0000 -31.0872 0.0000
# 4 0.0000 0.0000 0.0000 19.6057 0.0000 -3.8382
# 5 -32.0679 -17.5852 -31.0872 0.0000 39.0325 0.0000
# 6 0.0000 0.0000 0.0000 -3.8382 0.0000 11.7395
#
#
#
# Elastic Compliance Matrix: (Units=1/GPa)
#
#
# Indices 1 2 3 4 5 6 
#
# 1 0.011641 -0.001110 -0.002073 0.000000 0.007413 0.000000
# 2 -0.001110 0.009813 -0.004164 0.000000 0.000193 0.000000
# 3 -0.002073 -0.004164 0.013512 0.000000 0.007182 0.000000
# 4 0.000000 0.000000 0.000000 0.054493 0.000000 0.017816
# 5 0.007413 0.000193 0.007182 0.000000 0.037517 0.000000
# 6 0.000000 0.000000 0.000000 0.017816 0.000000 0.091007
#
#
# Mechanical properties :
#
#
# Convention : Reuss Voigt Hill
#
# Bulk Modulus (GPa) = 49.32940 69.55301 59.44121
# Shear Modulus (GPa) = 20.88248 29.28193 25.08220
#
# Velocity S-wave (km/s) = 2.99639 3.54820 3.28390
# Velocity P-wave (km/s) = 5.76023 6.83304 6.31944
#
# Compressibility (1/GPa) = 0.02027189
#
# Stress axis : x y z
#
# Youngs Moduli (GPa) = 85.90539 101.90200 74.00806
#
# Poissons Ratio (x) = 0.11310 0.15341
# Poissons Ratio (y) = 0.09535 0.30819
# Poissons Ratio (z) = 0.17808 0.42435
#
# Static dielectric constant tensor:
#      x y z
#    x 1.939990 0.000000 0.074150 
#    y 0.000000 1.882320 0.000000 
#    z 0.074150 0.000000 1.946330 
# 
# From -- ./inp_files/51819.got.cif
#   From: 2010.05.17/outbox.cif.g08.bks.cpg/sg12_26_cif.got.tgz:51819.got - 2010.06.03 13:09:07.
