data_PCOD9222645
_publ_section_title
;
Structure prediction by ZEFSAII (Michael W. Deem and Ramdas Pophale) SiO2 
 PCOD9222645
Probable space group: C 2/M
;
_chemical_formula_sum "Si O2"
_cell_formula_units_Z 40
_cell_length_a 22.645775
_cell_length_b 13.991298
_cell_length_c 18.330709
_cell_angle_alpha 90.000000
_cell_angle_beta 18.560026
_cell_angle_gamma 90.000000
_cell_volume 1848.665601
_symmetry_space_group_name_H-M "C 2/M"
_symmetry_group_IT_number 12
_symmetry_cell_setting 'monoclinic'
loop_
_space_group_symop_operation_xyz
x,y,z
-x,y,-z
-x,-y,-z
x,-y,z
1/2+x,1/2+y,z
1/2-x,1/2+y,-z
1/2-x,1/2-y,-z
1/2+x,1/2-y,z
loop_
_atom_site_type_symbol
_atom_site_label
_atom_site_fract_x
_atom_site_fract_y
_atom_site_fract_z
Si Si1 0.609291 0.500000 0.574909
Si Si2 0.500000 0.710648 0.500000
Si Si3 0.746525 0.218485 0.919553
Si Si4 0.298038 0.853845 0.252024
Si Si5 0.871248 0.792722 0.290492
Si Si6 0.207719 0.500000 0.010739
Si Si7 0.783959 0.500000 0.522436
O O1 0.660122 0.411512 0.465271
O O2 0.391008 0.500000 0.848052
O O3 0.755780 0.500000 0.468037
O O4 0.426427 0.753061 0.662694
O O5 0.315338 0.657475 0.689373
O O6 0.723959 0.101885 0.948868
O O7 0.750000 0.250000 0.000000
O O8 0.576160 0.270900 0.079579
O O9 0.341502 0.761098 0.249274
O O10 0.500000 0.897041 0.000000
O O11 0.750000 0.750000 0.500000
O O12 0.817440 0.902025 0.338692
O O13 0.001761 0.500000 0.285944
#
# Coordination Sequence:
#
# PCOD9222645 Si02
#       7
#     4   4   8   8   8   4   4
#     4  12  23  40  68 107 143 175 227 285 361 435
#     4  12  26  45  72 103 146 188 236 291 358 421
#     4  12  25  45  73 104 146 187 237 295 356 425
#     4  12  25  43  67 101 143 186 230 287 354 420
#     4  12  23  46  71  98 140 184 235 291 349 417
#     4  12  24  39  69 104 138 183 233 280 361 424
#     4  12  26  43  72 104 135 182 239 291 353 424
#
# _framework density 21.637228
#
# number of rings (size 3 to 8) (size 9 to 14) (size 15 to 20)
#    0.000    0.000    8.000    2.700    0.000    1.600 
#    0.000    0.500    0.000    3.000    0.000    0.000 
#    0.000    0.000    0.000    0.000    0.000    0.000 
#
# Total GULP energy -111547.849621 kJ/mol
# GULP energy per Si atom -5577.392481 kJ/mol
# Density = 2.158798 g / cm^3
# Si number density = 21.637228 Si / 1000 Ang^3
#
#
#
# Elastic Constant Matrix: (Units=GPa)
#
#
# Indices 1 2 3 4 5 6 
#
# 1 108.9973 28.9057 27.6002 -0.0007 -6.6217 0.0005
# 2 28.9057 144.7296 37.0232 -0.0005 6.1418 0.0003
# 3 27.6002 37.0232 150.4954 0.0030 -19.3783 0.0007
# 4 -0.0007 -0.0005 0.0030 26.2829 0.0004 2.2721
# 5 -6.6217 6.1418 -19.3783 0.0004 50.2045 -0.0003
# 6 0.0005 0.0003 0.0007 2.2721 -0.0003 15.3865
#
#
#
# Elastic Compliance Matrix: (Units=1/GPa)
#
#
# Indices 1 2 3 4 5 6 
#
# 1 0.010017 -0.001717 -0.001281 0.000000 0.001037 0.000000
# 2 -0.001717 0.007806 -0.001849 0.000000 -0.001895 0.000000
# 3 -0.001281 -0.001849 0.007726 -0.000001 0.003039 0.000000
# 4 0.000000 0.000000 -0.000001 0.038540 -0.000001 -0.005691
# 5 0.001037 -0.001895 0.003039 -0.000001 0.021460 0.000000
# 6 0.000000 0.000000 0.000000 -0.005691 0.000000 0.065832
#
#
# Mechanical properties :
#
#
# Convention : Reuss Voigt Hill
#
# Bulk Modulus (GPa) = 63.07591 65.69783 64.38687
# Shear Modulus (GPa) = 30.05505 39.08766 34.57136
#
# Velocity S-wave (km/s) = 3.73103 4.25491 4.00155
# Velocity P-wave (km/s) = 6.91199 7.38703 7.15346
#
# Compressibility (1/GPa) = 0.01585391
#
# Stress axis : x y z
#
# Youngs Moduli (GPa) = 99.82748 128.10848 129.43220
#
# Poissons Ratio (x) = 0.21995 0.16584
# Poissons Ratio (y) = 0.17139 0.23938
# Poissons Ratio (z) = 0.12791 0.23693
#
# Static dielectric constant tensor:
#      x y z
#    x 1.819850 0.000000 0.015800 
#    y 0.000000 1.843270 0.000000 
#    z 0.015800 0.000000 1.837370 
# 
# From -- ./inp_files/284462.got.cif
#   From: 2010.05.17/outbox.cif.g08.bks.cpg/sg12_143_cif.got.tgz:284462.got - 2010.06.03 13:09:07.
