data_PCOD9222412
_publ_section_title
;
Structure prediction by ZEFSAII (Michael W. Deem and Ramdas Pophale) SiO2 
 PCOD9222412
Probable space group: C 2/M
;
_chemical_formula_sum "Si O2"
_cell_formula_units_Z 32
_cell_length_a 14.593039
_cell_length_b 20.705301
_cell_length_c 13.979360
_cell_angle_alpha 90.000000
_cell_angle_beta 160.795147
_cell_angle_gamma 90.000000
_cell_volume 1389.440740
_symmetry_space_group_name_H-M "C 2/M"
_symmetry_group_IT_number 12
_symmetry_cell_setting 'monoclinic'
loop_
_space_group_symop_operation_xyz
x,y,z
-x,y,-z
-x,-y,-z
x,-y,z
1/2+x,1/2+y,z
1/2-x,1/2+y,-z
1/2-x,1/2-y,-z
1/2+x,1/2-y,z
loop_
_atom_site_type_symbol
_atom_site_label
_atom_site_fract_x
_atom_site_fract_y
_atom_site_fract_z
Si Si1 0.500000 0.808490 0.000000
Si Si2 0.943458 0.368588 0.558276
Si Si3 0.281240 0.000000 0.499599
Si Si4 0.411518 0.712092 0.077161
Si Si5 0.226592 0.000000 0.872400
Si Si6 0.500000 0.604075 0.500000
O O1 0.369780 0.760924 0.948522
O O2 0.746243 0.851830 0.287024
O O3 0.842332 0.436886 0.497474
O O4 0.730885 0.312280 0.385560
O O5 0.000000 0.366941 0.500000
O O6 0.240910 0.353429 0.896731
O O7 0.967280 0.000000 0.226358
O O8 0.464082 0.000000 0.778992
O O9 0.250000 0.750000 0.000000
O O10 0.143097 0.939360 0.723162
#
# Coordination Sequence:
#
# PCOD9222412 Si02
#       6
#     4   8   4   8   4   4
#     4  12  24  45  74 105 138 188 228 288 354 430
#     4  12  25  50  69 104 142 185 233 296 349 414
#     4  12  27  43  78  98 137 183 246 286 346 409
#     4  12  27  45  73 104 145 184 235 288 353 422
#     4  11  26  48  65 110 135 183 233 299 334 425
#     4  11  26  44  74  96 150 179 228 286 366 405
#
# _framework density 23.030850000000001
#
# number of rings (size 3 to 8) (size 9 to 14) (size 15 to 20)
#    0.000    0.250    2.500    5.625   10.500    2.000 
#    0.000    3.750    0.000    0.000    0.000    0.000 
#    0.000    0.000    0.000    0.000    0.000    0.000 
#
# Total GULP energy -89465.494123 kJ/mol
# GULP energy per Si atom -5591.593383 kJ/mol
# Density = 2.297843 g / cm^3
# Si number density = 23.030850 Si / 1000 Ang^3
#
#
#
# Elastic Constant Matrix: (Units=GPa)
#
#
# Indices 1 2 3 4 5 6 
#
# 1 139.1112 36.4162 -10.2021 0.0000 14.0046 -0.0031
# 2 36.4162 109.0036 8.4273 0.0003 4.7741 -0.0019
# 3 -10.2021 8.4273 81.1328 0.0072 7.6303 -0.0042
# 4 0.0000 0.0003 0.0072 50.9835 0.0033 47.1050
# 5 14.0046 4.7741 7.6303 0.0033 25.1569 -0.0019
# 6 -0.0031 -0.0019 -0.0042 47.1050 -0.0019 39.0451
#
#
#
# Elastic Compliance Matrix: (Units=1/GPa)
#
#
# Indices 1 2 3 4 5 6 
#
# 1 0.008529 -0.002781 0.001810 0.000004 -0.004769 -0.000004
# 2 -0.002781 0.010211 -0.001414 0.000000 0.000039 0.000000
# 3 0.001810 -0.001414 0.013144 0.000024 -0.004726 -0.000027
# 4 0.000004 0.000000 0.000024 -0.171081 0.000029 0.206396
# 5 -0.004769 0.000039 -0.004726 0.000029 0.043832 -0.000034
# 6 -0.000004 0.000000 -0.000027 0.206396 -0.000034 -0.223390
#
#
# Mechanical properties :
#
#
# Convention : Reuss Voigt Hill
#
# Bulk Modulus (GPa) = 36.87978 44.28117 40.58048
# Shear Modulus (GPa) = -16.39626 42.67752 13.14063
#
# Velocity S-wave (km/s) = -2.67109 4.30939 2.39124
# Velocity P-wave (km/s) = 2.55637 6.63549 5.02816
#
# Compressibility (1/GPa) = 0.02711513
#
# Stress axis : x y z
#
# Youngs Moduli (GPa) = 117.24365 97.93817 76.07810
#
# Poissons Ratio (x) = 0.27232 -0.13769
# Poissons Ratio (y) = 0.32600 0.10757
# Poissons Ratio (z) = -0.21220 0.13847
#
# Static dielectric constant tensor:
#      x y z
#    x 1.894670 0.000000 -0.005020 
#    y 0.000000 1.819610 0.000000 
#    z -0.005020 0.000000 1.829540 
# 
# From -- ./inp_files/217566.got.cif
#   From: 2010.05.17/outbox.cif.g08.bks.cpg/sg12_109_cif.got.tgz:217566.got - 2010.06.03 13:09:07.
