data_PCOD9222987
_publ_section_title
;
Structure prediction by ZEFSAII (Michael W. Deem and Ramdas Pophale) SiO2 
 PCOD9222987
Probable space group: C 2/M
;
_chemical_formula_sum "Si O2"
_cell_formula_units_Z 48
_cell_length_a 7.304733
_cell_length_b 18.607074
_cell_length_c 20.838099
_cell_angle_alpha 90.000000
_cell_angle_beta 127.487819
_cell_angle_gamma 90.000000
_cell_volume 2247.387778
_symmetry_space_group_name_H-M "C 2/M"
_symmetry_group_IT_number 12
_symmetry_cell_setting 'monoclinic'
loop_
_space_group_symop_operation_xyz
x,y,z
-x,y,-z
-x,-y,-z
x,-y,z
1/2+x,1/2+y,z
1/2-x,1/2+y,-z
1/2-x,1/2-y,-z
1/2+x,1/2-y,z
loop_
_atom_site_type_symbol
_atom_site_label
_atom_site_fract_x
_atom_site_fract_y
_atom_site_fract_z
Si Si1 0.228312 0.196201 0.082999
Si Si2 0.135213 0.415524 0.395668
Si Si3 0.926943 0.150751 0.265998
Si Si4 0.634993 0.416667 0.429822
Si Si5 0.022873 0.318187 0.744632
Si Si6 0.147217 0.359338 0.088377
O O1 0.254417 0.174434 0.162536
O O2 0.236291 0.282878 0.079358
O O3 0.443889 0.164435 0.092457
O O4 0.000000 0.170206 0.000000
O O5 0.067600 0.500000 0.381299
O O6 0.385085 0.412708 0.412458
O O7 0.184476 0.388507 0.478516
O O8 0.973396 0.364180 0.319110
O O9 0.695061 0.155903 0.260082
O O10 0.846521 0.114800 0.180935
O O11 0.107841 0.115020 0.353199
O O12 0.001618 0.232985 0.270394
O O13 0.690449 0.500000 0.434321
O O14 0.000000 0.398290 0.000000
#
# Coordination Sequence:
#
# PCOD9222987 Si02
#       6
#     8   8   8   8   8   8
#     4   9  15  23  36  55  80 107 134 164 198 238
#     4   8  14  26  44  63  82 107 140 173 202 238
#     4   9  17  27  41  64  88 108 134 170 209 243
#     4   8  14  26  44  63  82 107 140 173 202 238
#     4   9  17  27  41  64  88 108 134 170 209 243
#     4   9  15  23  36  55  80 107 134 164 198 238
#
# _framework density 21.358131
#
# number of rings (size 3 to 8) (size 9 to 14) (size 15 to 20)
#    0.000    3.333    0.000    3.000    0.000    2.000 
#    0.000    0.000    0.000    2.000    0.000    2.333 
#    0.000    0.000    0.000    0.000    0.000    9.000 
#
# Total GULP energy -133648.313994 kJ/mol
# GULP energy per Si atom -5568.679750 kJ/mol
# Density = 2.130952 g / cm^3
# Si number density = 21.358131 Si / 1000 Ang^3
#
#
#
# Elastic Constant Matrix: (Units=GPa)
#
#
# Indices 1 2 3 4 5 6 
#
# 1 44.0082 -5.6994 6.6028 0.0000 -4.0197 0.0000
# 2 -5.6994 23.1022 59.2239 0.0000 -3.3858 0.0000
# 3 6.6028 59.2239 252.3657 0.0000 -16.5627 0.0000
# 4 0.0000 0.0000 0.0000 -46.7168 0.0000 15.9397
# 5 -4.0197 -3.3858 -16.5627 0.0000 27.5402 0.0000
# 6 0.0000 0.0000 0.0000 15.9397 0.0000 1.3379
#
#
#
# Elastic Compliance Matrix: (Units=1/GPa)
#
#
# Indices 1 2 3 4 5 6 
#
# 1 0.026497 0.020694 -0.005340 0.000000 0.003200 0.000000
# 2 0.020694 0.124925 -0.029829 0.000000 0.000440 0.000000
# 3 -0.005340 -0.029829 0.011255 0.000000 0.002322 0.000000
# 4 0.000000 0.000000 0.000000 -0.004226 0.000000 0.050350
# 5 0.003200 0.000440 0.002322 0.000000 0.038228 0.000000
# 6 0.000000 0.000000 0.000000 0.050350 0.000000 0.147569
#
#
# Mechanical properties :
#
#
# Convention : Reuss Voigt Hill
#
# Bulk Modulus (GPa) = 7.47793 48.85896 28.16844
# Shear Modulus (GPa) = 11.96824 13.72217 12.84521
#
# Velocity S-wave (km/s) = 2.36976 2.53747 2.45505
# Velocity P-wave (km/s) = 3.31610 5.61344 4.61016
#
# Compressibility (1/GPa) = 0.13372691
#
# Stress axis : x y z
#
# Youngs Moduli (GPa) = 37.74076 8.00482 88.85115
#
# Poissons Ratio (x) = -0.16565 0.47443
# Poissons Ratio (y) = -0.78102 2.65037
# Poissons Ratio (z) = 0.20152 0.23878
#
# Static dielectric constant tensor:
#      x y z
#    x 1.858970 0.000000 -0.000550 
#    y 0.000000 1.723590 0.000000 
#    z -0.000550 0.000000 1.897160 
# 
# From -- ./inp_files/258810.got.cif
#   From: 2010.05.17/outbox.cif.g08.bks.cpg/sg12_130_cif.got.tgz:258810.got - 2010.06.03 13:09:07.
