data_PCOD9222428
_publ_section_title
;
Structure prediction by ZEFSAII (Michael W. Deem and Ramdas Pophale) SiO2 
 PCOD9222428
Probable space group: C 2/M
;
_chemical_formula_sum "Si O2"
_cell_formula_units_Z 26
_cell_length_a 15.517813
_cell_length_b 17.084313
_cell_length_c 7.608766
_cell_angle_alpha 90.000000
_cell_angle_beta 148.921877
_cell_angle_gamma 90.000000
_cell_volume 1041.275383
_symmetry_space_group_name_H-M "C 2/M"
_symmetry_group_IT_number 12
_symmetry_cell_setting 'monoclinic'
loop_
_space_group_symop_operation_xyz
x,y,z
-x,y,-z
-x,-y,-z
x,-y,z
1/2+x,1/2+y,z
1/2-x,1/2+y,-z
1/2-x,1/2-y,-z
1/2+x,1/2-y,z
loop_
_atom_site_type_symbol
_atom_site_label
_atom_site_fract_x
_atom_site_fract_y
_atom_site_fract_z
Si Si1 0.231814 0.720045 0.165977
Si Si2 0.128053 0.085257 0.386756
Si Si3 0.883000 0.630558 0.569367
Si Si4 0.500000 0.000000 0.500000
O O1 0.368486 0.656331 0.469879
O O2 0.252401 0.798748 0.312414
O O3 0.250000 0.750000 0.000000
O O4 0.056413 0.677015 0.882686
O O5 0.309082 0.087513 0.609070
O O6 0.104796 0.000000 0.432886
O O7 0.000000 0.090000 0.000000
O O8 0.904653 0.568874 0.450430
#
# Coordination Sequence:
#
# PCOD9222428 Si02
#       4
#     8   8   8   2
#     4  12  25  44  72 109 152 198 253 313 381 457
#     4  11  26  47  76 113 155 202 256 321 388 461
#     4  12  25  47  74 108 153 202 256 315 387 461
#     4  12  24  44  76 110 152 200 262 320 380 460
#
# _framework density 24.969377999999999
#
# number of rings (size 3 to 8) (size 9 to 14) (size 15 to 20)
#    0.000    0.308    4.615    3.692    2.154    1.231 
#    0.000    0.000    0.000    9.231    0.000    0.000 
#    0.000    0.000    0.000    0.000    0.000    0.000 
#
# Total GULP energy -72485.552604 kJ/mol
# GULP energy per Si atom -5575.811739 kJ/mol
# Density = 2.491255 g / cm^3
# Si number density = 24.969378 Si / 1000 Ang^3
#
#
#
# Elastic Constant Matrix: (Units=GPa)
#
#
# Indices 1 2 3 4 5 6 
#
# 1 86.5977 33.0750 15.9127 0.0000 -9.1557 0.0000
# 2 33.0750 249.7523 60.4549 0.0000 -17.7303 0.0000
# 3 15.9127 60.4549 98.9606 0.0000 16.4275 0.0000
# 4 0.0000 0.0000 0.0000 12.7963 0.0000 -2.5343
# 5 -9.1557 -17.7303 16.4275 0.0000 32.0592 0.0000
# 6 0.0000 0.0000 0.0000 -2.5343 0.0000 53.0048
#
#
#
# Elastic Compliance Matrix: (Units=1/GPa)
#
#
# Indices 1 2 3 4 5 6 
#
# 1 0.012739 -0.000832 -0.002260 0.000000 0.004336 0.000000
# 2 -0.000832 0.005415 -0.003970 0.000000 0.004791 0.000000
# 3 -0.002260 -0.003970 0.014608 0.000000 -0.010326 0.000000
# 4 0.000000 0.000000 0.000000 0.078895 0.000000 0.003772
# 5 0.004336 0.004791 -0.010326 0.000000 0.040371 0.000000
# 6 0.000000 0.000000 0.000000 0.003772 0.000000 0.019047
#
#
# Mechanical properties :
#
#
# Convention : Reuss Voigt Hill
#
# Bulk Modulus (GPa) = 53.65217 72.68840 63.17029
# Shear Modulus (GPa) = 26.12177 41.29658 33.70918
#
# Velocity S-wave (km/s) = 3.23794 4.07122 3.67825
# Velocity P-wave (km/s) = 5.95926 7.16058 6.58737
#
# Compressibility (1/GPa) = 0.01863857
#
# Stress axis : x y z
#
# Youngs Moduli (GPa) = 78.49807 184.66435 68.45760
#
# Poissons Ratio (x) = 0.15369 0.15470
# Poissons Ratio (y) = 0.06533 0.27176
# Poissons Ratio (z) = 0.17739 0.73306
#
# Static dielectric constant tensor:
#      x y z
#    x 1.949720 0.000000 -0.091320 
#    y 0.000000 2.102500 0.000000 
#    z -0.091320 0.000000 2.919090 
# 
# From -- ./inp_files/75644.got.cif
#   From: 2010.05.17/outbox.cif.g08.bks.cpg/sg12_38_cif.got.tgz:75644.got - 2010.06.03 13:09:07.
