data_PCOD9222216
_publ_section_title
;
Structure prediction by ZEFSAII (Michael W. Deem and Ramdas Pophale) SiO2 
 PCOD9222216
Probable space group: C 2/M
;
_chemical_formula_sum "Si O2"
_cell_formula_units_Z 24
_cell_length_a 14.118178
_cell_length_b 14.628692
_cell_length_c 10.602242
_cell_angle_alpha 90.000000
_cell_angle_beta 151.070807
_cell_angle_gamma 90.000000
_cell_volume 1059.213316
_symmetry_space_group_name_H-M "C 2/M"
_symmetry_group_IT_number 12
_symmetry_cell_setting 'monoclinic'
loop_
_space_group_symop_operation_xyz
x,y,z
-x,y,-z
-x,-y,-z
x,-y,z
1/2+x,1/2+y,z
1/2-x,1/2+y,-z
1/2-x,1/2-y,-z
1/2+x,1/2-y,z
loop_
_atom_site_type_symbol
_atom_site_label
_atom_site_fract_x
_atom_site_fract_y
_atom_site_fract_z
Si Si1 0.290662 0.000000 0.917128
Si Si2 0.346709 0.657785 0.721633
Si Si3 0.857597 0.000000 0.529542
Si Si4 0.055301 0.307579 0.806991
O O1 0.278217 0.000000 0.751443
O O2 0.073972 0.000000 0.723815
O O3 0.386981 0.907741 0.080180
O O4 0.332422 0.588024 0.588390
O O5 0.450008 0.749767 0.793806
O O6 0.123668 0.680373 0.502173
O O7 0.500000 0.617516 0.000000
O O8 0.250000 0.250000 0.000000
#
# Coordination Sequence:
#
# PCOD9222216 Si02
#       4
#     4   8   4   8
#     4  11  25  44  73 101 140 184 240 286 338 423
#     4  11  26  44  71 103 142 182 232 288 353 414
#     4  11  24  46  72 104 139 187 233 287 352 406
#     4  11  25  46  70 105 139 185 231 288 351 411
#
# _framework density 22.658325000000001
#
# number of rings (size 3 to 8) (size 9 to 14) (size 15 to 20)
#    0.000    1.000    3.333    1.500    9.333    2.667 
#    0.000    1.667    0.000    0.000    0.000    0.000 
#    0.000    0.000    0.000    0.000    0.000    0.000 
#
# Total GULP energy -67091.920279 kJ/mol
# GULP energy per Si atom -5590.993357 kJ/mol
# Density = 2.260675 g / cm^3
# Si number density = 22.658325 Si / 1000 Ang^3
#
#
#
# Elastic Constant Matrix: (Units=GPa)
#
#
# Indices 1 2 3 4 5 6 
#
# 1 77.5313 45.7442 79.7856 0.0000 16.5997 0.0000
# 2 45.7442 195.6972 69.6434 0.0000 14.3887 0.0000
# 3 79.7856 69.6434 232.6678 0.0000 31.8931 0.0000
# 4 0.0000 0.0000 0.0000 36.1135 0.0000 11.0521
# 5 16.5997 14.3887 31.8931 0.0000 29.2380 0.0000
# 6 0.0000 0.0000 0.0000 11.0521 0.0000 21.6051
#
#
#
# Elastic Compliance Matrix: (Units=1/GPa)
#
#
# Indices 1 2 3 4 5 6 
#
# 1 0.021550 -0.002572 -0.006016 0.000000 -0.004407 0.000000
# 2 -0.002572 0.006057 -0.000850 0.000000 -0.000594 0.000000
# 3 -0.006016 -0.000850 0.007160 0.000000 -0.003977 0.000000
# 4 0.000000 0.000000 0.000000 0.032830 0.000000 -0.016794
# 5 -0.004407 -0.000594 -0.003977 0.000000 0.041334 0.000000
# 6 0.000000 0.000000 0.000000 -0.016794 0.000000 0.054876
#
#
# Mechanical properties :
#
#
# Convention : Reuss Voigt Hill
#
# Bulk Modulus (GPa) = 62.92477 99.58254 81.25365
# Shear Modulus (GPa) = 26.59835 38.10618 32.35227
#
# Velocity S-wave (km/s) = 3.42992 4.10539 3.78276
# Velocity P-wave (km/s) = 6.59676 8.15582 7.41737
#
# Compressibility (1/GPa) = 0.01589199
#
# Stress axis : x y z
#
# Youngs Moduli (GPa) = 46.40373 165.09188 139.65820
#
# Poissons Ratio (x) = 0.42469 0.84015
# Poissons Ratio (y) = 0.11937 0.11865
# Poissons Ratio (z) = 0.27915 0.14026
#
# Static dielectric constant tensor:
#      x y z
#    x 1.834040 0.000000 0.006520 
#    y 0.000000 1.805520 0.000000 
#    z 0.006520 0.000000 1.969180 
# 
# From -- ./inp_files/142365.got.cif
#   From: 2010.05.17/outbox.cif.g08.bks.cpg/sg12_72_cif.got.tgz:142365.got - 2010.06.03 13:09:07.
