data_PCOD9222593
_publ_section_title
;
Structure prediction by ZEFSAII (Michael W. Deem and Ramdas Pophale) SiO2 
 PCOD9222593
Probable space group: C 2/M
;
_chemical_formula_sum "Si O2"
_cell_formula_units_Z 48
_cell_length_a 16.143803
_cell_length_b 29.288924
_cell_length_c 9.423453
_cell_angle_alpha 90.000000
_cell_angle_beta 31.189142
_cell_angle_gamma 90.000000
_cell_volume 2307.468670
_symmetry_space_group_name_H-M "C 2/M"
_symmetry_group_IT_number 12
_symmetry_cell_setting 'monoclinic'
loop_
_space_group_symop_operation_xyz
x,y,z
-x,y,-z
-x,-y,-z
x,-y,z
1/2+x,1/2+y,z
1/2-x,1/2+y,-z
1/2-x,1/2-y,-z
1/2+x,1/2-y,z
loop_
_atom_site_type_symbol
_atom_site_label
_atom_site_fract_x
_atom_site_fract_y
_atom_site_fract_z
Si Si1 0.824120 0.131982 0.182399
Si Si2 0.671866 0.140552 0.703988
Si Si3 0.360429 0.447974 0.911544
Si Si4 0.875379 0.772855 0.420193
Si Si5 0.267524 0.276116 0.121846
Si Si6 0.731496 0.447480 0.269483
O O1 0.700112 0.133336 0.494907
O O2 0.832074 0.085269 0.083942
O O3 0.769349 0.169598 0.146143
O O4 0.000000 0.139973 0.000000
O O5 0.814369 0.175595 0.537274
O O6 0.684930 0.092528 0.766099
O O7 0.500000 0.160600 0.000000
O O8 0.321432 0.500000 0.007263
O O9 0.547490 0.446403 0.593276
O O10 0.269084 0.437023 0.898172
O O11 0.750000 0.750000 0.500000
O O12 0.049462 0.766833 0.101545
O O13 0.860664 0.745484 0.586471
O O14 0.250000 0.250000 0.000000
O O15 0.788230 0.500000 0.206441
#
# Coordination Sequence:
#
# PCOD9222593 Si02
#       6
#     8   8   8   8   8   8
#     4  12  22  43  65  96 130 168 222 274 322 388
#     4  12  25  41  66  93 129 175 217 272 330 388
#     4   9  19  37  66  99 130 169 215 271 326 387
#     4  12  23  45  66  90 129 168 213 266 326 381
#     4  12  26  42  64  97 128 167 215 267 322 389
#     4   9  19  38  63  96 134 168 214 267 326 391
#
# _framework density 20.802014
#
# number of rings (size 3 to 8) (size 9 to 14) (size 15 to 20)
#    0.000    1.000    5.000    3.000    2.333    1.333 
#    0.000    0.833    0.000    2.000    0.000    0.000 
#    0.000    0.000    0.000    0.000    0.000    0.000 
#
# Total GULP energy -133918.898728 kJ/mol
# GULP energy per Si atom -5579.954114 kJ/mol
# Density = 2.075467 g / cm^3
# Si number density = 20.802014 Si / 1000 Ang^3
#
#
#
# Elastic Constant Matrix: (Units=GPa)
#
#
# Indices 1 2 3 4 5 6 
#
# 1 69.5673 49.0363 8.3329 0.0000 13.9194 0.0000
# 2 49.0363 116.5902 11.7410 0.0000 17.0071 0.0000
# 3 8.3329 11.7410 81.3172 0.0000 8.7633 0.0000
# 4 0.0000 0.0000 0.0000 26.4679 0.0000 11.1659
# 5 13.9194 17.0071 8.7633 0.0000 31.3214 0.0000
# 6 0.0000 0.0000 0.0000 11.1659 0.0000 43.4346
#
#
#
# Elastic Compliance Matrix: (Units=1/GPa)
#
#
# Indices 1 2 3 4 5 6 
#
# 1 0.021134 -0.008135 -0.000469 0.000000 -0.004844 0.000000
# 2 -0.008135 0.012500 -0.000649 0.000000 -0.002991 0.000000
# 3 -0.000469 -0.000649 0.012764 0.000000 -0.003010 0.000000
# 4 0.000000 0.000000 0.000000 0.042377 0.000000 -0.010894
# 5 -0.004844 -0.002991 -0.003010 0.000000 0.036546 0.000000
# 6 0.000000 0.000000 0.000000 -0.010894 0.000000 0.025824
#
#
# Mechanical properties :
#
#
# Convention : Reuss Voigt Hill
#
# Bulk Modulus (GPa) = 35.85274 45.07724 40.46499
# Shear Modulus (GPa) = 27.94111 33.46908 30.70510
#
# Velocity S-wave (km/s) = 3.66894 4.01550 3.84613
# Velocity P-wave (km/s) = 5.93471 6.57387 6.26245
#
# Compressibility (1/GPa) = 0.02789187
#
# Stress axis : x y z
#
# Youngs Moduli (GPa) = 47.31718 79.99957 78.34715
#
# Poissons Ratio (x) = 0.65079 0.03676
# Poissons Ratio (y) = 0.38492 0.05084
# Poissons Ratio (z) = 0.02220 0.05191
#
# Static dielectric constant tensor:
#      x y z
#    x 1.756800 0.000000 -0.023340 
#    y 0.000000 1.780890 0.000000 
#    z -0.023340 0.000000 1.730570 
# 
# From -- ./inp_files/67320.got.cif
#   From: 2010.05.17/outbox.cif.g08.bks.cpg/sg12_34_cif.got.tgz:67320.got - 2010.06.03 13:09:07.
