data_PCOD9222824
_publ_section_title
;
Structure prediction by ZEFSAII (Michael W. Deem and Ramdas Pophale) SiO2 
 PCOD9222824
Probable space group: C 2/M
;
_chemical_formula_sum "Si O2"
_cell_formula_units_Z 64
_cell_length_a 19.730405
_cell_length_b 7.442711
_cell_length_c 21.884749
_cell_angle_alpha 90.000000
_cell_angle_beta 91.068151
_cell_angle_gamma 90.000000
_cell_volume 3213.166654
_symmetry_space_group_name_H-M "C 2/M"
_symmetry_group_IT_number 12
_symmetry_cell_setting 'monoclinic'
loop_
_space_group_symop_operation_xyz
x,y,z
-x,y,-z
-x,-y,-z
x,-y,z
1/2+x,1/2+y,z
1/2-x,1/2+y,-z
1/2-x,1/2-y,-z
1/2+x,1/2-y,z
loop_
_atom_site_type_symbol
_atom_site_label
_atom_site_fract_x
_atom_site_fract_y
_atom_site_fract_z
Si Si1 0.479417 0.282555 0.864184
Si Si2 0.585205 0.778930 0.373161
Si Si3 0.626268 0.285452 0.038175
Si Si4 0.872164 0.220315 0.101172
Si Si5 0.169945 0.715231 0.492796
Si Si6 0.544801 0.208652 0.563137
Si Si7 0.768527 0.714991 0.854622
Si Si8 0.126264 0.710119 0.241154
O O1 0.477995 0.500000 0.864734
O O2 0.437764 0.219912 0.923293
O O3 0.556526 0.223853 0.869587
O O4 0.438949 0.223404 0.803802
O O5 0.636975 0.724230 0.427942
O O6 0.508693 0.716962 0.388579
O O7 0.610428 0.716122 0.307652
O O8 0.583210 0.000000 0.373435
O O9 0.618823 0.500000 0.033318
O O10 0.690723 0.248252 0.081901
O O11 0.631974 0.218616 0.969406
O O12 0.807210 0.282157 0.137809
O O13 0.870865 0.000000 0.100599
O O14 0.162350 0.500000 0.493465
O O15 0.250000 0.750000 0.500000
O O16 0.118497 0.783943 0.545229
O O17 0.500000 0.212234 0.500000
O O18 0.555749 0.000000 0.580071
O O19 0.765862 0.500000 0.847199
O O20 0.812667 0.787798 0.798931
O O21 0.141602 0.500000 0.250790
#
# Coordination Sequence:
#
# PCOD9222824 Si02
#       8
#     8   8   8   8   8   8   8   8
#     4   9  17  29  44  61  82 108 139 175 211 248
#     4   8  14  27  47  64  80 111 150 175 194 237
#     4   9  16  27  44  62  79 105 141 175 208 251
#     4   9  16  27  43  61  81 107 138 171 211 258
#     4   9  16  27  45  69  93 113 135 169 211 246
#     4   7  11  22  42  64  81 104 142 175 193 223
#     4   9  17  28  42  61  85 110 136 170 211 253
#     4   9  17  30  46  62  81 109 144 175 204 243
#
# _framework density 19.918044999999999
#
# number of rings (size 3 to 8) (size 9 to 14) (size 15 to 20)
#    0.000    3.375    0.000    2.250    0.000    1.500 
#    0.000    3.125    0.000    8.625    0.000    0.000 
#    0.000    0.000    0.000    0.000    0.000    0.000 
#
# Total GULP energy -178301.352387 kJ/mol
# GULP energy per Si atom -5571.917262 kJ/mol
# Density = 1.987271 g / cm^3
# Si number density = 19.918045 Si / 1000 Ang^3
#
#
#
# Elastic Constant Matrix: (Units=GPa)
#
#
# Indices 1 2 3 4 5 6 
#
# 1 192.9649 2.7830 77.0617 0.0000 -25.2186 0.0000
# 2 2.7830 63.1235 4.2616 0.0000 -6.8734 0.0000
# 3 77.0617 4.2616 128.0065 0.0000 -24.1889 0.0000
# 4 0.0000 0.0000 0.0000 10.5781 0.0000 9.5104
# 5 -25.2186 -6.8734 -24.1889 0.0000 12.9615 0.0000
# 6 0.0000 0.0000 0.0000 9.5104 0.0000 14.7762
#
#
#
# Elastic Compliance Matrix: (Units=1/GPa)
#
#
# Indices 1 2 3 4 5 6 
#
# 1 0.007571 0.000968 -0.002641 0.000000 0.010316 0.000000
# 2 0.000968 0.017191 0.001427 0.000000 0.013661 0.000000
# 3 -0.002641 0.001427 0.013171 0.000000 0.020199 0.000000
# 4 0.000000 0.000000 0.000000 0.224370 0.000000 -0.144412
# 5 0.010316 0.013661 0.020199 0.000000 0.142163 0.000000
# 6 0.000000 0.000000 0.000000 -0.144412 0.000000 0.160624
#
#
# Mechanical properties :
#
#
# Convention : Reuss Voigt Hill
#
# Bulk Modulus (GPa) = 26.70931 61.36750 44.03840
# Shear Modulus (GPa) = 8.64957 27.66240 18.15599
#
# Velocity S-wave (km/s) = 2.08615 3.73072 3.02244
# Velocity P-wave (km/s) = 4.38650 7.03097 5.85986
#
# Compressibility (1/GPa) = 0.03744013
#
# Stress axis : x y z
#
# Youngs Moduli (GPa) = 132.08081 58.17155 75.92233
#
# Poissons Ratio (x) = -0.05630 0.20050
# Poissons Ratio (y) = -0.12782 -0.10831
# Poissons Ratio (z) = 0.34880 -0.08299
#
# Static dielectric constant tensor:
#      x y z
#    x 1.715880 0.000000 -0.046880 
#    y 0.000000 1.765530 0.000000 
#    z -0.046880 0.000000 1.684410 
# 
# From -- ./inp_files/319152.got.cif
#   From: 2010.05.17/outbox.cif.g08.bks.cpg/sg12_160_cif.got.tgz:319152.got - 2010.06.03 13:09:07.
