data_PCOD9222760
_publ_section_title
;
Structure prediction by ZEFSAII (Michael W. Deem and Ramdas Pophale) SiO2 
 PCOD9222760
Probable space group: C 2/M
;
_chemical_formula_sum "Si O2"
_cell_formula_units_Z 32
_cell_length_a 16.082312
_cell_length_b 18.599826
_cell_length_c 9.104897
_cell_angle_alpha 90.000000
_cell_angle_beta 152.144233
_cell_angle_gamma 90.000000
_cell_volume 1272.563004
_symmetry_space_group_name_H-M "C 2/M"
_symmetry_group_IT_number 12
_symmetry_cell_setting 'monoclinic'
loop_
_space_group_symop_operation_xyz
x,y,z
-x,y,-z
-x,-y,-z
x,-y,z
1/2+x,1/2+y,z
1/2-x,1/2+y,-z
1/2-x,1/2-y,-z
1/2+x,1/2-y,z
loop_
_atom_site_type_symbol
_atom_site_label
_atom_site_fract_x
_atom_site_fract_y
_atom_site_fract_z
Si Si1 0.648523 0.368583 0.862029
Si Si2 0.026033 0.000000 0.862973
Si Si3 0.345080 0.268646 0.864733
Si Si4 0.003295 0.643412 0.242830
Si Si5 0.346987 0.000000 0.647129
O O1 0.500000 0.370422 0.500000
O O2 0.611372 0.431219 0.921397
O O3 0.636459 0.296924 0.940443
O O4 0.851025 0.375440 0.122427
O O5 0.819752 0.000000 0.505141
O O6 0.000000 0.000000 0.000000
O O7 0.155443 0.297429 0.515278
O O8 0.500000 0.297884 0.000000
O O9 0.377051 0.182828 0.923446
O O10 0.118700 0.572660 0.389410
O O11 0.500000 0.000000 0.000000
#
# Coordination Sequence:
#
# PCOD9222760 Si02
#       5
#     8   4   8   8   4
#     4  12  25  46  73 110 153 201 251 314 382 454
#     4  12  26  48  76 110 153 201 256 317 380 453
#     4  12  26  47  75 111 152 200 253 315 381 455
#     4  12  26  47  76 112 152 200 254 314 380 454
#     4  12  25  46  74 110 148 197 252 313 380 453
#
# _framework density 25.146103
#
# number of rings (size 3 to 8) (size 9 to 14) (size 15 to 20)
#    0.000    0.000    0.000   10.875    0.000    0.000 
#    0.000    3.750    0.000    0.000    0.000    0.000 
#    0.000    0.000    0.000    0.000    0.000    0.000 
#
# Total GULP energy -89485.234301 kJ/mol
# GULP energy per Si atom -5592.827144 kJ/mol
# Density = 2.508887 g / cm^3
# Si number density = 25.146103 Si / 1000 Ang^3
#
#
#
# Elastic Constant Matrix: (Units=GPa)
#
#
# Indices 1 2 3 4 5 6 
#
# 1 164.5484 39.3687 35.0747 0.0000 51.1059 0.0000
# 2 39.3687 121.4713 14.0538 0.0000 31.3303 0.0000
# 3 35.0747 14.0538 122.7443 0.0000 27.4681 0.0000
# 4 0.0000 0.0000 0.0000 26.9618 0.0000 7.2808
# 5 51.1059 31.3303 27.4681 0.0000 69.3982 0.0000
# 6 0.0000 0.0000 0.0000 7.2808 0.0000 43.7768
#
#
#
# Elastic Compliance Matrix: (Units=1/GPa)
#
#
# Indices 1 2 3 4 5 6 
#
# 1 0.008161 -0.001223 -0.001065 0.000000 -0.005036 0.000000
# 2 -0.001223 0.009503 0.000022 0.000000 -0.003398 0.000000
# 3 -0.001065 0.000022 0.009080 0.000000 -0.002819 0.000000
# 4 0.000000 0.000000 0.000000 0.038834 0.000000 -0.006459
# 5 -0.005036 -0.003398 -0.002819 0.000000 0.020768 0.000000
# 6 0.000000 0.000000 0.000000 -0.006459 0.000000 0.023917
#
#
# Mechanical properties :
#
#
# Convention : Reuss Voigt Hill
#
# Bulk Modulus (GPa) = 45.02147 65.08426 55.05286
# Shear Modulus (GPa) = 40.91701 49.37849 45.14775
#
# Velocity S-wave (km/s) = 4.03820 4.43613 4.24183
# Velocity P-wave (km/s) = 6.29965 7.22341 6.77728
#
# Compressibility (1/GPa) = 0.02221163
#
# Stress axis : x y z
#
# Youngs Moduli (GPa) = 122.53405 105.23379 110.13489
#
# Poissons Ratio (x) = 0.12868 0.11729
# Poissons Ratio (y) = 0.14983 -0.00241
# Poissons Ratio (z) = 0.13050 -0.00230
#
# Static dielectric constant tensor:
#      x y z
#    x 2.004010 0.000000 -0.115180 
#    y 0.000000 1.974660 0.000000 
#    z -0.115180 0.000000 1.997830 
# 
# From -- ./inp_files/65673.got.cif
#   From: 2010.05.17/outbox.cif.g08.bks.cpg/sg12_33_cif.got.tgz:65673.got - 2010.06.03 13:09:07.
