data_PCOD9222705
_publ_section_title
;
Structure prediction by ZEFSAII (Michael W. Deem and Ramdas Pophale) SiO2 
 PCOD9222705
Probable space group: C 2/M
;
_chemical_formula_sum "Si O2"
_cell_formula_units_Z 48
_cell_length_a 9.461228
_cell_length_b 13.955704
_cell_length_c 16.860715
_cell_angle_alpha 90.000000
_cell_angle_beta 87.529346
_cell_angle_gamma 90.000000
_cell_volume 2224.187272
_symmetry_space_group_name_H-M "C 2/M"
_symmetry_group_IT_number 12
_symmetry_cell_setting 'monoclinic'
loop_
_space_group_symop_operation_xyz
x,y,z
-x,y,-z
-x,-y,-z
x,-y,z
1/2+x,1/2+y,z
1/2-x,1/2+y,-z
1/2-x,1/2-y,-z
1/2+x,1/2-y,z
loop_
_atom_site_type_symbol
_atom_site_label
_atom_site_fract_x
_atom_site_fract_y
_atom_site_fract_z
Si Si1 0.377708 0.723496 0.054872
Si Si2 0.351987 0.882848 0.331962
Si Si3 0.939719 0.607630 0.162399
Si Si4 0.233743 0.891349 0.792239
Si Si5 0.334125 0.117410 0.625192
Si Si6 0.342083 0.617157 0.523847
O O1 0.434153 0.822842 0.089068
O O2 0.336600 0.664210 0.133835
O O3 0.500000 0.675232 0.000000
O O4 0.250000 0.750000 0.000000
O O5 0.346622 0.857094 0.239370
O O6 0.503449 0.851980 0.365004
O O7 0.222566 0.852370 0.390319
O O8 0.354992 0.000000 0.332180
O O9 0.896695 0.500000 0.142095
O O10 0.099231 0.604949 0.191312
O O11 0.234847 0.853149 0.701934
O O12 0.177802 0.000000 0.792073
O O13 0.266378 0.144363 0.543311
O O14 0.336353 0.000000 0.627688
O O15 0.500000 0.650232 0.500000
O O16 0.346133 0.500000 0.524855
#
# Coordination Sequence:
#
# PCOD9222705 Si02
#       6
#     8   8   8   8   8   8
#     4  12  24  40  61  88 114 143 187 237 290 347
#     4   8  14  27  49  74 100 140 191 226 256 316
#     4   9  19  38  62  84 111 152 194 230 276 340
#     4   9  19  38  61  84 114 150 190 234 281 335
#     4   8  14  27  49  73 100 143 189 223 260 317
#     4   9  15  23  39  72 115 145 172 219 274 322
#
# _framework density 21.580916999999999
#
# number of rings (size 3 to 8) (size 9 to 14) (size 15 to 20)
#    0.000    2.833    1.667    2.500    0.000    3.333 
#    3.000    0.000    0.000    1.000    0.000    0.000 
#    0.000    0.000    0.000    0.000    0.000    0.000 
#
# Total GULP energy -134003.236320 kJ/mol
# GULP energy per Si atom -5583.468180 kJ/mol
# Density = 2.153180 g / cm^3
# Si number density = 21.580917 Si / 1000 Ang^3
#
#
#
# Elastic Constant Matrix: (Units=GPa)
#
#
# Indices 1 2 3 4 5 6 
#
# 1 55.4406 -9.0370 25.8344 0.0000 -30.6378 0.0000
# 2 -9.0370 45.7864 12.7803 0.0000 -14.3218 0.0000
# 3 25.8344 12.7803 118.1327 0.0000 -37.6148 0.0000
# 4 0.0000 0.0000 0.0000 31.9340 0.0000 -7.4971
# 5 -30.6378 -14.3218 -37.6148 0.0000 45.2166 0.0000
# 6 0.0000 0.0000 0.0000 -7.4971 0.0000 10.3107
#
#
#
# Elastic Compliance Matrix: (Units=1/GPa)
#
#
# Indices 1 2 3 4 5 6 
#
# 1 0.038226 0.017374 -0.000326 0.000000 0.031133 0.000000
# 2 0.017374 0.032144 -0.000390 0.000000 0.021629 0.000000
# 3 -0.000326 -0.000390 0.011520 0.000000 0.009239 0.000000
# 4 0.000000 0.000000 0.000000 0.037761 0.000000 0.027457
# 5 0.031133 0.021629 0.009239 0.000000 0.057747 0.000000
# 6 0.000000 0.000000 0.000000 0.027457 0.000000 0.116951
#
#
# Mechanical properties :
#
#
# Convention : Reuss Voigt Hill
#
# Bulk Modulus (GPa) = 8.68009 30.94612 19.81311
# Shear Modulus (GPa) = 16.69806 30.14440 23.42123
#
# Velocity S-wave (km/s) = 2.78464 3.74144 3.29793
# Velocity P-wave (km/s) = 3.79075 5.74763 4.86852
#
# Compressibility (1/GPa) = 0.11520617
#
# Stress axis : x y z
#
# Youngs Moduli (GPa) = 26.16011 31.10985 86.80256
#
# Poissons Ratio (x) = -0.54051 0.02832
# Poissons Ratio (y) = -0.45451 0.03387
# Poissons Ratio (z) = 0.00853 0.01214
#
# Static dielectric constant tensor:
#      x y z
#    x 1.760970 0.000000 -0.029660 
#    y 0.000000 1.830050 0.000000 
#    z -0.029660 0.000000 1.801060 
# 
# From -- ./inp_files/255755.got.cif
#   From: 2010.05.17/outbox.cif.g08.bks.cpg/sg12_128_cif.got.tgz:255755.got - 2010.06.03 13:09:07.
