data_PCOD9222479
_publ_section_title
;
Structure prediction by ZEFSAII (Michael W. Deem and Ramdas Pophale) SiO2 
 PCOD9222479
Probable space group: C 2/M
;
_chemical_formula_sum "Si O2"
_cell_formula_units_Z 40
_cell_length_a 25.349991
_cell_length_b 14.916855
_cell_length_c 19.231288
_cell_angle_alpha 90.000000
_cell_angle_beta 19.055761
_cell_angle_gamma 90.000000
_cell_volume 2374.274494
_symmetry_space_group_name_H-M "C 2/M"
_symmetry_group_IT_number 12
_symmetry_cell_setting 'monoclinic'
loop_
_space_group_symop_operation_xyz
x,y,z
-x,y,-z
-x,-y,-z
x,-y,z
1/2+x,1/2+y,z
1/2-x,1/2+y,-z
1/2-x,1/2-y,-z
1/2+x,1/2-y,z
loop_
_atom_site_type_symbol
_atom_site_label
_atom_site_fract_x
_atom_site_fract_y
_atom_site_fract_z
Si Si1 0.187046 0.896870 0.141074
Si Si2 0.157465 0.396860 0.670382
Si Si3 0.711878 0.104110 0.825900
Si Si4 0.057678 0.398342 0.634798
Si Si5 0.375939 0.710716 0.498178
O O1 0.209608 0.883529 0.195857
O O2 0.056668 0.828760 0.274205
O O3 0.132656 0.000000 0.198508
O O4 0.364602 0.888671 0.886611
O O5 0.205733 0.500000 0.625120
O O6 0.133606 0.388645 0.617416
O O7 0.282441 0.328786 0.548101
O O8 0.980185 0.383484 0.925096
O O9 0.786661 0.169638 0.676339
O O10 0.739011 0.000000 0.771557
O O11 0.089777 0.500000 0.570580
O O12 0.119873 0.317757 0.510272
#
# Coordination Sequence:
#
# PCOD9222479 Si02
#       5
#     8   8   8   8   8
#     4   9  18  32  48  69  96 119 144 186 236 276
#     4   9  18  32  48  69  96 119 144 186 236 276
#     4   9  18  31  47  71 100 119 136 182 246 283
#     4   9  20  35  45  61  96 131 152 180 224 267
#     4  12  18  26  50  76  90 114 158 190 218 270
#
# _framework density 16.847251
#
# number of rings (size 3 to 8) (size 9 to 14) (size 15 to 20)
#    0.000    2.400    0.000    6.600    0.000    3.200 
#    0.000    0.000    0.000    4.800    0.000    8.400 
#    0.000    0.000    0.000    0.000    0.000    0.000 
#
# Total GULP energy -111610.214235 kJ/mol
# GULP energy per Si atom -5580.510712 kJ/mol
# Density = 1.680891 g / cm^3
# Si number density = 16.847251 Si / 1000 Ang^3
#
#
#
# Elastic Constant Matrix: (Units=GPa)
#
#
# Indices 1 2 3 4 5 6 
#
# 1 49.9377 49.0188 18.0411 0.0012 -11.1689 0.0052
# 2 49.0188 146.1335 48.2069 0.0022 -3.4569 -0.0024
# 3 18.0411 48.2069 44.1923 0.0034 -6.7601 -0.0119
# 4 0.0012 0.0022 0.0034 12.4607 -0.0020 -1.5728
# 5 -11.1689 -3.4569 -6.7601 -0.0020 26.6412 0.0032
# 6 0.0052 -0.0024 -0.0119 -1.5728 0.0032 13.4565
#
#
#
# Elastic Compliance Matrix: (Units=1/GPa)
#
#
# Indices 1 2 3 4 5 6 
#
# 1 0.033647 -0.011086 0.000307 -0.000002 0.012745 -0.000018
# 2 -0.011086 0.014411 -0.012089 0.000001 -0.005845 -0.000002
# 3 0.000307 -0.012089 0.036902 -0.000003 0.007924 0.000028
# 4 -0.000002 0.000001 -0.000003 0.081454 0.000003 0.009520
# 5 0.012745 -0.005845 0.007924 0.000003 0.044131 -0.000009
# 6 -0.000018 -0.000002 0.000028 0.009520 -0.000009 0.075426
#
#
# Mechanical properties :
#
#
# Convention : Reuss Voigt Hill
#
# Bulk Modulus (GPa) = 25.49438 52.31079 38.90259
# Shear Modulus (GPa) = 14.50184 18.84479 16.67331
#
# Velocity S-wave (km/s) = 2.93709 3.34813 3.14932
# Velocity P-wave (km/s) = 5.16406 6.78705 6.03041
#
# Compressibility (1/GPa) = 0.03922433
#
# Stress axis : x y z
#
# Youngs Moduli (GPa) = 29.72043 69.38905 27.09848
#
# Poissons Ratio (x) = 0.76926 -0.00832
# Poissons Ratio (y) = 0.32949 0.32759
# Poissons Ratio (z) = -0.00912 0.83885
#
# Static dielectric constant tensor:
#      x y z
#    x 1.568570 0.000000 -0.012210 
#    y 0.000000 1.558480 0.000000 
#    z -0.012210 0.000000 1.563910 
# 
# From -- ./inp_files/59064.got.cif
#   From: 2010.05.17/outbox.cif.g08.bks.cpg/sg12_30_cif.got.tgz:59064.got - 2010.06.03 13:09:07.
