data_PCOD9222509
_publ_section_title
;
Structure prediction by ZEFSAII (Michael W. Deem and Ramdas Pophale) SiO2 
 PCOD9222509
Probable space group: C 2/M
;
_chemical_formula_sum "Si O2"
_cell_formula_units_Z 48
_cell_length_a 19.505071
_cell_length_b 14.341238
_cell_length_c 19.528589
_cell_angle_alpha 90.000000
_cell_angle_beta 29.392733
_cell_angle_gamma 90.000000
_cell_volume 2681.042053
_symmetry_space_group_name_H-M "C 2/M"
_symmetry_group_IT_number 12
_symmetry_cell_setting 'monoclinic'
loop_
_space_group_symop_operation_xyz
x,y,z
-x,y,-z
-x,-y,-z
x,-y,z
1/2+x,1/2+y,z
1/2-x,1/2+y,-z
1/2-x,1/2-y,-z
1/2+x,1/2-y,z
loop_
_atom_site_type_symbol
_atom_site_label
_atom_site_fract_x
_atom_site_fract_y
_atom_site_fract_z
Si Si1 0.046806 0.699791 0.883591
Si Si2 0.639003 0.000000 0.610412
Si Si3 0.467556 0.000000 0.898890
Si Si4 0.370323 0.311611 0.562074
Si Si5 0.582656 0.500000 0.564592
Si Si6 0.650514 0.500000 0.123844
Si Si7 0.608741 0.793354 0.591367
Si Si8 0.901601 0.795440 0.878542
O O1 0.215299 0.696821 0.728768
O O2 0.991952 0.594173 0.919815
O O3 0.977406 0.759554 0.881939
O O4 0.000000 0.731382 0.000000
O O5 0.577579 0.000000 0.740644
O O6 0.806003 0.000000 0.470829
O O7 0.595558 0.096723 0.614634
O O8 0.314235 0.000000 0.999196
O O9 0.500000 0.307211 0.500000
O O10 0.386519 0.409123 0.507257
O O11 0.389126 0.231669 0.489487
O O12 0.432803 0.500000 0.731255
O O13 0.611830 0.406600 0.116373
O O14 0.750000 0.750000 0.500000
O O15 0.489583 0.741311 0.737393
O O16 0.750000 0.750000 0.000000
#
# Coordination Sequence:
#
# PCOD9222509 Si02
#       8
#     8   4   4   8   4   4   8   8
#     4  12  26  43  63  93 138 177 208 264 331 391
#     4  12  20  40  70  94 123 166 221 274 320 375
#     4  12  21  42  63  96 130 168 212 264 332 391
#     4  12  26  42  63  97 134 172 216 266 328 387
#     4  12  21  38  67  96 128 160 214 280 327 379
#     4  12  24  36  70 104 123 164 221 274 317 373
#     4  12  21  42  67  93 126 170 217 274 317 378
#     4  12  23  42  67  95 131 169 221 264 317 387
#
# _framework density 17.903485
#
# number of rings (size 3 to 8) (size 9 to 14) (size 15 to 20)
#    0.000    0.000   10.000    0.500    4.667    0.000 
#    0.000    0.833    0.000    0.000    0.000    0.000 
#    0.000    0.000    0.000    0.000    0.000    0.000 
#
# Total GULP energy -134132.937462 kJ/mol
# GULP energy per Si atom -5588.872394 kJ/mol
# Density = 1.786274 g / cm^3
# Si number density = 17.903485 Si / 1000 Ang^3
#
#
#
# Elastic Constant Matrix: (Units=GPa)
#
#
# Indices 1 2 3 4 5 6 
#
# 1 92.8615 41.1597 33.1855 0.0000 -8.8263 -0.0001
# 2 41.1597 133.6652 23.0665 0.0002 -2.6549 -0.0002
# 3 33.1855 23.0665 104.9152 0.0000 -11.6499 -0.0007
# 4 0.0000 0.0002 0.0000 39.6273 -0.0002 38.8693
# 5 -8.8263 -2.6549 -11.6499 -0.0002 35.6411 0.0000
# 6 -0.0001 -0.0002 -0.0007 38.8693 0.0000 99.6009
#
#
#
# Elastic Compliance Matrix: (Units=1/GPa)
#
#
# Indices 1 2 3 4 5 6 
#
# 1 0.013758 -0.003622 -0.003328 0.000000 0.002050 0.000000
# 2 -0.003622 0.008730 -0.000831 0.000000 -0.000518 0.000000
# 3 -0.003328 -0.000831 0.011070 0.000000 0.002732 0.000000
# 4 0.000000 0.000000 0.000000 0.040886 0.000000 -0.015956
# 5 0.002050 -0.000518 0.002732 0.000000 0.029420 0.000000
# 6 0.000000 0.000000 0.000000 -0.015956 0.000000 0.016267
#
#
# Mechanical properties :
#
#
# Convention : Reuss Voigt Hill
#
# Bulk Modulus (GPa) = 55.56650 58.47393 57.02021
# Shear Modulus (GPa) = 35.28820 50.57588 42.93204
#
# Velocity S-wave (km/s) = 4.44444 5.32076 4.90222
# Velocity P-wave (km/s) = 7.57901 8.39517 7.99751
#
# Compressibility (1/GPa) = 0.01799645
#
# Stress axis : x y z
#
# Youngs Moduli (GPa) = 72.68494 114.55117 90.33124
#
# Poissons Ratio (x) = 0.41485 0.30062
# Poissons Ratio (y) = 0.26323 0.07510
# Poissons Ratio (z) = 0.24189 0.09523
#
# Static dielectric constant tensor:
#      x y z
#    x 1.669460 0.000000 -0.058710 
#    y 0.000000 1.593080 0.000000 
#    z -0.058710 0.000000 1.609790 
# 
# From -- ./inp_files/278108.got.cif
#   From: 2010.05.17/outbox.cif.g08.bks.cpg/sg12_140_cif.got.tgz:278108.got - 2010.06.03 13:09:07.
