data_PCOD9222679
_publ_section_title
;
Structure prediction by ZEFSAII (Michael W. Deem and Ramdas Pophale) SiO2 
 PCOD9222679
Probable space group: C 2/M
;
_chemical_formula_sum "Si O2"
_cell_formula_units_Z 26
_cell_length_a 10.648511
_cell_length_b 9.939305
_cell_length_c 12.764748
_cell_angle_alpha 90.000000
_cell_angle_beta 47.245553
_cell_angle_gamma 90.000000
_cell_volume 992.002637
_symmetry_space_group_name_H-M "C 2/M"
_symmetry_group_IT_number 12
_symmetry_cell_setting 'monoclinic'
loop_
_space_group_symop_operation_xyz
x,y,z
-x,y,-z
-x,-y,-z
x,-y,z
1/2+x,1/2+y,z
1/2-x,1/2+y,-z
1/2-x,1/2-y,-z
1/2+x,1/2-y,z
loop_
_atom_site_type_symbol
_atom_site_label
_atom_site_fract_x
_atom_site_fract_y
_atom_site_fract_z
Si Si1 0.317755 0.000000 0.539151
Si Si2 0.000000 0.500000 0.000000
Si Si3 0.386157 0.668190 0.455971
Si Si4 0.324812 0.500000 0.163800
Si Si5 0.712120 0.722010 0.143371
O O1 0.500000 0.000000 0.500000
O O2 0.316281 0.833750 0.501284
O O3 0.178428 0.000000 0.711561
O O4 0.145990 0.617402 0.898953
O O5 0.500000 0.668583 0.500000
O O6 0.325325 0.500000 0.493460
O O7 0.527160 0.674846 0.282873
O O8 0.229235 0.366937 0.184367
O O9 0.500000 0.500000 0.000000
O O10 0.750000 0.750000 0.000000
#
# Coordination Sequence:
#
# PCOD9222679 Si02
#       5
#     4   2   8   4   8
#     4  12  26  50  76 114 165 223 272 347 425 499
#     4  12  28  50  82 118 164 214 290 344 426 500
#     4  12  27  49  80 120 165 218 283 347 425 509
#     4  12  23  46  78 112 159 210 274 342 423 487
#     4  12  27  50  81 118 166 221 282 351 425 510
#
# _framework density 26.209609
#
# number of rings (size 3 to 8) (size 9 to 14) (size 15 to 20)
#    0.000    0.000    1.538    8.769    4.308    0.000 
#    5.538    0.000    0.000    0.000    0.000    0.000 
#    0.000    0.000    0.000    0.000    0.000    0.000 
#
# Total GULP energy -72387.183832 kJ/mol
# GULP energy per Si atom -5568.244910 kJ/mol
# Density = 2.614995 g / cm^3
# Si number density = 26.209609 Si / 1000 Ang^3
#
#
#
# Elastic Constant Matrix: (Units=GPa)
#
#
# Indices 1 2 3 4 5 6 
#
# 1 224.0860 167.7019 80.0855 0.0000 -15.0607 0.0000
# 2 167.7019 319.3694 44.0352 0.0000 -16.7386 0.0000
# 3 80.0855 44.0352 193.8459 0.0000 -20.2210 0.0000
# 4 0.0000 0.0000 0.0000 129.5679 0.0000 -27.3949
# 5 -15.0607 -16.7386 -20.2210 0.0000 68.5994 0.0000
# 6 0.0000 0.0000 0.0000 -27.3949 0.0000 108.8154
#
#
#
# Elastic Compliance Matrix: (Units=1/GPa)
#
#
# Indices 1 2 3 4 5 6 
#
# 1 0.008422 -0.004066 -0.002545 0.000000 0.000107 0.000000
# 2 -0.004066 0.005219 0.000551 0.000000 0.000543 0.000000
# 3 -0.002545 0.000551 0.006232 0.000000 0.001413 0.000000
# 4 0.000000 0.000000 0.000000 0.008152 0.000000 0.002052
# 5 0.000107 0.000543 0.001413 0.000000 0.015150 0.000000
# 6 0.000000 0.000000 0.000000 0.002052 0.000000 0.009707
#
#
# Mechanical properties :
#
#
# Convention : Reuss Voigt Hill
#
# Bulk Modulus (GPa) = 128.97188 146.77182 137.87185
# Shear Modulus (GPa) = 73.98034 91.09512 82.53773
#
# Velocity S-wave (km/s) = 5.31862 5.90185 5.61781
# Velocity P-wave (km/s) = 9.32907 10.12735 9.73640
#
# Compressibility (1/GPa) = 0.00775363
#
# Stress axis : x y z
#
# Youngs Moduli (GPa) = 118.73469 191.61675 160.45490
#
# Poissons Ratio (x) = 0.77912 0.40831
# Poissons Ratio (y) = 0.48278 -0.08841
# Poissons Ratio (z) = 0.30215 -0.10558
#
# Static dielectric constant tensor:
#      x y z
#    x 2.220050 0.000000 -0.016910 
#    y 0.000000 2.170930 0.000000 
#    z -0.016910 0.000000 1.991800 
# 
# From -- ./inp_files/82172.got.cif
#   From: 2010.05.17/outbox.cif.g08.bks.cpg/sg12_42_cif.got.tgz:82172.got - 2010.06.03 13:09:07.
