data_PCOD9222659
_publ_section_title
;
Structure prediction by ZEFSAII (Michael W. Deem and Ramdas Pophale) SiO2 
 PCOD9222659
Probable space group: C 2/M
;
_chemical_formula_sum "Si O2"
_cell_formula_units_Z 36
_cell_length_a 19.047012
_cell_length_b 14.389043
_cell_length_c 9.564669
_cell_angle_alpha 90.000000
_cell_angle_beta 39.540280
_cell_angle_gamma 90.000000
_cell_volume 1668.819441
_symmetry_space_group_name_H-M "C 2/M"
_symmetry_group_IT_number 12
_symmetry_cell_setting 'monoclinic'
loop_
_space_group_symop_operation_xyz
x,y,z
-x,y,-z
-x,-y,-z
x,-y,z
1/2+x,1/2+y,z
1/2-x,1/2+y,-z
1/2-x,1/2-y,-z
1/2+x,1/2-y,z
loop_
_atom_site_type_symbol
_atom_site_label
_atom_site_fract_x
_atom_site_fract_y
_atom_site_fract_z
Si Si1 0.084095 0.500000 0.223339
Si Si2 0.000000 0.823669 0.500000
Si Si3 0.293416 0.609121 0.291259
Si Si4 0.945901 0.674105 0.350483
Si Si5 0.500000 0.732221 0.000000
Si Si6 0.781079 0.857874 0.978117
O O1 0.988288 0.580722 0.357413
O O2 0.179792 0.419433 0.082972
O O3 0.952614 0.756762 0.451232
O O4 0.896123 0.877315 0.723222
O O5 0.298712 0.500000 0.317869
O O6 0.177130 0.653036 0.514325
O O7 0.396516 0.666254 0.190881
O O8 0.296095 0.621434 0.119059
O O9 0.018934 0.703410 0.105423
O O10 0.750000 0.750000 0.000000
#
# Coordination Sequence:
#
# PCOD9222659 Si02
#       6
#     4   4   8   8   4   8
#     4  12  24  45  72 106 134 182 234 292 344 412
#     4  12  24  44  72 106 140 186 228 290 356 404
#     4  12  24  45  70 101 138 189 234 278 343 424
#     4  12  25  44  74 101 140 183 237 283 344 419
#     4  12  27  49  66 102 146 186 224 292 350 410
#     4  12  23  41  71 107 140 174 232 294 345 402
#
# _framework density 21.572134999999999
#
# number of rings (size 3 to 8) (size 9 to 14) (size 15 to 20)
#    0.000    0.000    8.889    1.000    0.000    2.222 
#    0.000    0.000    0.000    0.000    0.000    0.000 
#    0.000    0.000    0.000    0.000    0.000    0.000 
#
# Total GULP energy -100270.537125 kJ/mol
# GULP energy per Si atom -5570.585396 kJ/mol
# Density = 2.152304 g / cm^3
# Si number density = 21.572135 Si / 1000 Ang^3
#
#
#
# Elastic Constant Matrix: (Units=GPa)
#
#
# Indices 1 2 3 4 5 6 
#
# 1 36.5333 18.3593 -5.0910 0.0000 -12.3160 0.0000
# 2 18.3593 90.0059 10.8361 0.0000 -5.7558 0.0000
# 3 -5.0910 10.8361 77.8359 0.0000 -23.4001 0.0000
# 4 0.0000 0.0000 0.0000 -8.4748 0.0000 -4.8817
# 5 -12.3160 -5.7558 -23.4001 0.0000 54.0980 0.0000
# 6 0.0000 0.0000 0.0000 -4.8817 0.0000 6.4185
#
#
#
# Elastic Compliance Matrix: (Units=1/GPa)
#
#
# Indices 1 2 3 4 5 6 
#
# 1 0.035307 -0.007325 0.006335 0.000000 0.009999 0.000000
# 2 -0.007325 0.012836 -0.002709 0.000000 -0.001474 0.000000
# 3 0.006335 -0.002709 0.016077 0.000000 0.008108 0.000000
# 4 0.000000 0.000000 0.000000 -0.082051 0.000000 -0.062405
# 5 0.009999 -0.001474 0.008108 0.000000 0.024112 0.000000
# 6 0.000000 0.000000 0.000000 -0.062405 0.000000 0.108337
#
#
# Mechanical properties :
#
#
# Convention : Reuss Voigt Hill
#
# Bulk Modulus (GPa) = 17.59896 28.06489 22.83192
# Shear Modulus (GPa) = 35.47165 22.42638 28.94902
#
# Velocity S-wave (km/s) = 4.05943 3.22778 3.66726
# Velocity P-wave (km/s) = 5.49071 5.18936 5.34216
#
# Compressibility (1/GPa) = 0.05682156
#
# Stress axis : x y z
#
# Youngs Moduli (GPa) = 28.32290 77.90292 62.20222
#
# Poissons Ratio (x) = 0.57065 -0.39406
# Poissons Ratio (y) = 0.20747 0.16852
# Poissons Ratio (z) = -0.17943 0.21106
#
# Static dielectric constant tensor:
#      x y z
#    x 1.793230 0.000000 0.010720 
#    y 0.000000 1.782420 0.000000 
#    z 0.010720 0.000000 1.861220 
# 
# From -- ./inp_files/166083.got.cif
#   From: 2010.05.17/outbox.cif.g08.bks.cpg/sg12_84_cif.got.tgz:166083.got - 2010.06.03 13:09:07.
