data_PCOD9222738
_publ_section_title
;
Structure prediction by ZEFSAII (Michael W. Deem and Ramdas Pophale) SiO2 
 PCOD9222738
Probable space group: C 2/M
;
_chemical_formula_sum "Si O2"
_cell_formula_units_Z 48
_cell_length_a 8.462245
_cell_length_b 14.524418
_cell_length_c 18.780244
_cell_angle_alpha 90.000000
_cell_angle_beta 128.411488
_cell_angle_gamma 90.000000
_cell_volume 1808.684241
_symmetry_space_group_name_H-M "C 2/M"
_symmetry_group_IT_number 12
_symmetry_cell_setting 'monoclinic'
loop_
_space_group_symop_operation_xyz
x,y,z
-x,y,-z
-x,-y,-z
x,-y,z
1/2+x,1/2+y,z
1/2-x,1/2+y,-z
1/2-x,1/2-y,-z
1/2+x,1/2-y,z
loop_
_atom_site_type_symbol
_atom_site_label
_atom_site_fract_x
_atom_site_fract_y
_atom_site_fract_z
Si Si1 0.497203 0.388780 0.377367
Si Si2 0.005660 0.397274 0.122398
Si Si3 0.559084 0.611442 0.796380
Si Si4 0.970183 0.610618 0.718211
Si Si5 0.091690 0.613016 0.450287
Si Si6 0.621003 0.657440 0.961744
O O1 0.512890 0.500000 0.380030
O O2 0.532317 0.359226 0.304919
O O3 0.269554 0.371734 0.337861
O O4 0.674306 0.358025 0.478964
O O5 0.078821 0.500000 0.161414
O O6 0.815417 0.407838 0.018794
O O7 0.205872 0.355672 0.144364
O O8 0.943822 0.355561 0.181945
O O9 0.540371 0.500000 0.795606
O O10 0.491159 0.646847 0.854331
O O11 0.012026 0.500000 0.725740
O O12 0.015718 0.647040 0.651835
O O13 0.083737 0.500000 0.445549
O O14 0.000000 0.640365 0.500000
O O15 0.500000 0.643775 0.000000
O O16 0.750000 0.750000 0.000000
#
# Coordination Sequence:
#
# PCOD9222738 Si02
#       6
#     8   8   8   8   8   8
#     4   8  14  25  42  64  92 128 164 195 234 287
#     4   9  18  34  55  77 102 132 166 206 251 298
#     4   9  18  34  55  77 102 132 166 206 251 298
#     4   8  14  25  42  64  92 128 164 195 234 287
#     4   9  15  21  33  59  96 131 160 197 240 277
#     4  12  25  38  53  73  99 131 167 208 253 302
#
# _framework density 26.538627000000002
#
# number of rings (size 3 to 8) (size 9 to 14) (size 15 to 20)
#    0.000    2.833    0.000    4.500    0.000    6.000 
#    0.000    3.333    0.000    0.000    0.000    1.167 
#    0.000    0.000    0.000    0.000    0.000    0.000 
#
# Total GULP energy -134006.851847 kJ/mol
# GULP energy per Si atom -5583.618827 kJ/mol
# Density = 2.647822 g / cm^3
# Si number density = 26.538627 Si / 1000 Ang^3
#
#
#
# Elastic Constant Matrix: (Units=GPa)
#
#
# Indices 1 2 3 4 5 6 
#
# 1 60.9731 -1.7873 14.3824 0.0000 -23.9457 0.0000
# 2 -1.7873 65.3989 8.8463 0.0000 -4.5166 0.0000
# 3 14.3824 8.8463 145.4872 0.0000 -42.4401 0.0000
# 4 0.0000 0.0000 0.0000 8.8419 0.0000 -6.6501
# 5 -23.9457 -4.5166 -42.4401 0.0000 55.7261 0.0000
# 6 0.0000 0.0000 0.0000 -6.6501 0.0000 10.7932
#
#
#
# Elastic Compliance Matrix: (Units=1/GPa)
#
#
# Indices 1 2 3 4 5 6 
#
# 1 0.019858 0.001086 0.000624 0.000000 0.009096 0.000000
# 2 0.001086 0.015498 -0.000703 0.000000 0.001187 0.000000
# 3 0.000624 -0.000703 0.008891 0.000000 0.006983 0.000000
# 4 0.000000 0.000000 0.000000 0.210771 0.000000 0.129865
# 5 0.009096 0.001187 0.006983 0.000000 0.027268 0.000000
# 6 0.000000 0.000000 0.000000 0.129865 0.000000 0.172666
#
#
# Mechanical properties :
#
#
# Convention : Reuss Voigt Hill
#
# Bulk Modulus (GPa) = 21.61615 34.97133 28.29374
# Shear Modulus (GPa) = 10.67560 31.76676 21.22118
#
# Velocity S-wave (km/s) = 2.00783 3.46352 2.83085
# Velocity P-wave (km/s) = 3.67941 5.40378 4.62271
#
# Compressibility (1/GPa) = 0.04626170
#
# Stress axis : x y z
#
# Youngs Moduli (GPa) = 50.35843 64.52605 112.46718
#
# Poissons Ratio (x) = -0.07010 -0.07023
# Poissons Ratio (y) = -0.05471 0.07911
# Poissons Ratio (z) = -0.03144 0.04539
#
# Static dielectric constant tensor:
#      x y z
#    x 2.082580 0.000000 -0.023800 
#    y 0.000000 2.368160 0.000000 
#    z -0.023800 0.000000 2.060650 
# 
# From -- ./inp_files/229312.got.cif
#   From: 2010.05.17/outbox.cif.g08.bks.cpg/sg12_115_cif.got.tgz:229312.got - 2010.06.03 13:09:07.
