data_PCOD9222314
_publ_section_title
;
Structure prediction by ZEFSAII (Michael W. Deem and Ramdas Pophale) SiO2 
 PCOD9222314
Probable space group: C 2/M
;
_chemical_formula_sum "Si O2"
_cell_formula_units_Z 36
_cell_length_a 9.462027
_cell_length_b 18.951492
_cell_length_c 9.027082
_cell_angle_alpha 90.000000
_cell_angle_beta 108.069046
_cell_angle_gamma 90.000000
_cell_volume 1538.901787
_symmetry_space_group_name_H-M "C 2/M"
_symmetry_group_IT_number 12
_symmetry_cell_setting 'monoclinic'
loop_
_space_group_symop_operation_xyz
x,y,z
-x,y,-z
-x,-y,-z
x,-y,z
1/2+x,1/2+y,z
1/2-x,1/2+y,-z
1/2-x,1/2-y,-z
1/2+x,1/2-y,z
loop_
_atom_site_type_symbol
_atom_site_label
_atom_site_fract_x
_atom_site_fract_y
_atom_site_fract_z
Si Si1 0.500000 0.776810 0.000000
Si Si2 0.682559 0.500000 0.216967
Si Si3 0.281927 0.867013 0.721273
Si Si4 0.029536 0.229610 0.715706
Si Si5 0.668207 0.500000 0.858392
Si Si6 0.286329 0.149554 0.383113
O O1 0.397646 0.822688 0.858331
O O2 0.580354 0.728913 0.904593
O O3 0.511009 0.500000 0.217590
O O4 0.752175 0.574804 0.292593
O O5 0.690357 0.500000 0.041656
O O6 0.124855 0.828069 0.663742
O O7 0.326136 0.872647 0.564188
O O8 0.246459 0.935576 0.802620
O O9 0.093181 0.301790 0.663292
O O10 0.859421 0.201815 0.659117
#
# Coordination Sequence:
#
# PCOD9222314 Si02
#       6
#     4   4   8   8   4   8
#     4  12  28  43  72 105 158 192 254 304 382 441
#     4  11  25  47  76 111 150 198 251 313 369 459
#     4  12  26  45  72 109 147 199 247 310 369 448
#     4  12  26  46  73 112 146 198 247 312 369 449
#     4  11  25  44  76 109 150 196 255 306 381 443
#     4  12  27  47  80 110 154 193 257 306 381 439
#
# _framework density 23.393308000000001
#
# number of rings (size 3 to 8) (size 9 to 14) (size 15 to 20)
#    0.000    0.222    4.444    4.000    6.222    1.333 
#    0.000    1.111    0.000    4.000    0.000    0.000 
#    0.000    0.000    0.000    0.000    0.000    0.000 
#
# Total GULP energy -100562.750829 kJ/mol
# GULP energy per Si atom -5586.819490 kJ/mol
# Density = 2.334006 g / cm^3
# Si number density = 23.393308 Si / 1000 Ang^3
#
#
#
# Elastic Constant Matrix: (Units=GPa)
#
#
# Indices 1 2 3 4 5 6 
#
# 1 93.6678 41.4419 26.0112 0.0000 -5.0140 0.0000
# 2 41.4419 135.4045 42.3564 0.0000 -2.4530 0.0000
# 3 26.0112 42.3564 159.0869 0.0000 -20.2928 0.0000
# 4 0.0000 0.0000 0.0000 42.6955 0.0000 4.6030
# 5 -5.0140 -2.4530 -20.2928 0.0000 47.7350 0.0000
# 6 0.0000 0.0000 0.0000 4.6030 0.0000 86.0796
#
#
#
# Elastic Compliance Matrix: (Units=1/GPa)
#
#
# Indices 1 2 3 4 5 6 
#
# 1 0.012551 -0.003507 -0.001029 0.000000 0.000701 0.000000
# 2 -0.003507 0.009049 -0.001928 0.000000 -0.000723 0.000000
# 3 -0.001029 -0.001928 0.007339 0.000000 0.002913 0.000000
# 4 0.000000 0.000000 0.000000 0.023558 0.000000 -0.001260
# 5 0.000701 -0.000723 0.002913 0.000000 0.022224 0.000000
# 6 0.000000 0.000000 0.000000 -0.001260 0.000000 0.011685
#
#
# Mechanical properties :
#
#
# Convention : Reuss Voigt Hill
#
# Bulk Modulus (GPa) = 62.45794 67.53090 64.99442
# Shear Modulus (GPa) = 47.76988 53.85868 50.81428
#
# Velocity S-wave (km/s) = 4.52379 4.80345 4.66571
# Velocity P-wave (km/s) = 7.35141 7.72622 7.54114
#
# Compressibility (1/GPa) = 0.01601077
#
# Stress axis : x y z
#
# Youngs Moduli (GPa) = 79.67635 110.51501 136.25843
#
# Poissons Ratio (x) = 0.38754 0.14022
# Poissons Ratio (y) = 0.27940 0.26271
# Poissons Ratio (z) = 0.08199 0.21307
#
# Static dielectric constant tensor:
#      x y z
#    x 1.912310 0.000000 0.013290 
#    y 0.000000 1.931440 0.000000 
#    z 0.013290 0.000000 1.882620 
# 
# From -- ./inp_files/47260.got.cif
#   From: 2010.05.17/outbox.cif.g08.bks.cpg/sg12_24_cif.got.tgz:47260.got - 2010.06.03 13:09:07.
