data_PCOD9222470
_publ_section_title
;
Structure prediction by ZEFSAII (Michael W. Deem and Ramdas Pophale) SiO2 
 PCOD9222470
Probable space group: C 2/M
;
_chemical_formula_sum "Si O2"
_cell_formula_units_Z 36
_cell_length_a 7.236627
_cell_length_b 14.865460
_cell_length_c 14.599769
_cell_angle_alpha 90.000000
_cell_angle_beta 57.295625
_cell_angle_gamma 90.000000
_cell_volume 1321.596618
_symmetry_space_group_name_H-M "C 2/M"
_symmetry_group_IT_number 12
_symmetry_cell_setting 'monoclinic'
loop_
_space_group_symop_operation_xyz
x,y,z
-x,y,-z
-x,-y,-z
x,-y,z
1/2+x,1/2+y,z
1/2-x,1/2+y,-z
1/2-x,1/2-y,-z
1/2+x,1/2-y,z
loop_
_atom_site_type_symbol
_atom_site_label
_atom_site_fract_x
_atom_site_fract_y
_atom_site_fract_z
Si Si1 0.214952 0.155560 0.308793
Si Si2 0.733069 0.857104 0.987067
Si Si3 0.125749 0.146373 0.747149
Si Si4 0.914598 0.398623 0.428582
Si Si5 0.060676 0.500000 0.160576
O O1 0.978456 0.141698 0.326867
O O2 0.304474 0.251317 0.250650
O O3 0.246515 0.152916 0.409641
O O4 0.371771 0.077162 0.232633
O O5 0.930429 0.881633 0.865830
O O6 0.500000 0.876625 0.000000
O O7 0.750000 0.750000 0.000000
O O8 0.725788 0.919588 0.077531
O O9 0.353898 0.093770 0.689462
O O10 0.834300 0.500000 0.467760
O O11 0.000000 0.356393 0.500000
#
# Coordination Sequence:
#
# PCOD9222470 Si02
#       5
#     8   8   8   8   4
#     4  12  25  47  74 105 146 188 247 300 357 441
#     4  12  25  43  68 103 150 190 239 292 355 433
#     4  12  25  47  75 102 149 196 232 301 369 424
#     4  11  28  50  73 108 144 182 247 310 364 440
#     4  12  25  42  72 105 151 191 243 299 346 445
#
# _framework density 27.23978
#
# number of rings (size 3 to 8) (size 9 to 14) (size 15 to 20)
#    0.000    0.222    7.778    0.333    3.111    1.778 
#    0.000    3.889    0.000    0.000    0.000    0.000 
#    0.000    0.000    0.000    0.000    0.000    0.000 
#
# Total GULP energy -100470.427461 kJ/mol
# GULP energy per Si atom -5581.690415 kJ/mol
# Density = 2.717778 g / cm^3
# Si number density = 27.239780 Si / 1000 Ang^3
#
#
#
# Elastic Constant Matrix: (Units=GPa)
#
#
# Indices 1 2 3 4 5 6 
#
# 1 183.6659 -8.2712 18.5693 0.0000 -14.7121 0.0000
# 2 -8.2712 181.3053 2.8548 0.0000 -13.2695 0.0000
# 3 18.5693 2.8548 81.0513 0.0000 -16.8596 0.0000
# 4 0.0000 0.0000 0.0000 42.6560 0.0000 -36.7227
# 5 -14.7121 -13.2695 -16.8596 0.0000 39.6498 0.0000
# 6 0.0000 0.0000 0.0000 -36.7227 0.0000 103.1584
#
#
#
# Elastic Compliance Matrix: (Units=1/GPa)
#
#
# Indices 1 2 3 4 5 6 
#
# 1 0.005707 0.000411 -0.000936 0.000000 0.001857 0.000000
# 2 0.000411 0.005687 0.000146 0.000000 0.002118 0.000000
# 3 -0.000936 0.000146 0.013696 0.000000 0.005526 0.000000
# 4 0.000000 0.000000 0.000000 0.033803 0.000000 0.012033
# 5 0.001857 0.002118 0.005526 0.000000 0.028968 0.000000
# 6 0.000000 0.000000 0.000000 0.012033 0.000000 0.013977
#
#
# Mechanical properties :
#
#
# Convention : Reuss Voigt Hill
#
# Bulk Modulus (GPa) = 41.09648 52.48093 46.78871
# Shear Modulus (GPa) = 45.16446 65.95083 55.55764
#
# Velocity S-wave (km/s) = 4.07631 4.92583 4.52107
# Velocity P-wave (km/s) = 6.10531 7.18748 6.66838
#
# Compressibility (1/GPa) = 0.02433298
#
# Stress axis : x y z
#
# Youngs Moduli (GPa) = 175.23792 175.83933 73.01154
#
# Poissons Ratio (x) = -0.07227 0.06831
# Poissons Ratio (y) = -0.07202 -0.01066
# Poissons Ratio (z) = 0.16395 -0.02568
#
# Static dielectric constant tensor:
#      x y z
#    x 2.146720 0.000000 0.162240 
#    y 0.000000 1.998280 0.000000 
#    z 0.162240 0.000000 2.276630 
# 
# From -- ./inp_files/255181.got.cif
#   From: 2010.05.17/outbox.cif.g08.bks.cpg/sg12_128_cif.got.tgz:255181.got - 2010.06.03 13:09:07.
