data_PCOD9222504
_publ_section_title
;
Structure prediction by ZEFSAII (Michael W. Deem and Ramdas Pophale) SiO2 
 PCOD9222504
Probable space group: C 2/M
;
_chemical_formula_sum "Si O2"
_cell_formula_units_Z 36
_cell_length_a 29.716004
_cell_length_b 14.326299
_cell_length_c 24.401494
_cell_angle_alpha 90.000000
_cell_angle_beta 168.469695
_cell_angle_gamma 90.000000
_cell_volume 2076.460482
_symmetry_space_group_name_H-M "C 2/M"
_symmetry_group_IT_number 12
_symmetry_cell_setting 'monoclinic'
loop_
_space_group_symop_operation_xyz
x,y,z
-x,y,-z
-x,-y,-z
x,-y,z
1/2+x,1/2+y,z
1/2-x,1/2+y,-z
1/2-x,1/2-y,-z
1/2+x,1/2-y,z
loop_
_atom_site_type_symbol
_atom_site_label
_atom_site_fract_x
_atom_site_fract_y
_atom_site_fract_z
Si Si1 0.356221 0.702530 0.181083
Si Si2 0.556668 0.202522 0.231804
Si Si3 0.805544 0.500000 0.458350
Si Si4 0.334032 0.299022 0.751002
Si Si5 0.661640 0.500000 0.889277
Si Si6 0.748927 0.000000 0.476569
O O1 0.595020 0.749562 0.477226
O O2 0.380511 0.593374 0.195846
O O3 0.250000 0.750000 0.000000
O O4 0.178609 0.715130 0.017887
O O5 0.750000 0.250000 0.500000
O O6 0.566010 0.249546 0.183790
O O7 0.619104 0.093369 0.303773
O O8 0.714641 0.406563 0.322016
O O9 0.739194 0.500000 0.443405
O O10 0.077559 0.500000 0.781783
O O11 0.500000 0.291036 0.000000
O O12 0.492531 0.500000 0.738790
#
# Coordination Sequence:
#
# PCOD9222504 Si02
#       6
#     8   8   4   8   4   4
#     4  12  21  39  66  95 126 169 221 265 311 380
#     4  12  21  39  66  95 126 169 221 265 311 380
#     4  12  23  40  66  96 131 164 214 272 317 384
#     4  12  27  43  62  97 139 172 206 264 336 387
#     4  12  20  35  67 104 121 157 223 276 308 365
#     4  12  20  35  67 104 121 157 223 276 308 365
#
# _framework density 17.337194
#
# number of rings (size 3 to 8) (size 9 to 14) (size 15 to 20)
#    0.000    0.000   11.111    0.333    0.000    0.889 
#    0.000    2.222    0.000    6.667    0.000    0.000 
#    0.000    0.000    0.000    0.000    0.000    0.000 
#
# Total GULP energy -100671.069810 kJ/mol
# GULP energy per Si atom -5592.837212 kJ/mol
# Density = 1.729773 g / cm^3
# Si number density = 17.337194 Si / 1000 Ang^3
#
#
#
# Elastic Constant Matrix: (Units=GPa)
#
#
# Indices 1 2 3 4 5 6 
#
# 1 172.4915 71.0629 112.6489 0.0131 20.8158 0.0132
# 2 71.0629 181.4364 75.8861 -0.0134 -8.4498 0.0211
# 3 112.6489 75.8861 156.2487 -0.0696 6.3972 0.0204
# 4 0.0131 -0.0134 -0.0696 15.6674 -0.0005 9.9871
# 5 20.8158 -8.4498 6.3972 -0.0005 48.4936 0.0156
# 6 0.0132 0.0211 0.0204 9.9871 0.0156 21.5397
#
#
#
# Elastic Compliance Matrix: (Units=1/GPa)
#
#
# Indices 1 2 3 4 5 6 
#
# 1 0.012056 -0.001720 -0.007674 -0.000069 -0.004463 0.000037
# 2 -0.001720 0.007297 -0.002399 0.000001 0.002326 -0.000006
# 3 -0.007674 -0.002399 0.013051 0.000094 0.001154 -0.000050
# 4 -0.000069 0.000001 0.000094 0.090607 0.000032 -0.042011
# 5 -0.004463 0.002326 0.001154 0.000032 0.022790 -0.000032
# 6 0.000037 -0.000006 -0.000050 -0.042011 -0.000032 0.065905
#
#
# Mechanical properties :
#
#
# Convention : Reuss Voigt Hill
#
# Bulk Modulus (GPa) = 113.41065 114.37470 113.89268
# Shear Modulus (GPa) = 20.98806 33.84540 27.41673
#
# Velocity S-wave (km/s) = 3.48311 4.42315 3.98097
# Velocity P-wave (km/s) = 9.04062 9.60206 9.32556
#
# Compressibility (1/GPa) = 0.00881751
#
# Stress axis : x y z
#
# Youngs Moduli (GPa) = 82.94499 137.04102 76.62530
#
# Poissons Ratio (x) = 0.23575 0.58801
# Poissons Ratio (y) = 0.14269 0.18383
# Poissons Ratio (z) = 0.63651 0.32876
#
# Static dielectric constant tensor:
#      x y z
#    x 1.568890 -0.000020 0.024030 
#    y -0.000020 1.596400 -0.000020 
#    z 0.024030 -0.000020 1.554810 
# 
# From -- ./inp_files/284214.got.cif
#   From: 2010.05.17/outbox.cif.g08.bks.cpg/sg12_143_cif.got.tgz:284214.got - 2010.06.03 13:09:07.
