data_PCOD9222724
_publ_section_title
;
Structure prediction by ZEFSAII (Michael W. Deem and Ramdas Pophale) SiO2 
 PCOD9222724
Probable space group: C 2/M
;
_chemical_formula_sum "Si O2"
_cell_formula_units_Z 34
_cell_length_a 9.435746
_cell_length_b 16.640592
_cell_length_c 11.879003
_cell_angle_alpha 90.000000
_cell_angle_beta 131.795912
_cell_angle_gamma 90.000000
_cell_volume 1390.549251
_symmetry_space_group_name_H-M "C 2/M"
_symmetry_group_IT_number 12
_symmetry_cell_setting 'monoclinic'
loop_
_space_group_symop_operation_xyz
x,y,z
-x,y,-z
-x,-y,-z
x,-y,z
1/2+x,1/2+y,z
1/2-x,1/2+y,-z
1/2-x,1/2-y,-z
1/2+x,1/2-y,z
loop_
_atom_site_type_symbol
_atom_site_label
_atom_site_fract_x
_atom_site_fract_y
_atom_site_fract_z
Si Si1 0.760693 0.646612 0.751826
Si Si2 0.356437 0.904066 0.573983
Si Si3 0.233250 0.904079 0.257802
Si Si4 0.500000 0.000000 0.000000
Si Si5 0.556643 0.286567 0.851185
O O1 0.720275 0.618205 0.603593
O O2 0.601456 0.683356 0.748628
O O3 0.901694 0.720159 0.799514
O O4 0.865914 0.572041 0.870076
O O5 0.290881 0.877913 0.415955
O O6 0.578380 0.879580 0.712753
O O7 0.363900 0.000000 0.570655
O O8 0.029667 0.864726 0.133190
O O9 0.216771 0.000000 0.242625
O O10 0.750000 0.250000 0.000000
#
# Coordination Sequence:
#
# PCOD9222724 Si02
#       5
#     8   8   8   2   8
#     4  12  25  43  69  95 138 182 231 286 348 408
#     4   9  19  41  70 103 135 178 230 285 347 417
#     4   9  21  41  70 103 140 178 228 287 350 414
#     4  12  24  44  68  98 130 190 228 288 348 416
#     4  12  25  42  62  96 138 181 230 283 339 407
#
# _framework density 24.450768
#
# number of rings (size 3 to 8) (size 9 to 14) (size 15 to 20)
#    0.000    1.412    3.529    2.824    1.647    1.882 
#    0.000    2.353    0.000    7.059    0.000    0.000 
#    0.000    0.000    0.000    0.000    0.000    0.000 
#
# Total GULP energy -94687.465920 kJ/mol
# GULP energy per Si atom -5569.850936 kJ/mol
# Density = 2.439512 g / cm^3
# Si number density = 24.450768 Si / 1000 Ang^3
#
#
#
# Elastic Constant Matrix: (Units=GPa)
#
#
# Indices 1 2 3 4 5 6 
#
# 1 203.8792 63.6267 47.1091 0.0000 10.6050 0.0000
# 2 63.6267 123.2919 9.9821 0.0000 9.1114 0.0000
# 3 47.1091 9.9821 36.2007 0.0000 4.3995 0.0000
# 4 0.0000 0.0000 0.0000 12.5402 0.0000 -13.0584
# 5 10.6050 9.1114 4.3995 0.0000 37.9172 0.0000
# 6 0.0000 0.0000 0.0000 -13.0584 0.0000 27.9879
#
#
#
# Elastic Compliance Matrix: (Units=1/GPa)
#
#
# Indices 1 2 3 4 5 6 
#
# 1 0.008248 -0.003442 -0.009742 0.000000 -0.000349 0.000000
# 2 -0.003442 0.009849 0.001962 0.000000 -0.001632 0.000000
# 3 -0.009742 0.001962 0.040052 0.000000 -0.002394 0.000000
# 4 0.000000 0.000000 0.000000 0.155098 0.000000 0.072364
# 5 -0.000349 -0.001632 -0.002394 0.000000 0.027141 0.000000
# 6 0.000000 0.000000 0.000000 0.072364 0.000000 0.069493
#
#
# Mechanical properties :
#
#
# Convention : Reuss Voigt Hill
#
# Bulk Modulus (GPa) = 28.00821 67.20085 47.60453
# Shear Modulus (GPa) = 14.52531 31.86599 23.19565
#
# Velocity S-wave (km/s) = 2.43999 3.61400 3.08339
# Velocity P-wave (km/s) = 4.40657 6.70511 5.67346
#
# Compressibility (1/GPa) = 0.03570382
#
# Stress axis : x y z
#
# Youngs Moduli (GPa) = 121.23693 101.53402 24.96784
#
# Poissons Ratio (x) = 0.34949 0.24324
# Poissons Ratio (y) = 0.41731 -0.04898
# Poissons Ratio (z) = 1.18111 -0.19919
#
# Static dielectric constant tensor:
#      x y z
#    x 1.928640 0.000000 0.024880 
#    y 0.000000 1.941390 0.000000 
#    z 0.024880 0.000000 1.978240 
# 
# From -- ./inp_files/195252.got.cif
#   From: 2010.05.17/outbox.cif.g08.bks.cpg/sg12_98_cif.got.tgz:195252.got - 2010.06.03 13:09:07.
