data_PCOD9222970
_publ_section_title
;
Structure prediction by ZEFSAII (Michael W. Deem and Ramdas Pophale) SiO2 
 PCOD9222970
Probable space group: C 2/M
;
_chemical_formula_sum "Si O2"
_cell_formula_units_Z 56
_cell_length_a 22.138772
_cell_length_b 7.317873
_cell_length_c 19.110225
_cell_angle_alpha 90.000000
_cell_angle_beta 47.560150
_cell_angle_gamma 90.000000
_cell_volume 2284.822267
_symmetry_space_group_name_H-M "C 2/M"
_symmetry_group_IT_number 12
_symmetry_cell_setting 'monoclinic'
loop_
_space_group_symop_operation_xyz
x,y,z
-x,y,-z
-x,-y,-z
x,-y,z
1/2+x,1/2+y,z
1/2-x,1/2+y,-z
1/2-x,1/2-y,-z
1/2+x,1/2-y,z
loop_
_atom_site_type_symbol
_atom_site_label
_atom_site_fract_x
_atom_site_fract_y
_atom_site_fract_z
Si Si1 0.114245 0.724976 0.733454
Si Si2 0.791956 0.208315 0.639514
Si Si3 0.446153 0.792534 0.909299
Si Si4 0.229167 0.282976 0.934768
Si Si5 0.060315 0.776281 0.392364
Si Si6 0.407649 0.278581 0.779578
Si Si7 0.155680 0.284437 0.550963
O O1 0.114205 0.500000 0.732006
O O2 0.202697 0.786697 0.692373
O O3 0.106938 0.783393 0.657481
O O4 0.037389 0.786794 0.839846
O O5 0.850278 0.287237 0.652632
O O6 0.845680 0.204879 0.525783
O O7 0.775333 0.000000 0.673348
O O8 0.430241 0.797593 0.837540
O O9 0.452002 0.000000 0.931343
O O10 0.362572 0.709388 0.006026
O O11 0.223195 0.500000 0.927732
O O12 0.313916 0.222921 0.834381
O O13 0.250000 0.250000 0.000000
O O14 0.040299 0.722607 0.328713
O O15 0.000000 0.714925 0.500000
O O16 0.060678 0.000000 0.392366
O O17 0.409279 0.500000 0.785281
O O18 0.142803 0.500000 0.554356
O O19 0.250000 0.250000 0.500000
#
# Coordination Sequence:
#
# PCOD9222970 Si02
#       7
#     8   8   8   8   8   8   8
#     4   8  15  26  41  61  83 108 136 169 212 258
#     4   9  17  30  45  59  81 114 148 179 212 250
#     4   9  16  27  44  65  88 111 136 169 219 270
#     4   8  14  25  42  62  84 109 135 171 215 256
#     4   9  18  30  44  62  85 116 150 180 213 253
#     4   9  17  29  44  64  87 110 143 181 212 248
#     4   9  16  27  42  61  84 111 142 175 211 251
#
# _framework density 24.509564000000001
#
# number of rings (size 3 to 8) (size 9 to 14) (size 15 to 20)
#    0.000    3.286    0.000    1.286    2.000    0.000 
#    0.000    3.571    0.000    1.714    0.000    6.000 
#    0.000    0.000    0.000   26.143    0.000   20.286 
#
# Total GULP energy -156106.365204 kJ/mol
# GULP energy per Si atom -5575.227329 kJ/mol
# Density = 2.445378 g / cm^3
# Si number density = 24.509564 Si / 1000 Ang^3
#
#
#
# Elastic Constant Matrix: (Units=GPa)
#
#
# Indices 1 2 3 4 5 6 
#
# 1 79.9120 -1.3086 0.3553 0.0001 -15.1870 0.0001
# 2 -1.3086 107.0380 -3.1656 0.0200 -4.0467 -0.0069
# 3 0.3553 -3.1656 46.4707 -0.0105 -20.8884 0.0036
# 4 0.0001 0.0200 -0.0105 0.8465 -0.0043 -0.5327
# 5 -15.1870 -4.0467 -20.8884 -0.0043 44.1134 0.0023
# 6 0.0001 -0.0069 0.0036 -0.5327 0.0023 -3.1037
#
#
#
# Elastic Compliance Matrix: (Units=1/GPa)
#
#
# Indices 1 2 3 4 5 6 
#
# 1 0.013646 0.000470 0.002616 0.000049 0.005980 -0.000002
# 2 0.000470 0.009454 0.001401 -0.000189 0.001693 0.000014
# 3 0.002616 0.001401 0.028021 0.000372 0.014297 -0.000023
# 4 0.000049 -0.000189 0.000372 1.066155 0.000289 -0.182988
# 5 0.005980 0.001693 0.014297 0.000289 0.031653 -0.000013
# 6 -0.000002 0.000014 -0.000023 -0.182988 -0.000013 -0.290788
#
#
# Mechanical properties :
#
#
# Convention : Reuss Voigt Hill
#
# Bulk Modulus (GPa) = 16.64034 25.02031 20.83033
# Shear Modulus (GPa) = 5.75243 24.20721 14.97982
#
# Velocity S-wave (km/s) = 1.53366 3.14612 2.47489
# Velocity P-wave (km/s) = 3.15281 4.84025 4.08462
#
# Compressibility (1/GPa) = 0.06009493
#
# Stress axis : x y z
#
# Youngs Moduli (GPa) = 73.28020 105.77878 35.68739
#
# Poissons Ratio (x) = -0.04974 -0.09334
# Poissons Ratio (y) = -0.03446 -0.05000
# Poissons Ratio (z) = -0.19167 -0.14821
#
# Static dielectric constant tensor:
#      x y z
#    x 1.841530 0.000000 -0.031960 
#    y 0.000000 1.928840 0.000000 
#    z -0.031960 0.000000 1.972210 
# 
# From -- ./inp_files/288209.got.cif
#   From: 2010.05.17/outbox.cif.g08.bks.cpg/sg12_145_cif.got.tgz:288209.got - 2010.06.03 13:09:07.
