data_PCOD9222950
_publ_section_title
;
Structure prediction by ZEFSAII (Michael W. Deem and Ramdas Pophale) SiO2 
 PCOD9222950
Probable space group: C 2/M
;
_chemical_formula_sum "Si O2"
_cell_formula_units_Z 48
_cell_length_a 29.041162
_cell_length_b 7.597395
_cell_length_c 20.618647
_cell_angle_alpha 90.000000
_cell_angle_beta 145.717476
_cell_angle_gamma 90.000000
_cell_volume 2562.468907
_symmetry_space_group_name_H-M "C 2/M"
_symmetry_group_IT_number 12
_symmetry_cell_setting 'monoclinic'
loop_
_space_group_symop_operation_xyz
x,y,z
-x,y,-z
-x,-y,-z
x,-y,z
1/2+x,1/2+y,z
1/2-x,1/2+y,-z
1/2-x,1/2-y,-z
1/2+x,1/2-y,z
loop_
_atom_site_type_symbol
_atom_site_label
_atom_site_fract_x
_atom_site_fract_y
_atom_site_fract_z
Si Si1 0.340802 0.216137 0.964646
Si Si2 0.306952 0.708345 0.128396
Si Si3 0.906106 0.284521 0.900940
Si Si4 0.134781 0.286816 0.412022
Si Si5 0.047138 0.707199 0.785322
Si Si6 0.192640 0.291669 0.338385
O O1 0.248773 0.273092 0.876875
O O2 0.371321 0.272432 0.929937
O O3 0.340946 0.000000 0.966084
O O4 0.402421 0.276768 0.093588
O O5 0.314441 0.500000 0.143430
O O6 0.396038 0.774570 0.211885
O O7 0.250000 0.750000 0.000000
O O8 0.904807 0.500000 0.900231
O O9 0.851255 0.222519 0.776808
O O10 0.000000 0.231896 0.000000
O O11 0.135224 0.500000 0.411751
O O12 0.156353 0.222543 0.364235
O O13 0.210116 0.233834 0.545139
O O14 0.044734 0.222977 0.326661
O O15 0.038767 0.500000 0.788174
O O16 0.176222 0.500000 0.320035
#
# Coordination Sequence:
#
# PCOD9222950 Si02
#       6
#     8   8   8   8   8   8
#     4   8  14  24  39  61  87 110 133 169 213 249
#     4   9  16  26  41  62  88 114 140 173 213 252
#     4   9  15  24  42  66  88 109 136 170 207 250
#     4   9  17  29  44  62  87 115 140 173 214 250
#     4   9  16  27  44  64  85 111 144 177 211 250
#     4   9  17  28  44  66  87 110 142 174 207 252
#
# _framework density 18.731935
#
# number of rings (size 3 to 8) (size 9 to 14) (size 15 to 20)
#    0.000    3.167    0.000    2.500    0.000    4.667 
#    0.000    0.000    0.000    6.500    0.000    7.000 
#    0.000    0.000    0.000    0.000    0.000    0.000 
#
# Total GULP energy -133687.043429 kJ/mol
# GULP energy per Si atom -5570.293476 kJ/mol
# Density = 1.868930 g / cm^3
# Si number density = 18.731935 Si / 1000 Ang^3
#
#
#
# Elastic Constant Matrix: (Units=GPa)
#
#
# Indices 1 2 3 4 5 6 
#
# 1 150.4288 -7.7545 92.7347 0.0000 18.3277 0.0000
# 2 -7.7545 31.3686 -2.3143 0.0000 -5.0170 0.0000
# 3 92.7347 -2.3143 135.8640 0.0000 16.7938 0.0000
# 4 0.0000 0.0000 0.0000 13.5411 0.0000 7.4567
# 5 18.3277 -5.0170 16.7938 0.0000 32.3983 0.0000
# 6 0.0000 0.0000 0.0000 7.4567 0.0000 10.6469
#
#
#
# Elastic Compliance Matrix: (Units=1/GPa)
#
#
# Indices 1 2 3 4 5 6 
#
# 1 0.011803 0.001969 -0.007730 0.000000 -0.002365 0.000000
# 2 0.001969 0.033018 -0.001363 0.000000 0.004706 0.000000
# 3 -0.007730 -0.001363 0.012927 0.000000 -0.002539 0.000000
# 4 0.000000 0.000000 0.000000 0.120211 0.000000 -0.084191
# 5 -0.002365 0.004706 -0.002539 0.000000 0.034248 0.000000
# 6 0.000000 0.000000 0.000000 -0.084191 0.000000 0.152889
#
#
# Mechanical properties :
#
#
# Convention : Reuss Voigt Hill
#
# Bulk Modulus (GPa) = 22.98897 53.66590 38.32744
# Shear Modulus (GPa) = 12.69538 26.98363 19.83951
#
# Velocity S-wave (km/s) = 2.60617 3.79953 3.25795
# Velocity P-wave (km/s) = 4.62119 6.92533 5.88709
#
# Compressibility (1/GPa) = 0.04349912
#
# Stress axis : x y z
#
# Youngs Moduli (GPa) = 84.72652 30.28671 77.35660
#
# Poissons Ratio (x) = -0.05964 0.59798
# Poissons Ratio (y) = -0.16684 0.10546
# Poissons Ratio (z) = 0.65495 0.04129
#
# Static dielectric constant tensor:
#      x y z
#    x 1.663660 0.000000 0.023660 
#    y 0.000000 1.725170 0.000000 
#    z 0.023660 0.000000 1.631580 
# 
# From -- ./inp_files/239408.got.cif
#   From: 2010.05.17/outbox.cif.g08.bks.cpg/sg12_120_cif.got.tgz:239408.got - 2010.06.03 13:09:07.
