data_PCOD9222179
_publ_section_title
;
Structure prediction by ZEFSAII (Michael W. Deem and Ramdas Pophale) SiO2 
 PCOD9222179
Probable space group: C 2/M
;
_chemical_formula_sum "Si O2"
_cell_formula_units_Z 36
_cell_length_a 14.281833
_cell_length_b 21.342084
_cell_length_c 6.904656
_cell_angle_alpha 90.000000
_cell_angle_beta 41.657202
_cell_angle_gamma 90.000000
_cell_volume 1398.847927
_symmetry_space_group_name_H-M "C 2/M"
_symmetry_group_IT_number 12
_symmetry_cell_setting 'monoclinic'
loop_
_space_group_symop_operation_xyz
x,y,z
-x,y,-z
-x,-y,-z
x,-y,z
1/2+x,1/2+y,z
1/2-x,1/2+y,-z
1/2-x,1/2-y,-z
1/2+x,1/2-y,z
loop_
_atom_site_type_symbol
_atom_site_label
_atom_site_fract_x
_atom_site_fract_y
_atom_site_fract_z
Si Si1 0.123279 0.884352 0.038940
Si Si2 0.138566 0.568509 0.562467
Si Si3 0.130408 0.259361 0.943140
Si Si4 0.698060 0.375170 0.366063
Si Si5 0.500000 0.828273 0.500000
O O1 0.207827 0.931743 0.776745
O O2 0.044712 0.889323 0.689664
O O3 0.155049 0.814402 0.912853
O O4 0.183965 0.889857 0.161887
O O5 0.072659 0.500000 0.649333
O O6 0.176539 0.587853 0.722712
O O7 0.063151 0.623474 0.560610
O O8 0.091058 0.283021 0.220486
O O9 0.261517 0.301942 0.674679
O O10 0.000000 0.271185 0.000000
#
# Coordination Sequence:
#
# PCOD9222179 Si02
#       5
#     8   8   8   8   4
#     4  11  26  43  70 106 141 179 223 288 349 409
#     4  12  27  47  70  99 140 188 235 277 333 410
#     4  12  24  43  73 106 141 175 226 290 353 409
#     4  11  24  45  67 104 137 180 229 278 346 406
#     4  12  25  46  72 106 137 180 230 288 346 398
#
# _framework density 25.735465000000001
#
# number of rings (size 3 to 8) (size 9 to 14) (size 15 to 20)
#    0.000    0.444    4.444    4.333    3.111    4.444 
#    0.000    3.333    0.000    0.000    0.000    0.000 
#    0.000    0.000    0.000    0.000    0.000    0.000 
#
# Total GULP energy -100948.487749 kJ/mol
# GULP energy per Si atom -5608.249319 kJ/mol
# Density = 2.567689 g / cm^3
# Si number density = 25.735465 Si / 1000 Ang^3
#
#
#
# Elastic Constant Matrix: (Units=GPa)
#
#
# Indices 1 2 3 4 5 6 
#
# 1 118.5408 11.4936 11.3462 0.0000 37.5936 0.0000
# 2 11.4936 125.9160 13.5530 0.0000 7.8188 0.0000
# 3 11.3462 13.5530 77.8115 0.0000 10.0799 0.0000
# 4 0.0000 0.0000 0.0000 15.8982 0.0000 -8.9714
# 5 37.5936 7.8188 10.0799 0.0000 42.2623 0.0000
# 6 0.0000 0.0000 0.0000 -8.9714 0.0000 16.2969
#
#
#
# Elastic Compliance Matrix: (Units=1/GPa)
#
#
# Indices 1 2 3 4 5 6 
#
# 1 0.011781 -0.000400 -0.000310 0.000000 -0.010331 0.000000
# 2 -0.000400 0.008166 -0.001253 0.000000 -0.000856 0.000000
# 3 -0.000310 -0.001253 0.013465 0.000000 -0.002704 0.000000
# 4 0.000000 0.000000 0.000000 0.091245 0.000000 0.050230
# 5 -0.010331 -0.000856 -0.002704 0.000000 0.033655 0.000000
# 6 0.000000 0.000000 0.000000 0.050230 0.000000 0.089013
#
#
# Mechanical properties :
#
#
# Convention : Reuss Voigt Hill
#
# Bulk Modulus (GPa) = 33.91458 43.89490 38.90474
# Shear Modulus (GPa) = 19.15115 33.94985 26.55050
#
# Velocity S-wave (km/s) = 2.73088 3.63600 3.21545
# Velocity P-wave (km/s) = 4.81148 5.89241 5.37917
#
# Compressibility (1/GPa) = 0.02948585
#
# Stress axis : x y z
#
# Youngs Moduli (GPa) = 84.88339 122.45332 74.26487
#
# Poissons Ratio (x) = 0.04904 0.02300
# Poissons Ratio (y) = 0.03399 0.09307
# Poissons Ratio (z) = 0.02629 0.15345
#
# Static dielectric constant tensor:
#      x y z
#    x 2.075590 0.000000 -0.041730 
#    y 0.000000 1.917310 0.000000 
#    z -0.041730 0.000000 2.047710 
# 
# From -- ./inp_files/11280.got.cif
#   From: 2010.05.17/outbox.cif.g08.bks.cpg/sg12_6_cif.got.tgz:11280.got - 2010.06.03 13:09:07.
