data_PCOD9222047
_publ_section_title
;
Structure prediction by ZEFSAII (Michael W. Deem and Ramdas Pophale) SiO2 
 PCOD9222047
Probable space group: C 2/M
;
_chemical_formula_sum "Si O2"
_cell_formula_units_Z 32
_cell_length_a 8.406161
_cell_length_b 19.994473
_cell_length_c 8.285014
_cell_angle_alpha 90.000000
_cell_angle_beta 107.030608
_cell_angle_gamma 90.000000
_cell_volume 1331.454191
_symmetry_space_group_name_H-M "C 2/M"
_symmetry_group_IT_number 12
_symmetry_cell_setting 'monoclinic'
loop_
_space_group_symop_operation_xyz
x,y,z
-x,y,-z
-x,-y,-z
x,-y,z
1/2+x,1/2+y,z
1/2-x,1/2+y,-z
1/2-x,1/2-y,-z
1/2+x,1/2-y,z
loop_
_atom_site_type_symbol
_atom_site_label
_atom_site_fract_x
_atom_site_fract_y
_atom_site_fract_z
Si Si1 0.075059 0.119133 0.358509
Si Si2 0.102980 0.679048 0.393806
Si Si3 0.158508 0.576354 0.813527
Si Si4 0.751249 0.815819 0.106508
O O1 0.220470 0.165234 0.473620
O O2 0.177477 0.078714 0.252847
O O3 0.000000 0.085282 0.500000
O O4 0.928075 0.159427 0.227945
O O5 0.000000 0.717505 0.500000
O O6 0.993429 0.612040 0.326053
O O7 0.137054 0.703418 0.224952
O O8 0.120323 0.500000 0.842312
O O9 0.189751 0.622180 0.979404
O O10 0.750000 0.750000 0.000000
#
# Coordination Sequence:
#
# PCOD9222047 Si02
#       4
#     8   8   8   8
#     4   9  21  43  67  94 132 180 228 278 340 412
#     4   9  21  44  69  94 130 179 227 279 339 412
#     4  11  24  42  67 101 137 177 230 289 346 405
#     4  11  24  44  69 100 136 178 230 287 345 405
#
# _framework density 24.033873
#
# number of rings (size 3 to 8) (size 9 to 14) (size 15 to 20)
#    0.000    2.000    0.000    1.500    0.000   13.000 
#    0.000   36.250    0.000    0.000    0.000    0.000 
#    0.000    0.000    0.000    0.000    0.000    0.000 
#
# Total GULP energy -89484.892593 kJ/mol
# GULP energy per Si atom -5592.805787 kJ/mol
# Density = 2.397917 g / cm^3
# Si number density = 24.033873 Si / 1000 Ang^3
#
#
#
# Elastic Constant Matrix: (Units=GPa)
#
#
# Indices 1 2 3 4 5 6 
#
# 1 130.5120 48.5493 76.5784 0.0000 -17.0871 0.0000
# 2 48.5493 147.9098 83.5815 0.0000 -2.9748 0.0000
# 3 76.5784 83.5815 197.9218 0.0000 -5.1080 0.0000
# 4 0.0000 0.0000 0.0000 15.5743 0.0000 -3.7682
# 5 -17.0871 -2.9748 -5.1080 0.0000 73.4673 0.0000
# 6 0.0000 0.0000 0.0000 -3.7682 0.0000 22.7806
#
#
#
# Elastic Compliance Matrix: (Units=1/GPa)
#
#
# Indices 1 2 3 4 5 6 
#
# 1 0.010473 -0.001492 -0.003367 0.000000 0.002141 0.000000
# 2 -0.001492 0.009093 -0.003268 0.000000 -0.000206 0.000000
# 3 -0.003367 -0.003268 0.007725 0.000000 -0.000378 0.000000
# 4 0.000000 0.000000 0.000000 0.066885 0.000000 0.011064
# 5 0.002141 -0.000206 -0.000378 0.000000 0.014075 0.000000
# 6 0.000000 0.000000 0.000000 0.011064 0.000000 0.045727
#
#
# Mechanical properties :
#
#
# Convention : Reuss Voigt Hill
#
# Bulk Modulus (GPa) = 90.59674 99.30688 94.95181
# Shear Modulus (GPa) = 28.75023 40.20675 34.47849
#
# Velocity S-wave (km/s) = 3.46242 4.09457 3.79169
# Velocity P-wave (km/s) = 7.33224 7.98519 7.66567
#
# Compressibility (1/GPa) = 0.01103793
#
# Stress axis : x y z
#
# Youngs Moduli (GPa) = 95.48389 109.97238 129.44188
#
# Poissons Ratio (x) = 0.16408 0.43580
# Poissons Ratio (y) = 0.14246 0.42302
# Poissons Ratio (z) = 0.32147 0.35940
#
# Static dielectric constant tensor:
#      x y z
#    x 1.971930 0.000000 -0.040580 
#    y 0.000000 1.902030 0.000000 
#    z -0.040580 0.000000 1.919510 
# 
# From -- ./inp_files/39954.got.cif
#   From: 2010.05.17/outbox.cif.g08.bks.cpg/sg12_20_cif.got.tgz:39954.got - 2010.06.03 13:09:07.
