data_PCOD9222733
_publ_section_title
;
Structure prediction by ZEFSAII (Michael W. Deem and Ramdas Pophale) SiO2 
 PCOD9222733
Probable space group: C 2/M
;
_chemical_formula_sum "Si O2"
_cell_formula_units_Z 36
_cell_length_a 23.628933
_cell_length_b 13.837453
_cell_length_c 7.679521
_cell_angle_alpha 90.000000
_cell_angle_beta 35.960416
_cell_angle_gamma 90.000000
_cell_volume 1474.483155
_symmetry_space_group_name_H-M "C 2/M"
_symmetry_group_IT_number 12
_symmetry_cell_setting 'monoclinic'
loop_
_space_group_symop_operation_xyz
x,y,z
-x,y,-z
-x,-y,-z
x,-y,z
1/2+x,1/2+y,z
1/2-x,1/2+y,-z
1/2-x,1/2-y,-z
1/2+x,1/2-y,z
loop_
_atom_site_type_symbol
_atom_site_label
_atom_site_fract_x
_atom_site_fract_y
_atom_site_fract_z
Si Si1 0.283625 0.500000 0.192533
Si Si2 0.725477 0.714663 0.363934
Si Si3 0.409315 0.692247 0.851068
Si Si4 0.885466 0.500000 0.672737
Si Si5 0.037768 0.669200 0.730838
Si Si6 0.760315 0.500000 0.312278
O O1 0.211917 0.500000 0.206505
O O2 0.221664 0.500000 0.525263
O O3 0.353509 0.592648 0.020986
O O4 0.750000 0.750000 0.500000
O O5 0.638318 0.777620 0.513060
O O6 0.705794 0.600486 0.410342
O O7 0.822017 0.737096 0.013018
O O8 0.500000 0.677468 0.500000
O O9 0.459318 0.748400 0.885197
O O10 0.945331 0.593151 0.463272
O O11 0.149071 0.500000 0.042576
O O12 0.000000 0.619378 0.000000
#
# Coordination Sequence:
#
# PCOD9222733 Si02
#       6
#     4   8   8   4   8   4
#     4  12  25  52  76 109 158 204 251 325 389 448
#     4  12  24  49  74 109 154 201 249 323 381 454
#     4  12  27  46  76 110 149 200 257 312 383 455
#     4  12  27  46  80 113 152 208 257 316 378 466
#     4  12  25  47  77 111 150 202 259 311 386 453
#     4  12  26  44  80 108 148 202 256 310 394 445
#
# _framework density 24.415334000000001
#
# number of rings (size 3 to 8) (size 9 to 14) (size 15 to 20)
#    0.000    0.000    6.667    2.000    3.111    3.556 
#    0.000    4.444    0.000    0.000    0.000    0.000 
#    0.000    0.000    0.000    0.000    0.000    0.000 
#
# Total GULP energy -100831.736137 kJ/mol
# GULP energy per Si atom -5601.763119 kJ/mol
# Density = 2.435976 g / cm^3
# Si number density = 24.415334 Si / 1000 Ang^3
#
#
#
# Elastic Constant Matrix: (Units=GPa)
#
#
# Indices 1 2 3 4 5 6 
#
# 1 99.5058 30.4626 71.8825 0.0000 -17.0691 0.0000
# 2 30.4626 167.1547 38.4541 0.0000 -5.8835 0.0000
# 3 71.8825 38.4541 174.0426 0.0000 10.4302 0.0000
# 4 0.0000 0.0000 0.0000 29.9391 0.0000 11.0127
# 5 -17.0691 -5.8835 10.4302 0.0000 60.7406 0.0000
# 6 0.0000 0.0000 0.0000 11.0127 0.0000 7.5498
#
#
#
# Elastic Compliance Matrix: (Units=1/GPa)
#
#
# Indices 1 2 3 4 5 6 
#
# 1 0.016300 -0.001207 -0.006803 0.000000 0.005632 0.000000
# 2 -0.001207 0.006437 -0.000950 0.000000 0.000447 0.000000
# 3 -0.006803 -0.000950 0.008978 0.000000 -0.003545 0.000000
# 4 0.000000 0.000000 0.000000 0.072071 0.000000 -0.105128
# 5 0.005632 0.000447 -0.003545 0.000000 0.018698 0.000000
# 6 0.000000 0.000000 0.000000 -0.105128 0.000000 0.285802
#
#
# Mechanical properties :
#
#
# Convention : Reuss Voigt Hill
#
# Bulk Modulus (GPa) = 72.49817 80.25573 76.37695
# Shear Modulus (GPa) = 11.60619 39.63949 25.62284
#
# Velocity S-wave (km/s) = 2.18265 4.03370 3.24305
# Velocity P-wave (km/s) = 6.00917 7.39166 6.73598
#
# Compressibility (1/GPa) = 0.01379345
#
# Stress axis : x y z
#
# Youngs Moduli (GPa) = 61.35134 155.35465 111.38560
#
# Poissons Ratio (x) = 0.18755 0.75773
# Poissons Ratio (y) = 0.07407 0.10586
# Poissons Ratio (z) = 0.41736 0.14765
#
# Static dielectric constant tensor:
#      x y z
#    x 1.955220 0.000000 0.060930 
#    y 0.000000 1.941370 0.000000 
#    z 0.060930 0.000000 1.970980 
# 
# From -- ./inp_files/72792.got.cif
#   From: 2010.05.17/outbox.cif.g08.bks.cpg/sg12_37_cif.got.tgz:72792.got - 2010.06.03 13:09:07.
