data_PCOD9222698
_publ_section_title
;
Structure prediction by ZEFSAII (Michael W. Deem and Ramdas Pophale) SiO2 
 PCOD9222698
Probable space group: C 2/M
;
_chemical_formula_sum "Si O2"
_cell_formula_units_Z 52
_cell_length_a 11.638249
_cell_length_b 26.912086
_cell_length_c 12.134110
_cell_angle_alpha 90.000000
_cell_angle_beta 142.858921
_cell_angle_gamma 90.000000
_cell_volume 2294.676252
_symmetry_space_group_name_H-M "C 2/M"
_symmetry_group_IT_number 12
_symmetry_cell_setting 'monoclinic'
loop_
_space_group_symop_operation_xyz
x,y,z
-x,y,-z
-x,-y,-z
x,-y,z
1/2+x,1/2+y,z
1/2-x,1/2+y,-z
1/2-x,1/2-y,-z
1/2+x,1/2-y,z
loop_
_atom_site_type_symbol
_atom_site_label
_atom_site_fract_x
_atom_site_fract_y
_atom_site_fract_z
Si Si1 0.500000 0.575243 0.000000
Si Si2 0.544352 0.129934 0.907926
Si Si3 0.230772 0.655518 0.696769
Si Si4 0.106340 0.054714 0.839972
Si Si5 0.339176 0.404339 0.462255
Si Si6 0.654549 0.779528 0.831237
Si Si7 0.621455 0.299089 0.414879
O O1 0.677645 0.606179 0.185304
O O2 0.422314 0.550985 0.051232
O O3 0.378001 0.091445 0.742922
O O4 0.553948 0.174507 0.823207
O O5 0.500000 0.147073 0.000000
O O6 0.742591 0.099306 0.063933
O O7 0.267562 0.693735 0.823062
O O8 0.343677 0.674243 0.676169
O O9 0.000000 0.653878 0.500000
O O10 0.909070 0.070012 0.628237
O O11 0.167167 0.000000 0.845229
O O12 0.500000 0.421484 0.500000
O O13 0.354785 0.344506 0.485519
O O14 0.564886 0.731769 0.700437
O O15 0.750000 0.750000 0.000000
O O16 0.750000 0.250000 0.500000
#
# Coordination Sequence:
#
# PCOD9222698 Si02
#       7
#     4   8   8   8   8   8   8
#     4  12  25  48  76 104 138 184 240 296 361 420
#     4  12  26  48  72 106 146 187 234 298 360 426
#     4  12  24  43  66  97 146 188 232 292 346 412
#     4  12  28  51  77 106 138 183 240 303 369 433
#     4  12  26  48  73 105 149 186 231 296 361 427
#     4  12  26  40  65 100 144 192 241 285 341 415
#     4  12  24  39  65 101 138 191 234 275 340 415
#
# _framework density 22.661149999999999
#
# number of rings (size 3 to 8) (size 9 to 14) (size 15 to 20)
#    0.000    0.000    7.692    2.077    4.308    1.231 
#    0.000    0.000    0.000    2.769    0.000    0.000 
#    0.000    0.000    0.000    0.000    0.000    0.000 
#
# Total GULP energy -144823.979533 kJ/mol
# GULP energy per Si atom -5570.153059 kJ/mol
# Density = 2.260957 g / cm^3
# Si number density = 22.661150 Si / 1000 Ang^3
#
#
#
# Elastic Constant Matrix: (Units=GPa)
#
#
# Indices 1 2 3 4 5 6 
#
# 1 86.3069 4.2253 7.4316 0.0000 -19.1892 0.0000
# 2 4.2253 78.4213 8.8797 0.0000 1.6950 0.0000
# 3 7.4316 8.8797 77.2724 0.0000 -0.0341 0.0000
# 4 0.0000 0.0000 0.0000 -12.1873 0.0000 -4.2775
# 5 -19.1892 1.6950 -0.0341 0.0000 35.3090 0.0000
# 6 0.0000 0.0000 0.0000 -4.2775 0.0000 10.0953
#
#
#
# Elastic Compliance Matrix: (Units=1/GPa)
#
#
# Indices 1 2 3 4 5 6 
#
# 1 0.013346 -0.000741 -0.001195 0.000000 0.007288 0.000000
# 2 -0.000741 0.012975 -0.001420 0.000000 -0.001027 0.000000
# 3 -0.001195 -0.001420 0.013219 0.000000 -0.000569 0.000000
# 4 0.000000 0.000000 0.000000 -0.071430 0.000000 -0.030266
# 5 0.007288 -0.001027 -0.000569 0.000000 0.032331 0.000000
# 6 0.000000 0.000000 0.000000 -0.030266 0.000000 0.086232
#
#
# Mechanical properties :
#
#
# Convention : Reuss Voigt Hill
#
# Bulk Modulus (GPa) = 30.46307 31.45266 30.95786
# Shear Modulus (GPa) = 47.92568 21.40765 34.66667
#
# Velocity S-wave (km/s) = 4.60378 3.07691 3.91549
# Velocity P-wave (km/s) = 6.46001 5.15100 5.84228
#
# Compressibility (1/GPa) = 0.03282664
#
# Stress axis : x y z
#
# Youngs Moduli (GPa) = 74.92860 77.07384 75.64805
#
# Poissons Ratio (x) = 0.05713 0.09041
# Poissons Ratio (y) = 0.05554 0.10743
# Poissons Ratio (z) = 0.08955 0.10945
#
# Static dielectric constant tensor:
#      x y z
#    x 1.841940 0.000000 0.044860 
#    y 0.000000 1.842900 0.000000 
#    z 0.044860 0.000000 1.911350 
# 
# From -- ./inp_files/137640.got.cif
#   From: 2010.05.17/outbox.cif.g08.bks.cpg/sg12_69_cif.got.tgz:137640.got - 2010.06.03 13:09:07.
