data_PCOD9222146
_publ_section_title
;
Structure prediction by ZEFSAII (Michael W. Deem and Ramdas Pophale) SiO2 
 PCOD9222146
Probable space group: C 2/M
;
_chemical_formula_sum "Si O2"
_cell_formula_units_Z 40
_cell_length_a 9.777905
_cell_length_b 9.493251
_cell_length_c 21.542217
_cell_angle_alpha 90.000000
_cell_angle_beta 75.176809
_cell_angle_gamma 90.000000
_cell_volume 1933.088953
_symmetry_space_group_name_H-M "C 2/M"
_symmetry_group_IT_number 12
_symmetry_cell_setting 'monoclinic'
loop_
_space_group_symop_operation_xyz
x,y,z
-x,y,-z
-x,-y,-z
x,-y,z
1/2+x,1/2+y,z
1/2-x,1/2+y,-z
1/2-x,1/2-y,-z
1/2+x,1/2-y,z
loop_
_atom_site_type_symbol
_atom_site_label
_atom_site_fract_x
_atom_site_fract_y
_atom_site_fract_z
Si Si1 0.866657 0.665033 0.140545
Si Si2 0.370949 0.500000 0.562340
Si Si3 0.898480 0.742165 0.652826
Si Si4 0.402088 0.339212 0.260497
Si Si5 0.941532 0.500000 0.437508
Si Si6 0.186248 0.666044 0.065420
O O1 0.826555 0.500000 0.148460
O O2 0.894480 0.730201 0.204823
O O3 0.750925 0.758152 0.118459
O O4 0.016272 0.674817 0.087056
O O5 0.500000 0.500000 0.500000
O O6 0.374592 0.366826 0.607179
O O7 0.226475 0.500000 0.541163
O O8 0.748474 0.673338 0.687170
O O9 0.001520 0.632583 0.607473
O O10 0.974299 0.798839 0.706030
O O11 0.421391 0.500000 0.236262
O O12 0.000000 0.500000 0.500000
O O13 0.224012 0.500000 0.059321
O O14 0.250000 0.750000 0.000000
#
# Coordination Sequence:
#
# PCOD9222146 Si02
#       6
#     8   4   8   8   4   8
#     4  11  26  43  68 103 138 180 232 286 340 399
#     4  12  28  46  72 102 136 174 229 277 340 416
#     4  12  26  45  69 100 134 177 224 281 344 406
#     4  12  26  44  69  98 135 177 228 280 341 409
#     4  12  28  46  72 100 138 176 221 285 340 406
#     4  11  24  44  69 102 143 185 231 282 340 404
#
# _framework density 20.692269
#
# number of rings (size 3 to 8) (size 9 to 14) (size 15 to 20)
#    0.000    0.400    4.000    3.600    5.600   10.400 
#    0.000    0.000    0.000    0.000    0.000    0.000 
#    0.000    0.000    0.000    0.000    0.000    0.000 
#
# Total GULP energy -112008.189991 kJ/mol
# GULP energy per Si atom -5600.409500 kJ/mol
# Density = 2.064517 g / cm^3
# Si number density = 20.692269 Si / 1000 Ang^3
#
#
#
# Elastic Constant Matrix: (Units=GPa)
#
#
# Indices 1 2 3 4 5 6 
#
# 1 88.5825 21.9220 -3.1508 0.0000 13.3439 0.0000
# 2 21.9220 141.6478 13.8766 0.0000 1.5552 0.0000
# 3 -3.1508 13.8766 62.2863 0.0000 6.9839 0.0000
# 4 0.0000 0.0000 0.0000 48.2898 0.0000 2.9726
# 5 13.3439 1.5552 6.9839 0.0000 38.9107 0.0000
# 6 0.0000 0.0000 0.0000 2.9726 0.0000 28.6089
#
#
#
# Elastic Compliance Matrix: (Units=1/GPa)
#
#
# Indices 1 2 3 4 5 6 
#
# 1 0.012530 -0.002046 0.001594 0.000000 -0.004501 0.000000
# 2 -0.002046 0.007551 -0.001868 0.000000 0.000735 0.000000
# 3 0.001594 -0.001868 0.016946 0.000000 -0.003514 0.000000
# 4 0.000000 0.000000 0.000000 0.020842 0.000000 -0.002166
# 5 -0.004501 0.000735 -0.003514 0.000000 0.027845 0.000000
# 6 0.000000 0.000000 0.000000 -0.002166 0.000000 0.035179
#
#
# Mechanical properties :
#
#
# Convention : Reuss Voigt Hill
#
# Bulk Modulus (GPa) = 30.87621 39.75690 35.31656
# Shear Modulus (GPa) = 36.67616 40.48644 38.58130
#
# Velocity S-wave (km/s) = 4.21462 4.42814 4.32270
# Velocity P-wave (km/s) = 6.21595 6.73793 6.48220
#
# Compressibility (1/GPa) = 0.03238740
#
# Stress axis : x y z
#
# Youngs Moduli (GPa) = 79.80826 132.42639 59.01187
#
# Poissons Ratio (x) = 0.27094 -0.09409
# Poissons Ratio (y) = 0.16329 0.11025
# Poissons Ratio (z) = -0.12724 0.24741
#
# Static dielectric constant tensor:
#      x y z
#    x 1.716680 0.000000 -0.006170 
#    y 0.000000 1.707170 0.000000 
#    z -0.006170 0.000000 1.711410 
# 
# From -- ./inp_files/331778.got.cif
#   From: 2010.05.17/outbox.cif.g08.bks.cpg/sg12_166_cif.got.tgz:331778.got - 2010.06.03 13:09:07.
