data_PCOD9222160
_publ_section_title
;
Structure prediction by ZEFSAII (Michael W. Deem and Ramdas Pophale) SiO2 
 PCOD9222160
Probable space group: C 2/M
;
_chemical_formula_sum "Si O2"
_cell_formula_units_Z 32
_cell_length_a 27.021650
_cell_length_b 9.776094
_cell_length_c 9.885773
_cell_angle_alpha 90.000000
_cell_angle_beta 147.449429
_cell_angle_gamma 90.000000
_cell_volume 1405.094390
_symmetry_space_group_name_H-M "C 2/M"
_symmetry_group_IT_number 12
_symmetry_cell_setting 'monoclinic'
loop_
_space_group_symop_operation_xyz
x,y,z
-x,y,-z
-x,-y,-z
x,-y,z
1/2+x,1/2+y,z
1/2-x,1/2+y,-z
1/2-x,1/2-y,-z
1/2+x,1/2-y,z
loop_
_atom_site_type_symbol
_atom_site_label
_atom_site_fract_x
_atom_site_fract_y
_atom_site_fract_z
Si Si1 0.702131 0.836856 0.271856
Si Si2 0.412596 0.269676 0.392853
Si Si3 0.030588 0.153797 0.914545
Si Si4 0.747034 0.857867 0.836065
O O1 0.750000 0.750000 0.500000
O O2 0.748075 0.778054 0.242121
O O3 0.707482 0.000000 0.296149
O O4 0.599114 0.776708 0.035942
O O5 0.500000 0.235250 0.500000
O O6 0.451947 0.338041 0.619672
O O7 0.344421 0.150501 0.284978
O O8 0.340156 0.356635 0.138135
O O9 0.071832 0.000000 0.000896
O O10 0.000000 0.170622 0.000000
O O11 0.743593 0.000000 0.747286
#
# Coordination Sequence:
#
# PCOD9222160 Si02
#       4
#     8   8   8   8
#     4  12  26  45  70 102 143 188 240 299 365 431
#     4  11  24  44  71 110 146 194 238 299 358 430
#     4  11  24  44  72 104 142 190 241 295 360 432
#     4  11  25  45  72 106 146 192 244 299 359 426
#
# _framework density 22.774267999999999
#
# number of rings (size 3 to 8) (size 9 to 14) (size 15 to 20)
#    0.000    0.750    2.500    4.500    0.000   10.000 
#    0.000    0.000    0.000    0.000    0.000    0.000 
#    0.000    0.000    0.000    0.000    0.000    0.000 
#
# Total GULP energy -89325.310403 kJ/mol
# GULP energy per Si atom -5582.831900 kJ/mol
# Density = 2.272243 g / cm^3
# Si number density = 22.774268 Si / 1000 Ang^3
#
#
#
# Elastic Constant Matrix: (Units=GPa)
#
#
# Indices 1 2 3 4 5 6 
#
# 1 153.2484 59.8159 65.4931 0.0000 17.1764 0.0000
# 2 59.8159 220.6655 54.1986 0.0000 7.2661 0.0000
# 3 65.4931 54.1986 127.3004 0.0000 0.8384 0.0000
# 4 0.0000 0.0000 0.0000 -37.9759 0.0000 -7.9608
# 5 17.1764 7.2661 0.8384 0.0000 54.2076 0.0000
# 6 0.0000 0.0000 0.0000 -7.9608 0.0000 14.6419
#
#
#
# Elastic Compliance Matrix: (Units=1/GPa)
#
#
# Indices 1 2 3 4 5 6 
#
# 1 0.009102 -0.001379 -0.004078 0.000000 -0.002636 0.000000
# 2 -0.001379 0.005292 -0.001542 0.000000 -0.000249 0.000000
# 3 -0.004078 -0.001542 0.010602 0.000000 0.001335 0.000000
# 4 0.000000 0.000000 0.000000 -0.023638 0.000000 -0.012852
# 5 -0.002636 -0.000249 0.001335 0.000000 0.019296 0.000000
# 6 0.000000 0.000000 0.000000 -0.012852 0.000000 0.061309
#
#
# Mechanical properties :
#
#
# Convention : Reuss Voigt Hill
#
# Bulk Modulus (GPa) = 90.93341 95.58106 93.25724
# Shear Modulus (GPa) = 50.18708 27.62183 38.90446
#
# Velocity S-wave (km/s) = 4.69942 3.48638 4.13760
# Velocity P-wave (km/s) = 8.33432 7.63325 7.99148
#
# Compressibility (1/GPa) = 0.01099706
#
# Stress axis : x y z
#
# Youngs Moduli (GPa) = 109.86676 188.94695 94.32617
#
# Poissons Ratio (x) = 0.26051 0.38470
# Poissons Ratio (y) = 0.15148 0.14548
# Poissons Ratio (z) = 0.44808 0.29142
#
# Static dielectric constant tensor:
#      x y z
#    x 1.900490 0.000000 -0.002130 
#    y 0.000000 1.851470 0.000000 
#    z -0.002130 0.000000 1.906250 
# 
# From -- ./inp_files/187829.got.cif
#   From: 2010.05.17/outbox.cif.g08.bks.cpg/sg12_94_cif.got.tgz:187829.got - 2010.06.03 13:09:07.
