data_PCOD9222278
_publ_section_title
;
Structure prediction by ZEFSAII (Michael W. Deem and Ramdas Pophale) SiO2 
 PCOD9222278
Probable space group: C 2/M
;
_chemical_formula_sum "Si O2"
_cell_formula_units_Z 48
_cell_length_a 15.343152
_cell_length_b 27.410297
_cell_length_c 9.851719
_cell_angle_alpha 90.000000
_cell_angle_beta 38.248214
_cell_angle_gamma 90.000000
_cell_volume 2564.954888
_symmetry_space_group_name_H-M "C 2/M"
_symmetry_group_IT_number 12
_symmetry_cell_setting 'monoclinic'
loop_
_space_group_symop_operation_xyz
x,y,z
-x,y,-z
-x,-y,-z
x,-y,z
1/2+x,1/2+y,z
1/2-x,1/2+y,-z
1/2-x,1/2-y,-z
1/2+x,1/2-y,z
loop_
_atom_site_type_symbol
_atom_site_label
_atom_site_fract_x
_atom_site_fract_y
_atom_site_fract_z
Si Si1 0.108660 0.943533 0.664452
Si Si2 0.606009 0.351677 0.492839
Si Si3 0.711797 0.443930 0.843563
Si Si4 0.635191 0.850678 0.248201
Si Si5 0.569560 0.701383 0.058518
Si Si6 0.390452 0.183758 0.020168
O O1 0.152675 0.902473 0.504538
O O2 0.185020 0.936373 0.715774
O O3 0.129883 0.000000 0.596677
O O4 0.941381 0.936868 0.898909
O O5 0.500000 0.362475 0.500000
O O6 0.524960 0.320493 0.705897
O O7 0.736670 0.322161 0.272859
O O8 0.753298 0.500000 0.813780
O O9 0.821046 0.405557 0.767538
O O10 0.500000 0.835259 0.500000
O O11 0.773025 0.819069 0.117344
O O12 0.604583 0.844983 0.126751
O O13 0.500000 0.686425 0.000000
O O14 0.576147 0.759847 0.053702
O O15 0.500000 0.166686 0.000000
#
# Coordination Sequence:
#
# PCOD9222278 Si02
#       6
#     8   8   8   8   8   8
#     4   9  18  35  65  97 124 159 212 264 310 370
#     4  12  23  40  67  91 131 167 208 270 314 377
#     4   9  18  37  63  95 124 158 212 263 307 373
#     4  12  25  40  65  95 127 166 208 264 314 379
#     4  11  25  43  66  91 120 172 220 257 310 374
#     4  11  28  43  60  94 132 168 211 260 323 374
#
# _framework density 18.713778000000001
#
# number of rings (size 3 to 8) (size 9 to 14) (size 15 to 20)
#    0.000    1.333    3.333    2.500    7.000    2.000 
#    0.000    0.833    0.000    1.000    0.000    0.000 
#    0.000    0.000    0.000    0.000    0.000    0.000 
#
# Total GULP energy -134146.674883 kJ/mol
# GULP energy per Si atom -5589.444787 kJ/mol
# Density = 1.867119 g / cm^3
# Si number density = 18.713778 Si / 1000 Ang^3
#
#
#
# Elastic Constant Matrix: (Units=GPa)
#
#
# Indices 1 2 3 4 5 6 
#
# 1 118.6637 39.7980 45.1824 0.0000 9.4450 0.0000
# 2 39.7980 74.0884 31.0927 0.0000 14.8924 0.0000
# 3 45.1824 31.0927 114.7117 0.0000 10.0638 0.0000
# 4 0.0000 0.0000 0.0000 3.8783 0.0000 -5.0339
# 5 9.4450 14.8924 10.0638 0.0000 26.8017 0.0000
# 6 0.0000 0.0000 0.0000 -5.0339 0.0000 32.5048
#
#
#
# Elastic Compliance Matrix: (Units=1/GPa)
#
#
# Indices 1 2 3 4 5 6 
#
# 1 0.011198 -0.004666 -0.003130 0.000000 -0.000178 0.000000
# 2 -0.004666 0.018624 -0.002530 0.000000 -0.007754 0.000000
# 3 -0.003130 -0.002530 0.010771 0.000000 -0.001535 0.000000
# 4 0.000000 0.000000 0.000000 0.322716 0.000000 0.049978
# 5 -0.000178 -0.007754 -0.001535 0.000000 0.042259 0.000000
# 6 0.000000 0.000000 0.000000 0.049978 0.000000 0.038505
#
#
# Mechanical properties :
#
#
# Convention : Reuss Voigt Hill
#
# Bulk Modulus (GPa) = 50.14828 59.95669 55.05249
# Shear Modulus (GPa) = 10.60732 25.39635 18.00184
#
# Velocity S-wave (km/s) = 2.38338 3.68787 3.10491
# Velocity P-wave (km/s) = 5.86768 7.08817 6.50661
#
# Compressibility (1/GPa) = 0.01994086
#
# Stress axis : x y z
#
# Youngs Moduli (GPa) = 89.30084 53.69378 92.84201
#
# Poissons Ratio (x) = 0.25052 0.29063
# Poissons Ratio (y) = 0.41665 0.23490
# Poissons Ratio (z) = 0.27955 0.13585
#
# Static dielectric constant tensor:
#      x y z
#    x 1.643430 0.000000 -0.014250 
#    y 0.000000 1.650300 0.000000 
#    z -0.014250 0.000000 1.633720 
# 
# From -- ./inp_files/67303.got.cif
#   From: 2010.05.17/outbox.cif.g08.bks.cpg/sg12_34_cif.got.tgz:67303.got - 2010.06.03 13:09:07.
