data_PCOD9222564
_publ_section_title
;
Structure prediction by ZEFSAII (Michael W. Deem and Ramdas Pophale) SiO2 
 PCOD9222564
Probable space group: C 2/M
;
_chemical_formula_sum "Si O2"
_cell_formula_units_Z 50
_cell_length_a 14.220512
_cell_length_b 7.537819
_cell_length_c 25.968185
_cell_angle_alpha 90.000000
_cell_angle_beta 126.841210
_cell_angle_gamma 90.000000
_cell_volume 2227.693937
_symmetry_space_group_name_H-M "C 2/M"
_symmetry_group_IT_number 12
_symmetry_cell_setting 'monoclinic'
loop_
_space_group_symop_operation_xyz
x,y,z
-x,y,-z
-x,-y,-z
x,-y,z
1/2+x,1/2+y,z
1/2-x,1/2+y,-z
1/2-x,1/2-y,-z
1/2+x,1/2-y,z
loop_
_atom_site_type_symbol
_atom_site_label
_atom_site_fract_x
_atom_site_fract_y
_atom_site_fract_z
Si Si1 0.500000 0.000000 0.500000
Si Si2 0.871463 0.711528 0.105229
Si Si3 0.567530 0.205621 0.365247
Si Si4 0.325338 0.292717 0.336953
Si Si5 0.679785 0.291719 0.540088
Si Si6 0.112334 0.286500 0.006376
Si Si7 0.568442 0.218159 0.248502
O O1 0.423288 0.845048 0.505471
O O2 0.888377 0.500000 0.108495
O O3 0.886500 0.781800 0.051970
O O4 0.966135 0.779838 0.176990
O O5 0.735658 0.743885 0.073841
O O6 0.444178 0.215133 0.353402
O O7 0.687947 0.274243 0.431182
O O8 0.550920 0.277869 0.301819
O O9 0.598970 0.000000 0.368741
O O10 0.332404 0.500000 0.327565
O O11 0.317546 0.273668 0.396018
O O12 0.199845 0.225607 0.275141
O O13 0.655431 0.500000 0.520694
O O14 0.104958 0.500000 0.001403
O O15 0.000000 0.219645 0.000000
O O16 0.567446 0.000000 0.248232
#
# Coordination Sequence:
#
# PCOD9222564 Si02
#       7
#     2   8   8   8   8   8   8
#     4  12  22  36  68  82 108 150 194 220 260 326
#     4   9  17  31  50  68  97 133 176 214 258 324
#     4   9  18  34  56  76 106 138 171 218 270 319
#     4   9  18  34  57  78 107 139 171 214 270 323
#     4   9  21  39  57  82 115 146 178 226 273 317
#     4   9  18  31  46  67  97 136 170 216 271 308
#     4   8  16  32  50  75 101 136 170 212 271 321
#
# _framework density 22.444734
#
# number of rings (size 3 to 8) (size 9 to 14) (size 15 to 20)
#    0.000    3.040    0.000    2.160    2.240    1.600 
#    0.000    4.000    0.000    0.000    0.000    0.000 
#    0.000    0.000    0.000    0.000    0.000    0.000 
#
# Total GULP energy -139299.292850 kJ/mol
# GULP energy per Si atom -5571.971714 kJ/mol
# Density = 2.239365 g / cm^3
# Si number density = 22.444734 Si / 1000 Ang^3
#
#
#
# Elastic Constant Matrix: (Units=GPa)
#
#
# Indices 1 2 3 4 5 6 
#
# 1 152.8259 14.8498 59.2406 0.0000 34.8468 0.0000
# 2 14.8498 61.1109 21.8243 0.0000 3.7052 0.0000
# 3 59.2406 21.8243 149.5647 0.0000 36.6202 0.0000
# 4 0.0000 0.0000 0.0000 2.0715 0.0000 2.9899
# 5 34.8468 3.7052 36.6202 0.0000 25.6753 0.0000
# 6 0.0000 0.0000 0.0000 2.9899 0.0000 22.2738
#
#
#
# Elastic Compliance Matrix: (Units=1/GPa)
#
#
# Indices 1 2 3 4 5 6 
#
# 1 0.009668 -0.001372 -0.000714 0.000000 -0.011905 0.000000
# 2 -0.001372 0.017506 -0.002840 0.000000 0.003387 0.000000
# 3 -0.000714 -0.002840 0.010827 0.000000 -0.014062 0.000000
# 4 0.000000 0.000000 0.000000 0.598744 0.000000 -0.080371
# 5 -0.011905 0.003387 -0.014062 0.000000 0.074673 0.000000
# 6 0.000000 0.000000 0.000000 -0.080371 0.000000 0.055684
#
#
# Mechanical properties :
#
#
# Convention : Reuss Voigt Hill
#
# Bulk Modulus (GPa) = 35.52801 61.70343 48.61572
# Shear Modulus (GPa) = 6.35858 27.84323 17.10091
#
# Velocity S-wave (km/s) = 1.68498 3.52593 2.76327
# Velocity P-wave (km/s) = 4.43272 6.64283 5.64695
#
# Compressibility (1/GPa) = 0.02814681
#
# Stress axis : x y z
#
# Youngs Moduli (GPa) = 103.43247 57.12287 92.36567
#
# Poissons Ratio (x) = 0.07840 0.06598
# Poissons Ratio (y) = 0.14195 0.26234
# Poissons Ratio (z) = 0.07388 0.16224
#
# Static dielectric constant tensor:
#      x y z
#    x 1.854910 0.000000 -0.011900 
#    y 0.000000 2.054960 0.000000 
#    z -0.011900 0.000000 1.874550 
# 
# From -- ./inp_files/357555.got.cif
#   From: 2010.05.17/outbox.cif.g08.bks.cpg/sg12_179_cif.got.tgz:357555.got - 2010.06.03 13:09:07.
