data_PCOD9222181
_publ_section_title
;
Structure prediction by ZEFSAII (Michael W. Deem and Ramdas Pophale) SiO2 
 PCOD9222181
Probable space group: C 2/M
;
_chemical_formula_sum "Si O2"
_cell_formula_units_Z 42
_cell_length_a 7.121300
_cell_length_b 27.842862
_cell_length_c 8.834722
_cell_angle_alpha 90.000000
_cell_angle_beta 106.509252
_cell_angle_gamma 90.000000
_cell_volume 1679.508592
_symmetry_space_group_name_H-M "C 2/M"
_symmetry_group_IT_number 12
_symmetry_cell_setting 'monoclinic'
loop_
_space_group_symop_operation_xyz
x,y,z
-x,y,-z
-x,-y,-z
x,-y,z
1/2+x,1/2+y,z
1/2-x,1/2+y,-z
1/2-x,1/2-y,-z
1/2+x,1/2-y,z
loop_
_atom_site_type_symbol
_atom_site_label
_atom_site_fract_x
_atom_site_fract_y
_atom_site_fract_z
Si Si1 0.831279 0.885220 0.856443
Si Si2 0.893852 0.591375 0.791084
Si Si3 0.000000 0.500000 0.000000
Si Si4 0.243947 0.295503 0.693007
Si Si5 0.294401 0.554636 0.543541
Si Si6 0.710031 0.187579 0.343148
O O1 0.615473 0.891781 0.876186
O O2 0.865850 0.829444 0.829365
O O3 0.820164 0.913102 0.696072
O O4 0.000000 0.905531 0.000000
O O5 0.866584 0.573993 0.610555
O O6 0.761488 0.640000 0.751873
O O7 0.872474 0.542593 0.881437
O O8 0.249784 0.238887 0.722774
O O9 0.304369 0.308144 0.533239
O O10 0.020618 0.311603 0.668138
O O11 0.500000 0.555495 0.500000
O O12 0.251695 0.500000 0.579027
#
# Coordination Sequence:
#
# PCOD9222181 Si02
#       6
#     8   8   2   8   8   8
#     4  11  25  43  67  99 137 177 223 279 342 406
#     4  11  24  45  68  94 137 179 228 274 343 404
#     4  12  28  44  70 100 136 182 230 296 338 388
#     4   9  18  37  62  95 130 169 225 269 331 399
#     4  11  25  43  69  96 129 174 232 285 336 407
#     4   9  18  37  65  93 126 178 221 271 328 414
#
# _framework density 25.007314000000001
#
# number of rings (size 3 to 8) (size 9 to 14) (size 15 to 20)
#    0.000    1.714    2.857    0.571    4.000    2.667 
#    1.714    1.905    0.000    0.000    0.000    0.000 
#    0.000    0.000    0.000    0.000    0.000    0.000 
#
# Total GULP energy -117154.665568 kJ/mol
# GULP energy per Si atom -5578.793598 kJ/mol
# Density = 2.495040 g / cm^3
# Si number density = 25.007314 Si / 1000 Ang^3
#
#
#
# Elastic Constant Matrix: (Units=GPa)
#
#
# Indices 1 2 3 4 5 6 
#
# 1 62.6954 10.9478 1.4069 0.0000 5.8528 0.0000
# 2 10.9478 243.5899 68.4599 0.0000 -3.2882 0.0000
# 3 1.4069 68.4599 119.6354 0.0000 25.5041 0.0000
# 4 0.0000 0.0000 0.0000 34.5489 0.0000 7.3081
# 5 5.8528 -3.2882 25.5041 0.0000 27.2630 0.0000
# 6 0.0000 0.0000 0.0000 7.3081 0.0000 24.1244
#
#
#
# Elastic Compliance Matrix: (Units=1/GPa)
#
#
# Indices 1 2 3 4 5 6 
#
# 1 0.016631 -0.001288 0.001668 0.000000 -0.005286 0.000000
# 2 -0.001288 0.005369 -0.004065 0.000000 0.004727 0.000000
# 3 0.001668 -0.004065 0.013548 0.000000 -0.013522 0.000000
# 4 0.000000 0.000000 0.000000 0.030926 0.000000 -0.009369
# 5 -0.005286 0.004727 -0.013522 0.000000 0.051035 0.000000
# 6 0.000000 0.000000 0.000000 -0.009369 0.000000 0.044290
#
#
# Mechanical properties :
#
#
# Convention : Reuss Voigt Hill
#
# Bulk Modulus (GPa) = 35.48700 65.28332 50.38516
# Shear Modulus (GPa) = 28.00152 40.19434 34.09793
#
# Velocity S-wave (km/s) = 3.34987 4.01347 3.69659
# Velocity P-wave (km/s) = 5.40219 6.90214 6.19771
#
# Compressibility (1/GPa) = 0.02817933
#
# Stress axis : x y z
#
# Youngs Moduli (GPa) = 60.12857 186.23945 73.81114
#
# Poissons Ratio (x) = 0.23981 -0.12313
# Poissons Ratio (y) = 0.07742 0.30005
# Poissons Ratio (z) = -0.10031 0.75709
#
# Static dielectric constant tensor:
#      x y z
#    x 2.054300 0.000000 -0.029370 
#    y 0.000000 1.970090 0.000000 
#    z -0.029370 0.000000 1.984640 
# 
# From -- ./inp_files/42356.got.cif
#   From: 2010.05.17/outbox.cif.g08.bks.cpg/sg12_22_cif.got.tgz:42356.got - 2010.06.03 13:09:07.
