data_PCOD9222323
_publ_section_title
;
Structure prediction by ZEFSAII (Michael W. Deem and Ramdas Pophale) SiO2 
 PCOD9222323
Probable space group: C 2/M
;
_chemical_formula_sum "Si O2"
_cell_formula_units_Z 40
_cell_length_a 7.059493
_cell_length_b 13.455648
_cell_length_c 15.728935
_cell_angle_alpha 90.000000
_cell_angle_beta 69.453695
_cell_angle_gamma 90.000000
_cell_volume 1399.051440
_symmetry_space_group_name_H-M "C 2/M"
_symmetry_group_IT_number 12
_symmetry_cell_setting 'monoclinic'
loop_
_space_group_symop_operation_xyz
x,y,z
-x,y,-z
-x,-y,-z
x,-y,z
1/2+x,1/2+y,z
1/2-x,1/2+y,-z
1/2-x,1/2-y,-z
1/2+x,1/2-y,z
loop_
_atom_site_type_symbol
_atom_site_label
_atom_site_fract_x
_atom_site_fract_y
_atom_site_fract_z
Si Si1 0.294537 0.616428 0.282615
Si Si2 0.931883 0.176539 0.915846
Si Si3 0.425344 0.885478 0.136026
Si Si4 0.312773 0.117540 0.336839
Si Si5 0.256462 0.880784 0.527792
O O1 0.335897 0.500000 0.280812
O O2 0.403426 0.650561 0.181274
O O3 0.348094 0.656546 0.368649
O O4 0.054496 0.629574 0.310461
O O5 0.917511 0.296501 0.905597
O O6 0.731790 0.120762 0.916445
O O7 0.000000 0.152029 0.000000
O O8 0.292799 0.854990 0.241056
O O9 0.497052 0.000000 0.136074
O O10 0.209753 0.156760 0.439811
O O11 0.267871 0.000000 0.345085
O O12 0.500000 0.870618 0.500000
O O13 0.220807 0.000000 0.531880
#
# Coordination Sequence:
#
# PCOD9222323 Si02
#       5
#     8   8   8   8   8
#     4   9  17  33  61  95 132 175 218 266 326 384
#     4  12  26  45  66  94 131 171 222 276 322 384
#     4  11  25  45  69  97 131 171 216 270 330 388
#     4   8  15  32  60  93 130 169 210 262 323 388
#     4   7  11  24  52  90 128 167 210 257 316 384
#
# _framework density 28.590799000000001
#
# number of rings (size 3 to 8) (size 9 to 14) (size 15 to 20)
#    0.000    2.600    0.000    4.800    0.000    2.000 
#    0.000    5.000    0.000    4.800    0.000    0.000 
#    0.000    0.000    0.000    0.000    0.000    0.000 
#
# Total GULP energy -112021.154200 kJ/mol
# GULP energy per Si atom -5601.057710 kJ/mol
# Density = 2.852573 g / cm^3
# Si number density = 28.590799 Si / 1000 Ang^3
#
#
#
# Elastic Constant Matrix: (Units=GPa)
#
#
# Indices 1 2 3 4 5 6 
#
# 1 55.2204 6.2196 24.3255 0.0000 20.6875 0.0000
# 2 6.2196 124.9837 22.1547 0.0000 10.4500 0.0000
# 3 24.3255 22.1547 252.1657 0.0000 42.1755 0.0000
# 4 0.0000 0.0000 0.0000 58.5694 0.0000 6.6707
# 5 20.6875 10.4500 42.1755 0.0000 53.0960 0.0000
# 6 0.0000 0.0000 0.0000 6.6707 0.0000 28.3389
#
#
#
# Elastic Compliance Matrix: (Units=1/GPa)
#
#
# Indices 1 2 3 4 5 6 
#
# 1 0.021343 -0.000288 -0.000752 0.000000 -0.007662 0.000000
# 2 -0.000288 0.008197 -0.000509 0.000000 -0.001097 0.000000
# 3 -0.000752 -0.000509 0.004633 0.000000 -0.003287 0.000000
# 4 0.000000 0.000000 0.000000 0.017544 0.000000 -0.004130
# 5 -0.007662 -0.001097 -0.003287 0.000000 0.024646 0.000000
# 6 0.000000 0.000000 0.000000 -0.004130 0.000000 0.036259
#
#
# Mechanical properties :
#
#
# Convention : Reuss Voigt Hill
#
# Bulk Modulus (GPa) = 32.18048 59.75214 45.96631
# Shear Modulus (GPa) = 39.65768 53.31219 46.48494
#
# Velocity S-wave (km/s) = 3.72839 4.32286 4.03658
# Velocity P-wave (km/s) = 5.46027 6.77204 6.15122
#
# Compressibility (1/GPa) = 0.03107474
#
# Stress axis : x y z
#
# Youngs Moduli (GPa) = 46.85293 121.99127 215.86105
#
# Poissons Ratio (x) = 0.03516 0.16236
# Poissons Ratio (y) = 0.01350 0.10986
# Poissons Ratio (z) = 0.03524 0.06209
#
# Static dielectric constant tensor:
#      x y z
#    x 2.240120 0.000000 0.004460 
#    y 0.000000 2.228490 0.000000 
#    z 0.004460 0.000000 2.255450 
# 
# From -- ./inp_files/194454.got.cif
#   From: 2010.05.17/outbox.cif.g08.bks.cpg/sg12_98_cif.got.tgz:194454.got - 2010.06.03 13:09:07.
