data_PCOD9222125
_publ_section_title
;
Structure prediction by ZEFSAII (Michael W. Deem and Ramdas Pophale) SiO2 
 PCOD9222125
Probable space group: C 2/M
;
_chemical_formula_sum "Si O2"
_cell_formula_units_Z 24
_cell_length_a 6.905455
_cell_length_b 22.197815
_cell_length_c 7.046208
_cell_angle_alpha 90.000000
_cell_angle_beta 88.709039
_cell_angle_gamma 90.000000
_cell_volume 1079.810977
_symmetry_space_group_name_H-M "C 2/M"
_symmetry_group_IT_number 12
_symmetry_cell_setting 'monoclinic'
loop_
_space_group_symop_operation_xyz
x,y,z
-x,y,-z
-x,-y,-z
x,-y,z
1/2+x,1/2+y,z
1/2-x,1/2+y,-z
1/2-x,1/2-y,-z
1/2+x,1/2-y,z
loop_
_atom_site_type_symbol
_atom_site_label
_atom_site_fract_x
_atom_site_fract_y
_atom_site_fract_z
Si Si1 0.500000 0.895902 0.500000
Si Si2 0.306698 0.933281 0.130816
Si Si3 0.322781 0.692449 0.381300
Si Si4 0.000000 0.165418 0.000000
O O1 0.374989 0.930501 0.347594
O O2 0.352885 0.853814 0.620291
O O3 0.223682 0.000000 0.093553
O O4 0.500000 0.927150 0.000000
O O5 0.160627 0.879354 0.085917
O O6 0.500000 0.666228 0.500000
O O7 0.250000 0.750000 0.500000
O O8 0.404057 0.704132 0.169905
#
# Coordination Sequence:
#
# PCOD9222125 Si02
#       4
#     4   8   8   4
#     4  12  23  46  68 100 144 180 225 288 342 404
#     4  11  24  43  71 105 139 182 229 279 346 411
#     4  12  26  45  69 101 139 182 236 284 346 410
#     4  12  25  46  72 102 142 182 227 294 338 406
#
# _framework density 22.226112000000001
#
# number of rings (size 3 to 8) (size 9 to 14) (size 15 to 20)
#    0.000    0.333    8.333    1.000    0.000    1.333 
#    3.000    1.667    0.000    0.000    0.000    0.000 
#    0.000    0.000    0.000    0.000    0.000    0.000 
#
# Total GULP energy -67131.513526 kJ/mol
# GULP energy per Si atom -5594.292794 kJ/mol
# Density = 2.217552 g / cm^3
# Si number density = 22.226112 Si / 1000 Ang^3
#
#
#
# Elastic Constant Matrix: (Units=GPa)
#
#
# Indices 1 2 3 4 5 6 
#
# 1 85.4840 25.6816 34.3480 0.0000 -5.0265 0.0000
# 2 25.6816 80.5438 35.2871 0.0000 -13.0451 0.0000
# 3 34.3480 35.2871 169.3592 0.0000 -27.9140 0.0000
# 4 0.0000 0.0000 0.0000 -5.9045 0.0000 9.0864
# 5 -5.0265 -13.0451 -27.9140 0.0000 51.8013 0.0000
# 6 0.0000 0.0000 0.0000 9.0864 0.0000 14.7299
#
#
#
# Elastic Compliance Matrix: (Units=1/GPa)
#
#
# Indices 1 2 3 4 5 6 
#
# 1 0.013569 -0.003505 -0.002140 0.000000 -0.000719 0.000000
# 2 -0.003505 0.014778 -0.001987 0.000000 0.002311 0.000000
# 3 -0.002140 -0.001987 0.007283 0.000000 0.003216 0.000000
# 4 0.000000 0.000000 0.000000 -0.086884 0.000000 0.053596
# 5 -0.000719 0.002311 0.003216 0.000000 0.021550 0.000000
# 6 0.000000 0.000000 0.000000 0.053596 0.000000 0.034827
#
#
# Mechanical properties :
#
#
# Convention : Reuss Voigt Hill
#
# Bulk Modulus (GPa) = 49.10586 58.44671 53.77629
# Shear Modulus (GPa) = 183.97928 28.13002 106.05465
#
# Velocity S-wave (km/s) = 9.10801 3.56143 6.91519
# Velocity P-wave (km/s) = 11.52170 6.57763 9.38123
#
# Compressibility (1/GPa) = 0.02036417
#
# Stress axis : x y z
#
# Youngs Moduli (GPa) = 73.69844 67.66717 137.30879
#
# Poissons Ratio (x) = 0.23720 0.29386
# Poissons Ratio (y) = 0.25834 0.27289
# Poissons Ratio (z) = 0.15772 0.13448
#
# Static dielectric constant tensor:
#      x y z
#    x 1.801190 0.000000 0.000620 
#    y 0.000000 1.799930 0.000000 
#    z 0.000620 0.000000 1.851860 
# 
# From -- ./inp_files/2429.got.cif
#   From: 2010.05.17/outbox.cif.g08.bks.cpg/sg12_2_cif.got.tgz:2429.got - 2010.06.03 13:09:07.
