data_PCOD9222156
_publ_section_title
;
Structure prediction by ZEFSAII (Michael W. Deem and Ramdas Pophale) SiO2 
 PCOD9222156
Probable space group: C 2/M
;
_chemical_formula_sum "Si O2"
_cell_formula_units_Z 40
_cell_length_a 17.245965
_cell_length_b 15.490249
_cell_length_c 21.148203
_cell_angle_alpha 90.000000
_cell_angle_beta 19.359081
_cell_angle_gamma 90.000000
_cell_volume 1872.778554
_symmetry_space_group_name_H-M "C 2/M"
_symmetry_group_IT_number 12
_symmetry_cell_setting 'monoclinic'
loop_
_space_group_symop_operation_xyz
x,y,z
-x,y,-z
-x,-y,-z
x,-y,z
1/2+x,1/2+y,z
1/2-x,1/2+y,-z
1/2-x,1/2-y,-z
1/2+x,1/2-y,z
loop_
_atom_site_type_symbol
_atom_site_label
_atom_site_fract_x
_atom_site_fract_y
_atom_site_fract_z
Si Si1 0.716141 0.900358 0.217523
Si Si2 0.315101 0.729734 0.692629
Si Si3 0.425250 0.812366 0.902047
Si Si4 0.842951 0.655443 0.404970
Si Si5 0.157932 0.094445 0.213798
O O1 0.616799 0.825879 0.339202
O O2 0.576432 0.876661 0.260750
O O3 0.666245 0.000000 0.272210
O O4 0.000000 0.891092 0.000000
O O5 0.500000 0.694156 0.500000
O O6 0.298027 0.667353 0.766508
O O7 0.073202 0.736541 0.841403
O O8 0.597638 0.844387 0.714786
O O9 0.250000 0.750000 0.000000
O O10 0.289879 0.883058 0.047323
O O11 0.750000 0.750000 0.500000
O O12 0.617264 0.597209 0.589499
O O13 0.226005 0.000000 0.185033
#
# Coordination Sequence:
#
# PCOD9222156 Si02
#       5
#     8   8   8   8   8
#     4  11  24  44  71 102 138 181 231 289 350 417
#     4  12  24  46  70  97 142 187 230 288 348 415
#     4  12  24  43  74 101 134 186 232 284 350 413
#     4  12  22  47  73 102 143 185 230 287 350 419
#     4  12  27  45  70 105 141 184 236 287 346 415
#
# _framework density 21.358637000000002
#
# number of rings (size 3 to 8) (size 9 to 14) (size 15 to 20)
#    0.000    0.200    6.000    3.600    0.000    4.000 
#    0.000    1.000    0.000    0.000    0.000    0.000 
#    0.000    0.000    0.000    0.000    0.000    0.000 
#
# Total GULP energy -111711.519225 kJ/mol
# GULP energy per Si atom -5585.575961 kJ/mol
# Density = 2.131002 g / cm^3
# Si number density = 21.358637 Si / 1000 Ang^3
#
#
#
# Elastic Constant Matrix: (Units=GPa)
#
#
# Indices 1 2 3 4 5 6 
#
# 1 133.6096 50.4390 39.9187 -0.0441 -12.0773 0.0098
# 2 50.4390 141.5016 32.8862 -0.0677 12.8988 0.0238
# 3 39.9187 32.8862 95.2994 -0.1373 23.6387 0.0274
# 4 -0.0441 -0.0677 -0.1373 12.0132 0.0525 -5.0642
# 5 -12.0773 12.8988 23.6387 0.0525 55.3047 -0.0052
# 6 0.0098 0.0238 0.0274 -5.0642 -0.0052 9.8285
#
#
#
# Elastic Compliance Matrix: (Units=1/GPa)
#
#
# Indices 1 2 3 4 5 6 
#
# 1 0.010468 -0.003129 -0.004534 -0.000061 0.004954 -0.000019
# 2 -0.003129 0.008646 -0.001122 0.000035 -0.002220 0.000002
# 3 -0.004534 -0.001122 0.014498 0.000201 -0.006925 0.000067
# 4 -0.000061 0.000035 0.000201 0.106343 -0.000203 0.054793
# 5 0.004954 -0.002220 -0.006925 -0.000203 0.022642 -0.000073
# 6 -0.000019 0.000002 0.000067 0.054793 -0.000073 0.129977
#
#
# Mechanical properties :
#
#
# Convention : Reuss Voigt Hill
#
# Bulk Modulus (GPa) = 62.33910 68.54428 65.44169
# Shear Modulus (GPa) = 15.84838 31.90706 23.87772
#
# Velocity S-wave (km/s) = 2.72695 3.86926 3.34719
# Velocity P-wave (km/s) = 6.25821 7.21964 6.75605
#
# Compressibility (1/GPa) = 0.01604130
#
# Stress axis : x y z
#
# Youngs Moduli (GPa) = 95.52739 115.66471 68.97711
#
# Poissons Ratio (x) = 0.36195 0.31273
# Poissons Ratio (y) = 0.29894 0.07738
# Poissons Ratio (z) = 0.43311 0.12976
#
# Static dielectric constant tensor:
#      x y z
#    x 1.764640 -0.000120 -0.022010 
#    y -0.000120 1.831570 0.000350 
#    z -0.022010 0.000350 1.838920 
# 
# From -- ./inp_files/284427.got.cif
#   From: 2010.05.17/outbox.cif.g08.bks.cpg/sg12_143_cif.got.tgz:284427.got - 2010.06.03 13:09:07.
