data_PCOD9222585
_publ_section_title
;
Structure prediction by ZEFSAII (Michael W. Deem and Ramdas Pophale) SiO2 
 PCOD9222585
Probable space group: C 2/M
;
_chemical_formula_sum "Si O2"
_cell_formula_units_Z 40
_cell_length_a 8.646696
_cell_length_b 24.296794
_cell_length_c 12.096768
_cell_angle_alpha 90.000000
_cell_angle_beta 130.364218
_cell_angle_gamma 90.000000
_cell_volume 1936.381615
_symmetry_space_group_name_H-M "C 2/M"
_symmetry_group_IT_number 12
_symmetry_cell_setting 'monoclinic'
loop_
_space_group_symop_operation_xyz
x,y,z
-x,y,-z
-x,-y,-z
x,-y,z
1/2+x,1/2+y,z
1/2-x,1/2+y,-z
1/2-x,1/2-y,-z
1/2+x,1/2-y,z
loop_
_atom_site_type_symbol
_atom_site_label
_atom_site_fract_x
_atom_site_fract_y
_atom_site_fract_z
Si Si1 0.079327 0.701401 0.662221
Si Si2 0.014005 0.063210 0.666043
Si Si3 0.958386 0.119364 0.853018
Si Si4 0.716965 0.362481 0.601171
Si Si5 0.735134 0.208937 0.095426
O O1 0.254027 0.655049 0.747423
O O2 0.172727 0.756933 0.758649
O O3 0.000000 0.706525 0.500000
O O4 0.898638 0.677382 0.655812
O O5 0.967768 0.068797 0.773593
O O6 0.202160 0.100549 0.705594
O O7 0.824776 0.092171 0.514511
O O8 0.041659 0.000000 0.648111
O O9 0.130126 0.158597 0.880950
O O10 0.000000 0.107340 0.000000
O O11 0.500000 0.331388 0.500000
O O12 0.500000 0.194811 0.000000
O O13 0.750000 0.250000 0.000000
#
# Coordination Sequence:
#
# PCOD9222585 Si02
#       5
#     8   8   8   8   8
#     4  12  22  42  65 100 133 164 225 269 319 389
#     4   9  20  42  68  94 129 171 220 269 327 387
#     4  12  25  43  64  96 135 176 217 270 325 389
#     4   8  19  38  67  94 130 165 209 269 324 381
#     4  12  25  45  65  91 135 182 210 256 333 397
#
# _framework density 20.657084999999999
#
# number of rings (size 3 to 8) (size 9 to 14) (size 15 to 20)
#    1.200    0.000    6.000    1.200    2.800    1.200 
#    3.600    3.000    0.000    4.200    0.000    0.000 
#    0.000    0.000    0.000    0.000    0.000    0.000 
#
# Total GULP energy -111546.820204 kJ/mol
# GULP energy per Si atom -5577.341010 kJ/mol
# Density = 2.061007 g / cm^3
# Si number density = 20.657085 Si / 1000 Ang^3
#
#
#
# Elastic Constant Matrix: (Units=GPa)
#
#
# Indices 1 2 3 4 5 6 
#
# 1 150.1601 42.0130 57.8468 0.0000 9.7793 0.0000
# 2 42.0130 59.8812 25.6879 0.0000 -6.6613 0.0000
# 3 57.8468 25.6879 129.3058 0.0000 -35.2410 0.0000
# 4 0.0000 0.0000 0.0000 10.2541 0.0000 -9.1905
# 5 9.7793 -6.6613 -35.2410 0.0000 54.4337 0.0000
# 6 0.0000 0.0000 0.0000 -9.1905 0.0000 -1.0456
#
#
#
# Elastic Compliance Matrix: (Units=1/GPa)
#
#
# Indices 1 2 3 4 5 6 
#
# 1 0.010760 -0.005958 -0.005289 0.000000 -0.006086 0.000000
# 2 -0.005958 0.021555 -0.000736 0.000000 0.003232 0.000000
# 3 -0.005289 -0.000736 0.012726 0.000000 0.009099 0.000000
# 4 0.000000 0.000000 0.000000 0.010984 0.000000 -0.096552
# 5 -0.006086 0.003232 0.009099 0.000000 0.025751 0.000000
# 6 0.000000 0.000000 0.000000 -0.096552 0.000000 -0.107725
#
#
# Mechanical properties :
#
#
# Convention : Reuss Voigt Hill
#
# Bulk Modulus (GPa) = 47.44871 65.60472 56.52671
# Shear Modulus (GPa) = 991.81695 26.98174 509.39934
#
# Velocity S-wave (km/s) = 21.93573 3.61802 15.72047
# Velocity P-wave (km/s) = 25.77961 7.02007 18.89272
#
# Compressibility (1/GPa) = 0.02107539
#
# Stress axis : x y z
#
# Youngs Moduli (GPa) = 92.93384 46.39304 78.58059
#
# Poissons Ratio (x) = 0.27640 0.41561
# Poissons Ratio (y) = 0.55367 0.05785
# Poissons Ratio (z) = 0.49153 0.03415
#
# Static dielectric constant tensor:
#      x y z
#    x 1.736060 0.000000 -0.072140 
#    y 0.000000 1.845830 0.000000 
#    z -0.072140 0.000000 1.754790 
# 
# From -- ./inp_files/123946.got.cif
#   From: 2010.05.17/outbox.cif.g08.bks.cpg/sg12_62_cif.got.tgz:123946.got - 2010.06.03 13:09:07.
