data_PCOD9222460
_publ_section_title
;
Structure prediction by ZEFSAII (Michael W. Deem and Ramdas Pophale) SiO2 
 PCOD9222460
Probable space group: C 2/M
;
_chemical_formula_sum "Si O2"
_cell_formula_units_Z 40
_cell_length_a 9.053108
_cell_length_b 28.242585
_cell_length_c 9.932617
_cell_angle_alpha 90.000000
_cell_angle_beta 131.449126
_cell_angle_gamma 90.000000
_cell_volume 1903.543645
_symmetry_space_group_name_H-M "C 2/M"
_symmetry_group_IT_number 12
_symmetry_cell_setting 'monoclinic'
loop_
_space_group_symop_operation_xyz
x,y,z
-x,y,-z
-x,-y,-z
x,-y,z
1/2+x,1/2+y,z
1/2-x,1/2+y,-z
1/2-x,1/2-y,-z
1/2+x,1/2-y,z
loop_
_atom_site_type_symbol
_atom_site_label
_atom_site_fract_x
_atom_site_fract_y
_atom_site_fract_z
Si Si1 0.047989 0.878254 0.373344
Si Si2 0.649951 0.883577 0.965889
Si Si3 0.788653 0.710399 0.413000
Si Si4 0.425025 0.055966 0.607729
Si Si5 0.715796 0.710401 0.088597
O O1 0.145982 0.832447 0.363172
O O2 0.212802 0.918818 0.484248
O O3 0.000000 0.866064 0.500000
O O4 0.860534 0.892095 0.167307
O O5 0.664030 0.834709 0.889981
O O6 0.500000 0.879168 0.000000
O O7 0.567992 0.921240 0.807736
O O8 0.750000 0.750000 0.500000
O O9 0.761731 0.736792 0.255351
O O10 0.000000 0.688135 0.500000
O O11 0.500000 0.063088 0.500000
O O12 0.409257 0.000000 0.622932
O O13 0.500000 0.692164 0.000000
O O14 0.750000 0.750000 0.000000
#
# Coordination Sequence:
#
# PCOD9222460 Si02
#       5
#     8   8   8   8   8
#     4  12  25  46  75 108 144 192 243 299 360 430
#     4  12  26  48  72 106 148 192 239 301 359 430
#     4  12  26  43  69 100 143 192 241 294 356 426
#     4  11  27  50  77 109 144 185 239 302 368 438
#     4  12  25  42  65 100 139 184 237 290 350 417
#
# _framework density 21.013439999999999
#
# number of rings (size 3 to 8) (size 9 to 14) (size 15 to 20)
#    0.000    0.200    4.000    5.400    2.800    1.600 
#    0.000    2.000    0.000    0.000    0.000    0.000 
#    0.000    0.000    0.000    0.000    0.000    0.000 
#
# Total GULP energy -111558.166178 kJ/mol
# GULP energy per Si atom -5577.908309 kJ/mol
# Density = 2.096561 g / cm^3
# Si number density = 21.013440 Si / 1000 Ang^3
#
#
#
# Elastic Constant Matrix: (Units=GPa)
#
#
# Indices 1 2 3 4 5 6 
#
# 1 188.2952 85.1068 87.0344 0.0000 -24.8571 0.0000
# 2 85.1068 147.1938 71.5523 0.0000 -10.9771 0.0000
# 3 87.0344 71.5523 166.9030 0.0000 -17.8356 0.0000
# 4 0.0000 0.0000 0.0000 21.1889 0.0000 -14.2470
# 5 -24.8571 -10.9771 -17.8356 0.0000 54.6311 0.0000
# 6 0.0000 0.0000 0.0000 -14.2470 0.0000 30.5721
#
#
#
# Elastic Compliance Matrix: (Units=1/GPa)
#
#
# Indices 1 2 3 4 5 6 
#
# 1 0.008370 -0.003369 -0.002679 0.000000 0.002257 0.000000
# 2 -0.003369 0.009954 -0.002550 0.000000 -0.000365 0.000000
# 3 -0.002679 -0.002550 0.008597 0.000000 0.001075 0.000000
# 4 0.000000 0.000000 0.000000 0.068730 0.000000 0.032029
# 5 0.002257 -0.000365 0.001075 0.000000 0.019609 0.000000
# 6 0.000000 0.000000 0.000000 0.032029 0.000000 0.047635
#
#
# Mechanical properties :
#
#
# Convention : Reuss Voigt Hill
#
# Bulk Modulus (GPa) = 102.82742 109.97546 106.40144
# Shear Modulus (GPa) = 27.27310 38.52500 32.89905
#
# Velocity S-wave (km/s) = 3.60653 4.28641 3.96108
# Velocity P-wave (km/s) = 8.14758 8.77195 8.46552
#
# Compressibility (1/GPa) = 0.00972503
#
# Stress axis : x y z
#
# Youngs Moduli (GPa) = 119.47885 100.46583 116.32594
#
# Poissons Ratio (x) = 0.33843 0.31166
# Poissons Ratio (y) = 0.40248 0.29658
# Poissons Ratio (z) = 0.32011 0.25614
#
# Static dielectric constant tensor:
#      x y z
#    x 1.719180 0.000000 0.058680 
#    y 0.000000 1.674340 0.000000 
#    z 0.058680 0.000000 2.348980 
# 
# From -- ./inp_files/125494.got.cif
#   From: 2010.05.17/outbox.cif.g08.bks.cpg/sg12_63_cif.got.tgz:125494.got - 2010.06.03 13:09:07.
