data_PCOD9222444
_publ_section_title
;
Structure prediction by ZEFSAII (Michael W. Deem and Ramdas Pophale) SiO2 
 PCOD9222444
Probable space group: C 2/M
;
_chemical_formula_sum "Si O2"
_cell_formula_units_Z 24
_cell_length_a 9.964257
_cell_length_b 21.369075
_cell_length_c 5.014293
_cell_angle_alpha 90.000000
_cell_angle_beta 116.820274
_cell_angle_gamma 90.000000
_cell_volume 952.823968
_symmetry_space_group_name_H-M "C 2/M"
_symmetry_group_IT_number 12
_symmetry_cell_setting 'monoclinic'
loop_
_space_group_symop_operation_xyz
x,y,z
-x,y,-z
-x,-y,-z
x,-y,z
1/2+x,1/2+y,z
1/2-x,1/2+y,-z
1/2-x,1/2-y,-z
1/2+x,1/2-y,z
loop_
_atom_site_type_symbol
_atom_site_label
_atom_site_fract_x
_atom_site_fract_y
_atom_site_fract_z
Si Si1 0.104881 0.369918 0.841533
Si Si2 0.837750 0.067871 0.716263
Si Si3 0.175498 0.197610 0.617035
O O1 0.209366 0.425079 0.824848
O O2 0.219210 0.315304 0.032876
O O3 0.677930 0.371349 0.481044
O O4 0.000000 0.384769 0.000000
O O5 0.500000 0.148058 0.500000
O O6 0.824857 0.000000 0.569505
O O7 0.000000 0.071408 0.000000
O O8 0.250000 0.250000 0.500000
O O9 0.000000 0.210990 0.500000
#
# Coordination Sequence:
#
# PCOD9222444 Si02
#       3
#     8   8   8
#     4  12  27  52  80 125 169 216 273 346 422 492
#     4  11  26  52  85 122 166 224 284 348 418 498
#     4  12  29  53  86 122 171 225 283 345 418 504
#
# _framework density 25.188283999999999
#
# number of rings (size 3 to 8) (size 9 to 14) (size 15 to 20)
#    0.000    0.333    6.667    0.000    4.667    6.000 
#    0.000    1.667    0.000    0.000    0.000    0.000 
#    0.000    0.000    0.000    0.000    0.000    0.000 
#
# Total GULP energy -67301.578165 kJ/mol
# GULP energy per Si atom -5608.464847 kJ/mol
# Density = 2.513095 g / cm^3
# Si number density = 25.188284 Si / 1000 Ang^3
#
#
#
# Elastic Constant Matrix: (Units=GPa)
#
#
# Indices 1 2 3 4 5 6 
#
# 1 187.1067 62.3618 82.9158 0.0000 33.1860 0.0000
# 2 62.3618 209.0484 65.1761 0.0000 6.4168 0.0000
# 3 82.9158 65.1761 216.9231 0.0000 16.8513 0.0000
# 4 0.0000 0.0000 0.0000 -3.5596 0.0000 -24.2115
# 5 33.1860 6.4168 16.8513 0.0000 54.1209 0.0000
# 6 0.0000 0.0000 0.0000 -24.2115 0.0000 24.4844
#
#
#
# Elastic Compliance Matrix: (Units=1/GPa)
#
#
# Indices 1 2 3 4 5 6 
#
# 1 0.007422 -0.001440 -0.002115 0.000000 -0.003722 0.000000
# 2 -0.001440 0.005559 -0.001165 0.000000 0.000587 0.000000
# 3 -0.002115 -0.001165 0.005797 0.000000 -0.000370 0.000000
# 4 0.000000 0.000000 0.000000 -0.036362 0.000000 -0.035957
# 5 -0.003722 0.000587 -0.000370 0.000000 0.020805 0.000000
# 6 0.000000 0.000000 0.000000 -0.035957 0.000000 0.005286
#
#
# Mechanical properties :
#
#
# Convention : Reuss Voigt Hill
#
# Bulk Modulus (GPa) = 107.10621 114.88728 110.99674
# Shear Modulus (GPa) = 237.41378 41.85078 139.63228
#
# Velocity S-wave (km/s) = 9.71907 4.08059 7.45357
# Velocity P-wave (km/s) = 12.98313 8.24088 10.87368
#
# Compressibility (1/GPa) = 0.00933653
#
# Stress axis : x y z
#
# Youngs Moduli (GPa) = 134.73438 179.90429 172.49744
#
# Poissons Ratio (x) = 0.25914 0.36484
# Poissons Ratio (y) = 0.19407 0.20098
# Poissons Ratio (z) = 0.28497 0.20961
#
# Static dielectric constant tensor:
#      x y z
#    x 2.002490 0.000000 -0.041340 
#    y 0.000000 2.004440 0.000000 
#    z -0.041340 0.000000 2.044610 
# 
# From -- ./inp_files/38627.got.cif
#   From: 2010.05.17/outbox.cif.g08.bks.cpg/sg12_20_cif.got.tgz:38627.got - 2010.06.03 13:09:07.
