data_PCOD9222177
_publ_section_title
;
Structure prediction by ZEFSAII (Michael W. Deem and Ramdas Pophale) SiO2 
 PCOD9222177
Probable space group: C 2/M
;
_chemical_formula_sum "Si O2"
_cell_formula_units_Z 50
_cell_length_a 7.700729
_cell_length_b 18.515286
_cell_length_c 16.804755
_cell_angle_alpha 90.000000
_cell_angle_beta 117.169083
_cell_angle_gamma 90.000000
_cell_volume 2131.669780
_symmetry_space_group_name_H-M "C 2/M"
_symmetry_group_IT_number 12
_symmetry_cell_setting 'monoclinic'
loop_
_space_group_symop_operation_xyz
x,y,z
-x,y,-z
-x,-y,-z
x,-y,z
1/2+x,1/2+y,z
1/2-x,1/2+y,-z
1/2-x,1/2-y,-z
1/2+x,1/2-y,z
loop_
_atom_site_type_symbol
_atom_site_label
_atom_site_fract_x
_atom_site_fract_y
_atom_site_fract_z
Si Si1 0.000000 0.500000 0.500000
Si Si2 0.761062 0.642198 0.782876
Si Si3 0.542480 0.222954 0.930341
Si Si4 0.100558 0.851048 0.180860
Si Si5 0.384459 0.853376 0.383932
Si Si6 0.940195 0.500000 0.892400
Si Si7 0.012154 0.808971 0.410983
Si Si8 0.139627 0.000000 0.103609
O O1 0.967452 0.432565 0.425879
O O2 0.588703 0.669799 0.805441
O O3 0.811452 0.565641 0.831054
O O4 0.669955 0.657897 0.677442
O O5 0.968442 0.681256 0.838169
O O6 0.409003 0.294416 0.892542
O O7 0.500000 0.174679 0.000000
O O8 0.750000 0.250000 0.000000
O O9 0.285307 0.850991 0.276974
O O10 0.091328 0.930115 0.144394
O O11 0.510566 0.779013 0.410543
O O12 0.205202 0.838393 0.407915
O O13 0.142014 0.500000 0.885003
O O14 0.000000 0.500000 0.000000
O O15 0.000000 0.832361 0.500000
O O16 0.000000 0.000000 0.000000
#
# Coordination Sequence:
#
# PCOD9222177 Si02
#       8
#     2   8   8   8   8   4   8   4
#     4  12  26  46  72 110 146 192 246 308 410 438
#     4  11  25  46  70 101 145 191 238 310 368 444
#     4  12  24  38  66 103 136 186 240 299 362 435
#     4  11  24  45  67 100 141 186 244 295 362 443
#     4  11  25  46  77 106 148 198 245 320 380 458
#     4  12  28  46  71 104 154 194 238 299 377 441
#     4  11  24  47  78 108 141 193 258 308 382 451
#     4  12  27  43  67 100 136 194 240 290 358 441
#
# _framework density 23.45579
#
# number of rings (size 3 to 8) (size 9 to 14) (size 15 to 20)
#    0.000    0.640    4.000    3.360    4.480    3.200 
#    2.880    0.800    0.000    0.000    0.000    0.000 
#    0.000    0.000    0.000    0.000    0.000    0.000 
#
# Total GULP energy -139188.613594 kJ/mol
# GULP energy per Si atom -5567.544544 kJ/mol
# Density = 2.340240 g / cm^3
# Si number density = 23.455790 Si / 1000 Ang^3
#
#
#
# Elastic Constant Matrix: (Units=GPa)
#
#
# Indices 1 2 3 4 5 6 
#
# 1 58.9156 9.1131 29.9262 0.0000 -10.7322 0.0000
# 2 9.1131 167.2359 66.7883 0.0000 3.7526 0.0000
# 3 29.9262 66.7883 226.1098 0.0000 1.1283 0.0000
# 4 0.0000 0.0000 0.0000 48.0848 0.0000 1.3264
# 5 -10.7322 3.7526 1.1283 0.0000 40.3549 0.0000
# 6 0.0000 0.0000 0.0000 1.3264 0.0000 41.6357
#
#
#
# Elastic Compliance Matrix: (Units=1/GPa)
#
#
# Indices 1 2 3 4 5 6 
#
# 1 0.019227 -0.000156 -0.002525 0.000000 0.005198 0.000000
# 2 -0.000156 0.006794 -0.001983 0.000000 -0.000618 0.000000
# 3 -0.002525 -0.001983 0.005346 0.000000 -0.000636 0.000000
# 4 0.000000 0.000000 0.000000 0.020815 0.000000 -0.000663
# 5 0.005198 -0.000618 -0.000636 0.000000 0.026238 0.000000
# 6 0.000000 0.000000 0.000000 -0.000663 0.000000 0.024039
#
#
# Mechanical properties :
#
#
# Convention : Reuss Voigt Hill
#
# Bulk Modulus (GPa) = 45.37408 73.76851 59.57129
# Shear Modulus (GPa) = 41.97024 49.11065 45.54044
#
# Velocity S-wave (km/s) = 4.23464 4.58072 4.41108
# Velocity P-wave (km/s) = 6.57998 7.71334 7.16909
#
# Compressibility (1/GPa) = 0.02203902
#
# Stress axis : x y z
#
# Youngs Moduli (GPa) = 52.01053 147.19073 187.06687
#
# Poissons Ratio (x) = 0.02298 0.47226
# Poissons Ratio (y) = 0.00812 0.37096
# Poissons Ratio (z) = 0.13130 0.29188
#
# Static dielectric constant tensor:
#      x y z
#    x 2.086310 0.000000 -0.063580 
#    y 0.000000 1.946520 0.000000 
#    z -0.063580 0.000000 1.901680 
# 
# From -- ./inp_files/257283.got.cif
#   From: 2010.05.17/outbox.cif.g08.bks.cpg/sg12_129_cif.got.tgz:257283.got - 2010.06.03 13:09:07.
