data_PCOD9222804
_publ_section_title
;
Structure prediction by ZEFSAII (Michael W. Deem and Ramdas Pophale) SiO2 
 PCOD9222804
Probable space group: C 2/M
;
_chemical_formula_sum "Si O2"
_cell_formula_units_Z 48
_cell_length_a 13.913926
_cell_length_b 7.418288
_cell_length_c 18.830201
_cell_angle_alpha 90.000000
_cell_angle_beta 114.827920
_cell_angle_gamma 90.000000
_cell_volume 1763.964699
_symmetry_space_group_name_H-M "C 2/M"
_symmetry_group_IT_number 12
_symmetry_cell_setting 'monoclinic'
loop_
_space_group_symop_operation_xyz
x,y,z
-x,y,-z
-x,-y,-z
x,-y,z
1/2+x,1/2+y,z
1/2-x,1/2+y,-z
1/2-x,1/2-y,-z
1/2+x,1/2-y,z
loop_
_atom_site_type_symbol
_atom_site_label
_atom_site_fract_x
_atom_site_fract_y
_atom_site_fract_z
Si Si1 0.817467 0.300785 0.592398
Si Si2 0.562043 0.782195 0.238086
Si Si3 0.575233 0.785918 0.926822
Si Si4 0.656190 0.781966 0.743811
Si Si5 0.040144 0.295336 0.582438
Si Si6 0.784994 0.783657 0.906382
O O1 0.777686 0.500000 0.595803
O O2 0.750000 0.250000 0.500000
O O3 0.846299 0.210989 0.679082
O O4 0.935963 0.310448 0.597521
O O5 0.527420 0.714581 0.148025
O O6 0.449194 0.747582 0.242629
O O7 0.576555 0.000000 0.241138
O O8 0.683011 0.718493 0.920831
O O9 0.570634 0.000000 0.914693
O O10 0.608378 0.762153 0.019217
O O11 0.629979 0.710654 0.658162
O O12 0.756839 0.716239 0.818708
O O13 0.662533 0.000000 0.739614
O O14 0.076515 0.500000 0.573419
O O15 0.000000 0.201565 0.500000
O O16 0.779880 0.000000 0.903257
#
# Coordination Sequence:
#
# PCOD9222804 Si02
#       6
#     8   8   8   8   8   8
#     4   9  16  26  40  57  77 100 126 156 189 223
#     4   7  11  20  32  45  64  92 120 143 172 213
#     4   8  12  18  28  41  59  86 117 141 163 202
#     4   7  10  17  29  45  66  91 116 143 177 214
#     4   8  13  22  38  58  76  97 129 162 184 211
#     4   8  12  17  26  42  64  87 109 136 173 212
#
# _framework density 27.211431000000001
#
# number of rings (size 3 to 8) (size 9 to 14) (size 15 to 20)
#    0.000    4.167    0.000    4.000    0.000    0.000 
#    0.000    0.833    0.000    6.500    0.000    0.000 
#    0.000    1.333    0.000   16.667    0.000   16.333 
#
# Total GULP energy -133614.405644 kJ/mol
# GULP energy per Si atom -5567.266902 kJ/mol
# Density = 2.714950 g / cm^3
# Si number density = 27.211431 Si / 1000 Ang^3
#
#
#
# Elastic Constant Matrix: (Units=GPa)
#
#
# Indices 1 2 3 4 5 6 
#
# 1 82.4694 -1.9675 39.2775 0.0000 33.3569 0.0000
# 2 -1.9675 92.7715 26.0435 0.0000 -1.5592 0.0000
# 3 39.2775 26.0435 430.7641 0.0000 3.3801 0.0000
# 4 0.0000 0.0000 0.0000 10.4682 0.0000 -0.8135
# 5 33.3569 -1.5592 3.3801 0.0000 38.4961 0.0000
# 6 0.0000 0.0000 0.0000 -0.8135 0.0000 -1.2726
#
#
#
# Elastic Compliance Matrix: (Units=1/GPa)
#
#
# Indices 1 2 3 4 5 6 
#
# 1 0.019838 0.000616 -0.001713 0.000000 -0.017014 0.000000
# 2 0.000616 0.010994 -0.000721 0.000000 -0.000025 0.000000
# 3 -0.001713 -0.000721 0.002511 0.000000 0.001234 0.000000
# 4 0.000000 0.000000 0.000000 0.091006 0.000000 -0.058177
# 5 -0.017014 -0.000025 0.001234 0.000000 0.040610 0.000000
# 6 0.000000 0.000000 0.000000 -0.058177 0.000000 -0.748612
#
#
# Mechanical properties :
#
#
# Convention : Reuss Voigt Hill
#
# Bulk Modulus (GPa) = 33.66070 81.41244 57.53657
# Shear Modulus (GPa) = -8.77018 45.71510 18.47246
#
# Velocity S-wave (km/s) = -1.79721 4.10322 2.60830
# Velocity P-wave (km/s) = 2.84434 7.24099 5.50101
#
# Compressibility (1/GPa) = 0.02970824
#
# Stress axis : x y z
#
# Youngs Moduli (GPa) = 50.40854 90.95786 398.16982
#
# Poissons Ratio (x) = -0.05599 0.68188
# Poissons Ratio (y) = -0.03103 0.28693
# Poissons Ratio (z) = 0.08633 0.06555
#
# Static dielectric constant tensor:
#      x y z
#    x 2.263590 0.000000 -0.094230 
#    y 0.000000 2.058930 0.000000 
#    z -0.094230 0.000000 2.284350 
# 
# From -- ./inp_files/315434.got.cif
#   From: 2010.05.17/outbox.cif.g08.bks.cpg/sg12_158_cif.got.tgz:315434.got - 2010.06.03 13:09:07.
