data_PCOD9222414
_publ_section_title
;
Structure prediction by ZEFSAII (Michael W. Deem and Ramdas Pophale) SiO2 
 PCOD9222414
Probable space group: C 2/M
;
_chemical_formula_sum "Si O2"
_cell_formula_units_Z 48
_cell_length_a 19.102697
_cell_length_b 23.698911
_cell_length_c 11.526746
_cell_angle_alpha 90.000000
_cell_angle_beta 155.756453
_cell_angle_gamma 90.000000
_cell_volume 2142.722054
_symmetry_space_group_name_H-M "C 2/M"
_symmetry_group_IT_number 12
_symmetry_cell_setting 'monoclinic'
loop_
_space_group_symop_operation_xyz
x,y,z
-x,y,-z
-x,-y,-z
x,-y,z
1/2+x,1/2+y,z
1/2-x,1/2+y,-z
1/2-x,1/2-y,-z
1/2+x,1/2-y,z
loop_
_atom_site_type_symbol
_atom_site_label
_atom_site_fract_x
_atom_site_fract_y
_atom_site_fract_z
Si Si1 0.524273 0.935693 0.233579
Si Si2 0.000940 0.664629 0.363953
Si Si3 0.839628 0.934433 0.396285
Si Si4 0.396642 0.431641 0.731861
Si Si5 0.683202 0.685366 0.739042
Si Si6 0.200904 0.238403 0.293467
O O1 0.487313 0.897550 0.288512
O O2 0.701012 0.914192 0.449299
O O3 0.550591 0.000000 0.310482
O O4 0.367132 0.936211 0.906915
O O5 0.173642 0.691968 0.573520
O O6 0.000000 0.663110 0.500000
O O7 0.833186 0.695084 0.058283
O O8 0.941159 0.917603 0.666544
O O9 0.850707 0.881417 0.328339
O O10 0.885196 0.000000 0.434626
O O11 0.404033 0.500000 0.745126
O O12 0.500000 0.411181 0.000000
O O13 0.500000 0.710400 0.500000
O O14 0.757684 0.709125 0.730147
O O15 0.250000 0.250000 0.500000
O O16 0.000000 0.225450 0.000000
#
# Coordination Sequence:
#
# PCOD9222414 Si02
#       6
#     8   8   8   8   8   8
#     4   9  19  37  61  91 131 178 222 264 323 397
#     4  11  26  45  68 101 139 178 222 276 341 402
#     4   9  19  37  62  92 131 177 220 266 327 397
#     4   9  17  29  50  85 125 165 214 273 322 373
#     4  11  26  45  69 100 139 178 223 277 336 406
#     4  12  27  48  74 102 131 173 225 289 339 400
#
# _framework density 22.401412000000001
#
# number of rings (size 3 to 8) (size 9 to 14) (size 15 to 20)
#    0.000    1.833    1.667    1.000    4.667    6.000 
#    0.000    0.000    0.000    0.000    0.000    0.000 
#    0.000    0.000    0.000    0.000    0.000    0.000 
#
# Total GULP energy -133812.905984 kJ/mol
# GULP energy per Si atom -5575.537749 kJ/mol
# Density = 2.235042 g / cm^3
# Si number density = 22.401412 Si / 1000 Ang^3
#
#
#
# Elastic Constant Matrix: (Units=GPa)
#
#
# Indices 1 2 3 4 5 6 
#
# 1 143.9667 28.6050 84.6261 0.0000 -9.5854 0.0000
# 2 28.6050 82.0713 16.4456 0.0000 -1.3905 0.0000
# 3 84.6261 16.4456 154.1206 0.0000 -11.1065 0.0000
# 4 0.0000 0.0000 0.0000 19.9228 0.0000 -4.2341
# 5 -9.5854 -1.3905 -11.1065 0.0000 45.9047 0.0000
# 6 0.0000 0.0000 0.0000 -4.2341 0.0000 14.8997
#
#
#
# Elastic Compliance Matrix: (Units=1/GPa)
#
#
# Indices 1 2 3 4 5 6 
#
# 1 0.010815 -0.002634 -0.005598 0.000000 0.000824 0.000000
# 2 -0.002634 0.013092 0.000039 0.000000 -0.000144 0.000000
# 3 -0.005598 0.000039 0.009642 0.000000 0.001165 0.000000
# 4 0.000000 0.000000 0.000000 0.053420 0.000000 0.015180
# 5 0.000824 -0.000144 0.001165 0.000000 0.022234 0.000000
# 6 0.000000 0.000000 0.000000 0.015180 0.000000 0.071429
#
#
# Mechanical properties :
#
#
# Convention : Reuss Voigt Hill
#
# Bulk Modulus (GPa) = 58.26357 71.05687 64.66022
# Shear Modulus (GPa) = 24.66231 32.84425 28.75328
#
# Velocity S-wave (km/s) = 3.32162 3.83321 3.58655
# Velocity P-wave (km/s) = 6.38563 7.16799 6.78809
#
# Compressibility (1/GPa) = 0.01716338
#
# Stress axis : x y z
#
# Youngs Moduli (GPa) = 92.46668 76.38097 103.71326
#
# Poissons Ratio (x) = 0.20116 0.58057
# Poissons Ratio (y) = 0.24353 -0.00402
# Poissons Ratio (z) = 0.51761 -0.00296
#
# Static dielectric constant tensor:
#      x y z
#    x 1.873210 0.000000 0.067740 
#    y 0.000000 1.885700 0.000000 
#    z 0.067740 0.000000 1.890490 
# 
# From -- ./inp_files/170710.got.cif
#   From: 2010.05.17/outbox.cif.g08.bks.cpg/sg12_86_cif.got.tgz:170710.got - 2010.06.03 13:09:07.
