data_PCOD9222605
_publ_section_title
;
Structure prediction by ZEFSAII (Michael W. Deem and Ramdas Pophale) SiO2 
 PCOD9222605
Probable space group: C 2/M
;
_chemical_formula_sum "Si O2"
_cell_formula_units_Z 40
_cell_length_a 18.832470
_cell_length_b 15.024361
_cell_length_c 15.677165
_cell_angle_alpha 90.000000
_cell_angle_beta 156.764812
_cell_angle_gamma 90.000000
_cell_volume 1749.946565
_symmetry_space_group_name_H-M "C 2/M"
_symmetry_group_IT_number 12
_symmetry_cell_setting 'monoclinic'
loop_
_space_group_symop_operation_xyz
x,y,z
-x,y,-z
-x,-y,-z
x,-y,z
1/2+x,1/2+y,z
1/2-x,1/2+y,-z
1/2-x,1/2-y,-z
1/2+x,1/2-y,z
loop_
_atom_site_type_symbol
_atom_site_label
_atom_site_fract_x
_atom_site_fract_y
_atom_site_fract_z
Si Si1 0.396639 0.598729 0.490241
Si Si2 0.000000 0.798387 0.000000
Si Si3 0.743806 0.853685 0.016287
Si Si4 0.000000 0.749245 0.500000
Si Si5 0.219169 0.399580 0.804272
Si Si6 0.125110 0.684888 0.304283
O O1 0.375014 0.500000 0.430967
O O2 0.360422 0.681055 0.386153
O O3 0.260726 0.611866 0.417382
O O4 0.600194 0.616701 0.746683
O O5 0.845416 0.862466 0.868409
O O6 0.948702 0.740904 0.859042
O O7 0.792225 0.900804 0.980835
O O8 0.543207 0.861105 0.833537
O O9 0.750000 0.750000 0.000000
O O10 0.069572 0.678533 0.645442
O O11 0.164761 0.500000 0.724638
O O12 0.250000 0.750000 0.500000
#
# Coordination Sequence:
#
# PCOD9222605 Si02
#       6
#     8   4   8   4   8   8
#     4  12  26  45  72 104 142 195 250 301 366 441
#     4  12  23  44  75 106 150 192 245 310 369 448
#     4  12  23  46  75 103 146 193 245 305 373 445
#     4  12  22  46  66  98 146 182 234 302 370 432
#     4  12  25  43  72 107 140 186 243 305 375 446
#     4  12  24  46  75 106 149 202 242 304 382 441
#
# _framework density 22.857842000000002
#
# number of rings (size 3 to 8) (size 9 to 14) (size 15 to 20)
#    0.000    0.000    8.000    1.500    0.000    1.600 
#    0.000    1.500    0.000    0.000    0.000    0.000 
#    0.000    0.000    0.000    0.000    0.000    0.000 
#
# Total GULP energy -111595.058187 kJ/mol
# GULP energy per Si atom -5579.752909 kJ/mol
# Density = 2.280582 g / cm^3
# Si number density = 22.857842 Si / 1000 Ang^3
#
#
#
# Elastic Constant Matrix: (Units=GPa)
#
#
# Indices 1 2 3 4 5 6 
#
# 1 120.0712 16.0637 27.0019 0.0094 18.4195 0.0046
# 2 16.0637 173.1065 13.3907 0.0113 -1.8182 0.0083
# 3 27.0019 13.3907 83.6753 0.0114 -6.5853 0.0085
# 4 0.0094 0.0113 0.0114 12.3028 0.0048 -1.5916
# 5 18.4195 -1.8182 -6.5853 0.0048 56.6302 0.0024
# 6 0.0046 0.0083 0.0085 -1.5916 0.0024 16.2532
#
#
#
# Elastic Compliance Matrix: (Units=1/GPa)
#
#
# Indices 1 2 3 4 5 6 
#
# 1 0.009710 -0.000683 -0.003305 -0.000002 -0.003564 0.000000
# 2 -0.000683 0.005898 -0.000697 -0.000005 0.000330 -0.000003
# 3 -0.003305 -0.000697 0.013334 -0.000011 0.002603 -0.000007
# 4 -0.000002 -0.000005 -0.000011 0.082325 -0.000008 0.008062
# 5 -0.003564 0.000330 0.002603 -0.000008 0.019131 -0.000004
# 6 0.000000 -0.000003 -0.000007 0.008062 -0.000004 0.062316
#
#
# Mechanical properties :
#
#
# Convention : Reuss Voigt Hill
#
# Bulk Modulus (GPa) = 51.09498 54.41840 52.75669
# Shear Modulus (GPa) = 23.96859 38.39704 31.18282
#
# Velocity S-wave (km/s) = 3.24171 4.10301 3.69752
# Velocity P-wave (km/s) = 6.03436 6.80479 6.43112
#
# Compressibility (1/GPa) = 0.01957140
#
# Stress axis : x y z
#
# Youngs Moduli (GPa) = 102.99016 169.56121 74.99740
#
# Poissons Ratio (x) = 0.11578 0.24783
# Poissons Ratio (y) = 0.07033 0.05231
# Poissons Ratio (z) = 0.34033 0.11826
#
# Static dielectric constant tensor:
#      x y z
#    x 1.977620 0.000000 -0.010050 
#    y 0.000000 1.842500 0.000000 
#    z -0.010050 0.000000 1.989860 
# 
# From -- ./inp_files/225839.got.cif
#   From: 2010.05.17/outbox.cif.g08.bks.cpg/sg12_113_cif.got.tgz:225839.got - 2010.06.03 13:09:07.
