data_PCOD9222748
_publ_section_title
;
Structure prediction by ZEFSAII (Michael W. Deem and Ramdas Pophale) SiO2 
 PCOD9222748
Probable space group: C 2/M
;
_chemical_formula_sum "Si O2"
_cell_formula_units_Z 28
_cell_length_a 9.614120
_cell_length_b 20.568010
_cell_length_c 8.852509
_cell_angle_alpha 90.000000
_cell_angle_beta 129.377916
_cell_angle_gamma 90.000000
_cell_volume 1353.117207
_symmetry_space_group_name_H-M "C 2/M"
_symmetry_group_IT_number 12
_symmetry_cell_setting 'monoclinic'
loop_
_space_group_symop_operation_xyz
x,y,z
-x,y,-z
-x,-y,-z
x,-y,z
1/2+x,1/2+y,z
1/2-x,1/2+y,-z
1/2-x,1/2-y,-z
1/2+x,1/2-y,z
loop_
_atom_site_type_symbol
_atom_site_label
_atom_site_fract_x
_atom_site_fract_y
_atom_site_fract_z
Si Si1 0.201264 0.306787 0.079946
Si Si2 0.760027 0.076755 0.563242
Si Si3 0.345752 0.077034 0.174513
Si Si4 0.000000 0.843512 0.500000
O O1 0.342461 0.303700 0.312777
O O2 0.250000 0.250000 0.000000
O O3 0.211063 0.376082 0.999685
O O4 0.000000 0.299379 0.000000
O O5 0.559041 0.086286 0.356196
O O6 0.752573 0.094483 0.735479
O O7 0.903575 0.114195 0.562689
O O8 0.796332 0.000000 0.581684
O O9 0.317121 0.000000 0.124242
#
# Coordination Sequence:
#
# PCOD9222748 Si02
#       4
#     8   8   8   4
#     4  12  29  48  68 100 136 180 226 279 339 400
#     4   9  19  38  69 106 138 175 222 275 336 399
#     4   9  20  43  71  99 140 180 219 278 337 394
#     4  12  25  42  70 100 133 178 226 284 324 404
#
# _framework density 20.692958000000001
#
# number of rings (size 3 to 8) (size 9 to 14) (size 15 to 20)
#    0.000    1.714    2.857    2.143    4.000    6.286 
#    0.000    2.857    0.000    0.000    0.000    0.000 
#    0.000    0.000    0.000    0.000    0.000    0.000 
#
# Total GULP energy -78299.807499 kJ/mol
# GULP energy per Si atom -5592.843393 kJ/mol
# Density = 2.064586 g / cm^3
# Si number density = 20.692958 Si / 1000 Ang^3
#
#
#
# Elastic Constant Matrix: (Units=GPa)
#
#
# Indices 1 2 3 4 5 6 
#
# 1 160.6917 52.3098 52.1132 0.0000 6.8509 0.0000
# 2 52.3098 56.0094 40.7207 0.0000 0.6495 0.0000
# 3 52.1132 40.7207 135.0327 0.0000 11.6757 0.0000
# 4 0.0000 0.0000 0.0000 -20.4221 0.0000 -40.3108
# 5 6.8509 0.6495 11.6757 0.0000 11.8926 0.0000
# 6 0.0000 0.0000 0.0000 -40.3108 0.0000 20.3250
#
#
#
# Elastic Compliance Matrix: (Units=1/GPa)
#
#
# Indices 1 2 3 4 5 6 
#
# 1 0.009272 -0.008030 -0.000801 0.000000 -0.004116 0.000000
# 2 -0.008030 0.030225 -0.006855 0.000000 0.009705 0.000000
# 3 -0.000801 -0.006855 0.010610 0.000000 -0.009581 0.000000
# 4 0.000000 0.000000 0.000000 -0.009963 0.000000 -0.019760
# 5 -0.004116 0.009705 -0.009581 0.000000 0.095333 0.000000
# 6 0.000000 0.000000 0.000000 -0.019760 0.000000 0.010011
#
#
# Mechanical properties :
#
#
# Convention : Reuss Voigt Hill
#
# Bulk Modulus (GPa) = 53.37293 71.33568 62.35430
# Shear Modulus (GPa) = 27.30683 16.13177 21.71930
#
# Velocity S-wave (km/s) = 3.63660 2.79512 3.24327
# Velocity P-wave (km/s) = 6.59408 6.70561 6.65008
#
# Compressibility (1/GPa) = 0.01873609
#
# Stress axis : x y z
#
# Youngs Moduli (GPa) = 107.84835 33.08571 94.24763
#
# Poissons Ratio (x) = 0.26567 0.07550
# Poissons Ratio (y) = 0.86598 0.64605
# Poissons Ratio (z) = 0.08640 0.22680
#
# Static dielectric constant tensor:
#      x y z
#    x 1.722810 0.000000 -0.004350 
#    y 0.000000 1.697360 0.000000 
#    z -0.004350 0.000000 1.798150 
# 
# From -- ./inp_files/37912.got.cif
#   From: 2010.05.17/outbox.cif.g08.bks.cpg/sg12_19_cif.got.tgz:37912.got - 2010.06.03 13:09:07.
