data_PCOD9222928
_publ_section_title
;
Structure prediction by ZEFSAII (Michael W. Deem and Ramdas Pophale) SiO2 
 PCOD9222928
Probable space group: C 2/M
;
_chemical_formula_sum "Si O2"
_cell_formula_units_Z 64
_cell_length_a 19.856418
_cell_length_b 7.411135
_cell_length_c 21.367770
_cell_angle_alpha 90.000000
_cell_angle_beta 93.142848
_cell_angle_gamma 90.000000
_cell_volume 3139.721584
_symmetry_space_group_name_H-M "C 2/M"
_symmetry_group_IT_number 12
_symmetry_cell_setting 'monoclinic'
loop_
_space_group_symop_operation_xyz
x,y,z
-x,y,-z
-x,-y,-z
x,-y,z
1/2+x,1/2+y,z
1/2-x,1/2+y,-z
1/2-x,1/2-y,-z
1/2+x,1/2-y,z
loop_
_atom_site_type_symbol
_atom_site_label
_atom_site_fract_x
_atom_site_fract_y
_atom_site_fract_z
Si Si1 0.131746 0.281117 0.668244
Si Si2 0.234115 0.217968 0.150301
Si Si3 0.022144 0.710379 0.567510
Si Si4 0.279253 0.720301 0.707888
Si Si5 0.533711 0.288751 0.777890
Si Si6 0.616370 0.285879 0.895786
Si Si7 0.924519 0.219032 0.675683
Si Si8 0.325082 0.715569 0.976779
O O1 0.130297 0.500000 0.667824
O O2 0.208983 0.222152 0.673637
O O3 0.094027 0.225788 0.730191
O O4 0.086956 0.214406 0.607833
O O5 0.220381 0.279370 0.219716
O O6 0.310042 0.265299 0.132782
O O7 0.181346 0.282753 0.094661
O O8 0.231174 0.000000 0.150361
O O9 0.037936 0.500000 0.556837
O O10 0.961954 0.721898 0.614724
O O11 0.000000 0.789873 0.500000
O O12 0.279025 0.500000 0.708153
O O13 0.347588 0.777520 0.677782
O O14 0.520022 0.500000 0.788181
O O15 0.560992 0.211447 0.844682
O O16 0.468825 0.216299 0.737488
O O17 0.604107 0.500000 0.900617
O O18 0.624724 0.213401 0.966996
O O19 0.926664 0.000000 0.676314
O O20 0.335329 0.500000 0.974266
O O21 0.250000 0.750000 0.000000
#
# Coordination Sequence:
#
# PCOD9222928 Si02
#       8
#     8   8   8   8   8   8   8   8
#     4   9  16  28  47  66  84 110 144 175 204 245
#     4   9  15  24  39  58  80 109 143 175 209 248
#     4   9  18  33  51  69  89 112 138 171 210 249
#     4   9  16  27  44  65  87 112 143 178 210 244
#     4   9  16  26  41  61  85 112 141 177 216 250
#     4   9  15  23  36  57  83 108 137 176 219 252
#     4   9  18  31  46  65  89 115 143 172 206 250
#     4   8  14  22  33  52  79 107 136 173 212 250
#
# _framework density 20.383972
#
# number of rings (size 3 to 8) (size 9 to 14) (size 15 to 20)
#    0.000    3.125    1.250    0.000    0.000    0.250 
#    0.000    1.875    0.000    0.750    0.000    5.250 
#    0.000    0.000    0.000   24.625    0.000   19.250 
#
# Total GULP energy -178307.621927 kJ/mol
# GULP energy per Si atom -5572.113185 kJ/mol
# Density = 2.033758 g / cm^3
# Si number density = 20.383972 Si / 1000 Ang^3
#
#
#
# Elastic Constant Matrix: (Units=GPa)
#
#
# Indices 1 2 3 4 5 6 
#
# 1 103.7743 -9.0543 61.8896 0.0000 18.2900 0.0000
# 2 -9.0543 69.0811 2.4484 0.0000 4.4984 0.0000
# 3 61.8896 2.4484 151.8744 0.0000 43.9159 0.0000
# 4 0.0000 0.0000 0.0000 -0.9929 0.0000 -6.0257
# 5 18.2900 4.4984 43.9159 0.0000 23.4834 0.0000
# 6 0.0000 0.0000 0.0000 -6.0257 0.0000 7.1773
#
#
#
# Elastic Compliance Matrix: (Units=1/GPa)
#
#
# Indices 1 2 3 4 5 6 
#
# 1 0.012986 0.001954 -0.004988 0.000000 -0.001161 0.000000
# 2 0.001954 0.015063 0.000512 0.000000 -0.005366 0.000000
# 3 -0.004988 0.000512 0.016361 0.000000 -0.026810 0.000000
# 4 0.000000 0.000000 0.000000 -0.165239 0.000000 -0.138728
# 5 -0.001161 -0.005366 -0.026810 0.000000 0.094652 0.000000
# 6 0.000000 0.000000 0.000000 -0.138728 0.000000 0.022859
#
#
# Mechanical properties :
#
#
# Convention : Reuss Voigt Hill
#
# Bulk Modulus (GPa) = 25.40115 48.36636 36.88375
# Shear Modulus (GPa) = 336.79779 23.89663 180.34721
#
# Velocity S-wave (km/s) = 12.86800 3.42764 9.41632
# Velocity P-wave (km/s) = 15.27315 6.28045 11.67718
#
# Compressibility (1/GPa) = 0.03936830
#
# Stress axis : x y z
#
# Youngs Moduli (GPa) = 77.00582 66.38717 61.12153
#
# Poissons Ratio (x) = -0.12975 0.30485
# Poissons Ratio (y) = -0.15050 -0.03131
# Poissons Ratio (z) = 0.38407 -0.03401
#
# Static dielectric constant tensor:
#      x y z
#    x 1.702980 0.000000 0.054540 
#    y 0.000000 1.766850 0.000000 
#    z 0.054540 0.000000 1.744190 
# 
# From -- ./inp_files/319158.got.cif
#   From: 2010.05.17/outbox.cif.g08.bks.cpg/sg12_160_cif.got.tgz:319158.got - 2010.06.03 13:09:07.
