data_PCOD9222628
_publ_section_title
;
Structure prediction by ZEFSAII (Michael W. Deem and Ramdas Pophale) SiO2 
 PCOD9222628
Probable space group: C 2/M
;
_chemical_formula_sum "Si O2"
_cell_formula_units_Z 64
_cell_length_a 12.275158
_cell_length_b 19.446546
_cell_length_c 19.435496
_cell_angle_alpha 90.000000
_cell_angle_beta 137.421976
_cell_angle_gamma 90.000000
_cell_volume 3139.012693
_symmetry_space_group_name_H-M "C 2/M"
_symmetry_group_IT_number 12
_symmetry_cell_setting 'monoclinic'
loop_
_space_group_symop_operation_xyz
x,y,z
-x,y,-z
-x,-y,-z
x,-y,z
1/2+x,1/2+y,z
1/2-x,1/2+y,-z
1/2-x,1/2-y,-z
1/2+x,1/2-y,z
loop_
_atom_site_type_symbol
_atom_site_label
_atom_site_fract_x
_atom_site_fract_y
_atom_site_fract_z
Si Si1 0.345915 0.782532 0.240445
Si Si2 0.594965 0.779676 0.471926
Si Si3 0.719890 0.925535 0.750858
Si Si4 0.677508 0.806244 0.915495
Si Si5 0.253554 0.080493 0.401392
Si Si6 0.875975 0.080155 0.204951
Si Si7 0.400150 0.422726 0.052178
Si Si8 0.405257 0.820681 0.884043
O O1 0.457964 0.760432 0.353395
O O2 0.364660 0.864102 0.250916
O O3 0.381560 0.764854 0.178570
O O4 0.166539 0.754057 0.168277
O O5 0.500000 0.758867 0.500000
O O6 0.750000 0.750000 0.500000
O O7 0.651283 0.858944 0.515038
O O8 0.710966 0.914960 0.664183
O O9 0.907005 0.922833 0.859235
O O10 0.653459 0.000000 0.736229
O O11 0.529176 0.842606 0.883629
O O12 0.750000 0.750000 0.000000
O O13 0.815178 0.863329 0.969327
O O14 0.060054 0.092326 0.314446
O O15 0.287233 0.000000 0.437012
O O16 0.862368 0.088798 0.115809
O O17 0.746996 0.129705 0.179569
O O18 0.840205 0.000000 0.202294
O O19 0.346547 0.500000 0.007676
O O20 0.500000 0.817396 0.000000
#
# Coordination Sequence:
#
# PCOD9222628 Si02
#       8
#     8   8   8   8   8   8   8   8
#     4  12  26  40  61  89 128 166 214 272 328 396
#     4  12  27  46  71 104 136 176 226 289 347 404
#     4   9  19  37  64  94 125 161 210 271 334 395
#     4  12  24  38  55  84 123 169 218 258 320 396
#     4   9  19  42  73 100 128 169 222 283 344 407
#     4   9  18  36  63  93 121 161 216 269 324 397
#     4   9  18  33  56  85 120 158 201 254 315 381
#     4  12  23  38  60  87 122 174 216 263 322 401
#
# _framework density 20.388577000000002
#
# number of rings (size 3 to 8) (size 9 to 14) (size 15 to 20)
#    0.000    1.500    3.750    3.000    1.750    4.000 
#    0.000    1.250    0.000    0.375    0.000    0.000 
#    0.000    0.000    0.000    0.000    0.000    0.000 
#
# Total GULP energy -178381.168907 kJ/mol
# GULP energy per Si atom -5574.411528 kJ/mol
# Density = 2.034217 g / cm^3
# Si number density = 20.388577 Si / 1000 Ang^3
#
#
#
# Elastic Constant Matrix: (Units=GPa)
#
#
# Indices 1 2 3 4 5 6 
#
# 1 83.1524 16.5930 37.9198 0.0000 -5.8845 0.0000
# 2 16.5930 75.3621 22.7138 0.0000 -2.5820 0.0000
# 3 37.9198 22.7138 95.4545 -0.0001 -12.1419 0.0000
# 4 0.0000 0.0000 -0.0001 32.9537 0.0000 4.4819
# 5 -5.8845 -2.5820 -12.1419 0.0000 27.1873 0.0000
# 6 0.0000 0.0000 0.0000 4.4819 0.0000 28.8873
#
#
#
# Elastic Compliance Matrix: (Units=1/GPa)
#
#
# Indices 1 2 3 4 5 6 
#
# 1 0.014876 -0.001612 -0.005445 0.000000 0.000635 0.000000
# 2 -0.001612 0.014470 -0.002833 0.000000 -0.000240 0.000000
# 3 -0.005445 -0.002833 0.013920 0.000000 0.004769 0.000000
# 4 0.000000 0.000000 0.000000 0.031000 0.000000 -0.004810
# 5 0.000635 -0.000240 0.004769 0.000000 0.039026 0.000000
# 6 0.000000 0.000000 0.000000 -0.004810 0.000000 0.035363
#
#
# Mechanical properties :
#
#
# Convention : Reuss Voigt Hill
#
# Bulk Modulus (GPa) = 42.58118 45.38022 43.98070
# Shear Modulus (GPa) = 28.36634 29.58849 28.97741
#
# Velocity S-wave (km/s) = 3.73404 3.81363 3.77405
# Velocity P-wave (km/s) = 6.28657 6.45738 6.37254
#
# Compressibility (1/GPa) = 0.02348455
#
# Stress axis : x y z
#
# Youngs Moduli (GPa) = 67.22275 69.10859 71.83870
#
# Poissons Ratio (x) = 0.11143 0.39117
# Poissons Ratio (y) = 0.10839 0.20353
# Poissons Ratio (z) = 0.36603 0.19580
#
# Static dielectric constant tensor:
#      x y z
#    x 1.776360 0.000000 -0.003020 
#    y 0.000000 1.782070 0.000000 
#    z -0.003020 0.000000 1.754660 
# 
# From -- ./inp_files/306795.got.cif
#   From: 2010.05.17/outbox.cif.g08.bks.cpg/sg12_154_cif.got.tgz:306795.got - 2010.06.03 13:09:07.
