data_PCOD9222126
_publ_section_title
;
Structure prediction by ZEFSAII (Michael W. Deem and Ramdas Pophale) SiO2 
 PCOD9222126
Probable space group: C 2/M
;
_chemical_formula_sum "Si O2"
_cell_formula_units_Z 24
_cell_length_a 9.328409
_cell_length_b 15.588882
_cell_length_c 18.403850
_cell_angle_alpha 90.000000
_cell_angle_beta 26.973893
_cell_angle_gamma 90.000000
_cell_volume 1213.918146
_symmetry_space_group_name_H-M "C 2/M"
_symmetry_group_IT_number 12
_symmetry_cell_setting 'monoclinic'
loop_
_space_group_symop_operation_xyz
x,y,z
-x,y,-z
-x,-y,-z
x,-y,z
1/2+x,1/2+y,z
1/2-x,1/2+y,-z
1/2-x,1/2-y,-z
1/2+x,1/2-y,z
loop_
_atom_site_type_symbol
_atom_site_label
_atom_site_fract_x
_atom_site_fract_y
_atom_site_fract_z
Si Si1 0.369101 0.000000 0.845425
Si Si2 0.878764 0.675199 0.335990
Si Si3 0.797389 0.000000 0.917410
Si Si4 0.738947 0.841765 0.324890
O O1 0.504624 0.086250 0.749994
O O2 0.383346 0.000000 0.924692
O O3 0.000000 0.000000 0.000000
O O4 0.500000 0.671811 0.500000
O O5 0.946727 0.760792 0.258637
O O6 0.025313 0.681154 0.350710
O O7 0.027875 0.081377 0.801784
O O8 0.500000 0.000000 0.000000
O O9 0.500000 0.864020 0.500000
#
# Coordination Sequence:
#
# PCOD9222126 Si02
#       4
#     4   8   4   8
#     4  12  25  46  62  96 135 168 212 262 330 382
#     4  11  24  43  71  94 128 172 215 266 315 379
#     4  12  29  42  66  96 133 172 210 267 324 382
#     4  11  24  45  67  97 128 169 220 264 314 380
#
# _framework density 19.770689000000001
#
# number of rings (size 3 to 8) (size 9 to 14) (size 15 to 20)
#    0.000    0.667    3.333    5.000    9.333    2.667 
#    0.000    0.000    0.000    0.000    0.000    0.000 
#    0.000    0.000    0.000    0.000    0.000    0.000 
#
# Total GULP energy -66983.955044 kJ/mol
# GULP energy per Si atom -5581.996254 kJ/mol
# Density = 1.972569 g / cm^3
# Si number density = 19.770689 Si / 1000 Ang^3
#
#
#
# Elastic Constant Matrix: (Units=GPa)
#
#
# Indices 1 2 3 4 5 6 
#
# 1 225.2526 49.8553 32.4686 -0.7585 7.7718 -0.2232
# 2 49.8553 156.9492 42.3021 1.5922 8.8386 0.3944
# 3 32.4686 42.3021 34.3444 1.9461 3.3841 0.3887
# 4 -0.7585 1.5922 1.9461 -277.0896 0.7790 -63.0253
# 5 7.7718 8.8386 3.3841 0.7790 45.2267 0.2321
# 6 -0.2232 0.3944 0.3887 -63.0253 0.2321 3.0617
#
#
#
# Elastic Compliance Matrix: (Units=1/GPa)
#
#
# Indices 1 2 3 4 5 6 
#
# 1 0.005174 -0.000466 -0.004268 -0.000049 -0.000478 0.000004
# 2 -0.000466 0.009624 -0.011318 -0.000014 -0.000953 -0.000051
# 3 -0.004268 -0.011318 0.047135 0.000240 -0.000587 0.000156
# 4 -0.000049 -0.000014 0.000240 -0.000633 0.000071 -0.013074
# 5 -0.000478 -0.000953 -0.000587 0.000071 0.022422 -0.000072
# 6 0.000004 -0.000051 0.000156 -0.013074 -0.000072 0.057482
#
#
# Mechanical properties :
#
#
# Convention : Reuss Voigt Hill
#
# Bulk Modulus (GPa) = 33.52459 73.97758 53.75108
# Shear Modulus (GPa) = 27.28516 -26.29889 0.49314
#
# Velocity S-wave (km/s) = 3.71898 -3.65114 0.49997
# Velocity P-wave (km/s) = 5.95269 4.44124 5.25163
#
# Compressibility (1/GPa) = 0.02982886
#
# Stress axis : x y z
#
# Youngs Moduli (GPa) = 193.27104 103.90723 21.21588
#
# Poissons Ratio (x) = 0.04841 0.09055
# Poissons Ratio (y) = 0.09004 0.24012
# Poissons Ratio (z) = 0.82486 1.17604
#
# Static dielectric constant tensor:
#      x y z
#    x 1.611780 -0.001950 -0.008240 
#    y -0.001950 2.236270 0.002190 
#    z -0.008240 0.002190 1.659450 
# 
# From -- ./inp_files/35620.got.cif
#   From: 2010.05.17/outbox.cif.g08.bks.cpg/sg12_18_cif.got.tgz:35620.got - 2010.06.03 13:09:07.
