data_PCOD9222449
_publ_section_title
;
Structure prediction by ZEFSAII (Michael W. Deem and Ramdas Pophale) SiO2 
 PCOD9222449
Probable space group: C 2/M
;
_chemical_formula_sum "Si O2"
_cell_formula_units_Z 26
_cell_length_a 7.297744
_cell_length_b 15.066595
_cell_length_c 9.206617
_cell_angle_alpha 90.000000
_cell_angle_beta 104.972697
_cell_angle_gamma 90.000000
_cell_volume 977.919247
_symmetry_space_group_name_H-M "C 2/M"
_symmetry_group_IT_number 12
_symmetry_cell_setting 'monoclinic'
loop_
_space_group_symop_operation_xyz
x,y,z
-x,y,-z
-x,-y,-z
x,-y,z
1/2+x,1/2+y,z
1/2-x,1/2+y,-z
1/2-x,1/2-y,-z
1/2+x,1/2-y,z
loop_
_atom_site_type_symbol
_atom_site_label
_atom_site_fract_x
_atom_site_fract_y
_atom_site_fract_z
Si Si1 0.000000 0.000000 0.500000
Si Si2 0.499963 0.852167 0.334450
Si Si3 0.577621 0.652707 0.273566
Si Si4 0.192864 0.399988 0.098174
O O1 0.056292 0.077635 0.390719
O O2 0.500000 0.882941 0.500000
O O3 0.569063 0.750517 0.341145
O O4 0.641228 0.904391 0.259545
O O5 0.281436 0.858161 0.239649
O O6 0.394829 0.645427 0.132525
O O7 0.205873 0.500000 0.042004
O O8 0.000000 0.355612 0.000000
#
# Coordination Sequence:
#
# PCOD9222449 Si02
#       4
#     2   8   8   8
#     4  12  24  40  72 106 140 176 218 294 344 400
#     4  12  25  44  72 105 137 181 228 290 347 410
#     4  12  24  44  70 104 144 174 233 286 345 407
#     4  11  27  48  68 100 143 184 231 286 344 409
#
# _framework density 26.587060000000001
#
# number of rings (size 3 to 8) (size 9 to 14) (size 15 to 20)
#    0.000    0.308    6.154    2.769    2.154    3.077 
#    0.000    3.077    0.000    0.000    0.000    0.000 
#    0.000    0.000    0.000    0.000    0.000    0.000 
#
# Total GULP energy -72639.128468 kJ/mol
# GULP energy per Si atom -5587.625267 kJ/mol
# Density = 2.652655 g / cm^3
# Si number density = 26.587060 Si / 1000 Ang^3
#
#
#
# Elastic Constant Matrix: (Units=GPa)
#
#
# Indices 1 2 3 4 5 6 
#
# 1 188.8211 5.8168 25.5992 0.0000 31.2620 0.0000
# 2 5.8168 153.5158 -8.4321 0.0000 -11.5921 0.0000
# 3 25.5992 -8.4321 68.3099 0.0000 19.6995 0.0000
# 4 0.0000 0.0000 0.0000 -99.1668 0.0000 354.7402
# 5 31.2620 -11.5921 19.6995 0.0000 59.2923 0.0000
# 6 0.0000 0.0000 0.0000 354.7402 0.0000-1019.8174
#
#
#
# Elastic Compliance Matrix: (Units=1/GPa)
#
#
# Indices 1 2 3 4 5 6 
#
# 1 0.005972 -0.000517 -0.001509 0.000000 -0.002748 0.000000
# 2 -0.000517 0.006671 0.000622 0.000000 0.001370 0.000000
# 3 -0.001509 0.000622 0.016608 0.000000 -0.004601 0.000000
# 4 0.000000 0.000000 0.000000 0.041274 0.000000 0.014357
# 5 -0.002748 0.001370 -0.004601 0.000000 0.020111 0.000000
# 6 0.000000 0.000000 0.000000 0.014357 0.000000 0.004013
#
#
# Mechanical properties :
#
#
# Convention : Reuss Voigt Hill
#
# Bulk Modulus (GPa) = 37.81654 50.73496 44.27575
# Shear Modulus (GPa) = 47.04945 -186.09418 -69.52236
#
# Velocity S-wave (km/s) = 4.21127 -8.37533 -5.11915
# Velocity P-wave (km/s) = 6.15637 8.62579 4.27220
#
# Compressibility (1/GPa) = 0.02644346
#
# Stress axis : x y z
#
# Youngs Moduli (GPa) = 167.46161 149.89857 60.21102
#
# Poissons Ratio (x) = 0.07745 0.09086
# Poissons Ratio (y) = 0.08652 -0.03745
# Poissons Ratio (z) = 0.25271 -0.09324
#
# Static dielectric constant tensor:
#      x y z
#    x 2.012960 0.000000 0.077860 
#    y 0.000000 1.937090 0.000000 
#    z 0.077860 0.000000 2.270000 
# 
# From -- ./inp_files/117570.got.cif
#   From: 2010.05.17/outbox.cif.g08.bks.cpg/sg12_59_cif.got.tgz:117570.got - 2010.06.03 13:09:07.
