data_PCOD9222252
_publ_section_title
;
Structure prediction by ZEFSAII (Michael W. Deem and Ramdas Pophale) SiO2 
 PCOD9222252
Probable space group: C 2/M
;
_chemical_formula_sum "Si O2"
_cell_formula_units_Z 40
_cell_length_a 7.338196
_cell_length_b 31.454566
_cell_length_c 9.626534
_cell_angle_alpha 90.000000
_cell_angle_beta 132.401019
_cell_angle_gamma 90.000000
_cell_volume 1640.816960
_symmetry_space_group_name_H-M "C 2/M"
_symmetry_group_IT_number 12
_symmetry_cell_setting 'monoclinic'
loop_
_space_group_symop_operation_xyz
x,y,z
-x,y,-z
-x,-y,-z
x,-y,z
1/2+x,1/2+y,z
1/2-x,1/2+y,-z
1/2-x,1/2-y,-z
1/2+x,1/2-y,z
loop_
_atom_site_type_symbol
_atom_site_label
_atom_site_fract_x
_atom_site_fract_y
_atom_site_fract_z
Si Si1 0.915186 0.612542 0.677313
Si Si2 0.770260 0.952524 0.203468
Si Si3 0.118069 0.206517 0.265080
Si Si4 0.904511 0.297233 0.685045
Si Si5 0.600670 0.384098 0.233796
O O1 0.782443 0.573781 0.683795
O O2 0.883111 0.656805 0.743996
O O3 0.771711 0.620153 0.459484
O O4 0.203591 0.606267 0.788151
O O5 0.928235 0.923220 0.182107
O O6 0.872872 0.000000 0.275452
O O7 0.500000 0.956187 0.000000
O O8 0.048743 0.255374 0.200172
O O9 0.364621 0.199708 0.301430
O O10 0.172922 0.208116 0.459455
O O11 0.976656 0.162839 0.157653
#
# Coordination Sequence:
#
# PCOD9222252 Si02
#       5
#     8   8   8   8   8
#     4   9  19  36  58  86 115 142 180 231 282 329
#     4  11  25  41  57  79 107 147 195 235 280 337
#     4   8  14  24  43  77 112 139 170 211 264 321
#     4   8  14  24  43  77 112 139 170 211 264 321
#     4   9  19  36  58  86 115 142 180 231 282 329
#
# _framework density 24.378101999999998
#
# number of rings (size 3 to 8) (size 9 to 14) (size 15 to 20)
#    0.000    3.000    0.000    3.000    2.800    3.200 
#    0.000    4.000    0.000    1.200    0.000    0.000 
#    0.000    0.000    0.000    0.000    0.000    0.000 
#
# Total GULP energy -111647.947217 kJ/mol
# GULP energy per Si atom -5582.397361 kJ/mol
# Density = 2.432262 g / cm^3
# Si number density = 24.378102 Si / 1000 Ang^3
#
#
#
# Elastic Constant Matrix: (Units=GPa)
#
#
# Indices 1 2 3 4 5 6 
#
# 1 83.0387 72.2697 10.6151 0.0000 0.1174 0.0000
# 2 72.2697 269.3646 17.6075 0.0000 2.5812 0.0000
# 3 10.6151 17.6075 46.9096 0.0000 -7.8826 0.0000
# 4 0.0000 0.0000 0.0000 -54.1227 0.0000 10.4962
# 5 0.1174 2.5812 -7.8826 0.0000 28.2727 0.0000
# 6 0.0000 0.0000 0.0000 10.4962 0.0000 28.2352
#
#
#
# Elastic Compliance Matrix: (Units=1/GPa)
#
#
# Indices 1 2 3 4 5 6 
#
# 1 0.015903 -0.004127 -0.002095 0.000000 -0.000273 0.000000
# 2 -0.004127 0.004893 -0.001023 0.000000 -0.000715 0.000000
# 3 -0.002095 -0.001023 0.023284 0.000000 0.006594 0.000000
# 4 0.000000 0.000000 0.000000 -0.017234 0.000000 0.006407
# 5 -0.000273 -0.000715 0.006594 0.000000 0.037275 0.000000
# 6 0.000000 0.000000 0.000000 0.006407 0.000000 0.033035
#
#
# Mechanical properties :
#
#
# Convention : Reuss Voigt Hill
#
# Bulk Modulus (GPa) = 33.79644 66.69971 50.24807
# Shear Modulus (GPa) = 41.14908 20.39842 30.77375
#
# Velocity S-wave (km/s) = 4.11293 2.89580 3.55681
# Velocity P-wave (km/s) = 6.03725 6.21296 6.12573
#
# Compressibility (1/GPa) = 0.02958892
#
# Stress axis : x y z
#
# Youngs Moduli (GPa) = 62.88255 204.35560 42.94837
#
# Poissons Ratio (x) = 0.84338 0.09000
# Poissons Ratio (y) = 0.25952 0.04393
# Poissons Ratio (z) = 0.13177 0.20905
#
# Static dielectric constant tensor:
#      x y z
#    x 1.898730 0.000000 0.014430 
#    y 0.000000 1.992030 0.000000 
#    z 0.014430 0.000000 2.085360 
# 
# From -- ./inp_files/123939.got.cif
#   From: 2010.05.17/outbox.cif.g08.bks.cpg/sg12_62_cif.got.tgz:123939.got - 2010.06.03 13:09:07.
