data_PCOD9222147
_publ_section_title
;
Structure prediction by ZEFSAII (Michael W. Deem and Ramdas Pophale) SiO2 
 PCOD9222147
Probable space group: C 2/M
;
_chemical_formula_sum "Si O2"
_cell_formula_units_Z 40
_cell_length_a 9.449917
_cell_length_b 9.484253
_cell_length_c 21.730984
_cell_angle_alpha 90.000000
_cell_angle_beta 102.802609
_cell_angle_gamma 90.000000
_cell_volume 1899.228247
_symmetry_space_group_name_H-M "C 2/M"
_symmetry_group_IT_number 12
_symmetry_cell_setting 'monoclinic'
loop_
_space_group_symop_operation_xyz
x,y,z
-x,y,-z
-x,-y,-z
x,-y,z
1/2+x,1/2+y,z
1/2-x,1/2+y,-z
1/2-x,1/2-y,-z
1/2+x,1/2-y,z
loop_
_atom_site_type_symbol
_atom_site_label
_atom_site_fract_x
_atom_site_fract_y
_atom_site_fract_z
Si Si1 0.540495 0.757454 0.156140
Si Si2 0.024312 0.666069 0.634993
Si Si3 0.112266 0.500000 0.067024
Si Si4 0.207362 0.166185 0.557389
Si Si5 0.330198 0.327566 0.238084
Si Si6 0.543882 0.500000 0.932973
O O1 0.395688 0.742135 0.182489
O O2 0.664047 0.778664 0.219496
O O3 0.529399 0.626292 0.110415
O O4 0.574804 0.874816 0.109551
O O5 0.068713 0.500000 0.641603
O O6 0.084254 0.745249 0.580223
O O7 0.087591 0.757006 0.697119
O O8 0.850329 0.668200 0.614458
O O9 0.280175 0.500000 0.060286
O O10 0.000000 0.500000 0.000000
O O11 0.250000 0.250000 0.500000
O O12 0.172059 0.000000 0.543219
O O13 0.342537 0.500000 0.238367
O O14 0.500000 0.500000 0.000000
#
# Coordination Sequence:
#
# PCOD9222147 Si02
#       6
#     8   8   4   8   8   4
#     4  12  24  47  69  98 138 175 226 282 344 407
#     4  11  26  43  68 105 136 182 236 285 343 406
#     4  12  28  48  70 104 136 176 225 283 338 414
#     4  11  24  44  69 102 144 185 232 286 342 407
#     4  12  26  46  67 100 137 177 232 284 340 414
#     4  12  28  48  70 106 136 174 231 279 338 420
#
# _framework density 21.061188000000001
#
# number of rings (size 3 to 8) (size 9 to 14) (size 15 to 20)
#    0.000    0.400    4.000    3.600    5.600   10.400 
#    0.000    0.000    0.000    0.000    0.000    0.000 
#    0.000    0.000    0.000    0.000    0.000    0.000 
#
# Total GULP energy -111639.209198 kJ/mol
# GULP energy per Si atom -5581.960460 kJ/mol
# Density = 2.101325 g / cm^3
# Si number density = 21.061188 Si / 1000 Ang^3
#
#
#
# Elastic Constant Matrix: (Units=GPa)
#
#
# Indices 1 2 3 4 5 6 
#
# 1 74.3508 67.9893 7.8190 0.0000 3.6979 0.0000
# 2 67.9893 149.4406 34.5886 0.0000 1.7029 0.0000
# 3 7.8190 34.5886 99.1956 0.0000 6.1186 0.0000
# 4 0.0000 0.0000 0.0000 40.7603 0.0000 1.9592
# 5 3.6979 1.7029 6.1186 0.0000 50.6768 0.0000
# 6 0.0000 0.0000 0.0000 1.9592 0.0000 26.5127
#
#
#
# Elastic Compliance Matrix: (Units=1/GPa)
#
#
# Indices 1 2 3 4 5 6 
#
# 1 0.023530 -0.011183 0.002143 0.000000 -0.001600 0.000000
# 2 -0.011183 0.012594 -0.003561 0.000000 0.000823 0.000000
# 3 0.002143 -0.003561 0.011240 0.000000 -0.001394 0.000000
# 4 0.000000 0.000000 0.000000 0.024621 0.000000 -0.001819
# 5 -0.001600 0.000823 -0.001394 0.000000 0.019990 0.000000
# 6 0.000000 0.000000 0.000000 -0.001819 0.000000 0.037852
#
#
# Mechanical properties :
#
#
# Convention : Reuss Voigt Hill
#
# Bulk Modulus (GPa) = 45.11978 60.42012 52.76995
# Shear Modulus (GPa) = 30.78502 37.76264 34.27383
#
# Velocity S-wave (km/s) = 3.82736 4.23897 4.03841
# Velocity P-wave (km/s) = 6.40322 7.26008 6.84507
#
# Compressibility (1/GPa) = 0.02216323
#
# Stress axis : x y z
#
# Youngs Moduli (GPa) = 42.49843 79.40112 88.97023
#
# Poissons Ratio (x) = 0.88796 -0.19070
# Poissons Ratio (y) = 0.47527 0.31680
# Poissons Ratio (z) = -0.09109 0.28273
#
# Static dielectric constant tensor:
#      x y z
#    x 1.905160 0.000000 -0.017810 
#    y 0.000000 1.736890 0.000000 
#    z -0.017810 0.000000 1.785850 
# 
# From -- ./inp_files/331821.got.cif
#   From: 2010.05.17/outbox.cif.g08.bks.cpg/sg12_166_cif.got.tgz:331821.got - 2010.06.03 13:09:07.
