data_PCOD9222927
_publ_section_title
;
Structure prediction by ZEFSAII (Michael W. Deem and Ramdas Pophale) SiO2 
 PCOD9222927
Probable space group: C 2/M
;
_chemical_formula_sum "Si O2"
_cell_formula_units_Z 48
_cell_length_a 16.321869
_cell_length_b 28.414392
_cell_length_c 11.148032
_cell_angle_alpha 90.000000
_cell_angle_beta 23.223481
_cell_angle_gamma 90.000000
_cell_volume 2038.701668
_symmetry_space_group_name_H-M "C 2/M"
_symmetry_group_IT_number 12
_symmetry_cell_setting 'monoclinic'
loop_
_space_group_symop_operation_xyz
x,y,z
-x,y,-z
-x,-y,-z
x,-y,z
1/2+x,1/2+y,z
1/2-x,1/2+y,-z
1/2-x,1/2-y,-z
1/2+x,1/2-y,z
loop_
_atom_site_type_symbol
_atom_site_label
_atom_site_fract_x
_atom_site_fract_y
_atom_site_fract_z
Si Si1 0.244558 0.945430 0.104328
Si Si2 0.318759 0.287741 0.589932
Si Si3 0.253401 0.445730 0.163730
Si Si4 0.674562 0.099768 0.504428
Si Si5 0.009965 0.704549 0.774587
Si Si6 0.738612 0.389712 0.353947
O O1 0.177789 0.929009 0.061248
O O2 0.491857 0.938009 0.763879
O O3 0.196300 0.000000 0.175768
O O4 0.191966 0.920990 0.301041
O O5 0.158807 0.286748 0.690702
O O6 0.456324 0.242907 0.374044
O O7 0.389551 0.341466 0.487218
O O8 0.210755 0.287316 0.865076
O O9 0.324437 0.500000 0.087770
O O10 0.290779 0.411410 0.225196
O O11 0.000000 0.447378 0.500000
O O12 0.569433 0.152148 0.648901
O O13 0.796507 0.093463 0.464065
O O14 0.000000 0.381408 0.000000
#
# Coordination Sequence:
#
# PCOD9222927 Si02
#       6
#     8   8   8   8   8   8
#     4   9  15  22  34  52  77 105 127 152 196 244
#     4   9  14  25  36  56  77 104 132 168 194 234
#     4   8  14  22  32  49  73 104 129 149 188 245
#     4   9  14  22  33  52  73 100 128 157 190 232
#     4   9  15  23  39  54  77 104 135 163 199 228
#     4   9  14  23  34  53  77  99 130 157 196 227
#
# _framework density 23.544395999999999
#
# number of rings (size 3 to 8) (size 9 to 14) (size 15 to 20)
#    0.000    3.167    5.000    1.500    0.000    3.667 
#    0.000    0.000    0.000    1.000    0.000    0.000 
#    0.000    2.667    0.000   45.500    0.000    2.667 
#
# Total GULP energy -133738.614458 kJ/mol
# GULP energy per Si atom -5572.442269 kJ/mol
# Density = 2.349081 g / cm^3
# Si number density = 23.544396 Si / 1000 Ang^3
#
#
#
# Elastic Constant Matrix: (Units=GPa)
#
#
# Indices 1 2 3 4 5 6 
#
# 1 95.5575 68.9155 60.9264 0.0278 37.2956 0.0313
# 2 68.9155 102.8482 75.6652 0.0213 45.6058 0.0350
# 3 60.9264 75.6652 170.4349 0.0590 63.1371 0.0641
# 4 0.0278 0.0213 0.0590 65.4745 -0.0351 38.8570
# 5 37.2956 45.6058 63.1371 -0.0351 52.3730 -0.0472
# 6 0.0313 0.0350 0.0641 38.8570 -0.0472 32.1668
#
#
#
# Elastic Compliance Matrix: (Units=1/GPa)
#
#
# Indices 1 2 3 4 5 6 
#
# 1 0.020928 -0.011763 -0.000963 0.000001 -0.003499 -0.000012
# 2 -0.011763 0.023677 -0.003202 0.000027 -0.008381 -0.000053
# 3 -0.000963 -0.003202 0.011467 0.000019 -0.010351 -0.000057
# 4 0.000001 0.000027 0.000019 0.053950 -0.000071 -0.065171
# 5 -0.003499 -0.008381 -0.010351 -0.000071 0.041362 0.000179
# 6 -0.000012 -0.000053 -0.000057 -0.065171 0.000179 0.109814
#
#
# Mechanical properties :
#
#
# Convention : Reuss Voigt Hill
#
# Bulk Modulus (GPa) = 41.29232 86.65055 63.97144
# Shear Modulus (GPa) = 16.60432 40.89176 28.74804
#
# Velocity S-wave (km/s) = 2.65851 4.17201 3.49809
# Velocity P-wave (km/s) = 5.19612 7.75180 6.59887
#
# Compressibility (1/GPa) = 0.02421758
#
# Stress axis : x y z
#
# Youngs Moduli (GPa) = 47.78257 42.23438 87.20535
#
# Poissons Ratio (x) = 0.49682 0.08394
# Poissons Ratio (y) = 0.56209 0.27920
# Poissons Ratio (z) = 0.04599 0.13522
#
# Static dielectric constant tensor:
#      x y z
#    x 2.044530 -0.000010 -0.083730 
#    y -0.000010 1.872160 0.000000 
#    z -0.083730 0.000000 1.978430 
# 
# From -- ./inp_files/178153.got.cif
#   From: 2010.05.17/outbox.cif.g08.bks.cpg/sg12_90_cif.got.tgz:178153.got - 2010.06.03 13:09:07.
