data_PCOD9222785
_publ_section_title
;
Structure prediction by ZEFSAII (Michael W. Deem and Ramdas Pophale) SiO2 
 PCOD9222785
Probable space group: C 2/M
;
_chemical_formula_sum "Si O2"
_cell_formula_units_Z 28
_cell_length_a 5.396277
_cell_length_b 29.569302
_cell_length_c 8.907655
_cell_angle_alpha 90.000000
_cell_angle_beta 121.528229
_cell_angle_gamma 90.000000
_cell_volume 1211.527531
_symmetry_space_group_name_H-M "C 2/M"
_symmetry_group_IT_number 12
_symmetry_cell_setting 'monoclinic'
loop_
_space_group_symop_operation_xyz
x,y,z
-x,y,-z
-x,-y,-z
x,-y,z
1/2+x,1/2+y,z
1/2-x,1/2+y,-z
1/2-x,1/2-y,-z
1/2+x,1/2-y,z
loop_
_atom_site_type_symbol
_atom_site_label
_atom_site_fract_x
_atom_site_fract_y
_atom_site_fract_z
Si Si1 0.146264 0.500000 0.382086
Si Si2 0.475436 0.720907 0.738291
Si Si3 0.500000 0.344244 0.000000
Si Si4 0.500000 0.653998 0.500000
Si Si5 0.520416 0.905604 0.186888
O O1 0.500000 0.500000 0.500000
O O2 0.040109 0.455294 0.262172
O O3 0.000000 0.500000 0.500000
O O4 0.222717 0.748778 0.739693
O O5 0.619968 0.688759 0.909787
O O6 0.349774 0.687942 0.570245
O O7 0.740389 0.376777 0.146318
O O8 0.710656 0.622542 0.662920
O O9 0.500000 0.907971 0.000000
#
# Coordination Sequence:
#
# PCOD9222785 Si02
#       5
#     4   8   4   4   8
#     4  12  31  55  90 125 162 208 266 330 409 496
#     4  12  27  49  76 115 165 218 276 340 397 467
#     4  12  28  47  82 120 162 218 274 333 404 484
#     4  12  26  51  82 116 162 214 280 329 404 476
#     4  12  28  54  82 120 166 209 268 333 408 488
#
# _framework density 23.111315999999999
#
# number of rings (size 3 to 8) (size 9 to 14) (size 15 to 20)
#    0.000    0.000    4.286    3.857    8.000    2.857 
#    0.000    0.000    0.000    0.000    0.000    0.000 
#    0.000    0.000    0.000    0.000    0.000    0.000 
#
# Total GULP energy -78475.916096 kJ/mol
# GULP energy per Si atom -5605.422578 kJ/mol
# Density = 2.305871 g / cm^3
# Si number density = 23.111316 Si / 1000 Ang^3
#
#
#
# Elastic Constant Matrix: (Units=GPa)
#
#
# Indices 1 2 3 4 5 6 
#
# 1 153.7581 101.8730 74.8332 0.0000 -4.9025 0.0000
# 2 101.8730 221.8407 102.2920 0.0000 -8.2101 0.0000
# 3 74.8332 102.2920 162.0845 0.0000 -2.2955 0.0000
# 4 0.0000 0.0000 0.0000 236.6534 0.0000 -51.0296
# 5 -4.9025 -8.2101 -2.2955 0.0000 39.1030 0.0000
# 6 0.0000 0.0000 0.0000 -51.0296 0.0000 44.7554
#
#
#
# Elastic Compliance Matrix: (Units=1/GPa)
#
#
# Indices 1 2 3 4 5 6 
#
# 1 0.009984 -0.003452 -0.002425 0.000000 0.000385 0.000000
# 2 -0.003452 0.007599 -0.003188 0.000000 0.000976 0.000000
# 3 -0.002425 -0.003188 0.009295 0.000000 -0.000428 0.000000
# 4 0.000000 0.000000 0.000000 0.005603 0.000000 0.006389
# 5 0.000385 0.000976 -0.000428 0.000000 0.025801 0.000000
# 6 0.000000 0.000000 0.000000 0.006389 0.000000 0.029628
#
#
# Mechanical properties :
#
#
# Convention : Reuss Voigt Hill
#
# Bulk Modulus (GPa) = 114.32564 121.74220 118.03392
# Shear Modulus (GPa) = 45.88937 81.34800 63.61868
#
# Velocity S-wave (km/s) = 4.46082 5.93926 5.25232
# Velocity P-wave (km/s) = 8.72391 9.99119 9.37898
#
# Compressibility (1/GPa) = 0.00874694
#
# Stress axis : x y z
#
# Youngs Moduli (GPa) = 100.16491 131.59218 107.57975
#
# Poissons Ratio (x) = 0.45427 0.26091
# Poissons Ratio (y) = 0.34578 0.34300
# Poissons Ratio (z) = 0.24293 0.41955
#
# Static dielectric constant tensor:
#      x y z
#    x 1.868330 0.000000 -0.020200 
#    y 0.000000 1.831550 0.000000 
#    z -0.020200 0.000000 1.857230 
# 
# From -- ./inp_files/34704.got.cif
#   From: 2010.05.17/outbox.cif.g08.bks.cpg/sg12_18_cif.got.tgz:34704.got - 2010.06.03 13:09:07.
