data_PCOD9222189
_publ_section_title
;
Structure prediction by ZEFSAII (Michael W. Deem and Ramdas Pophale) SiO2 
 PCOD9222189
Probable space group: C 2/M
;
_chemical_formula_sum "Si O2"
_cell_formula_units_Z 32
_cell_length_a 15.880849
_cell_length_b 20.662479
_cell_length_c 8.545791
_cell_angle_alpha 90.000000
_cell_angle_beta 35.126028
_cell_angle_gamma 90.000000
_cell_volume 1613.469642
_symmetry_space_group_name_H-M "C 2/M"
_symmetry_group_IT_number 12
_symmetry_cell_setting 'monoclinic'
loop_
_space_group_symop_operation_xyz
x,y,z
-x,y,-z
-x,-y,-z
x,-y,z
1/2+x,1/2+y,z
1/2-x,1/2+y,-z
1/2-x,1/2-y,-z
1/2+x,1/2-y,z
loop_
_atom_site_type_symbol
_atom_site_label
_atom_site_fract_x
_atom_site_fract_y
_atom_site_fract_z
Si Si1 0.186037 0.875838 0.362407
Si Si2 0.832967 0.500000 0.296292
Si Si3 0.646555 0.374074 0.049802
Si Si4 0.834895 0.500000 0.667845
Si Si5 0.832514 0.244506 0.209659
O O1 0.259179 0.937569 0.330664
O O2 0.161528 0.879834 0.214307
O O3 0.292455 0.814305 0.204190
O O4 0.031116 0.869809 0.690515
O O5 0.836175 0.500000 0.478408
O O6 0.000000 0.500000 0.000000
O O7 0.737923 0.436737 0.856709
O O8 0.704070 0.312533 0.859948
O O9 0.000000 0.500000 0.500000
O O10 0.750000 0.250000 0.500000
O O11 0.000000 0.237726 0.000000
#
# Coordination Sequence:
#
# PCOD9222189 Si02
#       5
#     8   4   8   4   8
#     4  11  24  45  70 102 139 185 232 287 348 418
#     4  12  25  44  71  99 136 181 233 287 353 416
#     4  11  25  45  69 101 139 183 233 287 353 413
#     4  12  27  46  71 103 137 178 230 294 354 422
#     4  12  24  43  68 102 142 184 237 285 346 413
#
# _framework density 19.833034999999999
#
# number of rings (size 3 to 8) (size 9 to 14) (size 15 to 20)
#    0.000    0.500    2.500    6.000    0.000    5.000 
#    4.500    0.000    0.000    0.000    0.000    0.000 
#    0.000    0.000    0.000    0.000    0.000    0.000 
#
# Total GULP energy -89113.875746 kJ/mol
# GULP energy per Si atom -5569.617234 kJ/mol
# Density = 1.978789 g / cm^3
# Si number density = 19.833035 Si / 1000 Ang^3
#
#
#
# Elastic Constant Matrix: (Units=GPa)
#
#
# Indices 1 2 3 4 5 6 
#
# 1 124.1738 84.5230 63.0672 -0.0003 6.4736 0.0000
# 2 84.5230 191.9358 65.3362 -0.0002 9.7969 0.0001
# 3 63.0672 65.3362 132.5690 -0.0007 26.7496 0.0005
# 4 -0.0003 -0.0002 -0.0007 39.1710 0.0004 4.4721
# 5 6.4736 9.7969 26.7496 0.0004 24.1394 -0.0002
# 6 0.0000 0.0001 0.0005 4.4721 -0.0002 37.3240
#
#
#
# Elastic Compliance Matrix: (Units=1/GPa)
#
#
# Indices 1 2 3 4 5 6 
#
# 1 0.013353 -0.004390 -0.004928 0.000000 0.003661 0.000000
# 2 -0.004390 0.007728 -0.001706 0.000000 -0.000068 0.000000
# 3 -0.004928 -0.001706 0.013295 0.000000 -0.012718 0.000000
# 4 0.000000 0.000000 0.000000 0.025883 -0.000001 -0.003101
# 5 0.003661 -0.000068 -0.012718 -0.000001 0.054565 0.000001
# 6 0.000000 0.000000 0.000000 -0.003101 0.000001 0.027164
#
#
# Mechanical properties :
#
#
# Convention : Reuss Voigt Hill
#
# Bulk Modulus (GPa) = 81.11875 97.17016 89.14446
# Shear Modulus (GPa) = 29.73619 35.84370 32.78995
#
# Velocity S-wave (km/s) = 3.87631 4.25581 4.07049
# Velocity P-wave (km/s) = 7.81179 8.55861 8.19371
#
# Compressibility (1/GPa) = 0.01232761
#
# Stress axis : x y z
#
# Youngs Moduli (GPa) = 74.88830 129.40688 75.21718
#
# Poissons Ratio (x) = 0.56807 0.37066
# Poissons Ratio (y) = 0.32874 0.12835
# Poissons Ratio (z) = 0.36903 0.22082
#
# Static dielectric constant tensor:
#      x y z
#    x 1.482780 0.000000 -0.173010 
#    y 0.000000 1.615760 0.000010 
#    z -0.173010 0.000010 1.575250 
# 
# From -- ./inp_files/77174.got.cif
#   From: 2010.05.17/outbox.cif.g08.bks.cpg/sg12_39_cif.got.tgz:77174.got - 2010.06.03 13:09:07.
