data_PCOD9222435
_publ_section_title
;
Structure prediction by ZEFSAII (Michael W. Deem and Ramdas Pophale) SiO2 
 PCOD9222435
Probable space group: C 2/M
;
_chemical_formula_sum "Si O2"
_cell_formula_units_Z 48
_cell_length_a 9.941538
_cell_length_b 23.966912
_cell_length_c 15.305889
_cell_angle_alpha 90.000000
_cell_angle_beta 37.053672
_cell_angle_gamma 90.000000
_cell_volume 2197.488414
_symmetry_space_group_name_H-M "C 2/M"
_symmetry_group_IT_number 12
_symmetry_cell_setting 'monoclinic'
loop_
_space_group_symop_operation_xyz
x,y,z
-x,y,-z
-x,-y,-z
x,-y,z
1/2+x,1/2+y,z
1/2-x,1/2+y,-z
1/2-x,1/2-y,-z
1/2+x,1/2-y,z
loop_
_atom_site_type_symbol
_atom_site_label
_atom_site_fract_x
_atom_site_fract_y
_atom_site_fract_z
Si Si1 0.611072 0.592425 0.028846
Si Si2 0.532770 0.639820 0.385328
Si Si3 0.742686 0.248711 0.286885
Si Si4 0.749434 0.124074 0.361606
Si Si5 0.199488 0.714641 0.112596
Si Si6 0.074268 0.559900 0.861829
O O1 0.428687 0.596539 0.201529
O O2 0.500000 0.568442 0.000000
O O3 0.697792 0.654483 0.958625
O O4 0.840694 0.562856 0.933117
O O5 0.500000 0.618125 0.500000
O O6 0.543470 0.706963 0.384829
O O7 0.356596 0.624560 0.402210
O O8 0.766573 0.612387 0.235247
O O9 0.719681 0.187539 0.340339
O O10 0.785116 0.237678 0.161063
O O11 0.930447 0.280986 0.246783
O O12 0.500000 0.099603 0.500000
O O13 0.250000 0.750000 0.000000
O O14 0.187764 0.500000 0.784684
O O15 0.000000 0.561407 0.000000
#
# Coordination Sequence:
#
# PCOD9222435 Si02
#       6
#     8   8   8   8   8   8
#     4  12  23  42  72 101 130 177 224 279 337 399
#     4  12  27  44  70  99 136 185 226 273 331 400
#     4  12  23  38  63  97 140 182 224 265 316 390
#     4  12  27  42  62 100 150 182 216 266 331 407
#     4  12  21  35  62  99 131 177 226 269 319 384
#     4  11  26  49  76  99 125 168 232 296 344 393
#
# _framework density 21.843119000000002
#
# number of rings (size 3 to 8) (size 9 to 14) (size 15 to 20)
#    0.000    0.167    8.333    1.000    4.667    2.000 
#    0.000    0.000    0.000    1.000    0.000    0.000 
#    0.000    0.000    0.000    0.000    0.000    0.000 
#
# Total GULP energy -134019.053230 kJ/mol
# GULP energy per Si atom -5584.127218 kJ/mol
# Density = 2.179340 g / cm^3
# Si number density = 21.843119 Si / 1000 Ang^3
#
#
#
# Elastic Constant Matrix: (Units=GPa)
#
#
# Indices 1 2 3 4 5 6 
#
# 1 191.2241 5.5562 39.7014 0.0000 11.6516 -0.0001
# 2 5.5562 54.0509 1.7601 0.0000 10.1180 0.0000
# 3 39.7014 1.7601 83.5739 -0.0002 8.8907 -0.0003
# 4 0.0000 0.0000 -0.0002 0.4954 0.0000 8.5912
# 5 11.6516 10.1180 8.8907 0.0000 40.1652 0.0001
# 6 -0.0001 0.0000 -0.0003 8.5912 0.0001 17.8167
#
#
#
# Elastic Compliance Matrix: (Units=1/GPa)
#
#
# Indices 1 2 3 4 5 6 
#
# 1 0.005855 -0.000323 -0.002665 0.000000 -0.001027 0.000000
# 2 -0.000323 0.019436 0.000261 0.000000 -0.004860 0.000000
# 3 -0.002665 0.000261 0.013468 0.000000 -0.002274 0.000000
# 4 0.000000 0.000000 0.000000 -0.274173 0.000000 0.132206
# 5 -0.001027 -0.004860 -0.002274 0.000000 0.026923 0.000000
# 6 0.000000 0.000000 0.000000 0.132206 0.000000 -0.007623
#
#
# Mechanical properties :
#
#
# Convention : Reuss Voigt Hill
#
# Bulk Modulus (GPa) = 30.02609 46.98715 38.50662
# Shear Modulus (GPa) = -25.05523 30.48421 2.71449
#
# Velocity S-wave (km/s) = -3.39049 3.73982 1.11598
# Velocity P-wave (km/s) = 1.24546 6.34084 4.39631
#
# Compressibility (1/GPa) = 0.03330437
#
# Stress axis : x y z
#
# Youngs Moduli (GPa) = 170.80073 51.45209 74.25036
#
# Poissons Ratio (x) = 0.01661 0.19789
# Poissons Ratio (y) = 0.05513 -0.01938
# Poissons Ratio (z) = 0.45522 -0.01343
#
# Static dielectric constant tensor:
#      x y z
#    x 1.887560 0.000000 -0.064520 
#    y 0.000000 1.653520 0.000000 
#    z -0.064520 0.000000 1.877090 
# 
# From -- ./inp_files/200147.got.cif
#   From: 2010.05.17/outbox.cif.g08.bks.cpg/sg12_101_cif.got.tgz:200147.got - 2010.06.03 13:09:07.
