data_PCOD9222290
_publ_section_title
;
Structure prediction by ZEFSAII (Michael W. Deem and Ramdas Pophale) SiO2 
 PCOD9222290
Probable space group: C 2/M
;
_chemical_formula_sum "Si O2"
_cell_formula_units_Z 24
_cell_length_a 9.243685
_cell_length_b 21.920710
_cell_length_c 9.645953
_cell_angle_alpha 90.000000
_cell_angle_beta 30.024052
_cell_angle_gamma 90.000000
_cell_volume 977.981228
_symmetry_space_group_name_H-M "C 2/M"
_symmetry_group_IT_number 12
_symmetry_cell_setting 'monoclinic'
loop_
_space_group_symop_operation_xyz
x,y,z
-x,y,-z
-x,-y,-z
x,-y,z
1/2+x,1/2+y,z
1/2-x,1/2+y,-z
1/2-x,1/2-y,-z
1/2+x,1/2-y,z
loop_
_atom_site_type_symbol
_atom_site_label
_atom_site_fract_x
_atom_site_fract_y
_atom_site_fract_z
Si Si1 0.437025 0.759817 0.703291
Si Si2 0.115965 0.069834 0.559733
Si Si3 0.263722 0.391544 0.093133
O O1 0.500000 0.728545 0.500000
O O2 0.322994 0.827894 0.765425
O O3 0.750000 0.750000 0.500000
O O4 0.250000 0.750000 0.000000
O O5 0.457769 0.077959 0.305043
O O6 0.000000 0.077809 0.500000
O O7 0.039680 0.000000 0.662246
O O8 0.938427 0.114827 0.805256
O O9 0.500000 0.422276 0.000000
#
# Coordination Sequence:
#
# PCOD9222290 Si02
#       3
#     8   8   8
#     4  12  26  45  69 100 138 181 232 288 347 416
#     4  11  25  44  68 101 139 181 233 288 344 415
#     4  12  25  44  69 100 139 180 230 289 349 415
#
# _framework density 24.540347000000001
#
# number of rings (size 3 to 8) (size 9 to 14) (size 15 to 20)
#    0.000    0.333    0.000   10.000    0.000   14.667 
#    0.000    0.000    0.000    0.000    0.000    0.000 
#    0.000    0.000    0.000    0.000    0.000    0.000 
#
# Total GULP energy -66819.605469 kJ/mol
# GULP energy per Si atom -5568.300456 kJ/mol
# Density = 2.448449 g / cm^3
# Si number density = 24.540347 Si / 1000 Ang^3
#
#
#
# Elastic Constant Matrix: (Units=GPa)
#
#
# Indices 1 2 3 4 5 6 
#
# 1 162.7808 0.1794 85.9195 0.0000 2.9920 0.0000
# 2 0.1794 55.5060 25.4488 0.0000 -5.1507 0.0000
# 3 85.9195 25.4488 245.3134 0.0000 8.2594 0.0000
# 4 0.0000 0.0000 0.0000 34.7670 0.0000 4.1653
# 5 2.9920 -5.1507 8.2594 0.0000 71.4061 0.0000
# 6 0.0000 0.0000 0.0000 4.1653 0.0000 14.5536
#
#
#
# Elastic Compliance Matrix: (Units=1/GPa)
#
#
# Indices 1 2 3 4 5 6 
#
# 1 0.007620 0.001270 -0.002804 0.000000 0.000097 0.000000
# 2 0.001270 0.019311 -0.002503 0.000000 0.001629 0.000000
# 3 -0.002804 -0.002503 0.005341 0.000000 -0.000681 0.000000
# 4 0.000000 0.000000 0.000000 0.029784 0.000000 -0.008524
# 5 0.000097 0.001629 -0.000681 0.000000 0.014197 0.000000
# 6 0.000000 0.000000 0.000000 -0.008524 0.000000 0.071151
#
#
# Mechanical properties :
#
#
# Convention : Reuss Voigt Hill
#
# Bulk Modulus (GPa) = 41.32584 76.29950 58.81267
# Shear Modulus (GPa) = 30.57290 47.61551 39.09420
#
# Velocity S-wave (km/s) = 3.53345 4.40966 3.99564
# Velocity P-wave (km/s) = 5.78995 7.55551 6.73087
#
# Compressibility (1/GPa) = 0.02419793
#
# Stress axis : x y z
#
# Youngs Moduli (GPa) = 131.23381 51.78479 187.23008
#
# Poissons Ratio (x) = -0.06576 0.52496
# Poissons Ratio (y) = -0.16665 0.46862
# Poissons Ratio (z) = 0.36796 0.12961
#
# Static dielectric constant tensor:
#      x y z
#    x 1.837300 0.000000 -0.002370 
#    y 0.000000 2.031710 0.000000 
#    z -0.002370 0.000000 1.913570 
# 
# From -- ./inp_files/41251.got.cif
#   From: 2010.05.17/outbox.cif.g08.bks.cpg/sg12_21_cif.got.tgz:41251.got - 2010.06.03 13:09:07.
