data_PCOD9222904
_publ_section_title
;
Structure prediction by ZEFSAII (Michael W. Deem and Ramdas Pophale) SiO2 
 PCOD9222904
Probable space group: C 2/M
;
_chemical_formula_sum "Si O2"
_cell_formula_units_Z 56
_cell_length_a 16.095580
_cell_length_b 9.152221
_cell_length_c 21.124456
_cell_angle_alpha 90.000000
_cell_angle_beta 127.039920
_cell_angle_gamma 90.000000
_cell_volume 2483.928542
_symmetry_space_group_name_H-M "C 2/M"
_symmetry_group_IT_number 12
_symmetry_cell_setting 'monoclinic'
loop_
_space_group_symop_operation_xyz
x,y,z
-x,y,-z
-x,-y,-z
x,-y,z
1/2+x,1/2+y,z
1/2-x,1/2+y,-z
1/2-x,1/2-y,-z
1/2+x,1/2-y,z
loop_
_atom_site_type_symbol
_atom_site_label
_atom_site_fract_x
_atom_site_fract_y
_atom_site_fract_z
Si Si1 0.910555 0.325382 0.230919
Si Si2 0.341285 0.826687 0.666658
Si Si3 0.642409 0.169183 0.185529
Si Si4 0.110968 0.330342 0.917496
Si Si5 0.126192 0.831976 0.051342
Si Si6 0.440758 0.177119 0.378094
Si Si7 0.843584 0.674662 0.471151
O O1 0.890132 0.500000 0.220078
O O2 0.035979 0.307578 0.287075
O O3 0.869300 0.270144 0.144384
O O4 0.885472 0.265591 0.289252
O O5 0.321104 0.772376 0.729499
O O6 0.267427 0.751827 0.581569
O O7 0.321160 0.000000 0.656275
O O8 0.515571 0.169804 0.133248
O O9 0.668971 0.256215 0.134220
O O10 0.673591 0.000000 0.193158
O O11 0.142903 0.500000 0.936662
O O12 0.151910 0.241543 0.996212
O O13 0.156653 0.000000 0.064840
O O14 0.000000 0.825197 0.000000
O O15 0.386400 0.206139 0.419672
O O16 0.561178 0.224542 0.440964
O O17 0.443921 0.000000 0.374049
O O18 0.831748 0.500000 0.473447
#
# Coordination Sequence:
#
# PCOD9222904 Si02
#       7
#     8   8   8   8   8   8   8
#     4   8  14  26  44  63  84 113 147 178 207 247
#     4   9  17  28  43  64  88 112 140 178 218 250
#     4   8  14  24  36  52  77 108 139 168 200 243
#     4   8  13  22  37  55  75 104 140 172 202 239
#     4   9  15  21  32  53  81 110 135 163 203 246
#     4   8  15  29  46  63  84 112 147 178 205 249
#     4   9  17  29  46  65  85 112 143 176 213 253
#
# _framework density 22.544931999999999
#
# number of rings (size 3 to 8) (size 9 to 14) (size 15 to 20)
#    0.000    3.571    0.000    3.000    0.000    2.857 
#    0.000    3.571    0.000    2.571    0.000    1.000 
#    0.000    0.000    0.000    0.000    0.000    0.000 
#
# Total GULP energy -156251.608091 kJ/mol
# GULP energy per Si atom -5580.414575 kJ/mol
# Density = 2.249362 g / cm^3
# Si number density = 22.544932 Si / 1000 Ang^3
#
#
#
# Elastic Constant Matrix: (Units=GPa)
#
#
# Indices 1 2 3 4 5 6 
#
# 1 62.3146 3.3411 30.3230 0.0000 -3.9551 0.0000
# 2 3.3411 21.6628 30.1521 0.0000 -5.6020 0.0000
# 3 30.3230 30.1521 173.4537 0.0000 -9.9252 0.0000
# 4 0.0000 0.0000 0.0000 24.5246 0.0000 1.4117
# 5 -3.9551 -5.6020 -9.9252 0.0000 52.3314 0.0000
# 6 0.0000 0.0000 0.0000 1.4117 0.0000 -0.7020
#
#
#
# Elastic Compliance Matrix: (Units=1/GPa)
#
#
# Indices 1 2 3 4 5 6 
#
# 1 0.017654 0.002294 -0.003432 0.000000 0.000929 0.000000
# 2 0.002294 0.062291 -0.010957 0.000000 0.004763 0.000000
# 3 -0.003432 -0.010957 0.008278 0.000000 0.000138 0.000000
# 4 0.000000 0.000000 0.000000 0.036545 0.000000 0.073493
# 5 0.000929 0.004763 0.000138 0.000000 0.019715 0.000000
# 6 0.000000 0.000000 0.000000 0.073493 0.000000 -1.276718
#
#
# Mechanical properties :
#
#
# Convention : Reuss Voigt Hill
#
# Bulk Modulus (GPa) = 15.61691 42.78483 29.20087
# Shear Modulus (GPa) = -4.60107 28.13847 11.76870
#
# Velocity S-wave (km/s) = -1.43013 3.53669 2.28723
# Velocity P-wave (km/s) = 2.05305 5.97464 4.46718
#
# Compressibility (1/GPa) = 0.06403315
#
# Stress axis : x y z
#
# Youngs Moduli (GPa) = 56.64594 16.05379 120.80652
#
# Poissons Ratio (x) = -0.03683 0.41459
# Poissons Ratio (y) = -0.12996 1.32364
# Poissons Ratio (z) = 0.19440 0.17590
#
# Static dielectric constant tensor:
#      x y z
#    x 1.959160 0.000000 -0.025400 
#    y 0.000000 1.746890 0.000000 
#    z -0.025400 0.000000 1.847820 
# 
# From -- ./inp_files/319357.got.cif
#   From: 2010.05.17/outbox.cif.g08.bks.cpg/sg12_160_cif.got.tgz:319357.got - 2010.06.03 13:09:07.
