data_PCOD9222984
_publ_section_title
;
Structure prediction by ZEFSAII (Michael W. Deem and Ramdas Pophale) SiO2 
 PCOD9222984
Probable space group: C 2/M
;
_chemical_formula_sum "Si O2"
_cell_formula_units_Z 64
_cell_length_a 13.771459
_cell_length_b 7.570071
_cell_length_c 24.082338
_cell_angle_alpha 90.000000
_cell_angle_beta 69.548932
_cell_angle_gamma 90.000000
_cell_volume 2352.364800
_symmetry_space_group_name_H-M "C 2/M"
_symmetry_group_IT_number 12
_symmetry_cell_setting 'monoclinic'
loop_
_space_group_symop_operation_xyz
x,y,z
-x,y,-z
-x,-y,-z
x,-y,z
1/2+x,1/2+y,z
1/2-x,1/2+y,-z
1/2-x,1/2-y,-z
1/2+x,1/2-y,z
loop_
_atom_site_type_symbol
_atom_site_label
_atom_site_fract_x
_atom_site_fract_y
_atom_site_fract_z
Si Si1 0.087703 0.712253 0.262556
Si Si2 0.819272 0.790847 0.233783
Si Si3 0.872488 0.790989 0.984609
Si Si4 0.354026 0.788254 0.515257
Si Si5 0.399514 0.287225 0.860175
Si Si6 0.663653 0.206914 0.887151
Si Si7 0.985746 0.298999 0.393340
Si Si8 0.789543 0.216415 0.364312
O O1 0.083832 0.500000 0.267985
O O2 0.205525 0.774673 0.238195
O O3 0.042142 0.751470 0.210356
O O4 0.046466 0.785435 0.329348
O O5 0.879973 0.768733 0.163619
O O6 0.822264 0.723258 0.296265
O O7 0.817196 0.000000 0.242282
O O8 0.895768 0.736974 0.043162
O O9 0.887789 0.000000 0.980966
O O10 0.750000 0.750000 0.000000
O O11 0.923097 0.717496 0.917639
O O12 0.250000 0.750000 0.500000
O O13 0.450653 0.718594 0.459327
O O14 0.321658 0.737103 0.585115
O O15 0.368202 0.000000 0.512644
O O16 0.397166 0.500000 0.864197
O O17 0.280577 0.217962 0.873892
O O18 0.675177 0.000000 0.879099
O O19 0.025301 0.500000 0.393772
O O20 0.873966 0.305368 0.385943
O O21 0.796894 0.000000 0.366032
#
# Coordination Sequence:
#
# PCOD9222984 Si02
#       8
#     8   8   8   8   8   8   8   8
#     4   9  17  28  42  61  87 117 144 173 214 259
#     4   9  17  29  43  61  88 117 144 176 215 259
#     4   9  15  23  36  56  82 111 144 180 216 253
#     4   8  14  26  43  62  84 108 139 178 215 252
#     4   8  15  25  37  56  82 111 142 175 210 249
#     4   9  16  25  38  58  83 112 145 177 214 257
#     4   9  17  29  45  65  87 112 143 179 217 255
#     4   9  17  29  46  66  85 111 146 180 215 255
#
# _framework density 27.206664
#
# number of rings (size 3 to 8) (size 9 to 14) (size 15 to 20)
#    0.000    3.250    0.000    1.500    0.000    4.500 
#    0.000    0.625    0.000    3.750    0.000    0.875 
#    0.000   21.000    0.000    0.000    0.000    0.000 
#
# Total GULP energy -178384.666878 kJ/mol
# GULP energy per Si atom -5574.520840 kJ/mol
# Density = 2.714474 g / cm^3
# Si number density = 27.206664 Si / 1000 Ang^3
#
#
#
# Elastic Constant Matrix: (Units=GPa)
#
#
# Indices 1 2 3 4 5 6 
#
# 1 45.7642 -6.7127 65.6488 -0.0001 10.8395 0.0000
# 2 -6.7127 81.1353 6.6904 -0.0001 12.1747 0.0000
# 3 65.6488 6.6904 342.6630 -0.0002 19.7745 0.0000
# 4 -0.0001 -0.0001 -0.0002 -17.8678 -0.0001 4.9193
# 5 10.8395 12.1747 19.7745 -0.0001 75.9084 0.0000
# 6 0.0000 0.0000 0.0000 4.9193 0.0000 6.2959
#
#
#
# Elastic Compliance Matrix: (Units=1/GPa)
#
#
# Indices 1 2 3 4 5 6 
#
# 1 0.031772 0.003656 -0.005952 0.000000 -0.003573 0.000000
# 2 0.003656 0.013055 -0.000817 0.000000 -0.002403 0.000000
# 3 -0.005952 -0.000817 0.004079 0.000000 -0.000082 0.000000
# 4 0.000000 0.000000 0.000000 -0.046059 0.000000 0.035988
# 5 -0.003573 -0.002403 -0.000082 0.000000 0.014091 0.000000
# 6 0.000000 0.000000 0.000000 0.035988 0.000000 0.130713
#
#
# Mechanical properties :
#
#
# Convention : Reuss Voigt Hill
#
# Bulk Modulus (GPa) = 23.42996 66.75729 45.09363
# Shear Modulus (GPa) = 29.74319 39.79638 34.76978
#
# Velocity S-wave (km/s) = 3.30999 3.82873 3.57877
# Velocity P-wave (km/s) = 4.82064 6.64349 5.80408
#
# Compressibility (1/GPa) = 0.04268040
#
# Stress axis : x y z
#
# Youngs Moduli (GPa) = 31.47421 76.59623 245.13808
#
# Poissons Ratio (x) = -0.28000 1.45912
# Poissons Ratio (y) = -0.11506 0.20017
# Poissons Ratio (z) = 0.18734 0.06255
#
# Static dielectric constant tensor:
#      x y z
#    x 2.238100 0.000000 -0.035670 
#    y 0.000000 3.255730 0.000000 
#    z -0.035670 0.000000 2.335830 
# 
# From -- ./inp_files/348323.got.cif
#   From: 2010.05.17/outbox.cif.g08.bks.cpg/sg12_175_cif.got.tgz:348323.got - 2010.06.03 13:09:07.
