data_PCOD9222778
_publ_section_title
;
Structure prediction by ZEFSAII (Michael W. Deem and Ramdas Pophale) SiO2 
 PCOD9222778
Probable space group: C 2/M
;
_chemical_formula_sum "Si O2"
_cell_formula_units_Z 18
_cell_length_a 18.689017
_cell_length_b 9.561842
_cell_length_c 4.736250
_cell_angle_alpha 90.000000
_cell_angle_beta 118.583970
_cell_angle_gamma 90.000000
_cell_volume 743.215845
_symmetry_space_group_name_H-M "C 2/M"
_symmetry_group_IT_number 12
_symmetry_cell_setting 'monoclinic'
loop_
_space_group_symop_operation_xyz
x,y,z
-x,y,-z
-x,-y,-z
x,-y,z
1/2+x,1/2+y,z
1/2-x,1/2+y,-z
1/2-x,1/2-y,-z
1/2+x,1/2-y,z
loop_
_atom_site_type_symbol
_atom_site_label
_atom_site_fract_x
_atom_site_fract_y
_atom_site_fract_z
Si Si1 0.818975 0.658707 0.479377
Si Si2 0.000000 0.000000 0.000000
Si Si3 0.926217 0.731208 0.180768
O O1 0.793102 0.500000 0.360479
O O2 0.750000 0.750000 0.500000
O O3 0.853076 0.737732 0.269427
O O4 0.891541 0.652312 0.845372
O O5 0.957863 0.877679 0.119094
O O6 0.000000 0.666546 0.500000
#
# Coordination Sequence:
#
# PCOD9222778 Si02
#       3
#     8   2   8
#     4  12  29  49  75 112 154 200 246 312 377 446
#     4  12  26  48  80 116 146 204 242 320 372 450
#     4  12  26  48  78 110 148 197 256 304 371 448
#
# _framework density 24.219072000000001
#
# number of rings (size 3 to 8) (size 9 to 14) (size 15 to 20)
#    0.000    0.000    4.444    3.333    6.222    5.333 
#    0.000    0.000    0.000    0.000    0.000    0.000 
#    0.000    0.000    0.000    0.000    0.000    0.000 
#
# Total GULP energy -50113.411874 kJ/mol
# GULP energy per Si atom -5568.156875 kJ/mol
# Density = 2.416395 g / cm^3
# Si number density = 24.219072 Si / 1000 Ang^3
#
#
#
# Elastic Constant Matrix: (Units=GPa)
#
#
# Indices 1 2 3 4 5 6 
#
# 1 234.2470 105.4382 26.7082 0.0000 -64.0602 0.0000
# 2 105.4382 205.4142 28.9848 0.0000 -19.9793 0.0000
# 3 26.7082 28.9848 94.5459 0.0000 -17.6454 0.0000
# 4 0.0000 0.0000 0.0000 -0.4385 0.0000 -5.1850
# 5 -64.0602 -19.9793 -17.6454 0.0000 54.5380 0.0000
# 6 0.0000 0.0000 0.0000 -5.1850 0.0000 12.6287
#
#
#
# Elastic Compliance Matrix: (Units=1/GPa)
#
#
# Indices 1 2 3 4 5 6 
#
# 1 0.008003 -0.003347 0.000310 0.000000 0.008274 0.000000
# 2 -0.003347 0.006597 -0.001447 0.000000 -0.001982 0.000000
# 3 0.000310 -0.001447 0.011603 0.000000 0.003587 0.000000
# 4 0.000000 0.000000 0.000000 -0.389504 0.000000 -0.159921
# 5 0.008274 -0.001982 0.003587 0.000000 0.028489 0.000000
# 6 0.000000 0.000000 0.000000 -0.159921 0.000000 0.013525
#
#
# Mechanical properties :
#
#
# Convention : Reuss Voigt Hill
#
# Bulk Modulus (GPa) = 58.02384 95.16327 76.59356
# Shear Modulus (GPa) = -16.30933 38.21736 10.95401
#
# Velocity S-wave (km/s) = -2.59783 3.97670 2.12902
# Velocity P-wave (km/s) = 3.87449 7.77583 6.14309
#
# Compressibility (1/GPa) = 0.01723430
#
# Stress axis : x y z
#
# Youngs Moduli (GPa) = 124.95392 151.57325 86.18758
#
# Poissons Ratio (x) = 0.50728 -0.02668
# Poissons Ratio (y) = 0.41819 0.12473
# Poissons Ratio (z) = -0.03868 0.21935
#
# Static dielectric constant tensor:
#      x y z
#    x 1.976550 0.000000 0.059400 
#    y 0.000000 1.931870 0.000000 
#    z 0.059400 0.000000 1.998640 
# 
# From -- ./inp_files/13498.got.cif
#   From: 2010.05.17/outbox.cif.g08.bks.cpg/sg12_7_cif.got.tgz:13498.got - 2010.06.03 13:09:07.
