data_PCOD9222551
_publ_section_title
;
Structure prediction by ZEFSAII (Michael W. Deem and Ramdas Pophale) SiO2 
 PCOD9222551
Probable space group: C 2/M
;
_chemical_formula_sum "Si O2"
_cell_formula_units_Z 32
_cell_length_a 9.401503
_cell_length_b 17.784150
_cell_length_c 7.317803
_cell_angle_alpha 90.000000
_cell_angle_beta 109.592018
_cell_angle_gamma 90.000000
_cell_volume 1152.683415
_symmetry_space_group_name_H-M "C 2/M"
_symmetry_group_IT_number 12
_symmetry_cell_setting 'monoclinic'
loop_
_space_group_symop_operation_xyz
x,y,z
-x,y,-z
-x,-y,-z
x,-y,z
1/2+x,1/2+y,z
1/2-x,1/2+y,-z
1/2-x,1/2-y,-z
1/2+x,1/2-y,z
loop_
_atom_site_type_symbol
_atom_site_label
_atom_site_fract_x
_atom_site_fract_y
_atom_site_fract_z
Si Si1 0.415127 0.080853 0.191399
Si Si2 0.984148 0.258634 0.711065
Si Si3 0.181539 0.883973 0.383414
Si Si4 0.350180 0.384420 0.196116
O O1 0.508668 0.157708 0.211178
O O2 0.327081 0.085535 0.346445
O O3 0.493269 0.000000 0.209904
O O4 0.278936 0.084512 0.986669
O O5 0.118154 0.203688 0.835460
O O6 0.000000 0.263618 0.500000
O O7 0.839939 0.204506 0.677772
O O8 0.182214 0.892218 0.601741
O O9 0.020669 0.916392 0.246098
#
# Coordination Sequence:
#
# PCOD9222551 Si02
#       4
#     8   8   8   8
#     4  12  22  33  60  91 113 144 184 234 294 331
#     4   8  19  39  56  81 112 150 192 231 267 334
#     4   8  19  38  56  83 111 152 188 232 270 333
#     4   8  18  38  55  82 113 149 189 231 267 336
#
# _framework density 27.761310000000002
#
# number of rings (size 3 to 8) (size 9 to 14) (size 15 to 20)
#    1.500    1.500    0.000    1.500    0.000    7.500 
#    0.000    2.500    0.000    0.000    0.000    8.750 
#    0.000    0.000    0.000    0.000    0.000    0.000 
#
# Total GULP energy -89563.934121 kJ/mol
# GULP energy per Si atom -5597.745883 kJ/mol
# Density = 2.769812 g / cm^3
# Si number density = 27.761310 Si / 1000 Ang^3
#
#
#
# Elastic Constant Matrix: (Units=GPa)
#
#
# Indices 1 2 3 4 5 6 
#
# 1 92.4216 25.5228 7.1774 0.0000 -10.9933 0.0000
# 2 25.5228 245.2373 19.2542 0.0000 17.1687 0.0000
# 3 7.1774 19.2542 73.9230 0.0000 6.9946 0.0000
# 4 0.0000 0.0000 0.0000 -10.6546 0.0000 -22.0176
# 5 -10.9933 17.1687 6.9946 0.0000 43.1242 0.0000
# 6 0.0000 0.0000 0.0000 -22.0176 0.0000 4.3656
#
#
#
# Elastic Compliance Matrix: (Units=1/GPa)
#
#
# Indices 1 2 3 4 5 6 
#
# 1 0.011736 -0.001394 -0.001129 0.000000 0.003730 0.000000
# 2 -0.001394 0.004427 -0.000830 0.000000 -0.001983 0.000000
# 3 -0.001129 -0.000830 0.014065 0.000000 -0.002239 0.000000
# 4 0.000000 0.000000 0.000000 -0.008217 0.000000 -0.041442
# 5 0.003730 -0.001983 -0.002239 0.000000 0.025292 0.000000
# 6 0.000000 0.000000 0.000000 -0.041442 0.000000 0.020054
#
#
# Mechanical properties :
#
#
# Convention : Reuss Voigt Hill
#
# Bulk Modulus (GPa) = 42.51392 57.27673 49.89532
# Shear Modulus (GPa) = 61.04626 31.34221 46.19424
#
# Velocity S-wave (km/s) = 4.69440 3.36369 4.08362
# Velocity P-wave (km/s) = 6.68809 5.98018 6.34402
#
# Compressibility (1/GPa) = 0.02352171
#
# Stress axis : x y z
#
# Youngs Moduli (GPa) = 85.20586 225.89921 71.09711
#
# Poissons Ratio (x) = 0.31488 0.08030
# Poissons Ratio (y) = 0.11877 0.05901
# Poissons Ratio (z) = 0.09623 0.18750
#
# Static dielectric constant tensor:
#      x y z
#    x 2.143460 0.000000 0.020650 
#    y 0.000000 2.197110 0.000000 
#    z 0.020650 0.000000 2.116480 
# 
# From -- ./inp_files/48104.got.cif
#   From: 2010.05.17/outbox.cif.g08.bks.cpg/sg12_25_cif.got.tgz:48104.got - 2010.06.03 13:09:07.
