data_PCOD9222578
_publ_section_title
;
Structure prediction by ZEFSAII (Michael W. Deem and Ramdas Pophale) SiO2 
 PCOD9222578
Probable space group: C 2/M
;
_chemical_formula_sum "Si O2"
_cell_formula_units_Z 56
_cell_length_a 17.867069
_cell_length_b 23.222486
_cell_length_c 9.130967
_cell_angle_alpha 90.000000
_cell_angle_beta 140.243901
_cell_angle_gamma 90.000000
_cell_volume 2422.888891
_symmetry_space_group_name_H-M "C 2/M"
_symmetry_group_IT_number 12
_symmetry_cell_setting 'monoclinic'
loop_
_space_group_symop_operation_xyz
x,y,z
-x,y,-z
-x,-y,-z
x,-y,z
1/2+x,1/2+y,z
1/2-x,1/2+y,-z
1/2-x,1/2-y,-z
1/2+x,1/2-y,z
loop_
_atom_site_type_symbol
_atom_site_label
_atom_site_fract_x
_atom_site_fract_y
_atom_site_fract_z
Si Si1 0.000000 0.604541 0.500000
Si Si2 0.620517 0.063310 0.972167
Si Si3 0.270989 0.162153 0.285950
Si Si4 0.890881 0.876691 0.734598
Si Si5 0.587034 0.248712 0.354459
Si Si6 0.000000 0.653859 0.000000
Si Si7 0.138872 0.208193 0.833500
Si Si8 0.378156 0.598146 0.382890
O O1 0.048235 0.570795 0.713446
O O2 0.110340 0.641363 0.610241
O O3 0.598464 0.000000 0.000877
O O4 0.583647 0.113176 0.029586
O O5 0.758609 0.070050 0.148838
O O6 0.227212 0.120175 0.347791
O O7 0.299702 0.226159 0.388871
O O8 0.166851 0.166086 0.012441
O O9 0.901377 0.808508 0.712522
O O10 0.884014 0.906107 0.566925
O O11 0.000000 0.894319 0.000000
O O12 0.563531 0.196639 0.207622
O O13 0.475528 0.256157 0.293904
O O14 0.129626 0.165358 0.681926
O O15 0.250000 0.250000 0.000000
O O16 0.500000 0.576223 0.500000
#
# Coordination Sequence:
#
# PCOD9222578 Si02
#       8
#     4   8   8   8   8   4   8   8
#     4  12  25  48  74 102 138 182 232 318 371 422
#     4  12  28  51  78 104 136 190 251 313 372 419
#     4  12  23  41  63  95 144 186 237 284 351 426
#     4  12  24  43  67 105 149 197 235 281 352 445
#     4  12  22  40  65 102 144 193 227 276 355 432
#     4  12  23  46  70 104 148 178 237 302 356 424
#     4  12  23  39  61  98 148 192 236 277 346 440
#     4  12  25  46  73 105 148 189 242 304 353 427
#
# _framework density 23.112902999999999
#
# number of rings (size 3 to 8) (size 9 to 14) (size 15 to 20)
#    0.000    0.000    6.429    4.286    0.000    0.286 
#    0.000    0.000    0.000    0.429    0.000    0.000 
#    0.000    0.000    0.000    0.000    0.000    0.000 
#
# Total GULP energy -156790.860990 kJ/mol
# GULP energy per Si atom -5599.673607 kJ/mol
# Density = 2.306030 g / cm^3
# Si number density = 23.112903 Si / 1000 Ang^3
#
#
#
# Elastic Constant Matrix: (Units=GPa)
#
#
# Indices 1 2 3 4 5 6 
#
# 1 126.8226 1.2586 26.5441 0.0000 5.2396 0.0000
# 2 1.2586 52.3079 3.0755 0.0000 -3.0336 0.0000
# 3 26.5441 3.0755 117.0863 0.0000 -11.3509 0.0000
# 4 0.0000 0.0000 0.0000 1.6068 0.0000 -2.6205
# 5 5.2396 -3.0336 -11.3509 0.0000 43.7043 0.0000
# 6 0.0000 0.0000 0.0000 -2.6205 0.0000 2.1354
#
#
#
# Elastic Compliance Matrix: (Units=1/GPa)
#
#
# Indices 1 2 3 4 5 6 
#
# 1 0.008379 -0.000171 -0.002045 0.000000 -0.001548 0.000000
# 2 -0.000171 0.019215 -0.000343 0.000000 0.001265 0.000000
# 3 -0.002045 -0.000343 0.009268 0.000000 0.002628 0.000000
# 4 0.000000 0.000000 0.000000 -0.621503 0.000000 -0.762693
# 5 -0.001548 0.001265 0.002628 0.000000 0.023837 0.000000
# 6 0.000000 0.000000 0.000000 -0.762693 0.000000 -0.467652
#
#
# Mechanical properties :
#
#
# Convention : Reuss Voigt Hill
#
# Bulk Modulus (GPa) = 31.50275 39.77480 35.63878
# Shear Modulus (GPa) = -4.93702 27.17852 11.12075
#
# Velocity S-wave (km/s) = -1.46311 3.43286 2.19589
# Velocity P-wave (km/s) = 3.28714 5.74099 4.67784
#
# Compressibility (1/GPa) = 0.03174326
#
# Stress axis : x y z
#
# Youngs Moduli (GPa) = 119.35047 52.04197 107.89633
#
# Poissons Ratio (x) = 0.00891 0.22065
# Poissons Ratio (y) = 0.02042 0.03704
# Poissons Ratio (z) = 0.24407 0.01787
#
# Static dielectric constant tensor:
#      x y z
#    x 1.914820 0.000000 -0.057650 
#    y 0.000000 1.841070 0.000000 
#    z -0.057650 0.000000 1.908790 
# 
# From -- ./inp_files/80162.got.cif
#   From: 2010.05.17/outbox.cif.g08.bks.cpg/sg12_41_cif.got.tgz:80162.got - 2010.06.03 13:09:07.
