data_PCOD9222329
_publ_section_title
;
Structure prediction by ZEFSAII (Michael W. Deem and Ramdas Pophale) SiO2 
 PCOD9222329
Probable space group: C 2/M
;
_chemical_formula_sum "Si O2"
_cell_formula_units_Z 34
_cell_length_a 14.457228
_cell_length_b 17.126194
_cell_length_c 6.794773
_cell_angle_alpha 90.000000
_cell_angle_beta 78.025451
_cell_angle_gamma 90.000000
_cell_volume 1645.758840
_symmetry_space_group_name_H-M "C 2/M"
_symmetry_group_IT_number 12
_symmetry_cell_setting 'monoclinic'
loop_
_space_group_symop_operation_xyz
x,y,z
-x,y,-z
-x,-y,-z
x,-y,z
1/2+x,1/2+y,z
1/2-x,1/2+y,-z
1/2-x,1/2-y,-z
1/2+x,1/2-y,z
loop_
_atom_site_type_symbol
_atom_site_label
_atom_site_fract_x
_atom_site_fract_y
_atom_site_fract_z
Si Si1 0.230665 0.680402 0.161993
Si Si2 0.500000 0.500000 0.500000
Si Si3 0.111731 0.411211 0.907989
Si Si4 0.434776 0.363910 0.222084
Si Si5 0.090297 0.700262 0.566090
O O1 0.326177 0.640529 0.197411
O O2 0.170222 0.714243 0.369105
O O3 0.250000 0.750000 0.000000
O O4 0.168052 0.617982 0.072348
O O5 0.459885 0.431319 0.365054
O O6 0.136457 0.500000 0.849202
O O7 0.131339 0.354670 0.717102
O O8 0.000000 0.405894 0.000000
O O9 0.448026 0.279168 0.317389
O O10 0.500000 0.370955 0.000000
O O11 0.000000 0.661482 0.500000
#
# Coordination Sequence:
#
# PCOD9222329 Si02
#       5
#     8   2   8   8   8
#     4  12  26  44  75 108 136 188 245 291 357 428
#     4  12  30  48  76 102 150 194 242 300 366 412
#     4  11  25  45  70 105 148 184 229 296 362 427
#     4  12  27  49  72 105 144 191 244 294 356 427
#     4  12  23  45  75 104 141 189 235 292 361 432
#
# _framework density 20.659164000000001
#
# number of rings (size 3 to 8) (size 9 to 14) (size 15 to 20)
#    0.000    0.235    5.882    3.176    1.647    1.412 
#    4.235    0.000    0.000    0.000    0.000    0.000 
#    0.000    0.000    0.000    0.000    0.000    0.000 
#
# Total GULP energy -94861.864215 kJ/mol
# GULP energy per Si atom -5580.109660 kJ/mol
# Density = 2.061214 g / cm^3
# Si number density = 20.659164 Si / 1000 Ang^3
#
#
#
# Elastic Constant Matrix: (Units=GPa)
#
#
# Indices 1 2 3 4 5 6 
#
# 1 121.6375 18.9770 51.7011 0.0000 22.9634 0.0000
# 2 18.9770 141.6645 60.6735 0.0000 11.7579 0.0000
# 3 51.7011 60.6735 127.9975 0.0000 11.6055 0.0000
# 4 0.0000 0.0000 0.0000 24.8273 0.0000 20.7637
# 5 22.9634 11.7579 11.6055 0.0000 43.1786 0.0000
# 6 0.0000 0.0000 0.0000 20.7637 0.0000 21.3042
#
#
#
# Elastic Compliance Matrix: (Units=1/GPa)
#
#
# Indices 1 2 3 4 5 6 
#
# 1 0.010844 0.000798 -0.004321 0.000000 -0.004823 0.000000
# 2 0.000798 0.008989 -0.004431 0.000000 -0.001681 0.000000
# 3 -0.004321 -0.004431 0.011624 0.000000 0.000380 0.000000
# 4 0.000000 0.000000 0.000000 0.217842 0.000000 -0.212315
# 5 -0.004823 -0.001681 0.000380 0.000000 0.026080 0.000000
# 6 0.000000 0.000000 0.000000 -0.212315 0.000000 0.253867
#
#
# Mechanical properties :
#
#
# Convention : Reuss Voigt Hill
#
# Bulk Modulus (GPa) = 64.31181 72.66697 68.48939
# Shear Modulus (GPa) = 9.08534 35.19188 22.13861
#
# Velocity S-wave (km/s) = 2.09935 4.13177 3.27710
# Velocity P-wave (km/s) = 6.08883 7.61660 6.89516
#
# Compressibility (1/GPa) = 0.01554924
#
# Stress axis : x y z
#
# Youngs Moduli (GPa) = 92.21869 111.24247 86.02835
#
# Poissons Ratio (x) = -0.08882 0.37175
# Poissons Ratio (y) = -0.07363 0.38121
# Poissons Ratio (z) = 0.39850 0.49294
#
# Static dielectric constant tensor:
#      x y z
#    x 1.793990 0.000000 0.021590 
#    y 0.000000 1.715680 0.000000 
#    z 0.021590 0.000000 1.731520 
# 
# From -- ./inp_files/14938.got.cif
#   From: 2010.05.17/outbox.cif.g08.bks.cpg/sg12_8_cif.got.tgz:14938.got - 2010.06.03 13:09:07.
