data_PCOD9222857
_publ_section_title
;
Structure prediction by ZEFSAII (Michael W. Deem and Ramdas Pophale) SiO2 
 PCOD9222857
Probable space group: C 2/M
;
_chemical_formula_sum "Si O2"
_cell_formula_units_Z 56
_cell_length_a 12.853502
_cell_length_b 21.501980
_cell_length_c 11.876247
_cell_angle_alpha 90.000000
_cell_angle_beta 135.654731
_cell_angle_gamma 90.000000
_cell_volume 2294.268403
_symmetry_space_group_name_H-M "C 2/M"
_symmetry_group_IT_number 12
_symmetry_cell_setting 'monoclinic'
loop_
_space_group_symop_operation_xyz
x,y,z
-x,y,-z
-x,-y,-z
x,-y,z
1/2+x,1/2+y,z
1/2-x,1/2+y,-z
1/2-x,1/2-y,-z
1/2+x,1/2-y,z
loop_
_atom_site_type_symbol
_atom_site_label
_atom_site_fract_x
_atom_site_fract_y
_atom_site_fract_z
Si Si1 0.229750 0.098032 0.245641
Si Si2 0.900452 0.113629 0.070128
Si Si3 0.515002 0.574020 0.385022
Si Si4 0.964468 0.298077 0.695871
Si Si5 0.645019 0.932462 0.436150
Si Si6 0.364188 0.242294 0.974716
Si Si7 0.695530 0.242038 0.639419
O O1 0.336168 0.064513 0.414554
O O2 0.264843 0.170389 0.299307
O O3 0.061072 0.086688 0.157068
O O4 0.223304 0.084297 0.108109
O O5 0.900044 0.185641 0.032651
O O6 0.906153 0.103682 0.207670
O O7 0.500000 0.599585 0.500000
O O8 0.483309 0.500000 0.362324
O O9 0.687604 0.580833 0.481957
O O10 0.946783 0.371295 0.662785
O O11 0.827203 0.271526 0.663725
O O12 0.940023 0.264450 0.555494
O O13 0.111672 0.289323 0.885548
O O14 0.596373 0.000000 0.355612
O O15 0.500000 0.221131 0.000000
O O16 0.225713 0.228037 0.785821
#
# Coordination Sequence:
#
# PCOD9222857 Si02
#       7
#     8   8   8   8   8   8   8
#     4   8  12  21  34  55  76  86 109 148 197 223
#     4   9  12  21  38  53  74  90 120 152 184 228
#     4   9  18  28  34  45  70 105 138 160 176 210
#     4   9  14  21  37  55  79 100 121 153 191 231
#     4   9  17  25  35  52  77 100 127 159 182 222
#     4   9  13  22  36  59  83  92 117 157 193 235
#     4   8  13  20  33  55  79  95 118 146 183 235
#
# _framework density 24.408653000000001
#
# number of rings (size 3 to 8) (size 9 to 14) (size 15 to 20)
#    0.000    3.286    4.286    0.000    2.000    0.571 
#    0.000    2.857    0.000    3.857    0.000    9.000 
#    0.000    0.000    0.000    0.000    0.000    0.857 
#
# Total GULP energy -156168.685450 kJ/mol
# GULP energy per Si atom -5577.453052 kJ/mol
# Density = 2.435310 g / cm^3
# Si number density = 24.408653 Si / 1000 Ang^3
#
#
#
# Elastic Constant Matrix: (Units=GPa)
#
#
# Indices 1 2 3 4 5 6 
#
# 1 70.4451 6.4826 63.7533 0.0000 -0.2250 0.0000
# 2 6.4826 81.7031 56.4892 0.0000 3.9099 0.0000
# 3 63.7533 56.4892 281.1643 0.0000 -25.7168 0.0000
# 4 0.0000 0.0000 0.0000 15.1676 0.0000 -5.3231
# 5 -0.2250 3.9099 -25.7168 0.0000 42.3084 0.0000
# 6 0.0000 0.0000 0.0000 -5.3231 0.0000 6.5852
#
#
#
# Elastic Compliance Matrix: (Units=1/GPa)
#
#
# Indices 1 2 3 4 5 6 
#
# 1 0.018397 0.002047 -0.004861 0.000000 -0.003046 0.000000
# 2 0.002047 0.014871 -0.003787 0.000000 -0.003665 0.000000
# 3 -0.004861 -0.003787 0.005770 0.000000 0.003832 0.000000
# 4 0.000000 0.000000 0.000000 0.092042 0.000000 0.074402
# 5 -0.003046 -0.003665 0.003832 0.000000 0.026287 0.000000
# 6 0.000000 0.000000 0.000000 0.074402 0.000000 0.212000
#
#
# Mechanical properties :
#
#
# Convention : Reuss Voigt Hill
#
# Bulk Modulus (GPa) = 38.70659 76.30699 57.50679
# Shear Modulus (GPa) = 12.78178 33.25141 23.01659
#
# Velocity S-wave (km/s) = 2.29084 3.69491 3.07411
# Velocity P-wave (km/s) = 4.78429 7.03799 6.01759
#
# Compressibility (1/GPa) = 0.02583540
#
# Stress axis : x y z
#
# Youngs Moduli (GPa) = 54.35688 67.24562 173.30113
#
# Poissons Ratio (x) = -0.13767 0.84249
# Poissons Ratio (y) = -0.11128 0.65633
# Poissons Ratio (z) = 0.26425 0.25467
#
# Static dielectric constant tensor:
#      x y z
#    x 2.026990 0.000000 -0.009120 
#    y 0.000000 1.974560 0.000000 
#    z -0.009120 0.000000 1.999420 
# 
# From -- ./inp_files/169944.got.cif
#   From: 2010.05.17/outbox.cif.g08.bks.cpg/sg12_85_cif.got.tgz:169944.got - 2010.06.03 13:09:07.
