data_PCOD9222775
_publ_section_title
;
Structure prediction by ZEFSAII (Michael W. Deem and Ramdas Pophale) SiO2 
 PCOD9222775
Probable space group: C 2/M
;
_chemical_formula_sum "Si O2"
_cell_formula_units_Z 32
_cell_length_a 14.539976
_cell_length_b 22.144795
_cell_length_c 8.805652
_cell_angle_alpha 90.000000
_cell_angle_beta 29.106166
_cell_angle_gamma 90.000000
_cell_volume 1379.166493
_symmetry_space_group_name_H-M "C 2/M"
_symmetry_group_IT_number 12
_symmetry_cell_setting 'monoclinic'
loop_
_space_group_symop_operation_xyz
x,y,z
-x,y,-z
-x,-y,-z
x,-y,z
1/2+x,1/2+y,z
1/2-x,1/2+y,-z
1/2-x,1/2-y,-z
1/2+x,1/2-y,z
loop_
_atom_site_type_symbol
_atom_site_label
_atom_site_fract_x
_atom_site_fract_y
_atom_site_fract_z
Si Si1 0.156001 0.500000 0.401866
Si Si2 0.953958 0.616051 0.238933
Si Si3 0.312732 0.682261 0.875575
Si Si4 0.978698 0.000000 0.348654
Si Si5 0.932542 0.118971 0.259753
O O1 0.114441 0.558574 0.565016
O O2 0.000000 0.500000 0.500000
O O3 0.341500 0.500000 0.026225
O O4 0.760679 0.655483 0.494783
O O5 0.000000 0.599443 0.000000
O O6 0.133927 0.647114 0.060294
O O7 0.500000 0.680878 0.500000
O O8 0.392857 0.652372 0.913445
O O9 0.250000 0.750000 0.000000
O O10 0.000000 0.000000 0.500000
O O11 0.883900 0.062628 0.438679
O O12 0.000000 0.096268 0.000000
#
# Coordination Sequence:
#
# PCOD9222775 Si02
#       5
#     4   8   8   4   8
#     4  12  26  44  76 116 155 203 244 305 384 447
#     4  12  27  50  77 113 154 199 250 311 382 450
#     4  12  30  52  76 110 148 197 258 319 375 444
#     4  12  26  45  76 114 161 198 245 309 373 453
#     4  12  26  49  78 111 153 199 249 311 377 450
#
# _framework density 23.20242
#
# number of rings (size 3 to 8) (size 9 to 14) (size 15 to 20)
#    0.000    0.000    5.000    3.750    7.000    2.000 
#    0.000    0.625    0.000    0.000    0.000    0.000 
#    0.000    0.000    0.000    0.000    0.000    0.000 
#
# Total GULP energy -89368.097702 kJ/mol
# GULP energy per Si atom -5585.506106 kJ/mol
# Density = 2.314961 g / cm^3
# Si number density = 23.202420 Si / 1000 Ang^3
#
#
#
# Elastic Constant Matrix: (Units=GPa)
#
#
# Indices 1 2 3 4 5 6 
#
# 1 244.0076 85.9448 97.9642 0.0001 -14.7323 0.0001
# 2 85.9448 120.8392 54.6783 0.0000 -14.9269 0.0000
# 3 97.9642 54.6783 152.6588 0.0002 -21.4130 0.0002
# 4 0.0001 0.0000 0.0002 23.7285 -0.0002 10.9991
# 5 -14.7323 -14.9269 -21.4130 -0.0002 70.0219 -0.0001
# 6 0.0001 0.0000 0.0002 10.9991 -0.0001 -10.2561
#
#
#
# Elastic Compliance Matrix: (Units=1/GPa)
#
#
# Indices 1 2 3 4 5 6 
#
# 1 0.006431 -0.003249 -0.002999 0.000000 -0.000257 0.000000
# 2 -0.003249 0.011594 -0.001899 0.000000 0.001207 0.000000
# 3 -0.002999 -0.001899 0.009414 0.000000 0.001843 0.000000
# 4 0.000000 0.000000 0.000000 0.028150 0.000000 0.030189
# 5 -0.000257 0.001207 0.001843 0.000000 0.015048 0.000000
# 6 0.000000 0.000000 0.000000 0.030189 0.000000 -0.065127
#
#
# Mechanical properties :
#
#
# Convention : Reuss Voigt Hill
#
# Bulk Modulus (GPa) = 89.71912 110.52001 100.11956
# Shear Modulus (GPa) = 195.93314 35.29342 115.61328
#
# Velocity S-wave (km/s) = 9.19937 3.90437 7.06656
# Velocity P-wave (km/s) = 12.31218 8.24996 10.47978
#
# Compressibility (1/GPa) = 0.01114590
#
# Stress axis : x y z
#
# Youngs Moduli (GPa) = 155.49268 86.24977 106.22520
#
# Poissons Ratio (x) = 0.28019 0.31862
# Poissons Ratio (y) = 0.50512 0.20169
# Poissons Ratio (z) = 0.46640 0.16376
#
# Static dielectric constant tensor:
#      x y z
#    x 1.931820 0.000000 -0.058360 
#    y 0.000000 1.890790 0.000000 
#    z -0.058360 0.000000 2.014670 
# 
# From -- ./inp_files/65709.got.cif
#   From: 2010.05.17/outbox.cif.g08.bks.cpg/sg12_33_cif.got.tgz:65709.got - 2010.06.03 13:09:07.
