data_PCOD9222617
_publ_section_title
;
Structure prediction by ZEFSAII (Michael W. Deem and Ramdas Pophale) SiO2 
 PCOD9222617
Probable space group: C 2/M
;
_chemical_formula_sum "Si O2"
_cell_formula_units_Z 48
_cell_length_a 8.258994
_cell_length_b 29.092903
_cell_length_c 9.109720
_cell_angle_alpha 90.000000
_cell_angle_beta 91.473916
_cell_angle_gamma 90.000000
_cell_volume 2188.142105
_symmetry_space_group_name_H-M "C 2/M"
_symmetry_group_IT_number 12
_symmetry_cell_setting 'monoclinic'
loop_
_space_group_symop_operation_xyz
x,y,z
-x,y,-z
-x,-y,-z
x,-y,z
1/2+x,1/2+y,z
1/2-x,1/2+y,-z
1/2-x,1/2-y,-z
1/2+x,1/2-y,z
loop_
_atom_site_type_symbol
_atom_site_label
_atom_site_fract_x
_atom_site_fract_y
_atom_site_fract_z
Si Si1 0.500000 0.627624 0.000000
Si Si2 0.973238 0.695998 0.154861
Si Si3 0.844810 0.643477 0.410026
Si Si4 0.745621 0.051411 0.503260
Si Si5 0.657068 0.294009 0.805929
Si Si6 0.500000 0.679923 0.500000
Si Si7 0.470673 0.447494 0.250050
O O1 0.385004 0.664464 0.083541
O O2 0.525780 0.590705 0.134053
O O3 0.152496 0.703393 0.224560
O O4 0.859276 0.665398 0.252144
O O5 0.886847 0.744755 0.127682
O O6 0.000000 0.672593 0.000000
O O7 0.862497 0.589104 0.420317
O O8 0.665889 0.653168 0.467636
O O9 0.000000 0.663644 0.500000
O O10 0.809954 0.065451 0.341735
O O11 0.895439 0.049335 0.620012
O O12 0.681520 0.000000 0.488479
O O13 0.551657 0.295401 0.652793
O O14 0.449820 0.500000 0.190578
#
# Coordination Sequence:
#
# PCOD9222617 Si02
#       7
#     4   8   8   8   8   4   8
#     4  12  23  36  66 100 140 188 237 286 366 414
#     4  12  28  48  68 103 144 187 243 292 368 424
#     4  12  25  44  72 104 141 188 240 298 354 424
#     4   9  19  39  66  98 135 182 232 291 357 417
#     4  12  27  45  71 100 139 195 238 305 353 424
#     4  12  26  48  71 106 138 184 251 290 360 414
#     4   9  19  37  66 101 139 181 235 289 348 427
#
# _framework density 21.936418
#
# number of rings (size 3 to 8) (size 9 to 14) (size 15 to 20)
#    0.000    1.000    2.500    5.750    5.833    1.667 
#    0.000    0.000    0.000    0.500    0.000    0.000 
#    0.000    0.000    0.000    0.000    0.000    0.000 
#
# Total GULP energy -133789.358418 kJ/mol
# GULP energy per Si atom -5574.556601 kJ/mol
# Density = 2.188649 g / cm^3
# Si number density = 21.936418 Si / 1000 Ang^3
#
#
#
# Elastic Constant Matrix: (Units=GPa)
#
#
# Indices 1 2 3 4 5 6 
#
# 1 90.5194 47.8442 26.9596 0.0000 -4.3757 0.0000
# 2 47.8442 109.5775 60.9503 0.0000 -34.6987 0.0000
# 3 26.9596 60.9503 116.4688 0.0000 -18.6956 0.0000
# 4 0.0000 0.0000 0.0000 1.3462 0.0000 -15.6388
# 5 -4.3757 -34.6987 -18.6956 0.0000 32.5819 0.0000
# 6 0.0000 0.0000 0.0000 -15.6388 0.0000 12.6635
#
#
#
# Elastic Compliance Matrix: (Units=1/GPa)
#
#
# Indices 1 2 3 4 5 6 
#
# 1 0.015563 -0.009250 -0.000009 0.000000 -0.007765 0.000000
# 2 -0.009250 0.023135 -0.006841 0.000000 0.019471 0.000000
# 3 -0.000009 -0.006841 0.012114 0.000000 -0.000335 0.000000
# 4 0.000000 0.000000 0.000000 -0.055657 0.000000 -0.068734
# 5 -0.007765 0.019471 -0.000335 0.000000 0.050192 0.000000
# 6 0.000000 0.000000 0.000000 -0.068734 0.000000 -0.005916
#
#
# Mechanical properties :
#
#
# Convention : Reuss Voigt Hill
#
# Bulk Modulus (GPa) = 53.71962 65.34156 59.53059
# Shear Modulus (GPa) = 64.24005 21.37242 42.80623
#
# Velocity S-wave (km/s) = 5.41740 3.12475 4.42223
# Velocity P-wave (km/s) = 7.97953 6.54753 7.29874
#
# Compressibility (1/GPa) = 0.01861517
#
# Stress axis : x y z
#
# Youngs Moduli (GPa) = 64.25337 43.22460 82.54938
#
# Poissons Ratio (x) = 0.39981 0.00071
# Poissons Ratio (y) = 0.59431 0.56468
# Poissons Ratio (z) = 0.00055 0.29568
#
# Static dielectric constant tensor:
#      x y z
#    x 1.888620 0.000000 0.023510 
#    y 0.000000 1.837410 0.000000 
#    z 0.023510 0.000000 1.813750 
# 
# From -- ./inp_files/42298.got.cif
#   From: 2010.05.17/outbox.cif.g08.bks.cpg/sg12_22_cif.got.tgz:42298.got - 2010.06.03 13:09:07.
