data_PCOD9222647
_publ_section_title
;
Structure prediction by ZEFSAII (Michael W. Deem and Ramdas Pophale) SiO2 
 PCOD9222647
Probable space group: C 2/M
;
_chemical_formula_sum "Si O2"
_cell_formula_units_Z 48
_cell_length_a 28.179252
_cell_length_b 14.960198
_cell_length_c 5.447031
_cell_angle_alpha 90.000000
_cell_angle_beta 66.400685
_cell_angle_gamma 90.000000
_cell_volume 2104.245150
_symmetry_space_group_name_H-M "C 2/M"
_symmetry_group_IT_number 12
_symmetry_cell_setting 'monoclinic'
loop_
_space_group_symop_operation_xyz
x,y,z
-x,y,-z
-x,-y,-z
x,-y,z
1/2+x,1/2+y,z
1/2-x,1/2+y,-z
1/2-x,1/2-y,-z
1/2+x,1/2-y,z
loop_
_atom_site_type_symbol
_atom_site_label
_atom_site_fract_x
_atom_site_fract_y
_atom_site_fract_z
Si Si1 0.236121 0.195788 0.777324
Si Si2 0.586976 0.691680 0.560440
Si Si3 0.107413 0.595770 0.994810
Si Si4 0.877388 0.893264 0.008768
Si Si5 0.341177 0.136829 0.614613
Si Si6 0.491323 0.171050 0.767949
O O1 0.250000 0.250000 0.500000
O O2 0.281073 0.122468 0.689482
O O3 0.250000 0.250000 0.000000
O O4 0.178266 0.157990 0.888422
O O5 0.591458 0.633420 0.303593
O O6 0.634760 0.762607 0.447941
O O7 0.532419 0.747747 0.680399
O O8 0.594665 0.636277 0.795295
O O9 0.081096 0.500000 0.088312
O O10 0.129426 0.595494 0.677375
O O11 0.146870 0.604751 0.136600
O O12 0.070255 0.682048 0.098854
O O13 0.869243 0.000000 0.028818
O O14 0.500000 0.120391 0.500000
O O15 0.500000 0.119684 0.000000
#
# Coordination Sequence:
#
# PCOD9222647 Si02
#       6
#     8   8   8   8   8   8
#     4  12  23  41  72 103 134 180 234 273 325 415
#     4  12  23  44  72  97 132 179 236 272 330 416
#     4  12  26  43  64 104 146 178 224 284 342 398
#     4  12  26  45  71 104 138 174 223 294 348 387
#     4  12  23  43  70 101 135 191 229 268 329 412
#     4  12  23  40  69  99 125 186 228 273 330 408
#
# _framework density 22.811031
#
# number of rings (size 3 to 8) (size 9 to 14) (size 15 to 20)
#    0.000    0.000    6.667    4.000    0.000    2.000 
#    0.000    0.000    0.000   10.000    0.000    0.000 
#    0.000    0.000    0.000    0.000    0.000    0.000 
#
# Total GULP energy -133885.656912 kJ/mol
# GULP energy per Si atom -5578.569038 kJ/mol
# Density = 2.275911 g / cm^3
# Si number density = 22.811031 Si / 1000 Ang^3
#
#
#
# Elastic Constant Matrix: (Units=GPa)
#
#
# Indices 1 2 3 4 5 6 
#
# 1 124.7514 25.0935 28.6516 0.0000 8.1403 0.0000
# 2 25.0935 99.7280 41.7687 0.0000 11.7326 0.0000
# 3 28.6516 41.7687 115.9350 0.0000 34.0113 0.0000
# 4 0.0000 0.0000 0.0000 26.3819 0.0000 10.3637
# 5 8.1403 11.7326 34.0113 0.0000 61.3334 0.0000
# 6 0.0000 0.0000 0.0000 10.3637 0.0000 49.8843
#
#
#
# Elastic Compliance Matrix: (Units=1/GPa)
#
#
# Indices 1 2 3 4 5 6 
#
# 1 0.008689 -0.001515 -0.001610 0.000000 0.000029 0.000000
# 2 -0.001515 0.012074 -0.004009 0.000000 0.000115 0.000000
# 3 -0.001610 -0.004009 0.012158 0.000000 -0.005761 0.000000
# 4 0.000000 0.000000 0.000000 0.041273 0.000000 -0.008575
# 5 0.000029 0.000115 -0.005761 0.000000 0.019473 0.000000
# 6 0.000000 0.000000 0.000000 -0.008575 0.000000 0.021828
#
#
# Mechanical properties :
#
#
# Convention : Reuss Voigt Hill
#
# Bulk Modulus (GPa) = 53.61418 59.04910 56.33164
# Shear Modulus (GPa) = 36.76968 43.84662 40.30815
#
# Velocity S-wave (km/s) = 4.01923 4.38901 4.20819
# Velocity P-wave (km/s) = 6.71518 7.18519 6.95416
#
# Compressibility (1/GPa) = 0.01865178
#
# Stress axis : x y z
#
# Youngs Moduli (GPa) = 115.09342 82.82092 82.25025
#
# Poissons Ratio (x) = 0.12551 0.13242
# Poissons Ratio (y) = 0.17441 0.32976
# Poissons Ratio (z) = 0.18529 0.33205
#
# Static dielectric constant tensor:
#      x y z
#    x 1.952140 0.000000 0.028450 
#    y 0.000000 1.824650 0.000000 
#    z 0.028450 0.000000 1.987140 
# 
# From -- ./inp_files/31399.got.cif
#   From: 2010.05.17/outbox.cif.g08.bks.cpg/sg12_16_cif.got.tgz:31399.got - 2010.06.03 13:09:07.
