data_PCOD9222074
_publ_section_title
;
Structure prediction by ZEFSAII (Michael W. Deem and Ramdas Pophale) SiO2 
 PCOD9222074
Probable space group: C 2/M
;
_chemical_formula_sum "Si O2"
_cell_formula_units_Z 26
_cell_length_a 7.145416
_cell_length_b 14.635573
_cell_length_c 13.944908
_cell_angle_alpha 90.000000
_cell_angle_beta 38.165870
_cell_angle_gamma 90.000000
_cell_volume 901.154647
_symmetry_space_group_name_H-M "C 2/M"
_symmetry_group_IT_number 12
_symmetry_cell_setting 'monoclinic'
loop_
_space_group_symop_operation_xyz
x,y,z
-x,y,-z
-x,-y,-z
x,-y,z
1/2+x,1/2+y,z
1/2-x,1/2+y,-z
1/2-x,1/2-y,-z
1/2+x,1/2-y,z
loop_
_atom_site_type_symbol
_atom_site_label
_atom_site_fract_x
_atom_site_fract_y
_atom_site_fract_z
Si Si1 0.983473 0.864145 0.328917
Si Si2 0.215007 0.661343 0.245453
Si Si3 0.500000 0.500000 0.500000
Si Si4 0.159255 0.398883 0.059249
O O1 0.034276 0.755819 0.324085
O O2 0.321760 0.891381 0.155668
O O3 0.750997 0.879943 0.336036
O O4 0.925357 0.920527 0.447854
O O5 0.100487 0.607859 0.198448
O O6 0.574357 0.670910 0.074134
O O7 0.283305 0.500000 0.990720
#
# Coordination Sequence:
#
# PCOD9222074 Si02
#       4
#     8   8   2   8
#     4  12  25  47  68 100 143 187 234 282 337 410
#     4  11  24  42  75 105 139 180 223 290 362 409
#     4  12  32  48  68  96 138 198 248 276 328 404
#     4  11  24  42  72 116 142 170 223 290 361 427
#
# _framework density 28.851876000000001
#
# number of rings (size 3 to 8) (size 9 to 14) (size 15 to 20)
#    0.000    0.615    4.615    3.692    8.615    2.462 
#    0.000    1.538    0.000    0.000    0.000    0.000 
#    0.000    0.000    0.000    0.000    0.000    0.000 
#
# Total GULP energy -72637.550471 kJ/mol
# GULP energy per Si atom -5587.503882 kJ/mol
# Density = 2.878621 g / cm^3
# Si number density = 28.851876 Si / 1000 Ang^3
#
#
#
# Elastic Constant Matrix: (Units=GPa)
#
#
# Indices 1 2 3 4 5 6 
#
# 1 175.1643 26.9410 23.9894 -0.0128 45.2969 0.0044
# 2 26.9410 151.7946 11.7591 -0.0055 22.3596 -0.0009
# 3 23.9894 11.7591 160.4876 -0.0149 17.8957 -0.0031
# 4 -0.0128 -0.0055 -0.0149 -11.3934 0.0107 18.9281
# 5 45.2969 22.3596 17.8957 0.0107 66.8593 0.0013
# 6 0.0044 -0.0009 -0.0031 18.9281 0.0013 4.0249
#
#
#
# Elastic Compliance Matrix: (Units=1/GPa)
#
#
# Indices 1 2 3 4 5 6 
#
# 1 0.007009 -0.000552 -0.000514 -0.000003 -0.004426 0.000005
# 2 -0.000552 0.006983 -0.000217 0.000000 -0.001903 0.000003
# 3 -0.000514 -0.000217 0.006470 0.000000 -0.001311 0.000005
# 4 -0.000003 0.000000 0.000000 -0.009959 0.000002 0.046837
# 5 -0.004426 -0.001903 -0.001311 0.000002 0.018943 -0.000014
# 6 0.000005 0.000003 0.000005 0.046837 -0.000014 0.028192
#
#
# Mechanical properties :
#
#
# Convention : Reuss Voigt Hill
#
# Bulk Modulus (GPa) = 55.87739 68.09171 61.98455
# Shear Modulus (GPa) = 75.56450 40.21530 57.88990
#
# Velocity S-wave (km/s) = 5.12322 3.73749 4.48420
# Velocity P-wave (km/s) = 7.37601 6.50206 6.95278
#
# Compressibility (1/GPa) = 0.01789633
#
# Stress axis : x y z
#
# Youngs Moduli (GPa) = 142.67731 143.20514 154.56204
#
# Poissons Ratio (x) = 0.07907 0.07939
# Poissons Ratio (y) = 0.07878 0.03352
# Poissons Ratio (z) = 0.07328 0.03106
#
# Static dielectric constant tensor:
#      x y z
#    x 2.213220 0.000000 0.010960 
#    y 0.000000 2.139350 0.000000 
#    z 0.010960 0.000000 2.365070 
# 
# From -- ./inp_files/117305.got.cif
#   From: 2010.05.17/outbox.cif.g08.bks.cpg/sg12_59_cif.got.tgz:117305.got - 2010.06.03 13:09:07.
