data_PCOD9222059
_publ_section_title
;
Structure prediction by ZEFSAII (Michael W. Deem and Ramdas Pophale) SiO2 
 PCOD9222059
Probable space group: C 2/M
;
_chemical_formula_sum "Si O2"
_cell_formula_units_Z 40
_cell_length_a 10.424489
_cell_length_b 27.522485
_cell_length_c 8.025726
_cell_angle_alpha 90.000000
_cell_angle_beta 134.477786
_cell_angle_gamma 90.000000
_cell_volume 1642.987288
_symmetry_space_group_name_H-M "C 2/M"
_symmetry_group_IT_number 12
_symmetry_cell_setting 'monoclinic'
loop_
_space_group_symop_operation_xyz
x,y,z
-x,y,-z
-x,-y,-z
x,-y,z
1/2+x,1/2+y,z
1/2-x,1/2+y,-z
1/2-x,1/2-y,-z
1/2+x,1/2-y,z
loop_
_atom_site_type_symbol
_atom_site_label
_atom_site_fract_x
_atom_site_fract_y
_atom_site_fract_z
Si Si1 0.302939 0.195364 0.846606
Si Si2 0.385205 0.388157 0.530399
Si Si3 0.200259 0.699072 0.754145
Si Si4 0.662767 0.600025 0.061297
Si Si5 0.978245 0.443302 0.779357
O O1 0.180735 0.161014 0.621049
O O2 0.290996 0.251261 0.775318
O O3 0.500000 0.174598 0.000000
O O4 0.287554 0.198336 0.033143
O O5 0.500000 0.419687 0.500000
O O6 0.545967 0.379396 0.803204
O O7 0.207863 0.415947 0.430656
O O8 0.000000 0.700599 0.500000
O O9 0.282790 0.647320 0.781270
O O10 0.500000 0.569547 0.000000
O O11 0.845728 0.576680 0.157923
O O12 0.960960 0.500000 0.723106
O O13 0.000000 0.438666 0.000000
#
# Coordination Sequence:
#
# PCOD9222059 Si02
#       5
#     8   8   8   8   8
#     4  11  24  42  68 102 142 195 251 302 355 429
#     4  12  23  46  77 104 147 194 246 305 366 435
#     4  11  25  42  65 101 148 194 247 300 358 435
#     4  12  28  46  72 110 153 194 241 308 379 433
#     4  11  25  48  79 112 142 189 252 309 371 448
#
# _framework density 24.345898999999999
#
# number of rings (size 3 to 8) (size 9 to 14) (size 15 to 20)
#    0.000    0.600    4.000    3.000    8.400    2.400 
#    0.000    1.000    0.000    0.000    0.000    0.000 
#    0.000    0.000    0.000    0.000    0.000    0.000 
#
# Total GULP energy -111645.375506 kJ/mol
# GULP energy per Si atom -5582.268775 kJ/mol
# Density = 2.429049 g / cm^3
# Si number density = 24.345899 Si / 1000 Ang^3
#
#
#
# Elastic Constant Matrix: (Units=GPa)
#
#
# Indices 1 2 3 4 5 6 
#
# 1 134.1539 60.6743 11.4428 0.0000 46.5593 0.0000
# 2 60.6743 161.0424 60.5114 0.0000 26.0465 0.0000
# 3 11.4428 60.5114 141.2907 0.0000 42.1318 0.0000
# 4 0.0000 0.0000 0.0000 1579.7040 0.0000-1452.3870
# 5 46.5593 26.0465 42.1318 0.0000 50.5407 0.0000
# 6 0.0000 0.0000 0.0000-1452.3870 0.0000 1379.5474
#
#
#
# Elastic Compliance Matrix: (Units=1/GPa)
#
#
# Indices 1 2 3 4 5 6 
#
# 1 0.014733 -0.005154 0.005682 0.000000 -0.015652 0.000000
# 2 -0.005154 0.009297 -0.004726 0.000000 0.003897 0.000000
# 3 0.005682 -0.004726 0.012611 0.000000 -0.013311 0.000000
# 4 0.000000 0.000000 0.000000 0.019751 0.000000 0.020793
# 5 -0.015652 0.003897 -0.013311 0.000000 0.043294 0.000000
# 6 0.000000 0.000000 0.000000 0.020793 0.000000 0.022616
#
#
# Mechanical properties :
#
#
# Convention : Reuss Voigt Hill
#
# Bulk Modulus (GPa) = 35.40649 77.97157 56.68903
# Shear Modulus (GPa) = 35.68551 622.21564 328.95058
#
# Velocity S-wave (km/s) = 3.83269 16.00400 11.63653
# Velocity P-wave (km/s) = 5.84472 19.32873 14.27867
#
# Compressibility (1/GPa) = 0.02824341
#
# Stress axis : x y z
#
# Youngs Moduli (GPa) = 67.87551 107.56134 79.29685
#
# Poissons Ratio (x) = 0.55437 -0.45053
# Poissons Ratio (y) = 0.34983 0.37477
# Poissons Ratio (z) = -0.38564 0.50836
#
# Static dielectric constant tensor:
#      x y z
#    x 2.183230 0.000000 -0.109610 
#    y 0.000000 1.917670 0.000000 
#    z -0.109610 0.000000 1.935060 
# 
# From -- ./inp_files/54463.got.cif
#   From: 2010.05.17/outbox.cif.g08.bks.cpg/sg12_28_cif.got.tgz:54463.got - 2010.06.03 13:09:07.
