data_PCOD9222434
_publ_section_title
;
Structure prediction by ZEFSAII (Michael W. Deem and Ramdas Pophale) SiO2 
 PCOD9222434
Probable space group: C 2/M
;
_chemical_formula_sum "Si O2"
_cell_formula_units_Z 32
_cell_length_a 9.825293
_cell_length_b 15.771325
_cell_length_c 8.760671
_cell_angle_alpha 90.000000
_cell_angle_beta 61.297917
_cell_angle_gamma 90.000000
_cell_volume 1190.732991
_symmetry_space_group_name_H-M "C 2/M"
_symmetry_group_IT_number 12
_symmetry_cell_setting 'monoclinic'
loop_
_space_group_symop_operation_xyz
x,y,z
-x,y,-z
-x,-y,-z
x,-y,z
1/2+x,1/2+y,z
1/2-x,1/2+y,-z
1/2-x,1/2-y,-z
1/2+x,1/2-y,z
loop_
_atom_site_type_symbol
_atom_site_label
_atom_site_fract_x
_atom_site_fract_y
_atom_site_fract_z
Si Si1 0.382119 0.650646 0.431822
Si Si2 0.294854 0.000000 0.291234
Si Si3 0.424949 0.276352 0.879838
Si Si4 0.173587 0.500000 0.087860
Si Si5 0.870419 0.356178 0.673281
O O1 0.500000 0.683720 0.500000
O O2 0.287166 0.578649 0.575634
O O3 0.516698 0.637280 0.229148
O O4 0.251345 0.686007 0.380609
O O5 0.483056 0.000000 0.199551
O O6 0.276883 0.000000 0.115573
O O7 0.467934 0.204567 0.732881
O O8 0.500000 0.263046 0.000000
O O9 0.250000 0.250000 0.000000
O O10 0.219476 0.419079 0.165284
O O11 0.000000 0.400653 0.500000
#
# Coordination Sequence:
#
# PCOD9222434 Si02
#       5
#     8   4   8   4   8
#     4  12  28  50  77 116 159 204 263 327 396 457
#     4  11  26  51  79 119 156 211 252 330 391 474
#     4  12  29  50  76 115 156 209 266 324 392 468
#     4  11  26  48  86 114 157 205 268 308 399 484
#     4  12  26  49  80 113 156 209 259 323 395 472
#
# _framework density 26.874203999999999
#
# number of rings (size 3 to 8) (size 9 to 14) (size 15 to 20)
#    0.000    0.250    5.000    2.250   10.500    2.000 
#    0.000    1.875    0.000    0.000    0.000    0.000 
#    0.000    0.000    0.000    0.000    0.000    0.000 
#
# Total GULP energy -89083.034684 kJ/mol
# GULP energy per Si atom -5567.689668 kJ/mol
# Density = 2.681304 g / cm^3
# Si number density = 26.874204 Si / 1000 Ang^3
#
#
#
# Elastic Constant Matrix: (Units=GPa)
#
#
# Indices 1 2 3 4 5 6 
#
# 1 213.2049 39.8021 103.9019 0.0000 42.0145 0.0000
# 2 39.8021 54.8238 64.9000 0.0000 24.6221 0.0000
# 3 103.9019 64.9000 257.5696 0.0000 16.9896 0.0000
# 4 0.0000 0.0000 0.0000 53.2670 0.0000 0.8121
# 5 42.0145 24.6221 16.9896 0.0000 82.0989 0.0000
# 6 0.0000 0.0000 0.0000 0.8121 0.0000 30.9787
#
#
#
# Elastic Compliance Matrix: (Units=1/GPa)
#
#
# Indices 1 2 3 4 5 6 
#
# 1 0.006438 -0.000924 -0.002195 0.000000 -0.002563 0.000000
# 2 -0.000924 0.030108 -0.006741 0.000000 -0.007162 0.000000
# 3 -0.002195 -0.006741 0.006346 0.000000 0.001832 0.000000
# 4 0.000000 0.000000 0.000000 0.018781 0.000000 -0.000492
# 5 -0.002563 -0.007162 0.001832 0.000000 0.015261 0.000000
# 6 0.000000 0.000000 0.000000 -0.000492 0.000000 0.032293
#
#
# Mechanical properties :
#
#
# Convention : Reuss Voigt Hill
#
# Bulk Modulus (GPa) = 43.15855 104.75626 73.95741
# Shear Modulus (GPa) = 36.58461 54.40187 45.49324
#
# Velocity S-wave (km/s) = 3.69362 4.50412 4.11886
# Velocity P-wave (km/s) = 5.85532 8.13107 7.08516
#
# Compressibility (1/GPa) = 0.02317038
#
# Stress axis : x y z
#
# Youngs Moduli (GPa) = 155.33690 33.21423 157.58990
#
# Poissons Ratio (x) = 0.03070 0.34590
# Poissons Ratio (y) = 0.14357 1.06232
# Poissons Ratio (z) = 0.34096 0.22390
#
# Static dielectric constant tensor:
#      x y z
#    x 2.097900 0.000000 -0.068680 
#    y 0.000000 2.293340 0.000000 
#    z -0.068680 0.000000 2.129260 
# 
# From -- ./inp_files/46481.got.cif
#   From: 2010.05.17/outbox.cif.g08.bks.cpg/sg12_24_cif.got.tgz:46481.got - 2010.06.03 13:09:07.
