data_PCOD9222847
_publ_section_title
;
Structure prediction by ZEFSAII (Michael W. Deem and Ramdas Pophale) SiO2 
 PCOD9222847
Probable space group: C 2/M
;
_chemical_formula_sum "Si O2"
_cell_formula_units_Z 48
_cell_length_a 29.133524
_cell_length_b 7.361355
_cell_length_c 11.834949
_cell_angle_alpha 90.000000
_cell_angle_beta 102.701517
_cell_angle_gamma 90.000000
_cell_volume 2476.037592
_symmetry_space_group_name_H-M "C 2/M"
_symmetry_group_IT_number 12
_symmetry_cell_setting 'monoclinic'
loop_
_space_group_symop_operation_xyz
x,y,z
-x,y,-z
-x,-y,-z
x,-y,z
1/2+x,1/2+y,z
1/2-x,1/2+y,-z
1/2-x,1/2-y,-z
1/2+x,1/2-y,z
loop_
_atom_site_type_symbol
_atom_site_label
_atom_site_fract_x
_atom_site_fract_y
_atom_site_fract_z
Si Si1 0.762645 0.785668 0.875545
Si Si2 0.838168 0.277193 0.220685
Si Si3 0.427702 0.220981 0.405728
Si Si4 0.023526 0.721289 0.339673
Si Si5 0.135742 0.709074 0.016222
Si Si6 0.545017 0.777985 0.098799
O O1 0.715722 0.718656 0.786925
O O2 0.815041 0.711645 0.889176
O O3 0.766303 0.000000 0.859579
O O4 0.750000 0.750000 0.000000
O O5 0.836981 0.500000 0.217709
O O6 0.877527 0.220071 0.330961
O O7 0.854069 0.215107 0.103551
O O8 0.470586 0.275310 0.346349
O O9 0.442339 0.278141 0.539532
O O10 0.427248 0.000000 0.405533
O O11 0.023589 0.500000 0.339053
O O12 0.038607 0.782736 0.224259
O O13 0.122857 0.500000 0.987627
O O14 0.092643 0.786337 0.063875
O O15 0.546153 0.000000 0.103041
O O16 0.500000 0.726704 0.000000
#
# Coordination Sequence:
#
# PCOD9222847 Si02
#       6
#     8   8   8   8   8   8
#     4   9  16  26  40  58  79 103 131 162 197 232
#     4   8  13  21  34  51  70  95 125 154 187 227
#     4   8  12  19  31  48  72  97 123 157 193 230
#     4   8  13  19  29  48  73 100 125 153 193 231
#     4   9  16  25  38  57  81 106 129 157 195 234
#     4   9  15  22  34  53  77 104 132 159 190 232
#
# _framework density 19.385812000000001
#
# number of rings (size 3 to 8) (size 9 to 14) (size 15 to 20)
#    0.000    3.500    0.000    3.500    0.000    4.000 
#    0.000    0.000    0.000    1.500    0.000    0.000 
#    0.000    5.333    0.000   62.000    0.000   50.667 
#
# Total GULP energy -133719.370966 kJ/mol
# GULP energy per Si atom -5571.640457 kJ/mol
# Density = 1.934169 g / cm^3
# Si number density = 19.385812 Si / 1000 Ang^3
#
#
#
# Elastic Constant Matrix: (Units=GPa)
#
#
# Indices 1 2 3 4 5 6 
#
# 1 161.5046 -5.0368 77.5938 0.0000 18.7485 0.0000
# 2 -5.0368 66.7699 -1.9695 0.0000 -4.0154 0.0000
# 3 77.5938 -1.9695 98.1627 0.0000 11.8011 0.0000
# 4 0.0000 0.0000 0.0000 -4.7425 0.0000 5.1856
# 5 18.7485 -4.0154 11.8011 0.0000 35.6771 0.0000
# 6 0.0000 0.0000 0.0000 5.1856 0.0000 2.0167
#
#
#
# Elastic Compliance Matrix: (Units=1/GPa)
#
#
# Indices 1 2 3 4 5 6 
#
# 1 0.010258 0.000378 -0.007767 0.000000 -0.002779 0.000000
# 2 0.000378 0.015094 -0.000183 0.000000 0.001561 0.000000
# 3 -0.007767 -0.000183 0.016490 0.000000 -0.001394 0.000000
# 4 0.000000 0.000000 0.000000 -0.055321 0.000000 0.142249
# 5 -0.002779 0.001561 -0.001394 0.000000 0.030126 0.000000
# 6 0.000000 0.000000 0.000000 0.142249 0.000000 0.130094
#
#
# Mechanical properties :
#
#
# Convention : Reuss Voigt Hill
#
# Bulk Modulus (GPa) = 37.45736 51.95690 44.70713
# Shear Modulus (GPa) = 29.27671 23.64690 26.46180
#
# Velocity S-wave (km/s) = 3.89036 3.49636 3.69861
# Velocity P-wave (km/s) = 6.28839 6.56956 6.43051
#
# Compressibility (1/GPa) = 0.02669703
#
# Stress axis : x y z
#
# Youngs Moduli (GPa) = 97.48953 66.25250 60.64213
#
# Poissons Ratio (x) = -0.02501 0.47098
# Poissons Ratio (y) = -0.03681 0.01111
# Poissons Ratio (z) = 0.75715 0.01214
#
# Static dielectric constant tensor:
#      x y z
#    x 1.681720 0.000000 0.023410 
#    y 0.000000 1.768770 0.000000 
#    z 0.023410 0.000000 1.651450 
# 
# From -- ./inp_files/179158.got.cif
#   From: 2010.05.17/outbox.cif.g08.bks.cpg/sg12_90_cif.got.tgz:179158.got - 2010.06.03 13:09:07.
