data_PCOD9222175
_publ_section_title
;
Structure prediction by ZEFSAII (Michael W. Deem and Ramdas Pophale) SiO2 
 PCOD9222175
Probable space group: C 2/M
;
_chemical_formula_sum "Si O2"
_cell_formula_units_Z 24
_cell_length_a 12.275902
_cell_length_b 22.629928
_cell_length_c 5.117869
_cell_angle_alpha 90.000000
_cell_angle_beta 36.654806
_cell_angle_gamma 90.000000
_cell_volume 848.779046
_symmetry_space_group_name_H-M "C 2/M"
_symmetry_group_IT_number 12
_symmetry_cell_setting 'monoclinic'
loop_
_space_group_symop_operation_xyz
x,y,z
-x,y,-z
-x,-y,-z
x,-y,z
1/2+x,1/2+y,z
1/2-x,1/2+y,-z
1/2-x,1/2-y,-z
1/2+x,1/2-y,z
loop_
_atom_site_type_symbol
_atom_site_label
_atom_site_fract_x
_atom_site_fract_y
_atom_site_fract_z
Si Si1 0.618439 0.000000 0.451745
Si Si2 0.712666 0.181125 0.033993
Si Si3 0.274115 0.609720 0.404920
Si Si4 0.625210 0.500000 0.441951
O O1 0.631862 0.936595 0.554459
O O2 0.377843 0.000000 0.877289
O O3 0.880006 0.000000 0.870055
O O4 0.500000 0.170278 0.500000
O O5 0.826515 0.145317 0.038306
O O6 0.750000 0.250000 0.000000
O O7 0.735393 0.160155 0.691922
O O8 0.368576 0.561663 0.418386
#
# Coordination Sequence:
#
# PCOD9222175 Si02
#       4
#     4   8   8   4
#     4  11  24  44  76 109 144 185 231 289 366 436
#     4  12  27  49  73 105 141 190 245 297 351 420
#     4  11  25  46  74 105 145 186 234 289 357 428
#     4  11  26  46  71 114 148 185 231 297 362 424
#
# _framework density 28.275908999999999
#
# number of rings (size 3 to 8) (size 9 to 14) (size 15 to 20)
#    0.000    0.667    3.333    3.000    4.667    5.333 
#    6.000    2.500    0.000    0.000    0.000    0.000 
#    0.000    0.000    0.000    0.000    0.000    0.000 
#
# Total GULP energy -66950.214481 kJ/mol
# GULP energy per Si atom -5579.184540 kJ/mol
# Density = 2.821155 g / cm^3
# Si number density = 28.275909 Si / 1000 Ang^3
#
#
#
# Elastic Constant Matrix: (Units=GPa)
#
#
# Indices 1 2 3 4 5 6 
#
# 1 219.2447 120.2964 38.3405 0.0000 25.1075 0.0000
# 2 120.2964 261.7707 33.4160 0.0000 30.2329 0.0000
# 3 38.3405 33.4160 158.7883 0.0000 38.4717 0.0000
# 4 0.0000 0.0000 0.0000 442.0467 0.0000 -140.7835
# 5 25.1075 30.2329 38.4717 0.0000 67.2104 0.0000
# 6 0.0000 0.0000 0.0000 -140.7835 0.0000 128.7354
#
#
#
# Elastic Compliance Matrix: (Units=1/GPa)
#
#
# Indices 1 2 3 4 5 6 
#
# 1 0.006254 -0.002697 -0.000778 0.000000 -0.000678 0.000000
# 2 -0.002697 0.005223 -0.000143 0.000000 -0.001260 0.000000
# 3 -0.000778 -0.000143 0.007465 0.000000 -0.003918 0.000000
# 4 0.000000 0.000000 0.000000 0.003471 0.000000 0.003796
# 5 -0.000678 -0.001260 -0.003918 0.000000 0.017942 0.000000
# 6 0.000000 0.000000 0.000000 0.003796 0.000000 0.011919
#
#
# Mechanical properties :
#
#
# Convention : Reuss Voigt Hill
#
# Bulk Modulus (GPa) = 85.41818 113.76774 99.59296
# Shear Modulus (GPa) = 78.84919 157.44855 118.14887
#
# Velocity S-wave (km/s) = 5.28641 7.47019 6.47109
# Velocity P-wave (km/s) = 8.21803 10.71108 9.54629
#
# Compressibility (1/GPa) = 0.01170711
#
# Stress axis : x y z
#
# Youngs Moduli (GPa) = 159.88640 191.45620 133.95935
#
# Poissons Ratio (x) = 0.51627 0.10428
# Poissons Ratio (y) = 0.43114 0.01911
# Poissons Ratio (z) = 0.12447 0.02732
#
# Static dielectric constant tensor:
#      x y z
#    x 3.392780 0.000000 -1.566910 
#    y 0.000000 1.943410 0.000000 
#    z -1.566910 0.000000 4.198980 
# 
# From -- ./inp_files/11075.got.cif
#   From: 2010.05.17/outbox.cif.g08.bks.cpg/sg12_6_cif.got.tgz:11075.got - 2010.06.03 13:09:07.
