data_PCOD9222732
_publ_section_title
;
Structure prediction by ZEFSAII (Michael W. Deem and Ramdas Pophale) SiO2 
 PCOD9222732
Probable space group: C 2/M
;
_chemical_formula_sum "Si O2"
_cell_formula_units_Z 38
_cell_length_a 14.436729
_cell_length_b 14.143573
_cell_length_c 8.673132
_cell_angle_alpha 90.000000
_cell_angle_beta 67.498451
_cell_angle_gamma 90.000000
_cell_volume 1636.117082
_symmetry_space_group_name_H-M "C 2/M"
_symmetry_group_IT_number 12
_symmetry_cell_setting 'monoclinic'
loop_
_space_group_symop_operation_xyz
x,y,z
-x,y,-z
-x,-y,-z
x,-y,z
1/2+x,1/2+y,z
1/2-x,1/2+y,-z
1/2-x,1/2-y,-z
1/2+x,1/2-y,z
loop_
_atom_site_type_symbol
_atom_site_label
_atom_site_fract_x
_atom_site_fract_y
_atom_site_fract_z
Si Si1 0.660292 0.000000 0.138804
Si Si2 0.253859 0.296015 0.670267
Si Si3 0.306930 0.500000 0.295832
Si Si4 0.062825 0.693933 0.313593
Si Si5 0.500000 0.000000 0.000000
Si Si6 0.170624 0.500000 0.662404
Si Si7 0.425403 0.318333 0.178947
O O1 0.622026 0.896834 0.217661
O O2 0.613604 0.000000 0.996960
O O3 0.773628 0.000000 0.136894
O O4 0.250000 0.250000 0.500000
O O5 0.359565 0.272671 0.676717
O O6 0.224173 0.404240 0.681877
O O7 0.168016 0.242736 0.822875
O O8 0.202803 0.500000 0.458902
O O9 0.373750 0.408432 0.290427
O O10 0.000000 0.661232 0.500000
O O11 0.987629 0.744253 0.242716
O O12 0.446249 0.000000 0.211504
O O13 0.500000 0.352067 0.000000
#
# Coordination Sequence:
#
# PCOD9222732 Si02
#       7
#     4   8   4   8   2   4   8
#     4  12  27  45  72 110 151 196 250 310 376 449
#     4  12  24  47  74 109 148 200 255 311 371 449
#     4  12  25  54  79 102 154 212 246 303 380 463
#     4  12  25  45  78 109 145 204 256 302 383 454
#     4  12  32  42  72 122 148 188 252 326 376 436
#     4  12  26  47  73 107 160 190 254 320 375 445
#     4  12  28  47  75 113 152 198 258 312 369 451
#
# _framework density 23.225724
#
# number of rings (size 3 to 8) (size 9 to 14) (size 15 to 20)
#    0.000    0.000    6.316    1.895    8.842    3.368 
#    0.000    2.105    0.000    0.000    0.000    0.000 
#    0.000    0.000    0.000    0.000    0.000    0.000 
#
# Total GULP energy -105949.169142 kJ/mol
# GULP energy per Si atom -5576.272060 kJ/mol
# Density = 2.317286 g / cm^3
# Si number density = 23.225724 Si / 1000 Ang^3
#
#
#
# Elastic Constant Matrix: (Units=GPa)
#
#
# Indices 1 2 3 4 5 6 
#
# 1 67.6901 4.5851 2.3601 0.0000 -9.4684 0.0000
# 2 4.5851 161.5391 2.8206 0.0000 -12.1711 0.0000
# 3 2.3601 2.8206 71.8352 0.0000 -26.6642 0.0000
# 4 0.0000 0.0000 0.0000 16.0048 0.0000 -6.6768
# 5 -9.4684 -12.1711 -26.6642 0.0000 32.9110 0.0000
# 6 0.0000 0.0000 0.0000 -6.6768 0.0000 32.0253
#
#
#
# Elastic Compliance Matrix: (Units=1/GPa)
#
#
# Indices 1 2 3 4 5 6 
#
# 1 0.015527 -0.000034 0.001637 0.000000 0.005781 0.000000
# 2 -0.000034 0.006408 0.000895 0.000000 0.003085 0.000000
# 3 0.001637 0.000895 0.020206 0.000000 0.017173 0.000000
# 4 0.000000 0.000000 0.000000 0.068433 0.000000 0.014267
# 5 0.005781 0.003085 0.017173 0.000000 0.047102 0.000000
# 6 0.000000 0.000000 0.000000 0.014267 0.000000 0.034200
#
#
# Mechanical properties :
#
#
# Convention : Reuss Voigt Hill
#
# Bulk Modulus (GPa) = 21.21477 35.62177 28.41827
# Shear Modulus (GPa) = 24.68001 35.60813 30.14407
#
# Velocity S-wave (km/s) = 3.26331 3.91977 3.60651
# Velocity P-wave (km/s) = 4.83249 5.98804 5.44103
#
# Compressibility (1/GPa) = 0.04713698
#
# Stress axis : x y z
#
# Youngs Moduli (GPa) = 64.40377 156.04951 49.49006
#
# Poissons Ratio (x) = 0.00527 -0.08101
# Poissons Ratio (y) = 0.00217 -0.04427
# Poissons Ratio (z) = -0.10543 -0.13960
#
# Static dielectric constant tensor:
#      x y z
#    x 1.833630 0.000000 0.005070 
#    y 0.000000 1.919780 0.000000 
#    z 0.005070 0.000000 2.006190 
# 
# From -- ./inp_files/59029.got.cif
#   From: 2010.05.17/outbox.cif.g08.bks.cpg/sg12_30_cif.got.tgz:59029.got - 2010.06.03 13:09:07.
