data_PCOD9222680
_publ_section_title
;
Structure prediction by ZEFSAII (Michael W. Deem and Ramdas Pophale) SiO2 
 PCOD9222680
Probable space group: C 2/M
;
_chemical_formula_sum "Si O2"
_cell_formula_units_Z 38
_cell_length_a 14.168929
_cell_length_b 23.835662
_cell_length_c 5.152089
_cell_angle_alpha 90.000000
_cell_angle_beta 94.685518
_cell_angle_gamma 90.000000
_cell_volume 1734.178449
_symmetry_space_group_name_H-M "C 2/M"
_symmetry_group_IT_number 12
_symmetry_cell_setting 'monoclinic'
loop_
_space_group_symop_operation_xyz
x,y,z
-x,y,-z
-x,-y,-z
x,-y,z
1/2+x,1/2+y,z
1/2-x,1/2+y,-z
1/2-x,1/2-y,-z
1/2+x,1/2-y,z
loop_
_atom_site_type_symbol
_atom_site_label
_atom_site_fract_x
_atom_site_fract_y
_atom_site_fract_z
Si Si1 0.063710 0.500000 0.760991
Si Si2 0.000000 0.000000 0.500000
Si Si3 0.780708 0.408696 0.152344
Si Si4 0.309880 0.272265 0.264430
Si Si5 0.439013 0.822844 0.241743
Si Si6 0.662018 0.593544 0.636845
O O1 0.132834 0.448248 0.765866
O O2 0.000000 0.500000 0.500000
O O3 0.000000 0.500000 0.000000
O O4 0.072632 0.051064 0.627485
O O5 0.836041 0.350270 0.179620
O O6 0.700909 0.411551 0.353186
O O7 0.738238 0.425956 0.867478
O O8 0.250000 0.250000 0.500000
O O9 0.411126 0.241499 0.278340
O O10 0.335046 0.338941 0.295081
O O11 0.250000 0.250000 0.000000
O O12 0.500000 0.843548 0.500000
O O13 0.500000 0.832101 0.000000
#
# Coordination Sequence:
#
# PCOD9222680 Si02
#       6
#     4   2   8   8   8   8
#     4  12  24  41  66 103 140 179 232 285 352 444
#     4  12  32  52  76 114 148 202 268 314 384 454
#     4  12  24  46  72  99 142 193 234 297 378 441
#     4  12  23  47  71 105 143 197 248 305 384 448
#     4  12  24  40  69 109 147 182 242 308 373 449
#     4  12  26  49  73 102 143 194 250 309 367 462
#
# _framework density 21.912393000000002
#
# number of rings (size 3 to 8) (size 9 to 14) (size 15 to 20)
#    0.000    0.000    4.211    6.316    1.474    1.684 
#    0.000    0.000    0.000    0.000    0.000    0.000 
#    0.000    0.000    0.000    0.000    0.000    0.000 
#
# Total GULP energy -105767.907531 kJ/mol
# GULP energy per Si atom -5566.731975 kJ/mol
# Density = 2.186252 g / cm^3
# Si number density = 21.912393 Si / 1000 Ang^3
#
#
#
# Elastic Constant Matrix: (Units=GPa)
#
#
# Indices 1 2 3 4 5 6 
#
# 1 61.1048 32.8708 40.9664 0.0000 34.5680 0.0000
# 2 32.8708 153.3224 22.9923 0.0000 24.3325 0.0000
# 3 40.9664 22.9923 108.8715 0.0000 2.1785 0.0000
# 4 0.0000 0.0000 0.0000 23.4033 0.0000 -11.5638
# 5 34.5680 24.3325 2.1785 0.0000 45.6288 0.0000
# 6 0.0000 0.0000 0.0000 -11.5638 0.0000 280.6416
#
#
#
# Elastic Compliance Matrix: (Units=1/GPa)
#
#
# Indices 1 2 3 4 5 6 
#
# 1 0.049044 -0.002361 -0.017254 0.000000 -0.035073 0.000000
# 2 -0.002361 0.007469 -0.000646 0.000000 -0.002163 0.000000
# 3 -0.017254 -0.000646 0.015560 0.000000 0.012673 0.000000
# 4 0.000000 0.000000 0.000000 0.043617 0.000000 0.001797
# 5 -0.035073 -0.002163 0.012673 0.000000 0.049035 0.000000
# 6 0.000000 0.000000 0.000000 0.001797 0.000000 0.003637
#
#
# Mechanical properties :
#
#
# Convention : Reuss Voigt Hill
#
# Bulk Modulus (GPa) = 31.69400 57.43973 44.56686
# Shear Modulus (GPa) = 22.78929 85.03269 53.91099
#
# Velocity S-wave (km/s) = 3.22843 6.23618 4.96552
# Velocity P-wave (km/s) = 5.32845 8.83875 7.29781
#
# Compressibility (1/GPa) = 0.03155172
#
# Stress axis : x y z
#
# Youngs Moduli (GPa) = 20.38973 133.89564 64.26623
#
# Poissons Ratio (x) = 0.31614 1.10885
# Poissons Ratio (y) = 0.04814 0.04149
# Poissons Ratio (z) = 0.35181 0.08643
#
# Static dielectric constant tensor:
#      x y z
#    x 1.747210 0.000000 -0.010350 
#    y 0.000000 0.875200 0.000000 
#    z -0.010350 0.000000 1.773310 
# 
# From -- ./inp_files/7761.got.cif
#   From: 2010.05.17/outbox.cif.g08.bks.cpg/sg12_4_cif.got.tgz:7761.got - 2010.06.03 13:09:07.
