data_PCOD9222001
_publ_section_title
;
Structure prediction by ZEFSAII (Michael W. Deem and Ramdas Pophale) SiO2 
 PCOD9222001
Probable space group: C 2/M
;
_chemical_formula_sum "Si O2"
_cell_formula_units_Z 28
_cell_length_a 26.065675
_cell_length_b 9.998958
_cell_length_c 27.239651
_cell_angle_alpha 90.000000
_cell_angle_beta 10.547227
_cell_angle_gamma 90.000000
_cell_volume 1299.527070
_symmetry_space_group_name_H-M "C 2/M"
_symmetry_group_IT_number 12
_symmetry_cell_setting 'monoclinic'
loop_
_space_group_symop_operation_xyz
x,y,z
-x,y,-z
-x,-y,-z
x,-y,z
1/2+x,1/2+y,z
1/2-x,1/2+y,-z
1/2-x,1/2-y,-z
1/2+x,1/2-y,z
loop_
_atom_site_type_symbol
_atom_site_label
_atom_site_fract_x
_atom_site_fract_y
_atom_site_fract_z
Si Si1 0.184641 0.000000 0.278868
Si Si2 0.173886 0.650941 0.385336
Si Si3 0.714318 0.264038 0.177415
Si Si4 0.962730 0.835491 0.765730
O O1 0.132216 0.876074 0.293567
O O2 0.000000 0.000000 0.500000
O O3 0.500000 0.000000 0.000000
O O4 0.269564 0.500000 0.284894
O O5 0.000000 0.691204 0.500000
O O6 0.982701 0.649632 0.614233
O O7 0.456825 0.733847 0.127354
O O8 0.640938 0.313615 0.192475
O O9 0.250000 0.750000 0.500000
O O10 0.980278 0.000000 0.758912
O O11 0.750000 0.750000 0.000000
#
# Coordination Sequence:
#
# PCOD9222001 Si02
#       4
#     4   8   8   8
#     4  12  24  40  68 100 136 176 220 276 349 422
#     4  11  24  41  66 101 144 186 228 281 352 440
#     4  12  24  44  68  99 139 179 236 289 357 425
#     4  12  28  50  76 106 146 193 253 319 378 441
#
# _framework density 21.546299999999999
#
# number of rings (size 3 to 8) (size 9 to 14) (size 15 to 20)
#    0.000    0.286    1.429    8.571    0.000    9.143 
#    0.000    0.000    0.000    0.000    0.000    0.000 
#    0.000    0.000    0.000    0.000    0.000    0.000 
#
# Total GULP energy -78160.250174 kJ/mol
# GULP energy per Si atom -5582.875012 kJ/mol
# Density = 2.149726 g / cm^3
# Si number density = 21.546300 Si / 1000 Ang^3
#
#
#
# Elastic Constant Matrix: (Units=GPa)
#
#
# Indices 1 2 3 4 5 6 
#
# 1 166.9915 71.1170 73.8211 0.0021 13.6590 0.0709
# 2 71.1170 169.7936 59.1676 0.0561 -1.5895 -0.1110
# 3 73.8211 59.1676 196.0494 0.1335 3.9469 -0.0591
# 4 0.0021 0.0561 0.1335 25.6842 0.0890 10.6683
# 5 13.6590 -1.5895 3.9469 0.0890 43.9070 0.1227
# 6 0.0709 -0.1110 -0.0591 10.6683 0.1227 15.2289
#
#
#
# Elastic Compliance Matrix: (Units=1/GPa)
#
#
# Indices 1 2 3 4 5 6 
#
# 1 0.008362 -0.002733 -0.002273 0.000064 -0.002496 -0.000093
# 2 -0.002733 0.007483 -0.001254 -0.000050 0.001234 0.000088
# 3 -0.002273 -0.001254 0.006333 -0.000058 0.000092 0.000066
# 4 0.000064 -0.000050 -0.000058 0.054914 -0.000020 -0.038469
# 5 -0.002496 0.001234 0.000092 -0.000020 0.023589 -0.000155
# 6 -0.000093 0.000088 0.000066 -0.038469 -0.000155 0.092616
#
#
# Mechanical properties :
#
#
# Convention : Reuss Voigt Hill
#
# Bulk Modulus (GPa) = 103.55667 104.56065 104.05866
# Shear Modulus (GPa) = 23.91923 38.87926 31.39924
#
# Velocity S-wave (km/s) = 3.33548 4.25249 3.82159
# Velocity P-wave (km/s) = 7.93729 8.52909 8.23850
#
# Compressibility (1/GPa) = 0.00965655
#
# Stress axis : x y z
#
# Youngs Moduli (GPa) = 119.59471 133.63723 157.89321
#
# Poissons Ratio (x) = 0.36529 0.35895
# Poissons Ratio (y) = 0.32691 0.19798
# Poissons Ratio (z) = 0.27188 0.16756
#
# Static dielectric constant tensor:
#      x y z
#    x 1.728860 0.000610 0.005950 
#    y 0.000610 2.580290 0.001860 
#    z 0.005950 0.001860 1.765830 
# 
# From -- ./inp_files/369328.got.cif
#   From: 2010.05.17/outbox.cif.g08.bks.cpg/sg12_185_cif.got.tgz:369328.got - 2010.06.03 13:09:07.
