data_PCOD9222370
_publ_section_title
;
Structure prediction by ZEFSAII (Michael W. Deem and Ramdas Pophale) SiO2 
 PCOD9222370
Probable space group: C 2/M
;
_chemical_formula_sum "Si O2"
_cell_formula_units_Z 20
_cell_length_a 5.166550
_cell_length_b 28.675353
_cell_length_c 5.088515
_cell_angle_alpha 90.000000
_cell_angle_beta 86.768168
_cell_angle_gamma 90.000000
_cell_volume 752.677989
_symmetry_space_group_name_H-M "C 2/M"
_symmetry_group_IT_number 12
_symmetry_cell_setting 'monoclinic'
loop_
_space_group_symop_operation_xyz
x,y,z
-x,y,-z
-x,-y,-z
x,-y,z
1/2+x,1/2+y,z
1/2-x,1/2+y,-z
1/2-x,1/2-y,-z
1/2+x,1/2-y,z
loop_
_atom_site_type_symbol
_atom_site_label
_atom_site_fract_x
_atom_site_fract_y
_atom_site_fract_z
Si Si1 0.174858 0.848479 0.721590
Si Si2 0.740328 0.949762 0.186817
Si Si3 0.500000 0.216807 0.000000
O O1 0.244210 0.902067 0.653326
O O2 0.000000 0.828085 0.500000
O O3 0.430372 0.819212 0.772656
O O4 0.000000 0.848490 0.000000
O O5 0.729954 0.000000 0.328665
O O6 0.500000 0.946558 0.000000
O O7 0.000000 0.950550 0.000000
O O8 0.750000 0.250000 0.000000
#
# Coordination Sequence:
#
# PCOD9222370 Si02
#       3
#     8   8   4
#     4  11  25  47  73 104 142 183 232 286 350 415
#     4   9  18  37  65  99 138 179 224 276 338 410
#     4  12  26  50  73 104 139 182 238 294 352 412
#
# _framework density 26.571787
#
# number of rings (size 3 to 8) (size 9 to 14) (size 15 to 20)
#    0.000    1.600    4.000    0.000    0.000    4.000 
#    0.000    0.000    0.000   12.000    0.000    0.000 
#    0.000    0.000    0.000    0.000    0.000    0.000 
#
# Total GULP energy -55983.840568 kJ/mol
# GULP energy per Si atom -5598.384057 kJ/mol
# Density = 2.651131 g / cm^3
# Si number density = 26.571787 Si / 1000 Ang^3
#
#
#
# Elastic Constant Matrix: (Units=GPa)
#
#
# Indices 1 2 3 4 5 6 
#
# 1 228.0743 45.2463 64.2687 0.0000 33.6305 0.0000
# 2 45.2463 214.1758 22.4596 0.0000 34.0465 0.0000
# 3 64.2687 22.4596 133.1445 0.0000 29.4909 0.0000
# 4 0.0000 0.0000 0.0000 -18.3662 0.0000 39.8016
# 5 33.6305 34.0465 29.4909 0.0000 74.9442 0.0000
# 6 0.0000 0.0000 0.0000 39.8016 0.0000 28.2232
#
#
#
# Elastic Compliance Matrix: (Units=1/GPa)
#
#
# Indices 1 2 3 4 5 6 
#
# 1 0.005316 -0.000702 -0.002180 0.000000 -0.001209 0.000000
# 2 -0.000702 0.005142 -0.000088 0.000000 -0.001986 0.000000
# 3 -0.002180 -0.000088 0.009150 0.000000 -0.002582 0.000000
# 4 0.000000 0.000000 0.000000 -0.013423 0.000000 0.018930
# 5 -0.001209 -0.001986 -0.002582 0.000000 0.015804 0.000000
# 6 0.000000 0.000000 0.000000 0.018930 0.000000 0.008735
#
#
# Mechanical properties :
#
#
# Convention : Reuss Voigt Hill
#
# Bulk Modulus (GPa) = 73.16972 93.26043 83.21508
# Shear Modulus (GPa) = 121.29490 46.52157 83.90824
#
# Velocity S-wave (km/s) = 6.76366 4.18878 5.62552
# Velocity P-wave (km/s) = 9.41236 7.65299 8.57790
#
# Compressibility (1/GPa) = 0.01366686
#
# Stress axis : x y z
#
# Youngs Moduli (GPa) = 188.09661 194.45965 109.29256
#
# Poissons Ratio (x) = 0.13658 0.23826
# Poissons Ratio (y) = 0.13211 0.00967
# Poissons Ratio (z) = 0.41005 0.01721
#
# Static dielectric constant tensor:
#      x y z
#    x 2.058190 0.000000 -0.020190 
#    y 0.000000 2.141530 0.000000 
#    z -0.020190 0.000000 1.751010 
# 
# From -- ./inp_files/1030.got.cif
#   From: 2010.05.17/outbox.cif.g08.bks.cpg/sg12_1_cif.got.tgz:1030.got - 2010.06.03 13:09:07.
