data_PCOD9222798
_publ_section_title
;
Structure prediction by ZEFSAII (Michael W. Deem and Ramdas Pophale) SiO2 
 PCOD9222798
Probable space group: C 2/M
;
_chemical_formula_sum "Si O2"
_cell_formula_units_Z 48
_cell_length_a 23.674084
_cell_length_b 7.348854
_cell_length_c 25.006926
_cell_angle_alpha 90.000000
_cell_angle_beta 145.158466
_cell_angle_gamma 90.000000
_cell_volume 2485.558159
_symmetry_space_group_name_H-M "C 2/M"
_symmetry_group_IT_number 12
_symmetry_cell_setting 'monoclinic'
loop_
_space_group_symop_operation_xyz
x,y,z
-x,y,-z
-x,-y,-z
x,-y,z
1/2+x,1/2+y,z
1/2-x,1/2+y,-z
1/2-x,1/2-y,-z
1/2+x,1/2-y,z
loop_
_atom_site_type_symbol
_atom_site_label
_atom_site_fract_x
_atom_site_fract_y
_atom_site_fract_z
Si Si1 0.123220 0.714594 0.455023
Si Si2 0.653133 0.281034 0.357778
Si Si3 0.234846 0.777468 0.219659
Si Si4 0.083783 0.788170 0.018580
Si Si5 0.540277 0.777694 0.589325
Si Si6 0.425609 0.722615 0.816195
O O1 0.128576 0.500000 0.470544
O O2 0.233244 0.787535 0.552966
O O3 0.106414 0.736290 0.378761
O O4 0.035925 0.785465 0.424420
O O5 0.657261 0.500000 0.358044
O O6 0.595830 0.218027 0.260664
O O7 0.180790 0.713762 0.123238
O O8 0.347271 0.718641 0.313738
O O9 0.165627 0.725146 0.216011
O O10 0.233478 0.000000 0.217677
O O11 0.104633 0.000000 0.023289
O O12 0.000000 0.782810 0.000000
O O13 0.027321 0.713232 0.922957
O O14 0.500000 0.723892 0.500000
O O15 0.542389 0.000000 0.591688
O O16 0.428245 0.500000 0.818994
#
# Coordination Sequence:
#
# PCOD9222798 Si02
#       6
#     8   8   8   8   8   8
#     4   9  17  27  38  55  77  98 122 152 184 217
#     4   9  16  26  40  55  73  99 127 153 180 213
#     4   8  12  18  30  50  75  97 116 147 190 224
#     4   7  10  16  27  46  72  96 115 143 185 222
#     4   9  15  22  34  52  73  96 121 149 183 223
#     4   8  12  19  33  53  74  94 119 150 183 218
#
# _framework density 19.311556
#
# number of rings (size 3 to 8) (size 9 to 14) (size 15 to 20)
#    0.000    3.667    0.000    3.000    0.000    4.000 
#    0.000    0.000    0.000    1.500    0.000    1.167 
#    0.000    6.000    0.000    0.000    0.000    0.000 
#
# Total GULP energy -133719.848788 kJ/mol
# GULP energy per Si atom -5571.660366 kJ/mol
# Density = 1.926760 g / cm^3
# Si number density = 19.311556 Si / 1000 Ang^3
#
#
#
# Elastic Constant Matrix: (Units=GPa)
#
#
# Indices 1 2 3 4 5 6 
#
# 1 117.4035 -0.6203 100.2298 0.0000 -4.1088 0.0002
# 2 -0.6203 69.3116 0.4145 0.0000 4.8295 -0.0001
# 3 100.2298 0.4145 199.3670 0.0000 -8.4230 0.0001
# 4 0.0000 0.0000 0.0000 -4.3468 0.0000 -4.6902
# 5 -4.1088 4.8295 -8.4230 0.0000 26.1038 0.0000
# 6 0.0002 -0.0001 0.0001 -4.6902 0.0000 28.7384
#
#
#
# Elastic Compliance Matrix: (Units=1/GPa)
#
#
# Indices 1 2 3 4 5 6 
#
# 1 0.014925 0.000186 -0.007508 0.000000 -0.000108 0.000000
# 2 0.000186 0.014623 -0.000240 0.000000 -0.002754 0.000000
# 3 -0.007508 -0.000240 0.008864 0.000000 0.001723 0.000000
# 4 0.000000 0.000000 0.000000 -0.195607 0.000000 -0.031923
# 5 -0.000108 -0.002754 0.001723 0.000000 0.039357 0.000000
# 6 0.000000 0.000000 0.000000 -0.031923 0.000000 0.029587
#
#
# Mechanical properties :
#
#
# Convention : Reuss Voigt Hill
#
# Bulk Modulus (GPa) = 42.94382 65.12556 54.03469
# Shear Modulus (GPa) = -76.49320 29.16960 -23.66180
#
# Velocity S-wave (km/s) = -6.30048 3.89070 -3.50418
# Velocity P-wave (km/s) = 5.53556 7.34712 3.41598
#
# Compressibility (1/GPa) = 0.02328624
#
# Stress axis : x y z
#
# Youngs Moduli (GPa) = 67.00267 68.38739 112.81772
#
# Poissons Ratio (x) = -0.01272 0.84706
# Poissons Ratio (y) = -0.01246 0.02710
# Poissons Ratio (z) = 0.50307 0.01643
#
# Static dielectric constant tensor:
#      x y z
#    x 1.627830 0.000000 -0.006880 
#    y 0.000000 1.765710 0.000000 
#    z -0.006880 0.000000 1.696230 
# 
# From -- ./inp_files/222382.got.cif
#   From: 2010.05.17/outbox.cif.g08.bks.cpg/sg12_112_cif.got.tgz:222382.got - 2010.06.03 13:09:07.
