data_PCOD9222265
_publ_section_title
;
Structure prediction by ZEFSAII (Michael W. Deem and Ramdas Pophale) SiO2 
 PCOD9222265
Probable space group: C 2/M
;
_chemical_formula_sum "Si O2"
_cell_formula_units_Z 48
_cell_length_a 10.897124
_cell_length_b 25.198766
_cell_length_c 10.071815
_cell_angle_alpha 90.000000
_cell_angle_beta 142.927072
_cell_angle_gamma 90.000000
_cell_volume 1667.226218
_symmetry_space_group_name_H-M "C 2/M"
_symmetry_group_IT_number 12
_symmetry_cell_setting 'monoclinic'
loop_
_space_group_symop_operation_xyz
x,y,z
-x,y,-z
-x,-y,-z
x,-y,z
1/2+x,1/2+y,z
1/2-x,1/2+y,-z
1/2-x,1/2-y,-z
1/2+x,1/2-y,z
loop_
_atom_site_type_symbol
_atom_site_label
_atom_site_fract_x
_atom_site_fract_y
_atom_site_fract_z
Si Si1 0.746226 0.377938 0.201350
Si Si2 0.792588 0.236903 0.908698
Si Si3 0.579361 0.719449 0.442034
Si Si4 0.277505 0.559691 0.069611
Si Si5 0.227876 0.558132 0.534248
Si Si6 0.713828 0.395176 0.661720
O O1 0.821666 0.394312 0.410362
O O2 0.500000 0.373567 0.000000
O O3 0.809325 0.321356 0.200323
O O4 0.792853 0.423894 0.137568
O O5 0.891131 0.228141 0.152198
O O6 0.648987 0.267792 0.667010
O O7 0.000000 0.242781 0.000000
O O8 0.750000 0.750000 0.500000
O O9 0.647438 0.657137 0.520254
O O10 0.221723 0.500000 0.062311
O O11 0.524308 0.559066 0.260529
O O12 0.215662 0.605095 0.125076
O O13 0.170503 0.500000 0.532404
O O14 0.156511 0.569398 0.323612
O O15 0.500000 0.425043 0.500000
#
# Coordination Sequence:
#
# PCOD9222265 Si02
#       6
#     8   8   8   8   8   8
#     4   9  19  31  55  84 129 168 219 275 334 402
#     4  11  25  42  67  96 136 182 232 285 345 408
#     4  11  25  42  67  96 136 182 234 287 344 407
#     4   9  16  30  52  87 129 170 214 276 343 407
#     4   9  16  28  50  83 123 165 212 272 340 406
#     4   9  19  31  55  84 129 167 220 277 334 399
#
# _framework density 28.790334999999999
#
# number of rings (size 3 to 8) (size 9 to 14) (size 15 to 20)
#    0.000    2.333    0.000    2.000   14.000    4.000 
#    0.000    0.000    0.000    0.000    0.000    7.000 
#    0.000   10.667    0.000    0.500    0.000    0.000 
#
# Total GULP energy -133931.617320 kJ/mol
# GULP energy per Si atom -5580.484055 kJ/mol
# Density = 2.872481 g / cm^3
# Si number density = 28.790335 Si / 1000 Ang^3
#
#
#
# Elastic Constant Matrix: (Units=GPa)
#
#
# Indices 1 2 3 4 5 6 
#
# 1 161.1858 48.5337 60.0962 0.0000 -21.9025 0.0000
# 2 48.5337 181.5609 66.0995 0.0000 -24.7699 0.0000
# 3 60.0962 66.0995 213.2997 0.0000 -33.0434 0.0000
# 4 0.0000 0.0000 0.0000 48.9530 0.0000 -6.1293
# 5 -21.9025 -24.7699 -33.0434 0.0000 73.8560 0.0000
# 6 0.0000 0.0000 0.0000 -6.1293 0.0000 37.3831
#
#
#
# Elastic Compliance Matrix: (Units=1/GPa)
#
#
# Indices 1 2 3 4 5 6 
#
# 1 0.007286 -0.001257 -0.001498 0.000000 0.001069 0.000000
# 2 -0.001257 0.006546 -0.001496 0.000000 0.001153 0.000000
# 3 -0.001498 -0.001496 0.005831 0.000000 0.001663 0.000000
# 4 0.000000 0.000000 0.000000 0.020856 0.000000 0.003419
# 5 0.001069 0.001153 0.001663 0.000000 0.014988 0.000000
# 6 0.000000 0.000000 0.000000 0.003419 0.000000 0.027311
#
#
# Mechanical properties :
#
#
# Convention : Reuss Voigt Hill
#
# Bulk Modulus (GPa) = 89.58157 100.61169 95.09663
# Shear Modulus (GPa) = 52.61023 57.45957 55.03490
#
# Velocity S-wave (km/s) = 4.27940 4.47228 4.37690
# Velocity P-wave (km/s) = 7.45656 7.85433 7.65803
#
# Compressibility (1/GPa) = 0.01116301
#
# Stress axis : x y z
#
# Youngs Moduli (GPa) = 137.24787 152.77517 171.48565
#
# Poissons Ratio (x) = 0.19196 0.25685
# Poissons Ratio (y) = 0.17245 0.25649
# Poissons Ratio (z) = 0.20557 0.22851
#
# Static dielectric constant tensor:
#      x y z
#    x 2.405420 0.000000 -0.155690 
#    y 0.000000 2.108590 0.000000 
#    z -0.155690 0.000000 3.136500 
# 
# From -- ./inp_files/64854.got.cif
#   From: 2010.05.17/outbox.cif.g08.bks.cpg/sg12_33_cif.got.tgz:64854.got - 2010.06.03 13:09:07.
