data_PCOD9222961
_publ_section_title
;
Structure prediction by ZEFSAII (Michael W. Deem and Ramdas Pophale) SiO2 
 PCOD9222961
Probable space group: C 2/M
;
_chemical_formula_sum "Si O2"
_cell_formula_units_Z 56
_cell_length_a 28.824118
_cell_length_b 7.515210
_cell_length_c 16.165936
_cell_angle_alpha 90.000000
_cell_angle_beta 84.779336
_cell_angle_gamma 90.000000
_cell_volume 3487.326811
_symmetry_space_group_name_H-M "C 2/M"
_symmetry_group_IT_number 12
_symmetry_cell_setting 'monoclinic'
loop_
_space_group_symop_operation_xyz
x,y,z
-x,y,-z
-x,-y,-z
x,-y,z
1/2+x,1/2+y,z
1/2-x,1/2+y,-z
1/2-x,1/2-y,-z
1/2+x,1/2-y,z
loop_
_atom_site_type_symbol
_atom_site_label
_atom_site_fract_x
_atom_site_fract_y
_atom_site_fract_z
Si Si1 0.364937 0.707446 0.020700
Si Si2 0.331130 0.282120 0.846661
Si Si3 0.429331 0.000000 0.567754
Si Si4 0.405944 0.710643 0.698065
Si Si5 0.036157 0.500000 0.615261
Si Si6 0.962422 0.217444 0.074374
Si Si7 0.766848 0.710613 0.090809
Si Si8 0.010798 0.789137 0.744851
O O1 0.374749 0.500000 0.004099
O O2 0.411317 0.780770 0.055036
O O3 0.319170 0.718005 0.085682
O O4 0.351549 0.780882 0.932066
O O5 0.330530 0.500000 0.849698
O O6 0.364909 0.232438 0.766728
O O7 0.277141 0.224147 0.848522
O O8 0.407311 0.827687 0.615265
O O9 0.483585 0.000000 0.587012
O O10 0.429772 0.000000 0.468666
O O11 0.401543 0.500000 0.681782
O O12 0.455673 0.736808 0.736098
O O13 0.038341 0.672675 0.673348
O O14 0.976620 0.269702 0.164549
O O15 0.962625 0.000000 0.075312
O O16 0.000000 0.273305 0.000000
O O17 0.770470 0.500000 0.101236
O O18 0.750000 0.750000 0.000000
O O19 0.020180 0.000000 0.734654
#
# Coordination Sequence:
#
# PCOD9222961 Si02
#       8
#     8   8   4   8   4   8   8   8
#     4   9  16  27  41  59  85 116 150 185 213 246
#     4   8  14  25  41  58  82 116 144 175 216 258
#     4   9  18  30  44  66  86 114 142 174 225 270
#     4   9  16  28  44  64  89 113 143 180 216 266
#     4   9  18  32  45  60  92 114 141 184 216 263
#     4   9  16  27  45  64  85 119 156 187 210 245
#     4   9  16  27  40  56  80 113 148 177 216 256
#     4   9  17  29  46  64  85 120 152 177 216 257
#
# _framework density 16.058145
#
# number of rings (size 3 to 8) (size 9 to 14) (size 15 to 20)
#    0.000    3.143    0.000    2.143    0.000    4.000 
#    7.714    3.214    0.000    0.000    0.000    0.000 
#    0.000    1.143    0.571    0.000    0.000    0.000 
#
# Total GULP energy -155909.572624 kJ/mol
# GULP energy per Si atom -5568.199022 kJ/mol
# Density = 1.602160 g / cm^3
# Si number density = 16.058145 Si / 1000 Ang^3
#
#
#
# Elastic Constant Matrix: (Units=GPa)
#
#
# Indices 1 2 3 4 5 6 
#
# 1 94.2830 18.7703 57.8486 0.0000 -17.2833 0.0000
# 2 18.7703 48.6874 35.2943 0.0000 -6.5320 0.0000
# 3 57.8486 35.2943 132.2479 0.0000 -22.3932 0.0000
# 4 0.0000 0.0000 0.0000 15.5342 0.0000 -5.2377
# 5 -17.2833 -6.5320 -22.3932 0.0000 21.4413 0.0000
# 6 0.0000 0.0000 0.0000 -5.2377 0.0000 11.4856
#
#
#
# Elastic Compliance Matrix: (Units=1/GPa)
#
#
# Indices 1 2 3 4 5 6 
#
# 1 0.015254 -0.001203 -0.005262 0.000000 0.006434 0.000000
# 2 -0.001203 0.025572 -0.006249 0.000000 0.000295 0.000000
# 3 -0.005262 -0.006249 0.012744 0.000000 0.007165 0.000000
# 4 0.000000 0.000000 0.000000 0.076071 0.000000 0.034690
# 5 0.006434 0.000295 0.007165 0.000000 0.059398 0.000000
# 6 0.000000 0.000000 0.000000 0.034690 0.000000 0.102885
#
#
# Mechanical properties :
#
#
# Convention : Reuss Voigt Hill
#
# Bulk Modulus (GPa) = 35.53295 55.44942 45.49118
# Shear Modulus (GPa) = 15.30307 20.57920 17.94114
#
# Velocity S-wave (km/s) = 3.09038 3.58375 3.34617
# Velocity P-wave (km/s) = 5.90844 7.19234 6.58177
#
# Compressibility (1/GPa) = 0.02814289
#
# Stress axis : x y z
#
# Youngs Moduli (GPa) = 65.55748 39.10492 78.46812
#
# Poissons Ratio (x) = 0.04705 0.41289
# Poissons Ratio (y) = 0.07888 0.49031
# Poissons Ratio (z) = 0.34496 0.24435
#
# Static dielectric constant tensor:
#      x y z
#    x 1.549810 0.000000 -0.016080 
#    y 0.000000 1.604800 0.000000 
#    z -0.016080 0.000000 1.514300 
# 
# From -- ./inp_files/247837.got.cif
#   From: 2010.05.17/outbox.cif.g08.bks.cpg/sg12_124_cif.got.tgz:247837.got - 2010.06.03 13:09:07.
