data_PCOD9222510
_publ_section_title
;
Structure prediction by ZEFSAII (Michael W. Deem and Ramdas Pophale) SiO2 
 PCOD9222510
Probable space group: C 2/M
;
_chemical_formula_sum "Si O2"
_cell_formula_units_Z 40
_cell_length_a 14.264781
_cell_length_b 14.651993
_cell_length_c 11.716707
_cell_angle_alpha 90.000000
_cell_angle_beta 129.689782
_cell_angle_gamma 90.000000
_cell_volume 1884.445583
_symmetry_space_group_name_H-M "C 2/M"
_symmetry_group_IT_number 12
_symmetry_cell_setting 'monoclinic'
loop_
_space_group_symop_operation_xyz
x,y,z
-x,y,-z
-x,-y,-z
x,-y,z
1/2+x,1/2+y,z
1/2-x,1/2+y,-z
1/2-x,1/2-y,-z
1/2+x,1/2-y,z
loop_
_atom_site_type_symbol
_atom_site_label
_atom_site_fract_x
_atom_site_fract_y
_atom_site_fract_z
Si Si1 0.821529 0.500000 0.701047
Si Si2 0.055577 0.000000 0.417384
Si Si3 0.757775 0.315636 0.779897
Si Si4 0.500000 0.299937 0.000000
Si Si5 0.593947 0.000000 0.466200
Si Si6 0.138654 0.711725 0.487517
Si Si7 0.946366 0.825208 0.212249
O O1 0.700227 0.500000 0.529547
O O2 0.803842 0.411361 0.764843
O O3 0.929846 0.500000 0.691689
O O4 0.000000 0.000000 0.500000
O O5 0.007942 0.090095 0.322181
O O6 0.656716 0.269451 0.617903
O O7 0.691946 0.322725 0.850648
O O8 0.878250 0.255999 0.877592
O O9 0.534857 0.344190 0.906518
O O10 0.500000 0.000000 0.500000
O O11 0.648729 0.896439 0.519942
O O12 0.250000 0.750000 0.500000
O O13 0.019869 0.737276 0.319455
#
# Coordination Sequence:
#
# PCOD9222510 Si02
#       7
#     4   4   8   4   4   8   8
#     4  12  22  41  73 104 130 174 244 300 346 409
#     4  12  20  41  77 111 124 171 244 312 343 409
#     4  12  24  44  69  99 135 188 240 293 353 429
#     4  12  28  42  60  96 152 192 220 290 370 438
#     4  12  24  38  64 108 142 175 221 297 375 412
#     4  12  22  44  72 101 139 182 239 307 351 418
#     4  12  23  44  69 101 138 182 239 294 364 425
#
# _framework density 21.226402
#
# number of rings (size 3 to 8) (size 9 to 14) (size 15 to 20)
#    0.000    0.000    8.000    2.400    0.000    0.800 
#    0.000    2.000    0.000    0.000    0.000    0.000 
#    0.000    0.000    0.000    0.000    0.000    0.000 
#
# Total GULP energy -111566.596609 kJ/mol
# GULP energy per Si atom -5578.329830 kJ/mol
# Density = 2.117809 g / cm^3
# Si number density = 21.226402 Si / 1000 Ang^3
#
#
#
# Elastic Constant Matrix: (Units=GPa)
#
#
# Indices 1 2 3 4 5 6 
#
# 1 178.4972 24.2768 25.4735 0.0000 -44.6781 0.0000
# 2 24.2768 119.0589 18.1963 0.0000 -27.4014 0.0000
# 3 25.4735 18.1963 57.3967 0.0000 -33.4770 0.0000
# 4 0.0000 0.0000 0.0000 10.1716 0.0000 9.9110
# 5 -44.6781 -27.4014 -33.4770 0.0000 43.6055 0.0000
# 6 0.0000 0.0000 0.0000 9.9110 0.0000 27.2122
#
#
#
# Elastic Compliance Matrix: (Units=1/GPa)
#
#
# Indices 1 2 3 4 5 6 
#
# 1 0.007689 0.000347 0.002172 0.000000 0.009764 0.000000
# 2 0.000347 0.009860 0.000980 0.000000 0.007304 0.000000
# 3 0.002172 0.000980 0.032243 0.000000 0.027596 0.000000
# 4 0.000000 0.000000 0.000000 0.152396 0.000000 -0.055504
# 5 0.009764 0.007304 0.027596 0.000000 0.058713 0.000000
# 6 0.000000 0.000000 0.000000 -0.055504 0.000000 0.056964
#
#
# Mechanical properties :
#
#
# Convention : Reuss Voigt Hill
#
# Bulk Modulus (GPa) = 17.60805 54.53844 36.07325
# Shear Modulus (GPa) = 15.16095 35.33160 25.24627
#
# Velocity S-wave (km/s) = 2.67544 4.08427 3.45248
# Velocity P-wave (km/s) = 4.22580 6.92756 5.73797
#
# Compressibility (1/GPa) = 0.05679220
#
# Stress axis : x y z
#
# Youngs Moduli (GPa) = 130.05446 101.42378 31.01445
#
# Poissons Ratio (x) = -0.03523 -0.06738
# Poissons Ratio (y) = -0.04518 -0.03040
# Poissons Ratio (z) = -0.28254 -0.09943
#
# Static dielectric constant tensor:
#      x y z
#    x 1.825450 0.000000 -0.030270 
#    y 0.000000 1.768360 0.000000 
#    z -0.030270 0.000000 1.793600 
# 
# From -- ./inp_files/143389.got.cif
#   From: 2010.05.17/outbox.cif.g08.bks.cpg/sg12_72_cif.got.tgz:143389.got - 2010.06.03 13:09:07.
