data_PCOD9222312
_publ_section_title
;
Structure prediction by ZEFSAII (Michael W. Deem and Ramdas Pophale) SiO2 
 PCOD9222312
Probable space group: C 2/M
;
_chemical_formula_sum "Si O2"
_cell_formula_units_Z 54
_cell_length_a 16.501974
_cell_length_b 27.155019
_cell_length_c 12.413961
_cell_angle_alpha 90.000000
_cell_angle_beta 25.678868
_cell_angle_gamma 90.000000
_cell_volume 2410.526182
_symmetry_space_group_name_H-M "C 2/M"
_symmetry_group_IT_number 12
_symmetry_cell_setting 'monoclinic'
loop_
_space_group_symop_operation_xyz
x,y,z
-x,y,-z
-x,-y,-z
x,-y,z
1/2+x,1/2+y,z
1/2-x,1/2+y,-z
1/2-x,1/2-y,-z
1/2+x,1/2-y,z
loop_
_atom_site_type_symbol
_atom_site_label
_atom_site_fract_x
_atom_site_fract_y
_atom_site_fract_z
Si Si1 0.000000 0.500000 0.000000
Si Si2 0.880142 0.609448 0.439283
Si Si3 0.919146 0.667722 0.978477
Si Si4 0.014697 0.118577 0.777862
Si Si5 0.172861 0.082964 0.358634
Si Si6 0.151495 0.553314 0.221782
Si Si7 0.000000 0.674960 0.500000
Si Si8 0.598611 0.720716 0.000834
O O1 0.162122 0.543895 0.820829
O O2 0.661388 0.599809 0.692767
O O3 0.017929 0.562985 0.279430
O O4 0.944653 0.641755 0.463618
O O5 0.932985 0.640405 0.272447
O O6 0.745456 0.630643 0.202542
O O7 0.902827 0.723348 0.955555
O O8 0.000000 0.672937 0.000000
O O9 0.093141 0.101763 0.568838
O O10 0.812151 0.093934 0.038114
O O11 0.996053 0.177549 0.814953
O O12 0.000000 0.060984 0.500000
O O13 0.243393 0.500000 0.106115
O O14 0.000000 0.552500 0.500000
O O15 0.183981 0.706878 0.263177
O O16 0.500000 0.718052 0.000000
#
# Coordination Sequence:
#
# PCOD9222312 Si02
#       8
#     2   8   8   8   8   8   4   8
#     4  12  26  56  80 102 156 206 248 328 386 438
#     4  12  23  46  72 101 150 189 244 307 374 437
#     4  11  25  49  71 109 153 197 249 316 371 456
#     4  12  25  46  74 109 145 198 245 308 384 456
#     4  12  27  50  77 111 149 199 264 312 375 460
#     4  11  26  48  73 105 142 188 252 317 376 450
#     4  12  24  42  71 104 140 201 248 300 362 454
#     4  11  25  44  73 106 149 199 244 305 382 451
#
# _framework density 22.401748999999999
#
# number of rings (size 3 to 8) (size 9 to 14) (size 15 to 20)
#    0.000    0.444    5.926    1.111    2.074    2.963 
#    9.333    1.481    0.000    0.000    0.000    0.000 
#    0.000    0.000    0.000    0.000    0.000    0.000 
#
# Total GULP energy -150611.812822 kJ/mol
# GULP energy per Si atom -5578.215290 kJ/mol
# Density = 2.235076 g / cm^3
# Si number density = 22.401749 Si / 1000 Ang^3
#
#
#
# Elastic Constant Matrix: (Units=GPa)
#
#
# Indices 1 2 3 4 5 6 
#
# 1 93.9235 32.2240 58.7362 -0.0275 -23.4510 -0.0065
# 2 32.2240 151.1520 48.7439 -0.0103 -4.2039 -0.0041
# 3 58.7362 48.7439 121.8816 -0.0368 -31.8428 -0.0034
# 4 -0.0275 -0.0103 -0.0368 -37.1090 0.0214 -2.3287
# 5 -23.4510 -4.2039 -31.8428 0.0214 47.2122 0.0048
# 6 -0.0065 -0.0041 -0.0034 -2.3287 0.0048 9.9753
#
#
#
# Elastic Compliance Matrix: (Units=1/GPa)
#
#
# Indices 1 2 3 4 5 6 
#
# 1 0.015854 -0.001284 -0.006190 -0.000004 0.003586 0.000005
# 2 -0.001284 0.007809 -0.003022 0.000000 -0.001980 0.000002
# 3 -0.006190 -0.003022 0.013987 -0.000005 0.006090 -0.000005
# 4 -0.000004 0.000000 -0.000005 -0.026559 0.000008 -0.006200
# 5 0.003586 -0.001980 0.006090 0.000008 0.026893 -0.000007
# 6 0.000005 0.000002 -0.000005 -0.006200 -0.000007 0.098800
#
#
# Mechanical properties :
#
#
# Convention : Reuss Voigt Hill
#
# Bulk Modulus (GPa) = 60.02793 71.81835 65.92314
# Shear Modulus (GPa) = 30.61313 19.16590 24.88951
#
# Velocity S-wave (km/s) = 3.70070 2.92816 3.33686
# Velocity P-wave (km/s) = 6.71673 6.60008 6.65866
#
# Compressibility (1/GPa) = 0.01665891
#
# Stress axis : x y z
#
# Youngs Moduli (GPa) = 63.07727 128.05837 71.49418
#
# Poissons Ratio (x) = 0.16443 0.44253
# Poissons Ratio (y) = 0.08099 0.21603
# Poissons Ratio (z) = 0.39043 0.38695
#
# Static dielectric constant tensor:
#      x y z
#    x 1.850930 0.000000 -0.053850 
#    y 0.000000 1.886880 0.000020 
#    z -0.053850 0.000020 1.748430 
# 
# From -- ./inp_files/150458.got.cif
#   From: 2010.05.17/outbox.cif.g08.bks.cpg/sg12_76_cif.got.tgz:150458.got - 2010.06.03 13:09:07.
