data_PCOD9222534
_publ_section_title
;
Structure prediction by ZEFSAII (Michael W. Deem and Ramdas Pophale) SiO2 
 PCOD9222534
Probable space group: C 2/M
;
_chemical_formula_sum "Si O2"
_cell_formula_units_Z 36
_cell_length_a 19.320622
_cell_length_b 12.280100
_cell_length_c 19.089705
_cell_angle_alpha 90.000000
_cell_angle_beta 158.662552
_cell_angle_gamma 90.000000
_cell_volume 1647.997908
_symmetry_space_group_name_H-M "C 2/M"
_symmetry_group_IT_number 12
_symmetry_cell_setting 'monoclinic'
loop_
_space_group_symop_operation_xyz
x,y,z
-x,y,-z
-x,-y,-z
x,-y,z
1/2+x,1/2+y,z
1/2-x,1/2+y,-z
1/2-x,1/2-y,-z
1/2+x,1/2-y,z
loop_
_atom_site_type_symbol
_atom_site_label
_atom_site_fract_x
_atom_site_fract_y
_atom_site_fract_z
Si Si1 0.456753 0.500000 0.719866
Si Si2 0.617645 0.000000 0.512732
Si Si3 0.326467 0.500000 0.940099
Si Si4 0.392181 0.769343 0.467686
Si Si5 0.979273 0.751211 0.060985
Si Si6 0.640894 0.702967 0.828234
O O1 0.264044 0.500000 0.584568
O O2 0.496391 0.608111 0.713492
O O3 0.634180 0.500000 0.940477
O O4 0.657467 0.894277 0.596075
O O5 0.395199 0.000000 0.285293
O O6 0.416846 0.380911 0.004982
O O7 0.500000 0.724726 0.500000
O O8 0.514540 0.772944 0.654216
O O9 0.183674 0.724407 0.286943
O O10 0.820054 0.678443 0.947669
O O11 0.000000 0.724488 0.000000
O O12 0.750000 0.750000 0.000000
#
# Coordination Sequence:
#
# PCOD9222534 Si02
#       6
#     4   4   4   8   8   8
#     4  12  26  42  62  98 132 172 228 269 320 396
#     4  12  21  39  67 101 135 166 210 275 344 397
#     4  12  21  41  65 103 139 162 212 276 343 399
#     4  12  23  41  70 100 133 172 217 270 339 404
#     4  12  23  42  69 100 136 172 216 274 338 400
#     4  12  25  45  67  99 135 174 223 273 331 396
#
# _framework density 21.844688999999999
#
# number of rings (size 3 to 8) (size 9 to 14) (size 15 to 20)
#    0.000    0.000    8.889    0.667    0.000    5.333 
#    0.000    1.111    0.000    0.000    0.000    0.000 
#    0.000    0.000    0.000    0.000    0.000    0.000 
#
# Total GULP energy -100247.999291 kJ/mol
# GULP energy per Si atom -5569.333294 kJ/mol
# Density = 2.179497 g / cm^3
# Si number density = 21.844689 Si / 1000 Ang^3
#
#
#
# Elastic Constant Matrix: (Units=GPa)
#
#
# Indices 1 2 3 4 5 6 
#
# 1 115.6992 23.8725 12.8875 -0.0003 19.1910 -0.0004
# 2 23.8725 26.8398 -1.5305 0.0009 6.1978 0.0015
# 3 12.8875 -1.5305 136.3659 -0.0029 20.3485 -0.0015
# 4 -0.0003 0.0009 -0.0029 -25.8580 0.0007 -18.5078
# 5 19.1910 6.1978 20.3485 0.0007 54.4454 0.0005
# 6 -0.0004 0.0015 -0.0015 -18.5078 0.0005 16.6607
#
#
#
# Elastic Compliance Matrix: (Units=1/GPa)
#
#
# Indices 1 2 3 4 5 6 
#
# 1 0.011072 -0.009302 -0.000769 -0.000001 -0.002556 0.000000
# 2 -0.009302 0.046247 0.001795 0.000002 -0.002657 -0.000001
# 3 -0.000769 0.001795 0.007854 -0.000001 -0.002869 0.000000
# 4 -0.000001 0.000002 -0.000001 -0.021544 0.000001 -0.023932
# 5 -0.002556 -0.002657 -0.002869 0.000001 0.020643 0.000000
# 6 0.000000 -0.000001 0.000000 -0.023932 0.000000 0.033436
#
#
# Mechanical properties :
#
#
# Convention : Reuss Voigt Hill
#
# Bulk Modulus (GPa) = 20.56738 38.81819 29.69278
# Shear Modulus (GPa) = 38.32351 25.29464 31.80907
#
# Velocity S-wave (km/s) = 4.19306 3.40653 3.82009
# Velocity P-wave (km/s) = 5.73393 5.76899 5.75149
#
# Compressibility (1/GPa) = 0.04862069
#
# Stress axis : x y z
#
# Youngs Moduli (GPa) = 90.31770 21.62294 127.32209
#
# Poissons Ratio (x) = 0.20113 0.09795
# Poissons Ratio (y) = 0.84009 -0.22849
# Poissons Ratio (z) = 0.06948 -0.03880
#
# Static dielectric constant tensor:
#      x y z
#    x 1.855120 0.000000 -0.015710 
#    y 0.000000 1.974500 0.000000 
#    z -0.015710 0.000000 1.871670 
# 
# From -- ./inp_files/316588.got.cif
#   From: 2010.05.17/outbox.cif.g08.bks.cpg/sg12_159_cif.got.tgz:316588.got - 2010.06.03 13:09:07.
