data_PCOD9222208
_publ_section_title
;
Structure prediction by ZEFSAII (Michael W. Deem and Ramdas Pophale) SiO2 
 PCOD9222208
Probable space group: C 2/M
;
_chemical_formula_sum "Si O2"
_cell_formula_units_Z 36
_cell_length_a 5.428125
_cell_length_b 19.291199
_cell_length_c 15.968006
_cell_angle_alpha 90.000000
_cell_angle_beta 67.858635
_cell_angle_gamma 90.000000
_cell_volume 1548.785038
_symmetry_space_group_name_H-M "C 2/M"
_symmetry_group_IT_number 12
_symmetry_cell_setting 'monoclinic'
loop_
_space_group_symop_operation_xyz
x,y,z
-x,y,-z
-x,-y,-z
x,-y,z
1/2+x,1/2+y,z
1/2-x,1/2+y,-z
1/2-x,1/2-y,-z
1/2+x,1/2-y,z
loop_
_atom_site_type_symbol
_atom_site_label
_atom_site_fract_x
_atom_site_fract_y
_atom_site_fract_z
Si Si1 0.591957 0.000000 0.239221
Si Si2 0.868940 0.500000 0.104208
Si Si3 0.775899 0.500000 0.419373
Si Si4 0.000000 0.796327 0.000000
Si Si5 0.425993 0.709109 0.351194
Si Si6 0.500000 0.881576 0.500000
Si Si7 0.538671 0.376492 0.820386
O O1 0.604558 0.000000 0.139133
O O2 0.730683 0.927912 0.241904
O O3 0.298184 0.000000 0.316588
O O4 0.702611 0.430292 0.138721
O O5 0.000000 0.500000 0.000000
O O6 0.500000 0.500000 0.500000
O O7 0.921791 0.567626 0.434843
O O8 0.080677 0.840554 0.906057
O O9 0.750000 0.750000 0.000000
O O10 0.701751 0.732850 0.358059
O O11 0.498577 0.676427 0.251412
O O12 0.256247 0.660900 0.435987
#
# Coordination Sequence:
#
# PCOD9222208 Si02
#       7
#     4   4   4   4   8   4   8
#     4  11  24  45  75 105 143 189 237 315 361 433
#     4  11  26  44  77 106 145 187 238 315 371 433
#     4  11  26  42  76 107 143 191 241 313 369 427
#     4  12  28  47  74 105 148 194 240 298 360 438
#     4  12  28  47  74 106 148 198 245 298 359 439
#     4  11  26  46  70 106 148 189 248 302 370 433
#     4  11  26  46  72 107 142 188 249 296 372 431
#
# _framework density 23.244026000000002
#
# number of rings (size 3 to 8) (size 9 to 14) (size 15 to 20)
#    0.000    0.667    2.222    3.333   14.000    1.778 
#    0.000    0.000    0.000    0.000    0.000    0.000 
#    0.000    0.000    0.000    0.000    0.000    0.000 
#
# Total GULP energy -100580.580020 kJ/mol
# GULP energy per Si atom -5587.810001 kJ/mol
# Density = 2.319112 g / cm^3
# Si number density = 23.244026 Si / 1000 Ang^3
#
#
#
# Elastic Constant Matrix: (Units=GPa)
#
#
# Indices 1 2 3 4 5 6 
#
# 1 38.5979 10.0209 -12.4837 0.0000 -9.0418 0.0000
# 2 10.0209 87.3772 27.7739 0.0000 -3.7699 0.0000
# 3 -12.4837 27.7739 138.2556 0.0000 -13.7654 0.0000
# 4 0.0000 0.0000 0.0000 119.0304 0.0000 36.8297
# 5 -9.0418 -3.7699 -13.7654 0.0000 40.3258 0.0000
# 6 0.0000 0.0000 0.0000 36.8297 0.0000 -36.4894
#
#
#
# Elastic Compliance Matrix: (Units=1/GPa)
#
#
# Indices 1 2 3 4 5 6 
#
# 1 0.030380 -0.004556 0.004445 0.000000 0.007903 0.000000
# 2 -0.004556 0.012912 -0.003092 0.000000 -0.000870 0.000000
# 3 0.004445 -0.003092 0.008619 0.000000 0.003650 0.000000
# 4 0.000000 0.000000 0.000000 0.006402 0.000000 0.006462
# 5 0.007903 -0.000870 0.003650 0.000000 0.027735 0.000000
# 6 0.000000 0.000000 0.000000 0.006462 0.000000 -0.020883
#
#
# Mechanical properties :
#
#
# Convention : Reuss Voigt Hill
#
# Bulk Modulus (GPa) = 21.97514 34.98364 28.47939
# Shear Modulus (GPa) = 57.64423 40.50135 49.07279
#
# Velocity S-wave (km/s) = 4.98532 4.17878 4.59976
# Velocity P-wave (km/s) = 6.52783 6.19405 6.36313
#
# Compressibility (1/GPa) = 0.04550597
#
# Stress axis : x y z
#
# Youngs Moduli (GPa) = 32.91617 77.44470 116.02405
#
# Poissons Ratio (x) = 0.35285 -0.51577
# Poissons Ratio (y) = 0.14997 0.35874
# Poissons Ratio (z) = -0.14632 0.23946
#
# Static dielectric constant tensor:
#      x y z
#    x 1.894590 0.000000 0.014380 
#    y 0.000000 1.838550 0.000000 
#    z 0.014380 0.000000 1.804730 
# 
# From -- ./inp_files/252532.got.cif
#   From: 2010.05.17/outbox.cif.g08.bks.cpg/sg12_127_cif.got.tgz:252532.got - 2010.06.03 13:09:07.
