data_PCOD9222260
_publ_section_title
;
Structure prediction by ZEFSAII (Michael W. Deem and Ramdas Pophale) SiO2 
 PCOD9222260
Probable space group: C 2/M
;
_chemical_formula_sum "Si O2"
_cell_formula_units_Z 48
_cell_length_a 9.819039
_cell_length_b 22.472826
_cell_length_c 10.684927
_cell_angle_alpha 90.000000
_cell_angle_beta 82.872660
_cell_angle_gamma 90.000000
_cell_volume 2339.533888
_symmetry_space_group_name_H-M "C 2/M"
_symmetry_group_IT_number 12
_symmetry_cell_setting 'monoclinic'
loop_
_space_group_symop_operation_xyz
x,y,z
-x,y,-z
-x,-y,-z
x,-y,z
1/2+x,1/2+y,z
1/2-x,1/2+y,-z
1/2-x,1/2-y,-z
1/2+x,1/2-y,z
loop_
_atom_site_type_symbol
_atom_site_label
_atom_site_fract_x
_atom_site_fract_y
_atom_site_fract_z
Si Si1 0.799478 0.855041 0.720482
Si Si2 0.635662 0.764268 0.410064
Si Si3 0.979240 0.928851 0.149526
Si Si4 0.070329 0.431189 0.627210
Si Si5 0.154697 0.696020 0.973273
Si Si6 0.185192 0.373916 0.217220
O O1 0.883054 0.799025 0.656828
O O2 0.703623 0.889988 0.632853
O O3 0.902815 0.898183 0.781544
O O4 0.693870 0.827462 0.833070
O O5 0.500000 0.782715 0.500000
O O6 0.750000 0.750000 0.500000
O O7 0.677528 0.815276 0.306750
O O8 0.830526 0.906743 0.213702
O O9 0.987567 0.000000 0.158160
O O10 0.000000 0.912663 0.000000
O O11 0.109717 0.500000 0.640838
O O12 0.000000 0.424855 0.500000
O O13 0.947331 0.413062 0.734182
O O14 0.173759 0.645547 0.074743
O O15 0.250000 0.750000 0.000000
O O16 0.000000 0.717551 0.000000
#
# Coordination Sequence:
#
# PCOD9222260 Si02
#       6
#     8   8   8   8   8   8
#     4  12  24  45  69 100 140 175 229 282 348 413
#     4  12  26  42  66  98 131 174 221 279 340 399
#     4  11  25  42  66 102 140 182 223 276 343 408
#     4  11  25  46  70  96 133 184 236 285 332 398
#     4  12  26  41  67 104 140 181 221 279 353 418
#     4  12  23  44  69  98 139 175 230 275 346 409
#
# _framework density 20.516905999999999
#
# number of rings (size 3 to 8) (size 9 to 14) (size 15 to 20)
#    0.000    0.333    5.000    4.500    2.333    0.000 
#    0.000    0.833    0.000    5.000    0.000    0.000 
#    0.000    0.000    0.000    0.000    0.000    0.000 
#
# Total GULP energy -134320.507246 kJ/mol
# GULP energy per Si atom -5596.687802 kJ/mol
# Density = 2.047021 g / cm^3
# Si number density = 20.516906 Si / 1000 Ang^3
#
#
#
# Elastic Constant Matrix: (Units=GPa)
#
#
# Indices 1 2 3 4 5 6 
#
# 1 102.0609 23.9232 -11.5805 0.0000 -1.1546 0.0000
# 2 23.9232 110.3963 22.0428 0.0000 1.5367 0.0000
# 3 -11.5805 22.0428 51.5515 0.0000 1.6075 0.0000
# 4 0.0000 0.0000 0.0000 29.6445 0.0000 6.6607
# 5 -1.1546 1.5367 1.6075 0.0000 35.2605 0.0000
# 6 0.0000 0.0000 0.0000 6.6607 0.0000 40.3115
#
#
#
# Elastic Compliance Matrix: (Units=1/GPa)
#
#
# Indices 1 2 3 4 5 6 
#
# 1 0.010968 -0.003139 0.003796 0.000000 0.000323 0.000000
# 2 -0.003139 0.010804 -0.005315 0.000000 -0.000331 0.000000
# 3 0.003796 -0.005315 0.022544 0.000000 -0.000672 0.000000
# 4 0.000000 0.000000 0.000000 0.035034 0.000000 -0.005789
# 5 0.000323 -0.000331 -0.000672 0.000000 0.028416 0.000000
# 6 0.000000 0.000000 0.000000 -0.005789 0.000000 0.025763
#
#
# Mechanical properties :
#
#
# Convention : Reuss Voigt Hill
#
# Bulk Modulus (GPa) = 28.57038 36.97552 32.77295
# Shear Modulus (GPa) = 32.35978 36.35151 34.35564
#
# Velocity S-wave (km/s) = 3.97574 4.21382 4.09651
# Velocity P-wave (km/s) = 5.91869 6.46035 6.19544
#
# Compressibility (1/GPa) = 0.03500129
#
# Stress axis : x y z
#
# Youngs Moduli (GPa) = 91.17159 92.55512 44.35711
#
# Poissons Ratio (x) = 0.29056 -0.16839
# Poissons Ratio (y) = 0.28622 0.23574
# Poissons Ratio (z) = -0.34610 0.49190
#
# Static dielectric constant tensor:
#      x y z
#    x 1.704680 0.000000 0.000260 
#    y 0.000000 1.722060 0.000000 
#    z 0.000260 0.000000 1.732110 
# 
# From -- ./inp_files/121872.got.cif
#   From: 2010.05.17/outbox.cif.g08.bks.cpg/sg12_61_cif.got.tgz:121872.got - 2010.06.03 13:09:07.
