data_PCOD9222622
_publ_section_title
;
Structure prediction by ZEFSAII (Michael W. Deem and Ramdas Pophale) SiO2 
 PCOD9222622
Probable space group: C 2/M
;
_chemical_formula_sum "Si O2"
_cell_formula_units_Z 44
_cell_length_a 24.324297
_cell_length_b 14.659307
_cell_length_c 18.188148
_cell_angle_alpha 90.000000
_cell_angle_beta 19.189018
_cell_angle_gamma 90.000000
_cell_volume 2131.684535
_symmetry_space_group_name_H-M "C 2/M"
_symmetry_group_IT_number 12
_symmetry_cell_setting 'monoclinic'
loop_
_space_group_symop_operation_xyz
x,y,z
-x,y,-z
-x,-y,-z
x,-y,z
1/2+x,1/2+y,z
1/2-x,1/2+y,-z
1/2-x,1/2-y,-z
1/2+x,1/2-y,z
loop_
_atom_site_type_symbol
_atom_site_label
_atom_site_fract_x
_atom_site_fract_y
_atom_site_fract_z
Si Si1 0.863839 0.000000 0.736099
Si Si2 0.281097 0.000000 0.934546
Si Si3 0.678077 0.500000 0.895096
Si Si4 0.214458 0.000000 0.582270
Si Si5 0.379017 0.163761 0.999489
Si Si6 0.547474 0.848062 0.647073
Si Si7 0.839617 0.311366 0.648445
Si Si8 0.921503 0.500000 0.182037
O O1 0.000000 0.000000 0.500000
O O2 0.760689 0.907963 0.850983
O O3 0.874684 0.000000 0.811264
O O4 0.401261 0.085906 0.800380
O O5 0.233044 0.000000 0.910882
O O6 0.758467 0.411495 0.755683
O O7 0.477483 0.500000 0.150804
O O8 0.310493 0.913337 0.497299
O O9 0.248267 0.000000 0.450513
O O10 0.468247 0.205818 0.815306
O O11 0.502918 0.095228 0.883943
O O12 0.295725 0.239462 0.153677
O O13 0.609712 0.791865 0.499258
O O14 0.000000 0.307667 0.500000
O O15 0.000000 0.500000 0.000000
#
# Coordination Sequence:
#
# PCOD9222622 Si02
#       8
#     4   4   4   4   8   8   8   4
#     4   9  17  35  58  82 116 152 197 249 314 362
#     4   9  17  36  61  84 117 162 200 256 299 358
#     4  12  23  38  58  96 126 157 215 254 307 364
#     4   9  21  41  64  88 120 163 209 257 311 366
#     4   9  21  39  60  90 117 157 208 251 308 372
#     4   9  19  41  63  80 122 168 199 253 315 360
#     4  12  23  38  62  93 127 163 209 258 307 368
#     4   9  19  45  69  86 121 164 209 255 311 371
#
# _framework density 20.640954000000001
#
# number of rings (size 3 to 8) (size 9 to 14) (size 15 to 20)
#    0.000    2.182    1.818    4.091    0.000    3.636 
#    9.818    1.818    0.000    0.000    0.000    0.000 
#    0.000    0.000    0.000    0.000    0.000    0.000 
#
# Total GULP energy -122592.881731 kJ/mol
# GULP energy per Si atom -5572.403715 kJ/mol
# Density = 2.059397 g / cm^3
# Si number density = 20.640954 Si / 1000 Ang^3
#
#
#
# Elastic Constant Matrix: (Units=GPa)
#
#
# Indices 1 2 3 4 5 6 
#
# 1 81.4214 -2.5003 35.2502 -0.0027 39.8611 0.0012
# 2 -2.5003 68.3903 9.9799 -0.0025 17.5933 0.0011
# 3 35.2502 9.9799 94.6175 -0.0039 29.8382 0.0012
# 4 -0.0027 -0.0025 -0.0039 28.7369 0.0006 19.2095
# 5 39.8611 17.5933 29.8382 0.0006 52.0884 -0.0001
# 6 0.0012 0.0011 0.0012 19.2095 -0.0001 7.3323
#
#
#
# Elastic Compliance Matrix: (Units=1/GPa)
#
#
# Indices 1 2 3 4 5 6 
#
# 1 0.022294 0.005693 -0.003563 -0.000007 -0.016942 0.000014
# 2 0.005693 0.017467 -0.000890 -0.000006 -0.009747 0.000012
# 3 -0.003563 -0.000890 0.013469 -0.000003 -0.004688 0.000008
# 4 -0.000007 -0.000006 -0.000003 -0.046319 0.000010 0.121349
# 5 -0.016942 -0.009747 -0.004688 0.000010 0.038141 -0.000021
# 6 0.000014 0.000012 0.000008 0.121349 -0.000021 -0.181535
#
#
# Mechanical properties :
#
#
# Convention : Reuss Voigt Hill
#
# Bulk Modulus (GPa) = 17.95010 36.65434 27.30222
# Shear Modulus (GPa) = -41.53019 31.07814 -5.22602
#
# Velocity S-wave (km/s) = -4.49043 3.88449 -1.59291
# Velocity P-wave (km/s) = 4.26263 6.15756 3.14210
#
# Compressibility (1/GPa) = 0.05571001
#
# Stress axis : x y z
#
# Youngs Moduli (GPa) = 44.85606 57.24985 74.24667
#
# Poissons Ratio (x) = -0.32594 0.26456
# Poissons Ratio (y) = -0.25538 0.06606
# Poissons Ratio (z) = 0.15984 0.05094
#
# Static dielectric constant tensor:
#      x y z
#    x 1.770660 0.000000 0.032100 
#    y 0.000000 1.696930 0.000000 
#    z 0.032100 0.000000 1.799000 
# 
# From -- ./inp_files/290043.got.cif
#   From: 2010.05.17/outbox.cif.g08.bks.cpg/sg12_146_cif.got.tgz:290043.got - 2010.06.03 13:09:07.
