data_PCOD9222452
_publ_section_title
;
Structure prediction by ZEFSAII (Michael W. Deem and Ramdas Pophale) SiO2 
 PCOD9222452
Probable space group: C 2/M
;
_chemical_formula_sum "Si O2"
_cell_formula_units_Z 22
_cell_length_a 5.131553
_cell_length_b 32.940922
_cell_length_c 5.476070
_cell_angle_alpha 90.000000
_cell_angle_beta 98.709158
_cell_angle_gamma 90.000000
_cell_volume 914.991207
_symmetry_space_group_name_H-M "C 2/M"
_symmetry_group_IT_number 12
_symmetry_cell_setting 'monoclinic'
loop_
_space_group_symop_operation_xyz
x,y,z
-x,y,-z
-x,-y,-z
x,-y,z
1/2+x,1/2+y,z
1/2-x,1/2+y,-z
1/2-x,1/2-y,-z
1/2+x,1/2-y,z
loop_
_atom_site_type_symbol
_atom_site_label
_atom_site_fract_x
_atom_site_fract_y
_atom_site_fract_z
Si Si1 0.284607 0.850016 0.654477
Si Si2 0.000000 0.500000 0.000000
Si Si3 0.500000 0.221367 0.000000
Si Si4 0.655412 0.566207 0.779063
O O1 0.500000 0.867925 0.500000
O O2 0.227562 0.886655 0.831976
O O3 0.000000 0.839652 0.500000
O O4 0.420003 0.809800 0.776114
O O5 0.897250 0.535888 0.799268
O O6 0.250000 0.250000 0.000000
O O7 0.500000 0.565236 0.500000
O O8 0.500000 0.551104 0.000000
#
# Coordination Sequence:
#
# PCOD9222452 Si02
#       4
#     8   2   4   8
#     4  11  27  48  76 105 151 201 253 310 381 457
#     4  12  26  46  80 104 166 184 268 308 406 414
#     4  12  27  44  76 113 150 191 252 314 389 450
#     4  11  28  47  75 111 149 203 257 314 380 458
#
# _framework density 24.043951
#
# number of rings (size 3 to 8) (size 9 to 14) (size 15 to 20)
#    0.000    0.727    0.000    4.364   22.909    5.818 
#    0.000    0.000    0.000    0.000    0.000    0.000 
#    0.000    0.000    0.000    0.000    0.000    0.000 
#
# Total GULP energy -61267.619953 kJ/mol
# GULP energy per Si atom -5569.783632 kJ/mol
# Density = 2.398923 g / cm^3
# Si number density = 24.043951 Si / 1000 Ang^3
#
#
#
# Elastic Constant Matrix: (Units=GPa)
#
#
# Indices 1 2 3 4 5 6 
#
# 1 129.2243 29.8213 44.2351 0.0000 23.4771 0.0000
# 2 29.8213 175.7724 31.7966 0.0000 27.5210 0.0000
# 3 44.2351 31.7966 105.1410 0.0000 19.0874 0.0000
# 4 0.0000 0.0000 0.0000 11.5103 0.0000 13.1420
# 5 23.4771 27.5210 19.0874 0.0000 52.0709 0.0000
# 6 0.0000 0.0000 0.0000 13.1420 0.0000 -91.0678
#
#
#
# Elastic Compliance Matrix: (Units=1/GPa)
#
#
# Indices 1 2 3 4 5 6 
#
# 1 0.009513 -0.000580 -0.003325 0.000000 -0.002764 0.000000
# 2 -0.000580 0.006428 -0.001211 0.000000 -0.002692 0.000000
# 3 -0.003325 -0.001211 0.011664 0.000000 -0.002136 0.000000
# 4 0.000000 0.000000 0.000000 0.074589 0.000000 0.010764
# 5 -0.002764 -0.002692 -0.002136 0.000000 0.022657 0.000000
# 6 0.000000 0.000000 0.000000 0.010764 0.000000 -0.009427
#
#
# Mechanical properties :
#
#
# Convention : Reuss Voigt Hill
#
# Bulk Modulus (GPa) = 57.56226 69.09375 63.32801
# Shear Modulus (GPa) = 38.03842 14.78832 26.41337
#
# Velocity S-wave (km/s) = 3.98180 2.48272 3.31803
# Velocity P-wave (km/s) = 6.71804 6.08419 6.40895
#
# Compressibility (1/GPa) = 0.01737249
#
# Stress axis : x y z
#
# Youngs Moduli (GPa) = 105.12389 155.56551 85.73276
#
# Poissons Ratio (x) = 0.09018 0.28507
# Poissons Ratio (y) = 0.06094 0.10386
# Poissons Ratio (z) = 0.34955 0.18845
#
# Static dielectric constant tensor:
#      x y z
#    x 2.088280 0.000000 -0.051410 
#    y 0.000000 1.879400 0.000000 
#    z -0.051410 0.000000 2.031450 
# 
# From -- ./inp_files/1161.got.cif
#   From: 2010.05.17/outbox.cif.g08.bks.cpg/sg12_1_cif.got.tgz:1161.got - 2010.06.03 13:09:07.
