data_PCOD9222690
_publ_section_title
;
Structure prediction by ZEFSAII (Michael W. Deem and Ramdas Pophale) SiO2 
 PCOD9222690
Probable space group: C 2/M
;
_chemical_formula_sum "Si O2"
_cell_formula_units_Z 40
_cell_length_a 8.494424
_cell_length_b 26.197270
_cell_length_c 8.611602
_cell_angle_alpha 90.000000
_cell_angle_beta 86.965475
_cell_angle_gamma 90.000000
_cell_volume 1913.658917
_symmetry_space_group_name_H-M "C 2/M"
_symmetry_group_IT_number 12
_symmetry_cell_setting 'monoclinic'
loop_
_space_group_symop_operation_xyz
x,y,z
-x,y,-z
-x,-y,-z
x,-y,z
1/2+x,1/2+y,z
1/2-x,1/2+y,-z
1/2-x,1/2-y,-z
1/2+x,1/2-y,z
loop_
_atom_site_type_symbol
_atom_site_label
_atom_site_fract_x
_atom_site_fract_y
_atom_site_fract_z
Si Si1 0.393882 0.137811 0.213974
Si Si2 0.662161 0.298388 0.078962
Si Si3 0.394934 0.223918 0.658235
Si Si4 0.181818 0.140827 0.534911
Si Si5 0.894554 0.558338 0.664986
O O1 0.276336 0.153043 0.082998
O O2 0.509176 0.186176 0.233086
O O3 0.287836 0.135452 0.374976
O O4 0.498911 0.087305 0.212714
O O5 0.631967 0.276758 0.253994
O O6 0.500000 0.308494 0.000000
O O7 0.750000 0.250000 0.000000
O O8 0.500000 0.229031 0.500000
O O9 0.238199 0.193007 0.616932
O O10 0.243497 0.093966 0.638223
O O11 0.000000 0.138499 0.500000
O O12 0.857032 0.500000 0.704418
O O13 0.000000 0.558194 0.500000
#
# Coordination Sequence:
#
# PCOD9222690 Si02
#       5
#     8   8   8   8   8
#     4   9  19  35  50  76 108 145 186 220 276 337
#     4  12  24  37  53  79 112 153 193 231 272 322
#     4   9  20  38  53  73 112 157 187 220 272 336
#     4   9  18  29  52  82 109 139 182 230 274 321
#     4   8  15  32  55  77 106 142 180 228 283 335
#
# _framework density 20.902367000000002
#
# number of rings (size 3 to 8) (size 9 to 14) (size 15 to 20)
#    0.000    2.600    2.000    2.400    2.800    4.400 
#    0.000    3.000    0.000    0.600    0.000   11.200 
#    0.000    0.000    0.000    0.800    0.000    0.000 
#
# Total GULP energy -111785.277992 kJ/mol
# GULP energy per Si atom -5589.263900 kJ/mol
# Density = 2.085479 g / cm^3
# Si number density = 20.902367 Si / 1000 Ang^3
#
#
#
# Elastic Constant Matrix: (Units=GPa)
#
#
# Indices 1 2 3 4 5 6 
#
# 1 163.6634 71.0552 33.9236 0.0000 52.2471 0.0000
# 2 71.0552 141.5977 30.3051 0.0000 32.8492 0.0000
# 3 33.9236 30.3051 52.7473 0.0000 14.3184 0.0000
# 4 0.0000 0.0000 0.0000 16.9191 0.0000 2.9302
# 5 52.2471 32.8492 14.3184 0.0000 44.2542 0.0000
# 6 0.0000 0.0000 0.0000 2.9302 0.0000 16.3977
#
#
#
# Elastic Compliance Matrix: (Units=1/GPa)
#
#
# Indices 1 2 3 4 5 6 
#
# 1 0.011100 -0.002574 -0.002874 0.000000 -0.010264 0.000000
# 2 -0.002574 0.009757 -0.003080 0.000000 -0.003207 0.000000
# 3 -0.002874 -0.003080 0.023060 0.000000 -0.001782 0.000000
# 4 0.000000 0.000000 0.000000 0.060993 0.000000 -0.010899
# 5 -0.010264 -0.003207 -0.001782 0.000000 0.037672 0.000000
# 6 0.000000 0.000000 0.000000 -0.010899 0.000000 0.062932
#
#
# Mechanical properties :
#
#
# Convention : Reuss Voigt Hill
#
# Bulk Modulus (GPa) = 37.22718 69.84181 53.53450
# Shear Modulus (GPa) = 21.59621 30.36250 25.97935
#
# Velocity S-wave (km/s) = 3.21782 3.81542 3.52929
# Velocity P-wave (km/s) = 5.62624 7.27295 6.50193
#
# Compressibility (1/GPa) = 0.02686209
#
# Stress axis : x y z
#
# Youngs Moduli (GPa) = 90.09042 102.49011 43.36569
#
# Poissons Ratio (x) = 0.26379 0.12462
# Poissons Ratio (y) = 0.23187 0.13356
# Poissons Ratio (z) = 0.25889 0.31565
#
# Static dielectric constant tensor:
#      x y z
#    x 1.784500 0.000000 -0.014010 
#    y 0.000000 1.730840 0.000000 
#    z -0.014010 0.000000 1.850280 
# 
# From -- ./inp_files/39363.got.cif
#   From: 2010.05.17/outbox.cif.g08.bks.cpg/sg12_20_cif.got.tgz:39363.got - 2010.06.03 13:09:07.
