data_PCOD9222886
_publ_section_title
;
Structure prediction by ZEFSAII (Michael W. Deem and Ramdas Pophale) SiO2 
 PCOD9222886
Probable space group: C 2/M
;
_chemical_formula_sum "Si O2"
_cell_formula_units_Z 64
_cell_length_a 29.416350
_cell_length_b 15.412883
_cell_length_c 7.347543
_cell_angle_alpha 90.000000
_cell_angle_beta 104.460396
_cell_angle_gamma 90.000000
_cell_volume 3225.773858
_symmetry_space_group_name_H-M "C 2/M"
_symmetry_group_IT_number 12
_symmetry_cell_setting 'monoclinic'
loop_
_space_group_symop_operation_xyz
x,y,z
-x,y,-z
-x,-y,-z
x,-y,z
1/2+x,1/2+y,z
1/2-x,1/2+y,-z
1/2-x,1/2-y,-z
1/2+x,1/2-y,z
loop_
_atom_site_type_symbol
_atom_site_label
_atom_site_fract_x
_atom_site_fract_y
_atom_site_fract_z
Si Si1 0.137656 0.721235 0.414578
Si Si2 0.278059 0.901711 0.497347
Si Si3 0.446407 0.098623 0.667927
Si Si4 0.278066 0.098294 0.058684
Si Si5 0.168996 0.096626 0.455959
Si Si6 0.669007 0.403367 0.882036
Si Si7 0.637645 0.221238 0.860776
Si Si8 0.946419 0.598625 0.224875
O O1 0.183718 0.667487 0.402742
O O2 0.091712 0.668497 0.310878
O O3 0.141637 0.820282 0.354868
O O4 0.137945 0.722135 0.637971
O O5 0.278872 0.901538 0.278826
O O6 0.224648 0.883486 0.499424
O O7 0.289783 0.000000 0.568544
O O8 0.446053 0.098907 0.446041
O O9 0.499992 0.116374 0.777928
O O10 0.434078 0.000000 0.710499
O O11 0.316300 0.167477 0.035247
O O12 0.289778 0.000000 0.010915
O O13 0.224658 0.116544 0.949802
O O14 0.157252 0.091234 0.657257
O O15 0.161718 0.000000 0.370335
O O16 0.661747 0.500000 0.953128
O O17 0.641640 0.320288 0.928439
O O18 0.591695 0.168506 0.872562
O O19 0.934092 0.500000 0.157645
#
# Coordination Sequence:
#
# PCOD9222886 Si02
#       8
#     8   8   8   8   8   8   8   8
#     4   9  15  23  36  52  72  99 126 151 183 221
#     4   9  16  25  38  56  76  97 123 155 187 217
#     4   8  13  21  34  53  75  96 119 150 188 226
#     4   9  16  25  38  56  76  97 123 155 187 217
#     4   9  17  27  37  51  75 105 130 150 176 214
#     4   9  17  27  37  51  75 105 130 150 176 214
#     4   9  15  23  36  52  72  99 126 151 183 221
#     4   8  13  21  34  53  75  96 119 150 188 226
#
# _framework density 19.840199999999999
#
# number of rings (size 3 to 8) (size 9 to 14) (size 15 to 20)
#    0.000    3.250    0.000    2.250    0.000    3.000 
#    0.000    0.000    0.000    0.750    0.000    5.250 
#    0.000    4.000    0.000   24.000    0.000   23.000 
#
# Total GULP energy -178540.207861 kJ/mol
# GULP energy per Si atom -5579.381496 kJ/mol
# Density = 1.979504 g / cm^3
# Si number density = 19.840200 Si / 1000 Ang^3
#
#
#
# Elastic Constant Matrix: (Units=GPa)
#
#
# Indices 1 2 3 4 5 6 
#
# 1 73.0443 103.6205 20.9532 0.0000 24.9408 0.0000
# 2 103.6205 201.9684 26.1516 0.0000 40.5618 0.0000
# 3 20.9532 26.1516 56.8512 0.0000 -16.3639 0.0000
# 4 0.0000 0.0000 0.0000 -0.0070 0.0000 13.4732
# 5 24.9408 40.5618 -16.3639 0.0000 23.8591 0.0000
# 6 0.0000 0.0000 0.0000 13.4732 0.0000 25.7576
#
#
#
# Elastic Compliance Matrix: (Units=1/GPa)
#
#
# Indices 1 2 3 4 5 6 
#
# 1 0.087470 -0.020488 -0.048727 0.000000 -0.090025 0.000000
# 2 -0.020488 0.019256 -0.005688 0.000000 -0.015220 0.000000
# 3 -0.048727 -0.005688 0.069288 0.000000 0.108127 0.000000
# 4 0.000000 0.000000 0.000000 -0.141754 0.000000 0.074148
# 5 -0.090025 -0.015220 0.108127 0.000000 0.236054 0.000000
# 6 0.000000 0.000000 0.000000 0.074148 0.000000 0.000038
#
#
# Mechanical properties :
#
#
# Convention : Reuss Voigt Hill
#
# Bulk Modulus (GPa) = 38.15322 70.36829 54.26075
# Shear Modulus (GPa) = 11.65792 21.99785 16.82789
#
# Velocity S-wave (km/s) = 2.42666 3.33340 2.91550
# Velocity P-wave (km/s) = 5.20803 7.09648 6.22429
#
# Compressibility (1/GPa) = 0.02621011
#
# Stress axis : x y z
#
# Youngs Moduli (GPa) = 11.43243 51.93270 14.43256
#
# Poissons Ratio (x) = 1.06398 0.70325
# Poissons Ratio (y) = 0.23422 0.08209
# Poissons Ratio (z) = 0.55706 0.29537
#
# Static dielectric constant tensor:
#      x y z
#    x 1.699290 0.000000 -0.115070 
#    y 0.000000 1.714470 0.000000 
#    z -0.115070 0.000000 1.919190 
# 
# From -- ./inp_files/176142.got.cif
#   From: 2010.05.17/outbox.cif.g08.bks.cpg/sg12_89_cif.got.tgz:176142.got - 2010.06.03 13:09:07.
