data_PCOD9222188
_publ_section_title
;
Structure prediction by ZEFSAII (Michael W. Deem and Ramdas Pophale) SiO2 
 PCOD9222188
Probable space group: C 2/M
;
_chemical_formula_sum "Si O2"
_cell_formula_units_Z 34
_cell_length_a 17.550152
_cell_length_b 19.137554
_cell_length_c 7.616636
_cell_angle_alpha 90.000000
_cell_angle_beta 146.816619
_cell_angle_gamma 90.000000
_cell_volume 1400.142444
_symmetry_space_group_name_H-M "C 2/M"
_symmetry_group_IT_number 12
_symmetry_cell_setting 'monoclinic'
loop_
_space_group_symop_operation_xyz
x,y,z
-x,y,-z
-x,-y,-z
x,-y,z
1/2+x,1/2+y,z
1/2-x,1/2+y,-z
1/2-x,1/2-y,-z
1/2+x,1/2-y,z
loop_
_atom_site_type_symbol
_atom_site_label
_atom_site_fract_x
_atom_site_fract_y
_atom_site_fract_z
Si Si1 0.065794 0.080822 0.319781
Si Si2 0.471050 0.898928 0.748002
Si Si3 0.292319 0.188960 0.853560
Si Si4 0.794241 0.845130 0.913289
Si Si5 0.500000 0.000000 0.500000
O O1 0.199623 0.131655 0.573471
O O2 0.092923 0.000000 0.430699
O O3 0.946791 0.121275 0.201370
O O4 0.000000 0.076929 0.000000
O O5 0.310716 0.898530 0.383447
O O6 0.540344 0.941374 0.724867
O O7 0.500000 0.923717 0.000000
O O8 0.545637 0.824661 0.873403
O O9 0.274166 0.270502 0.780041
O O10 0.253090 0.172059 0.979948
#
# Coordination Sequence:
#
# PCOD9222188 Si02
#       5
#     8   8   8   8   2
#     4  11  26  43  65 101 139 177 233 291 348 415
#     4  12  26  44  73 102 135 183 235 285 343 415
#     4  11  24  45  70 100 139 184 231 287 351 418
#     4  11  24  45  70 100 139 184 231 287 351 418
#     4  12  26  48  64 100 144 180 228 294 340 414
#
# _framework density 24.283244
#
# number of rings (size 3 to 8) (size 9 to 14) (size 15 to 20)
#    0.000    0.706    2.353    3.882    3.294   11.294 
#    0.000    0.000    0.000    0.000    0.000    0.000 
#    0.000    0.000    0.000    0.000    0.000    0.000 
#
# Total GULP energy -94745.998223 kJ/mol
# GULP energy per Si atom -5573.294013 kJ/mol
# Density = 2.422797 g / cm^3
# Si number density = 24.283244 Si / 1000 Ang^3
#
#
#
# Elastic Constant Matrix: (Units=GPa)
#
#
# Indices 1 2 3 4 5 6 
#
# 1 72.7159 -0.4126 -3.3450 0.0000 -15.5354 0.0000
# 2 -0.4126 123.5261 6.8035 0.0000 -0.7469 0.0000
# 3 -3.3450 6.8035 69.8553 0.0000 -4.0736 0.0000
# 4 0.0000 0.0000 0.0000 1.4437 0.0000 -33.8817
# 5 -15.5354 -0.7469 -4.0736 0.0000 51.2216 0.0000
# 6 0.0000 0.0000 0.0000 -33.8817 0.0000 -25.9500
#
#
#
# Elastic Compliance Matrix: (Units=1/GPa)
#
#
# Indices 1 2 3 4 5 6 
#
# 1 0.014771 0.000023 0.000971 0.000000 0.004557 0.000000
# 2 0.000023 0.008139 -0.000788 0.000000 0.000063 0.000000
# 3 0.000971 -0.000788 0.014522 0.000000 0.001438 0.000000
# 4 0.000000 0.000000 0.000000 0.021891 0.000000 -0.028582
# 5 0.004557 0.000063 0.001438 0.000000 0.021021 0.000000
# 6 0.000000 0.000000 0.000000 -0.028582 0.000000 -0.001218
#
#
# Mechanical properties :
#
#
# Convention : Reuss Voigt Hill
#
# Bulk Modulus (GPa) = 26.42365 30.24322 28.33344
# Shear Modulus (GPa) = 54.74761 22.87981 38.81371
#
# Velocity S-wave (km/s) = 4.75335 3.07287 4.00230
# Velocity P-wave (km/s) = 6.40554 5.00714 5.74901
#
# Compressibility (1/GPa) = 0.03784488
#
# Stress axis : x y z
#
# Youngs Moduli (GPa) = 67.70194 122.86054 68.85924
#
# Poissons Ratio (x) = -0.00288 -0.06685
# Poissons Ratio (y) = -0.00159 0.05426
# Poissons Ratio (z) = -0.06572 0.09680
#
# Static dielectric constant tensor:
#      x y z
#    x 2.010980 0.000000 0.029420 
#    y 0.000000 1.529980 0.000000 
#    z 0.029420 0.000000 1.903550 
# 
# From -- ./inp_files/88527.got.cif
#   From: 2010.05.17/outbox.cif.g08.bks.cpg/sg12_45_cif.got.tgz:88527.got - 2010.06.03 13:09:07.
