data_PCOD9222015
_publ_section_title
;
Structure prediction by ZEFSAII (Michael W. Deem and Ramdas Pophale) SiO2 
 PCOD9222015
Probable space group: C 2/M
;
_chemical_formula_sum "Si O2"
_cell_formula_units_Z 64
_cell_length_a 16.261911
_cell_length_b 29.858736
_cell_length_c 12.108540
_cell_angle_alpha 90.000000
_cell_angle_beta 145.548038
_cell_angle_gamma 90.000000
_cell_volume 3326.078768
_symmetry_space_group_name_H-M "C 2/M"
_symmetry_group_IT_number 12
_symmetry_cell_setting 'monoclinic'
loop_
_space_group_symop_operation_xyz
x,y,z
-x,y,-z
-x,-y,-z
x,-y,z
1/2+x,1/2+y,z
1/2-x,1/2+y,-z
1/2-x,1/2-y,-z
1/2+x,1/2-y,z
loop_
_atom_site_type_symbol
_atom_site_label
_atom_site_fract_x
_atom_site_fract_y
_atom_site_fract_z
Si Si1 0.388962 0.368682 0.274898
Si Si2 0.003947 0.814687 0.193451
Si Si3 0.790152 0.551541 0.869064
Si Si4 0.013050 0.721402 0.333528
Si Si5 0.630177 0.052693 0.297111
Si Si6 0.162164 0.321647 0.164869
Si Si7 0.297357 0.851957 0.550454
Si Si8 0.248402 0.723813 0.791360
O O1 0.500000 0.363696 0.500000
O O2 0.448072 0.346670 0.230173
O O3 0.331714 0.419124 0.207000
O O4 0.245389 0.343258 0.156118
O O5 0.158749 0.834549 0.328558
O O6 0.123536 0.810531 0.037461
O O7 0.029813 0.764663 0.273180
O O8 0.754023 0.500000 0.843034
O O9 0.801685 0.560353 0.749820
O O10 0.955429 0.557962 0.094173
O O11 0.854551 0.724629 0.213462
O O12 0.057541 0.675517 0.321593
O O13 0.130608 0.721337 0.562923
O O14 0.685249 0.094523 0.430504
O O15 0.658275 0.000000 0.357810
O O16 0.236116 0.334902 0.362043
O O17 0.168731 0.269478 0.146792
O O18 0.000000 0.338693 0.000000
#
# Coordination Sequence:
#
# PCOD9222015 Si02
#       8
#     8   8   8   8   8   8   8   8
#     4  12  21  36  53  81 121 158 194 239 287 345
#     4  12  24  38  56  85 119 159 200 242 290 337
#     4   9  18  32  54  83 116 152 191 236 292 359
#     4  11  24  42  57  83 117 156 206 237 289 350
#     4   9  18  35  57  86 118 147 191 246 294 350
#     4  12  23  35  56  81 112 157 200 231 281 344
#     4  12  23  37  61  88 111 156 201 240 286 362
#     4  11  25  41  56  79 120 160 191 254 288 326
#
# _framework density 19.241878
#
# number of rings (size 3 to 8) (size 9 to 14) (size 15 to 20)
#    0.000    1.000    5.000    3.000    5.250    0.250 
#    0.000    0.625    0.000    0.000    0.000    4.375 
#    0.000    0.000    0.000    0.000    0.000    0.000 
#
# Total GULP energy -178642.417122 kJ/mol
# GULP energy per Si atom -5582.575535 kJ/mol
# Density = 1.919808 g / cm^3
# Si number density = 19.241878 Si / 1000 Ang^3
#
#
#
# Elastic Constant Matrix: (Units=GPa)
#
#
# Indices 1 2 3 4 5 6 
#
# 1 54.0429 28.0236 17.8473 0.0000 9.5208 0.0000
# 2 28.0236 111.4914 34.0161 0.0000 2.8070 0.0000
# 3 17.8473 34.0161 97.5700 0.0000 0.4227 0.0000
# 4 0.0000 0.0000 0.0000 5.2086 0.0000 7.6863
# 5 9.5208 2.8070 0.4227 0.0000 28.4299 0.0000
# 6 0.0000 0.0000 0.0000 7.6863 0.0000 30.6001
#
#
#
# Elastic Compliance Matrix: (Units=1/GPa)
#
#
# Indices 1 2 3 4 5 6 
#
# 1 0.023128 -0.004868 -0.002502 0.000000 -0.007227 0.000000
# 2 -0.004868 0.011087 -0.002977 0.000000 0.000580 0.000000
# 3 -0.002502 -0.002977 0.011741 0.000000 0.000957 0.000000
# 4 0.000000 0.000000 0.000000 0.305073 0.000000 -0.076630
# 5 -0.007227 0.000580 0.000957 0.000000 0.037523 0.000000
# 6 0.000000 0.000000 0.000000 -0.076630 0.000000 0.051928
#
#
# Mechanical properties :
#
#
# Convention : Reuss Voigt Hill
#
# Bulk Modulus (GPa) = 39.58761 46.98648 43.28705
# Shear Modulus (GPa) = 10.64753 25.06222 17.85487
#
# Velocity S-wave (km/s) = 2.35489 3.61291 3.04948
# Velocity P-wave (km/s) = 5.29267 6.47117 5.91136
#
# Compressibility (1/GPa) = 0.02526043
#
# Stress axis : x y z
#
# Youngs Moduli (GPa) = 43.23855 90.19901 85.17488
#
# Poissons Ratio (x) = 0.43907 0.21311
# Poissons Ratio (y) = 0.21048 0.25359
# Poissons Ratio (z) = 0.10819 0.26855
#
# Static dielectric constant tensor:
#      x y z
#    x 1.744630 0.000000 -0.016360 
#    y 0.000000 1.720090 0.000000 
#    z -0.016360 0.000000 1.727210 
# 
# From -- ./inp_files/218948.got.cif
#   From: 2010.05.17/outbox.cif.g08.bks.cpg/sg12_110_cif.got.tgz:218948.got - 2010.06.03 13:09:07.
