data_PCOD9222145
_publ_section_title
;
Structure prediction by ZEFSAII (Michael W. Deem and Ramdas Pophale) SiO2 
 PCOD9222145
Probable space group: C 2/M
;
_chemical_formula_sum "Si O2"
_cell_formula_units_Z 32
_cell_length_a 10.174039
_cell_length_b 20.037094
_cell_length_c 15.817198
_cell_angle_alpha 90.000000
_cell_angle_beta 152.759287
_cell_angle_gamma 90.000000
_cell_volume 1475.933810
_symmetry_space_group_name_H-M "C 2/M"
_symmetry_group_IT_number 12
_symmetry_cell_setting 'monoclinic'
loop_
_space_group_symop_operation_xyz
x,y,z
-x,y,-z
-x,-y,-z
x,-y,z
1/2+x,1/2+y,z
1/2-x,1/2+y,-z
1/2-x,1/2-y,-z
1/2+x,1/2-y,z
loop_
_atom_site_type_symbol
_atom_site_label
_atom_site_fract_x
_atom_site_fract_y
_atom_site_fract_z
Si Si1 0.071107 0.000000 0.685708
Si Si2 0.841943 0.104093 0.688498
Si Si3 0.794547 0.259697 0.626434
Si Si4 0.436566 0.000000 0.736273
Si Si5 0.267595 0.368959 0.931608
O O1 0.999246 0.936302 0.703565
O O2 0.840746 0.000000 0.480132
O O3 0.362045 0.000000 0.795198
O O4 0.500000 0.084604 0.500000
O O5 0.846244 0.183708 0.681864
O O6 0.045941 0.098371 0.886405
O O7 0.500000 0.283919 0.500000
O O8 0.750000 0.250000 0.500000
O O9 0.036661 0.309073 0.802197
O O10 0.598831 0.066762 0.802611
O O11 0.500000 0.341788 0.000000
#
# Coordination Sequence:
#
# PCOD9222145 Si02
#       5
#     4   8   8   4   8
#     4  11  24  45  70  99 142 183 230 289 351 415
#     4  11  24  44  69 102 140 184 229 288 348 415
#     4  11  25  45  71 103 143 184 233 289 352 418
#     4  11  26  43  70 101 136 185 232 290 350 416
#     4  12  25  45  71 102 138 183 235 284 352 419
#
# _framework density 21.681190000000001
#
# number of rings (size 3 to 8) (size 9 to 14) (size 15 to 20)
#    0.000    0.750    0.000    8.250    7.000    2.000 
#    0.000    0.000    0.000    0.000    0.000    0.000 
#    0.000    0.000    0.000    0.000    0.000    0.000 
#
# Total GULP energy -89184.684845 kJ/mol
# GULP energy per Si atom -5574.042803 kJ/mol
# Density = 2.163184 g / cm^3
# Si number density = 21.681190 Si / 1000 Ang^3
#
#
#
# Elastic Constant Matrix: (Units=GPa)
#
#
# Indices 1 2 3 4 5 6 
#
# 1 97.9334 -0.4781 43.5246 0.0064 14.7241 0.0038
# 2 -0.4781 90.3453 27.3375 -0.0380 27.6449 -0.0540
# 3 43.5246 27.3375 114.9474 -0.0140 4.6795 -0.1160
# 4 0.0064 -0.0380 -0.0140 23.1913 0.0041 41.5886
# 5 14.7241 27.6449 4.6795 0.0041 44.8078 -0.0210
# 6 0.0038 -0.0540 -0.1160 41.5886 -0.0210 111.4480
#
#
#
# Elastic Compliance Matrix: (Units=1/GPa)
#
#
# Indices 1 2 3 4 5 6 
#
# 1 0.013765 0.003748 -0.005850 0.000032 -0.006224 -0.000018
# 2 0.003748 0.015712 -0.004731 0.000069 -0.010431 -0.000025
# 3 -0.005850 -0.004731 0.011893 -0.000058 0.003599 0.000033
# 4 0.000032 0.000069 -0.000058 0.130347 -0.000081 -0.048641
# 5 -0.006224 -0.010431 0.003599 -0.000081 0.030423 0.000035
# 6 -0.000018 -0.000025 0.000033 -0.048641 0.000035 0.027124
#
#
# Mechanical properties :
#
#
# Convention : Reuss Voigt Hill
#
# Bulk Modulus (GPa) = 36.09663 49.33268 42.71465
# Shear Modulus (GPa) = 19.82829 51.41225 35.62027
#
# Velocity S-wave (km/s) = 3.02741 4.87487 4.05768
# Velocity P-wave (km/s) = 5.37636 7.38165 6.45733
#
# Compressibility (1/GPa) = 0.02770342
#
# Stress axis : x y z
#
# Youngs Moduli (GPa) = 72.64762 63.64605 84.08017
#
# Poissons Ratio (x) = -0.23852 0.49187
# Poissons Ratio (y) = -0.27226 0.39779
# Poissons Ratio (z) = 0.42499 0.30112
#
# Static dielectric constant tensor:
#      x y z
#    x 1.895190 -0.000130 -0.261270 
#    y -0.000130 1.447380 0.001270 
#    z -0.261270 0.001270 3.161530 
# 
# From -- ./inp_files/199041.got.cif
#   From: 2010.05.17/outbox.cif.g08.bks.cpg/sg12_100_cif.got.tgz:199041.got - 2010.06.03 13:09:07.
