data_PCOD9222836
_publ_section_title
;
Structure prediction by ZEFSAII (Michael W. Deem and Ramdas Pophale) SiO2 
 PCOD9222836
Probable space group: C 2/M
;
_chemical_formula_sum "Si O2"
_cell_formula_units_Z 56
_cell_length_a 28.427476
_cell_length_b 7.377102
_cell_length_c 23.219116
_cell_angle_alpha 90.000000
_cell_angle_beta 39.529463
_cell_angle_gamma 90.000000
_cell_volume 3099.210468
_symmetry_space_group_name_H-M "C 2/M"
_symmetry_group_IT_number 12
_symmetry_cell_setting 'monoclinic'
loop_
_space_group_symop_operation_xyz
x,y,z
-x,y,-z
-x,-y,-z
x,-y,z
1/2+x,1/2+y,z
1/2-x,1/2+y,-z
1/2-x,1/2-y,-z
1/2+x,1/2-y,z
loop_
_atom_site_type_symbol
_atom_site_label
_atom_site_fract_x
_atom_site_fract_y
_atom_site_fract_z
Si Si1 0.014034 0.780847 0.392139
Si Si2 0.983998 0.219841 0.288320
Si Si3 0.849481 0.221202 0.570877
Si Si4 0.823309 0.783621 0.466824
Si Si5 0.738482 0.285809 0.104135
Si Si6 0.674254 0.278432 0.283136
Si Si7 0.133452 0.218202 0.099676
O O1 0.010736 0.735037 0.327745
O O2 0.935930 0.723717 0.492463
O O3 0.090276 0.721049 0.347878
O O4 0.014680 0.000000 0.395158
O O5 0.899236 0.283716 0.365238
O O6 0.049056 0.282394 0.184617
O O7 0.982129 0.000000 0.286074
O O8 0.820477 0.282347 0.535815
O O9 0.808960 0.279823 0.667470
O O10 0.848372 0.000000 0.571298
O O11 0.750000 0.750000 0.500000
O O12 0.831655 0.000000 0.463128
O O13 0.723541 0.500000 0.120865
O O14 0.723458 0.216743 0.182597
O O15 0.681556 0.213918 0.109217
O O16 0.819835 0.262238 0.001158
O O17 0.675901 0.500000 0.282213
O O18 0.132278 0.000000 0.104592
#
# Coordination Sequence:
#
# PCOD9222836 Si02
#       7
#     8   8   8   8   8   8   8
#     4   8  11  17  30  52  80 104 127 155 187 224
#     4   8  13  23  39  57  78 105 133 161 192 229
#     4   8  14  21  34  56  79 102 128 158 191 232
#     4   9  17  29  44  62  82 101 127 163 202 239
#     4   9  16  23  35  56  82 108 133 161 190 221
#     4   9  13  19  32  54  82 107 128 155 192 227
#     4   9  15  25  38  53  77 109 139 161 186 222
#
# _framework density 18.069116999999999
#
# number of rings (size 3 to 8) (size 9 to 14) (size 15 to 20)
#    0.000    3.429    1.429    2.143    0.000    1.714 
#    0.000    0.714    0.000    0.857    0.000    1.000 
#    0.000   11.714    0.000    0.000    0.000    0.000 
#
# Total GULP energy -155943.571948 kJ/mol
# GULP energy per Si atom -5569.413284 kJ/mol
# Density = 1.802799 g / cm^3
# Si number density = 18.069117 Si / 1000 Ang^3
#
#
#
# Elastic Constant Matrix: (Units=GPa)
#
#
# Indices 1 2 3 4 5 6 
#
# 1 88.9715 0.4001 86.8678 0.0017 1.1929 -0.0031
# 2 0.4001 59.4558 -0.3745 0.0035 3.1639 -0.0018
# 3 86.8678 -0.3745 171.1095 0.0098 23.5614 -0.0057
# 4 0.0017 0.0035 0.0098 7.6701 -0.0022 -2.5568
# 5 1.1929 3.1639 23.5614 -0.0022 21.4693 -0.0015
# 6 -0.0031 -0.0018 -0.0057 -2.5568 -0.0015 3.2606
#
#
#
# Elastic Compliance Matrix: (Units=1/GPa)
#
#
# Indices 1 2 3 4 5 6 
#
# 1 0.026040 -0.001101 -0.015368 0.000027 0.015581 0.000026
# 2 -0.001101 0.017028 0.001100 -0.000010 -0.003655 0.000001
# 3 -0.015368 0.001100 0.015966 -0.000027 -0.016830 -0.000015
# 4 0.000027 -0.000010 -0.000027 0.176519 0.000057 0.138420
# 5 0.015581 -0.003655 -0.016830 0.000057 0.064721 0.000059
# 6 0.000026 0.000001 -0.000015 0.138420 0.000059 0.415238
#
#
# Mechanical properties :
#
#
# Convention : Reuss Voigt Hill
#
# Bulk Modulus (GPa) = 35.34148 54.81373 45.07760
# Shear Modulus (GPa) = 6.61654 21.98954 14.30304
#
# Velocity S-wave (km/s) = 1.91566 3.49229 2.81654
# Velocity P-wave (km/s) = 4.94919 6.83103 5.96479
#
# Compressibility (1/GPa) = 0.02829536
#
# Stress axis : x y z
#
# Youngs Moduli (GPa) = 38.40274 58.72663 62.63408
#
# Poissons Ratio (x) = 0.06467 0.96253
# Poissons Ratio (y) = 0.04229 -0.06887
# Poissons Ratio (z) = 0.59016 -0.06457
#
# Static dielectric constant tensor:
#      x y z
#    x 1.593900 -0.000010 0.013120 
#    y -0.000010 1.741010 0.000010 
#    z 0.013120 0.000010 1.660960 
# 
# From -- ./inp_files/292640.got.cif
#   From: 2010.05.17/outbox.cif.g08.bks.cpg/sg12_147_cif.got.tgz:292640.got - 2010.06.03 13:09:07.
