data_PCOD9222729
_publ_section_title
;
Structure prediction by ZEFSAII (Michael W. Deem and Ramdas Pophale) SiO2 
 PCOD9222729
Probable space group: C 2/M
;
_chemical_formula_sum "Si O2"
_cell_formula_units_Z 48
_cell_length_a 12.804018
_cell_length_b 19.178581
_cell_length_c 21.882594
_cell_angle_alpha 90.000000
_cell_angle_beta 155.233229
_cell_angle_gamma 90.000000
_cell_volume 2251.118668
_symmetry_space_group_name_H-M "C 2/M"
_symmetry_group_IT_number 12
_symmetry_cell_setting 'monoclinic'
loop_
_space_group_symop_operation_xyz
x,y,z
-x,y,-z
-x,-y,-z
x,-y,z
1/2+x,1/2+y,z
1/2-x,1/2+y,-z
1/2-x,1/2-y,-z
1/2+x,1/2-y,z
loop_
_atom_site_type_symbol
_atom_site_label
_atom_site_fract_x
_atom_site_fract_y
_atom_site_fract_z
Si Si1 0.500000 0.767582 0.500000
Si Si2 0.576346 0.000000 0.750601
Si Si3 0.772863 0.773142 0.259164
Si Si4 0.530588 0.360552 0.290511
Si Si5 0.183723 0.631692 0.988137
Si Si6 0.123085 0.500000 0.215701
Si Si7 0.364457 0.500000 0.580211
Si Si8 0.617644 0.637500 0.121558
O O1 0.585617 0.720343 0.601949
O O2 0.265621 0.816483 0.391480
O O3 0.380986 0.000000 0.591399
O O4 0.743058 0.930771 0.829131
O O5 0.448239 0.000000 0.749871
O O6 0.487319 0.799633 0.111862
O O7 0.787791 0.692350 0.247479
O O8 0.902257 0.817534 0.276064
O O9 0.615150 0.433217 0.364905
O O10 0.329064 0.368890 0.129332
O O11 0.997196 0.567504 0.879983
O O12 0.393294 0.621314 0.048025
O O13 0.410848 0.500000 0.349727
O O14 0.500000 0.674974 0.000000
#
# Coordination Sequence:
#
# PCOD9222729 Si02
#       8
#     4   4   8   8   8   4   4   8
#     4  12  28  47  70 109 148 188 242 296 362 431
#     4  12  27  47  73 110 148 189 238 299 369 425
#     4  12  27  47  76 106 149 190 237 297 364 426
#     4  12  27  50  73 107 146 190 244 294 361 428
#     4  12  25  47  76 107 143 189 243 298 352 426
#     4  12  25  48  74 109 142 189 245 300 356 428
#     4  12  28  47  75 102 148 196 234 300 363 433
#     4  12  24  45  76 108 142 187 243 299 353 424
#
# _framework density 21.322731000000001
#
# number of rings (size 3 to 8) (size 9 to 14) (size 15 to 20)
#    0.000    0.000    5.000    5.000    2.333    2.333 
#    0.000    0.000    0.000    0.000    0.000    0.000 
#    0.000    0.000    0.000    0.000    0.000    0.000 
#
# Total GULP energy -134376.366727 kJ/mol
# GULP energy per Si atom -5599.015280 kJ/mol
# Density = 2.127420 g / cm^3
# Si number density = 21.322731 Si / 1000 Ang^3
#
#
#
# Elastic Constant Matrix: (Units=GPa)
#
#
# Indices 1 2 3 4 5 6 
#
# 1 118.3106 15.8440 37.5448 -0.0520 -22.8733 -0.0982
# 2 15.8440 54.2923 15.5936 -0.0498 -6.3838 -0.1018
# 3 37.5448 15.5936 109.2740 0.0344 -40.9410 0.0064
# 4 -0.0520 -0.0498 0.0344 90.0716 0.0229 123.3664
# 5 -22.8733 -6.3838 -40.9410 0.0229 39.4695 0.0298
# 6 -0.0982 -0.1018 0.0064 123.3664 0.0298 281.2597
#
#
#
# Elastic Compliance Matrix: (Units=1/GPa)
#
#
# Indices 1 2 3 4 5 6 
#
# 1 0.009984 -0.001973 -0.001800 0.000003 0.003599 0.000001
# 2 -0.001973 0.019601 -0.002224 0.000004 -0.000280 0.000005
# 3 -0.001800 -0.002224 0.015640 -0.000019 0.014820 0.000005
# 4 0.000003 0.000004 -0.000019 0.027808 -0.000024 -0.012197
# 5 0.003599 -0.000280 0.014820 -0.000024 0.042749 0.000007
# 6 0.000001 0.000005 0.000005 -0.012197 0.000007 0.008905
#
#
# Mechanical properties :
#
#
# Convention : Reuss Voigt Hill
#
# Bulk Modulus (GPa) = 30.09427 46.64907 38.37167
# Shear Modulus (GPa) = 33.83920 96.35312 65.09616
#
# Velocity S-wave (km/s) = 3.98804 6.72949 5.53130
# Velocity P-wave (km/s) = 5.94561 9.07230 7.66997
#
# Compressibility (1/GPa) = 0.03322892
#
# Stress axis : x y z
#
# Youngs Moduli (GPa) = 100.16310 51.01906 63.94024
#
# Poissons Ratio (x) = 0.10067 0.11510
# Poissons Ratio (y) = 0.19765 0.14221
# Poissons Ratio (z) = 0.18030 0.11347
#
# Static dielectric constant tensor:
#      x y z
#    x 1.747990 0.000000 0.011410 
#    y 0.000000 1.797020 0.000000 
#    z 0.011410 0.000000 1.746320 
# 
# From -- ./inp_files/306864.got.cif
#   From: 2010.05.17/outbox.cif.g08.bks.cpg/sg12_154_cif.got.tgz:306864.got - 2010.06.03 13:09:07.
