data_PCOD9222389
_publ_section_title
;
Structure prediction by ZEFSAII (Michael W. Deem and Ramdas Pophale) SiO2 
 PCOD9222389
Probable space group: C 2/M
;
_chemical_formula_sum "Si O2"
_cell_formula_units_Z 20
_cell_length_a 18.937603
_cell_length_b 10.068384
_cell_length_c 8.112641
_cell_angle_alpha 90.000000
_cell_angle_beta 33.668437
_cell_angle_gamma 90.000000
_cell_volume 857.549743
_symmetry_space_group_name_H-M "C 2/M"
_symmetry_group_IT_number 12
_symmetry_cell_setting 'monoclinic'
loop_
_space_group_symop_operation_xyz
x,y,z
-x,y,-z
-x,-y,-z
x,-y,z
1/2+x,1/2+y,z
1/2-x,1/2+y,-z
1/2-x,1/2-y,-z
1/2+x,1/2-y,z
loop_
_atom_site_type_symbol
_atom_site_label
_atom_site_fract_x
_atom_site_fract_y
_atom_site_fract_z
Si Si1 0.273863 0.783058 0.264122
Si Si2 0.034246 0.500000 0.235049
Si Si3 0.123915 0.000000 0.379144
Si Si4 0.255105 0.000000 0.804648
O O1 0.250000 0.750000 0.500000
O O2 0.302465 0.641150 0.127914
O O3 0.151057 0.866707 0.432554
O O4 0.392391 0.874937 0.984101
O O5 0.000000 0.500000 0.500000
O O6 0.889654 0.500000 0.452167
O O7 0.000000 0.000000 0.500000
O O8 0.245342 0.000000 0.020367
#
# Coordination Sequence:
#
# PCOD9222389 Si02
#       4
#     8   4   4   4
#     4  11  26  48  75 116 155 204 267 329 398 463
#     4  11  25  48  79 108 156 208 267 322 391 481
#     4  11  26  47  78 113 159 207 264 324 398 482
#     4  12  25  44  80 108 153 213 269 317 392 479
#
# _framework density 23.322261999999998
#
# number of rings (size 3 to 8) (size 9 to 14) (size 15 to 20)
#    0.000    0.800    4.000    3.600    5.600    3.200 
#    0.000    2.000    0.000    0.000    0.000    0.000 
#    0.000    0.000    0.000    0.000    0.000    0.000 
#
# Total GULP energy -55769.384096 kJ/mol
# GULP energy per Si atom -5576.938410 kJ/mol
# Density = 2.326918 g / cm^3
# Si number density = 23.322262 Si / 1000 Ang^3
#
#
#
# Elastic Constant Matrix: (Units=GPa)
#
#
# Indices 1 2 3 4 5 6 
#
# 1 103.1575 64.8425 68.0921 0.0000 16.7069 0.0000
# 2 64.8425 244.7886 75.7735 0.0000 12.7917 0.0000
# 3 68.0921 75.7735 163.0511 0.0000 5.9813 0.0000
# 4 0.0000 0.0000 0.0000 48.6035 0.0000 13.6194
# 5 16.7069 12.7917 5.9813 0.0000 65.7758 0.0000
# 6 0.0000 0.0000 0.0000 13.6194 0.0000 53.5461
#
#
#
# Elastic Compliance Matrix: (Units=1/GPa)
#
#
# Indices 1 2 3 4 5 6 
#
# 1 0.014922 -0.002226 -0.005091 0.000000 -0.002894 0.000000
# 2 -0.002226 0.005139 -0.001447 0.000000 -0.000302 0.000000
# 3 -0.005091 -0.001447 0.008904 0.000000 0.000765 0.000000
# 4 0.000000 0.000000 0.000000 0.022154 0.000000 -0.005635
# 5 -0.002894 -0.000302 0.000765 0.000000 0.015928 0.000000
# 6 0.000000 0.000000 0.000000 -0.005635 0.000000 0.020109
#
#
# Mechanical properties :
#
#
# Convention : Reuss Voigt Hill
#
# Bulk Modulus (GPa) = 87.44297 103.15706 95.30002
# Shear Modulus (GPa) = 46.08503 53.73768 49.91135
#
# Velocity S-wave (km/s) = 4.45006 4.80535 4.63111
# Velocity P-wave (km/s) = 7.99867 8.66693 8.33950
#
# Compressibility (1/GPa) = 0.01143602
#
# Stress axis : x y z
#
# Youngs Moduli (GPa) = 67.01406 194.60715 112.31108
#
# Poissons Ratio (x) = 0.43311 0.57181
# Poissons Ratio (y) = 0.14914 0.16257
# Poissons Ratio (z) = 0.34119 0.28169
#
# Static dielectric constant tensor:
#      x y z
#    x 2.174530 0.000000 -0.079730 
#    y 0.000000 1.906490 0.000000 
#    z -0.079730 0.000000 1.878280 
# 
# From -- ./inp_files/42887.got.cif
#   From: 2010.05.17/outbox.cif.g08.bks.cpg/sg12_22_cif.got.tgz:42887.got - 2010.06.03 13:09:07.
