data_PCOD9222429
_publ_section_title
;
Structure prediction by ZEFSAII (Michael W. Deem and Ramdas Pophale) SiO2 
 PCOD9222429
Probable space group: C 2/M
;
_chemical_formula_sum "Si O2"
_cell_formula_units_Z 28
_cell_length_a 8.910938
_cell_length_b 23.741577
_cell_length_c 5.299473
_cell_angle_alpha 90.000000
_cell_angle_beta 108.152677
_cell_angle_gamma 90.000000
_cell_volume 1065.354803
_symmetry_space_group_name_H-M "C 2/M"
_symmetry_group_IT_number 12
_symmetry_cell_setting 'monoclinic'
loop_
_space_group_symop_operation_xyz
x,y,z
-x,y,-z
-x,-y,-z
x,-y,z
1/2+x,1/2+y,z
1/2-x,1/2+y,-z
1/2-x,1/2-y,-z
1/2+x,1/2-y,z
loop_
_atom_site_type_symbol
_atom_site_label
_atom_site_fract_x
_atom_site_fract_y
_atom_site_fract_z
Si Si1 0.909574 0.281087 0.716107
Si Si2 0.311077 0.937875 0.959331
Si Si3 0.500000 0.410237 0.500000
Si Si4 0.305791 0.342310 0.731487
O O1 0.799430 0.331761 0.572402
O O2 0.835264 0.224024 0.796806
O O3 0.000000 0.266055 0.500000
O O4 0.000000 0.303841 0.000000
O O5 0.168699 0.938008 0.669417
O O6 0.287085 0.000000 0.072502
O O7 0.500000 0.936357 0.000000
O O8 0.275928 0.885529 0.125598
O O9 0.464395 0.370397 0.718088
#
# Coordination Sequence:
#
# PCOD9222429 Si02
#       4
#     8   8   4   8
#     4  11  26  47  81 122 168 225 279 344 422 502
#     4  11  28  53  82 117 164 221 283 349 420 499
#     4  12  25  46  80 120 160 212 277 348 416 506
#     4  11  27  46  79 117 169 213 281 343 425 496
#
# _framework density 26.282323999999999
#
# number of rings (size 3 to 8) (size 9 to 14) (size 15 to 20)
#    0.000    0.857    1.429    3.000    8.000    5.714 
#    0.000    2.857    0.000    0.857    0.000    0.000 
#    0.000    0.000    0.000    0.000    0.000    0.000 
#
# Total GULP energy -78038.107720 kJ/mol
# GULP energy per Si atom -5574.150551 kJ/mol
# Density = 2.622250 g / cm^3
# Si number density = 26.282324 Si / 1000 Ang^3
#
#
#
# Elastic Constant Matrix: (Units=GPa)
#
#
# Indices 1 2 3 4 5 6 
#
# 1 154.2283 74.8596 47.6382 0.0000 14.9196 0.0000
# 2 74.8596 207.4729 56.8509 0.0000 -15.3499 0.0000
# 3 47.6382 56.8509 128.4302 0.0000 28.2529 0.0000
# 4 0.0000 0.0000 0.0000 29.2366 0.0000 -30.1836
# 5 14.9196 -15.3499 28.2529 0.0000 66.7972 0.0000
# 6 0.0000 0.0000 0.0000 -30.1836 0.0000 24.1556
#
#
#
# Elastic Compliance Matrix: (Units=1/GPa)
#
#
# Indices 1 2 3 4 5 6 
#
# 1 0.008485 -0.002794 -0.001491 0.000000 -0.001907 0.000000
# 2 -0.002794 0.006820 -0.002717 0.000000 0.003341 0.000000
# 3 -0.001491 -0.002717 0.010592 0.000000 -0.004771 0.000000
# 4 0.000000 0.000000 0.000000 -0.117935 0.000000 -0.147365
# 5 -0.001907 0.003341 -0.004771 0.000000 0.018182 0.000000
# 6 0.000000 0.000000 0.000000 -0.147365 0.000000 -0.142742
#
#
# Mechanical properties :
#
#
# Convention : Reuss Voigt Hill
#
# Bulk Modulus (GPa) = 84.09148 94.31432 89.20290
# Shear Modulus (GPa) = -25.17267 44.75671 9.79202
#
# Velocity S-wave (km/s) = -3.09816 4.13112 1.93230
# Velocity P-wave (km/s) = 4.38940 7.66276 6.24438
#
# Compressibility (1/GPa) = 0.01189181
#
# Stress axis : x y z
#
# Youngs Moduli (GPa) = 117.85398 146.63207 94.41135
#
# Poissons Ratio (x) = 0.40969 0.14078
# Poissons Ratio (y) = 0.32929 0.25655
# Poissons Ratio (z) = 0.17573 0.39845
#
# Static dielectric constant tensor:
#      x y z
#    x 2.467580 0.000000 0.189850 
#    y 0.000000 2.025550 0.000000 
#    z 0.189850 0.000000 2.159170 
# 
# From -- ./inp_files/3201.got.cif
#   From: 2010.05.17/outbox.cif.g08.bks.cpg/sg12_2_cif.got.tgz:3201.got - 2010.06.03 13:09:07.
