data_PCOD9222603
_publ_section_title
;
Structure prediction by ZEFSAII (Michael W. Deem and Ramdas Pophale) SiO2 
 PCOD9222603
Probable space group: C 2/M
;
_chemical_formula_sum "Si O2"
_cell_formula_units_Z 40
_cell_length_a 21.102713
_cell_length_b 14.949706
_cell_length_c 17.205400
_cell_angle_alpha 90.000000
_cell_angle_beta 19.756335
_cell_angle_gamma 90.000000
_cell_volume 1834.759377
_symmetry_space_group_name_H-M "C 2/M"
_symmetry_group_IT_number 12
_symmetry_cell_setting 'monoclinic'
loop_
_space_group_symop_operation_xyz
x,y,z
-x,y,-z
-x,-y,-z
x,-y,z
1/2+x,1/2+y,z
1/2-x,1/2+y,-z
1/2-x,1/2-y,-z
1/2+x,1/2-y,z
loop_
_atom_site_type_symbol
_atom_site_label
_atom_site_fract_x
_atom_site_fract_y
_atom_site_fract_z
Si Si1 0.563006 0.500000 0.597523
Si Si2 0.500000 0.738423 0.500000
Si Si3 0.776392 0.317518 0.896996
Si Si4 0.698885 0.846305 0.752232
Si Si5 0.863643 0.803968 0.301229
Si Si6 0.158001 0.500000 0.087820
Si Si7 0.743800 0.500000 0.549745
O O1 0.668200 0.412284 0.448020
O O2 0.348556 0.500000 0.818394
O O3 0.591335 0.500000 0.657145
O O4 0.437637 0.791062 0.649359
O O5 0.682001 0.680525 0.310491
O O6 0.750000 0.250000 0.000000
O O7 0.577582 0.315884 0.082054
O O8 0.826155 0.412431 0.877094
O O9 0.652651 0.758761 0.754821
O O10 0.500000 0.889626 0.000000
O O11 0.750000 0.750000 0.500000
O O12 0.784341 0.903801 0.377472
O O13 0.960455 0.500000 0.271428
#
# Coordination Sequence:
#
# PCOD9222603 Si02
#       7
#     4   4   8   8   8   4   4
#     4  12  25  43  70 104 140 187 242 282 360 431
#     4  12  26  46  72 102 146 190 236 292 360 418
#     4  12  25  45  73 105 142 190 238 293 355 427
#     4  12  26  45  68 102 144 187 230 297 356 422
#     4  12  22  45  71 101 141 183 238 292 350 420
#     4  12  24  44  70 105 141 183 239 294 352 419
#     4  12  24  41  73 106 135 181 238 295 347 422
#
# _framework density 21.801223
#
# number of rings (size 3 to 8) (size 9 to 14) (size 15 to 20)
#    0.000    0.000    6.000    5.100    0.000    2.400 
#    0.000    2.500    0.000    0.000    0.000    0.000 
#    0.000    0.000    0.000    0.000    0.000    0.000 
#
# Total GULP energy -111871.368446 kJ/mol
# GULP energy per Si atom -5593.568422 kJ/mol
# Density = 2.175160 g / cm^3
# Si number density = 21.801223 Si / 1000 Ang^3
#
#
#
# Elastic Constant Matrix: (Units=GPa)
#
#
# Indices 1 2 3 4 5 6 
#
# 1 51.4233 22.7869 7.9736 -0.0073 -4.4831 0.0007
# 2 22.7869 139.6169 12.6766 -0.0119 7.7128 0.0055
# 3 7.9736 12.6766 134.7734 -0.0254 -16.0289 -0.0010
# 4 -0.0073 -0.0119 -0.0254 39.7312 0.0079 8.7313
# 5 -4.4831 7.7128 -16.0289 0.0079 49.3892 0.0004
# 6 0.0007 0.0055 -0.0010 8.7313 0.0004 15.7892
#
#
#
# Elastic Compliance Matrix: (Units=1/GPa)
#
#
# Indices 1 2 3 4 5 6 
#
# 1 0.021318 -0.003545 -0.000657 0.000002 0.002275 -0.000001
# 2 -0.003545 0.007908 -0.000748 0.000002 -0.001800 -0.000004
# 3 -0.000657 -0.000748 0.007838 0.000005 0.002601 -0.000002
# 4 0.000002 0.000002 0.000005 0.028651 -0.000003 -0.015844
# 5 0.002275 -0.001800 0.002601 -0.000003 0.021579 0.000002
# 6 -0.000001 -0.000004 -0.000002 -0.015844 0.000002 0.072096
#
#
# Mechanical properties :
#
#
# Convention : Reuss Voigt Hill
#
# Bulk Modulus (GPa) = 36.81415 45.85420 41.33417
# Shear Modulus (GPa) = 28.03536 39.80702 33.92119
#
# Velocity S-wave (km/s) = 3.58991 4.27770 3.94881
# Velocity P-wave (km/s) = 5.84005 6.74365 6.30805
#
# Compressibility (1/GPa) = 0.02716347
#
# Stress axis : x y z
#
# Youngs Moduli (GPa) = 46.90932 126.44729 127.57599
#
# Poissons Ratio (x) = 0.44829 0.08383
# Poissons Ratio (y) = 0.16631 0.09544
# Poissons Ratio (z) = 0.03083 0.09460
#
# Static dielectric constant tensor:
#      x y z
#    x 1.800520 0.000010 0.032670 
#    y 0.000010 1.788600 0.000000 
#    z 0.032670 0.000000 1.861470 
# 
# From -- ./inp_files/284463.got.cif
#   From: 2010.05.17/outbox.cif.g08.bks.cpg/sg12_143_cif.got.tgz:284463.got - 2010.06.03 13:09:07.
