data_PCOD9222565
_publ_section_title
;
Structure prediction by ZEFSAII (Michael W. Deem and Ramdas Pophale) SiO2 
 PCOD9222565
Probable space group: C 2/M
;
_chemical_formula_sum "Si O2"
_cell_formula_units_Z 34
_cell_length_a 14.019977
_cell_length_b 7.676073
_cell_length_c 18.233065
_cell_angle_alpha 90.000000
_cell_angle_beta 133.161720
_cell_angle_gamma 90.000000
_cell_volume 1431.288590
_symmetry_space_group_name_H-M "C 2/M"
_symmetry_group_IT_number 12
_symmetry_cell_setting 'monoclinic'
loop_
_space_group_symop_operation_xyz
x,y,z
-x,y,-z
-x,-y,-z
x,-y,z
1/2+x,1/2+y,z
1/2-x,1/2+y,-z
1/2-x,1/2-y,-z
1/2+x,1/2-y,z
loop_
_atom_site_type_symbol
_atom_site_label
_atom_site_fract_x
_atom_site_fract_y
_atom_site_fract_z
Si Si1 0.500000 0.000000 0.500000
Si Si2 0.224627 0.201015 0.754854
Si Si3 0.319282 0.290095 0.112357
Si Si4 0.587696 0.703910 0.441327
Si Si5 0.890713 0.202677 0.705213
O O1 0.411903 0.153239 0.494900
O O2 0.251286 0.273684 0.850274
O O3 0.068614 0.209184 0.662382
O O4 0.295548 0.285542 0.723779
O O5 0.265153 0.000000 0.774016
O O6 0.322763 0.500000 0.120076
O O7 0.468718 0.224240 0.195193
O O8 0.250000 0.250000 0.000000
O O9 0.612954 0.500000 0.474553
O O10 0.651168 0.770268 0.397270
O O11 0.911357 0.000000 0.699417
#
# Coordination Sequence:
#
# PCOD9222565 Si02
#       5
#     2   8   8   8   8
#     4  12  22  36  68  86 108 146 198 220 308 338
#     4   9  19  36  58  78 111 150 187 228 282 333
#     4   9  19  35  51  80 114 148 186 234 278 324
#     4   9  21  40  58  83 117 147 183 240 281 342
#     4   9  19  36  58  78 111 150 187 228 282 333
#
# _framework density 23.754816999999999
#
# number of rings (size 3 to 8) (size 9 to 14) (size 15 to 20)
#    0.000    2.824    0.000    3.176    3.294    2.824 
#    4.235    5.882    0.000    0.000    0.000    0.000 
#    0.000    0.000    0.000    0.000    0.000    0.000 
#
# Total GULP energy -94694.756375 kJ/mol
# GULP energy per Si atom -5570.279787 kJ/mol
# Density = 2.370075 g / cm^3
# Si number density = 23.754817 Si / 1000 Ang^3
#
#
#
# Elastic Constant Matrix: (Units=GPa)
#
#
# Indices 1 2 3 4 5 6 
#
# 1 155.1905 38.0898 41.9869 0.0000 -45.6723 0.0000
# 2 38.0898 97.5134 31.6176 0.0000 -13.9248 0.0000
# 3 41.9869 31.6176 142.6622 0.0000 -38.5768 0.0000
# 4 0.0000 0.0000 0.0000 16.2368 0.0000 -4.4496
# 5 -45.6723 -13.9248 -38.5768 0.0000 33.1269 0.0000
# 6 0.0000 0.0000 0.0000 -4.4496 0.0000 38.1018
#
#
#
# Elastic Compliance Matrix: (Units=1/GPa)
#
#
# Indices 1 2 3 4 5 6 
#
# 1 0.011607 -0.002687 0.001753 0.000000 0.016915 0.000000
# 2 -0.002687 0.011829 -0.002172 0.000000 -0.001261 0.000000
# 3 0.001753 -0.002172 0.010774 0.000000 0.014051 0.000000
# 4 0.000000 0.000000 0.000000 0.063624 0.000000 0.007430
# 5 0.016915 -0.001261 0.014051 0.000000 0.069340 0.000000
# 6 0.000000 0.000000 0.000000 0.007430 0.000000 0.027113
#
#
# Mechanical properties :
#
#
# Convention : Reuss Voigt Hill
#
# Bulk Modulus (GPa) = 35.71540 68.75053 52.23296
# Shear Modulus (GPa) = 23.82866 36.40457 30.11662
#
# Velocity S-wave (km/s) = 3.17062 3.91898 3.56450
# Velocity P-wave (km/s) = 5.33587 7.03437 6.24315
#
# Compressibility (1/GPa) = 0.02799913
#
# Stress axis : x y z
#
# Youngs Moduli (GPa) = 86.15674 84.54106 92.81195
#
# Poissons Ratio (x) = 0.22715 -0.16273
# Poissons Ratio (y) = 0.23149 0.20157
# Poissons Ratio (z) = -0.15106 0.18361
#
# Static dielectric constant tensor:
#      x y z
#    x 1.969110 0.000000 0.021240 
#    y 0.000000 1.799250 0.000000 
#    z 0.021240 0.000000 1.977920 
# 
# From -- ./inp_files/40156.got.cif
#   From: 2010.05.17/outbox.cif.g08.bks.cpg/sg12_21_cif.got.tgz:40156.got - 2010.06.03 13:09:07.
