data_PCOD9222848
_publ_section_title
;
Structure prediction by ZEFSAII (Michael W. Deem and Ramdas Pophale) SiO2 
 PCOD9222848
Probable space group: C 2/M
;
_chemical_formula_sum "Si O2"
_cell_formula_units_Z 32
_cell_length_a 23.809217
_cell_length_b 5.736209
_cell_length_c 24.013535
_cell_angle_alpha 90.000000
_cell_angle_beta 158.810894
_cell_angle_gamma 90.000000
_cell_volume 1185.417012
_symmetry_space_group_name_H-M "C 2/M"
_symmetry_group_IT_number 12
_symmetry_cell_setting 'monoclinic'
loop_
_space_group_symop_operation_xyz
x,y,z
-x,y,-z
-x,-y,-z
x,-y,z
1/2+x,1/2+y,z
1/2-x,1/2+y,-z
1/2-x,1/2-y,-z
1/2+x,1/2-y,z
loop_
_atom_site_type_symbol
_atom_site_label
_atom_site_fract_x
_atom_site_fract_y
_atom_site_fract_z
Si Si1 0.059021 0.748913 0.980235
Si Si2 0.604685 0.000000 0.509234
Si Si3 0.178041 0.249689 0.871625
Si Si4 0.813727 0.751207 0.621870
Si Si5 0.727312 0.000000 0.747662
O O1 0.978154 0.500000 0.904865
O O2 0.181733 0.748957 0.042915
O O3 0.165863 0.783189 0.134037
O O4 0.974850 0.000000 0.898159
O O5 0.676012 0.786053 0.539584
O O6 0.665362 0.000000 0.628504
O O7 0.421100 0.000000 0.348380
O O8 0.092949 0.500000 0.786915
O O9 0.094663 0.000000 0.786302
O O10 0.250000 0.250000 0.000000
O O11 0.890899 0.500000 0.702829
O O12 0.750000 0.750000 0.500000
O O13 0.902582 0.000000 0.710204
#
# Coordination Sequence:
#
# PCOD9222848 Si02
#       5
#     8   4   8   8   4
#     4   8  15  25  34  45  71  98 120 150 173 212
#     4   9  18  28  42  56  74 103 130 154 182 227
#     4   8  12  19  32  47  60  84 122 152 168 199
#     4   8  15  28  43  56  68  86 123 167 191 213
#     4   9  18  28  36  56  82 104 126 146 184 229
#
# _framework density 26.994720999999998
#
# number of rings (size 3 to 8) (size 9 to 14) (size 15 to 20)
#    1.500    2.250    0.000    0.000    0.000    2.000 
#    0.000    2.500    0.000    0.000    0.000    0.000 
#    0.000    0.000    0.000    0.000    0.000    7.500 
#
# Total GULP energy -89301.383775 kJ/mol
# GULP energy per Si atom -5581.336486 kJ/mol
# Density = 2.693328 g / cm^3
# Si number density = 26.994721 Si / 1000 Ang^3
#
#
#
# Elastic Constant Matrix: (Units=GPa)
#
#
# Indices 1 2 3 4 5 6 
#
# 1 177.4043 27.2273 43.4278 0.0001 -17.9648 -0.0003
# 2 27.2273 326.2203 23.4929 -0.0003 6.3810 0.0024
# 3 43.4278 23.4929 114.0591 0.0006 -35.5339 0.0005
# 4 0.0001 -0.0003 0.0006 0.6256 0.0004 -10.1563
# 5 -17.9648 6.3810 -35.5339 0.0004 64.2980 0.0003
# 6 -0.0003 0.0024 0.0005 -10.1563 0.0003 30.7697
#
#
#
# Elastic Compliance Matrix: (Units=1/GPa)
#
#
# Indices 1 2 3 4 5 6 
#
# 1 0.006277 -0.000384 -0.002117 -0.000001 0.000622 0.000000
# 2 -0.000384 0.003170 -0.000771 0.000000 -0.000848 0.000000
# 3 -0.002117 -0.000771 0.011563 0.000004 0.005875 0.000001
# 4 -0.000001 0.000000 0.000004 -0.366738 0.000005 -0.121051
# 5 0.000622 -0.000848 0.005875 0.000005 0.019057 0.000001
# 6 0.000000 0.000000 0.000001 -0.121051 0.000001 -0.007456
#
#
# Mechanical properties :
#
#
# Convention : Reuss Voigt Hill
#
# Bulk Modulus (GPa) = 69.12926 89.55332 79.34129
# Shear Modulus (GPa) = -15.49126 54.04105 19.27490
#
# Velocity S-wave (km/s) = -2.39814 4.47913 2.67502
# Velocity P-wave (km/s) = 4.24216 7.74574 6.24469
#
# Compressibility (1/GPa) = 0.01446565
#
# Stress axis : x y z
#
# Youngs Moduli (GPa) = 159.31265 315.50458 86.48595
#
# Poissons Ratio (x) = 0.12102 0.18311
# Poissons Ratio (y) = 0.06111 0.06667
# Poissons Ratio (z) = 0.33730 0.24322
#
# Static dielectric constant tensor:
#      x y z
#    x 2.127360 0.000000 -0.031850 
#    y 0.000000 2.136660 0.000000 
#    z -0.031850 0.000000 2.008440 
# 
# From -- ./inp_files/323252.got.cif
#   From: 2010.05.17/outbox.cif.g08.bks.cpg/sg12_162_cif.got.tgz:323252.got - 2010.06.03 13:09:07.
