data_PCOD9222178
_publ_section_title
;
Structure prediction by ZEFSAII (Michael W. Deem and Ramdas Pophale) SiO2 
 PCOD9222178
Probable space group: C 2/M
;
_chemical_formula_sum "Si O2"
_cell_formula_units_Z 34
_cell_length_a 13.735015
_cell_length_b 12.667707
_cell_length_c 12.850598
_cell_angle_alpha 90.000000
_cell_angle_beta 41.217444
_cell_angle_gamma 90.000000
_cell_volume 1473.269476
_symmetry_space_group_name_H-M "C 2/M"
_symmetry_group_IT_number 12
_symmetry_cell_setting 'monoclinic'
loop_
_space_group_symop_operation_xyz
x,y,z
-x,y,-z
-x,-y,-z
x,-y,z
1/2+x,1/2+y,z
1/2-x,1/2+y,-z
1/2-x,1/2-y,-z
1/2+x,1/2-y,z
loop_
_atom_site_type_symbol
_atom_site_label
_atom_site_fract_x
_atom_site_fract_y
_atom_site_fract_z
Si Si1 0.866935 0.696938 0.328684
Si Si2 0.500000 0.000000 0.500000
Si Si3 0.544995 0.612944 0.084832
Si Si4 0.659348 0.616121 0.316330
Si Si5 0.136707 0.343300 0.238743
O O1 0.750000 0.750000 0.500000
O O2 0.782010 0.635483 0.306543
O O3 0.963339 0.790471 0.202217
O O4 0.984740 0.631694 0.300969
O O5 0.384893 0.092515 0.636992
O O6 0.499812 0.500000 0.167376
O O7 0.500000 0.614154 0.000000
O O8 0.721481 0.622960 0.940625
O O9 0.500000 0.615891 0.500000
O O10 0.681985 0.500000 0.249750
O O11 0.656823 0.718904 0.245643
#
# Coordination Sequence:
#
# PCOD9222178 Si02
#       5
#     8   2   8   8   8
#     4  12  25  44  72 103 141 190 251 295 367 441
#     4  12  24  44  80 104 152 184 244 308 370 424
#     4  11  25  44  71 103 148 190 238 308 369 428
#     4  11  24  45  67 101 143 186 237 299 363 431
#     4  12  24  46  70 109 145 192 241 304 365 437
#
# _framework density 23.077925
#
# number of rings (size 3 to 8) (size 9 to 14) (size 15 to 20)
#    0.000    0.471    7.059    0.706    1.647    1.882 
#    0.000    2.353    0.000    0.000    0.000    0.000 
#    0.000    0.000    0.000    0.000    0.000    0.000 
#
# Total GULP energy -94916.882708 kJ/mol
# GULP energy per Si atom -5583.346042 kJ/mol
# Density = 2.302540 g / cm^3
# Si number density = 23.077925 Si / 1000 Ang^3
#
#
#
# Elastic Constant Matrix: (Units=GPa)
#
#
# Indices 1 2 3 4 5 6 
#
# 1 119.9743 4.4470 0.1080 0.0000 -26.0553 0.0000
# 2 4.4470 160.4776 22.9025 0.0000 4.7658 0.0000
# 3 0.1080 22.9025 101.9886 0.0000 -19.6584 0.0000
# 4 0.0000 0.0000 0.0000 18.5195 0.0000 -36.8387
# 5 -26.0553 4.7658 -19.6584 0.0000 36.0042 0.0000
# 6 0.0000 0.0000 0.0000 -36.8387 0.0000 -19.0072
#
#
#
# Elastic Compliance Matrix: (Units=1/GPa)
#
#
# Indices 1 2 3 4 5 6 
#
# 1 0.010202 -0.000791 0.001800 0.000000 0.008470 0.000000
# 2 -0.000791 0.006609 -0.001970 0.000000 -0.002523 0.000000
# 3 0.001800 -0.001970 0.011787 0.000000 0.007999 0.000000
# 4 0.000000 0.000000 0.000000 0.011121 0.000000 -0.021555
# 5 0.008470 -0.002523 0.007999 0.000000 0.038606 0.000000
# 6 0.000000 0.000000 0.000000 -0.021555 0.000000 -0.010836
#
#
# Mechanical properties :
#
#
# Convention : Reuss Voigt Hill
#
# Bulk Modulus (GPa) = 37.48608 48.59506 43.04057
# Shear Modulus (GPa) = 63.85319 30.76882 47.31101
#
# Velocity S-wave (km/s) = 5.26579 3.65534 4.53266
# Velocity P-wave (km/s) = 7.29726 6.23843 6.78852
#
# Compressibility (1/GPa) = 0.02667657
#
# Stress axis : x y z
#
# Youngs Moduli (GPa) = 98.01625 151.30110 84.83783
#
# Poissons Ratio (x) = 0.11969 -0.15267
# Poissons Ratio (y) = 0.07754 0.16710
# Poissons Ratio (z) = -0.17638 0.29801
#
# Static dielectric constant tensor:
#      x y z
#    x 1.963330 0.000000 0.019770 
#    y 0.000000 1.797290 0.000000 
#    z 0.019770 0.000000 1.807320 
# 
# From -- ./inp_files/213196.got.cif
#   From: 2010.05.17/outbox.cif.g08.bks.cpg/sg12_107_cif.got.tgz:213196.got - 2010.06.03 13:09:07.
