data_PCOD9222149
_publ_section_title
;
Structure prediction by ZEFSAII (Michael W. Deem and Ramdas Pophale) SiO2 
 PCOD9222149
Probable space group: C 2/M
;
_chemical_formula_sum "Si O2"
_cell_formula_units_Z 36
_cell_length_a 8.511421
_cell_length_b 16.796604
_cell_length_c 19.917997
_cell_angle_alpha 90.000000
_cell_angle_beta 36.321280
_cell_angle_gamma 90.000000
_cell_volume 1686.631047
_symmetry_space_group_name_H-M "C 2/M"
_symmetry_group_IT_number 12
_symmetry_cell_setting 'monoclinic'
loop_
_space_group_symop_operation_xyz
x,y,z
-x,y,-z
-x,-y,-z
x,-y,z
1/2+x,1/2+y,z
1/2-x,1/2+y,-z
1/2-x,1/2-y,-z
1/2+x,1/2-y,z
loop_
_atom_site_type_symbol
_atom_site_label
_atom_site_fract_x
_atom_site_fract_y
_atom_site_fract_z
Si Si1 0.627952 0.791745 0.212057
Si Si2 0.077911 0.093846 0.053851
Si Si3 0.848622 0.090014 0.621837
Si Si4 0.710912 0.686259 0.572883
Si Si5 0.000000 0.678680 0.000000
O O1 0.387910 0.851162 0.276785
O O2 0.488947 0.729806 0.308693
O O3 0.776959 0.737937 0.106239
O O4 0.850754 0.850988 0.165108
O O5 0.354701 0.128176 0.990089
O O6 0.063595 0.000000 0.074462
O O7 0.000000 0.099944 0.000000
O O8 0.000000 0.110517 0.500000
O O9 0.077255 0.104751 0.596472
O O10 0.752098 0.000000 0.651057
O O11 0.750000 0.750000 0.500000
O O12 0.000000 0.671154 0.500000
#
# Coordination Sequence:
#
# PCOD9222149 Si02
#       5
#     8   8   8   8   4
#     4  12  23  44  70 100 133 181 229 277 341 409
#     4  11  26  46  68 100 142 184 226 283 348 408
#     4  11  24  44  69  98 135 176 221 282 343 398
#     4  12  23  42  69  99 131 176 232 279 333 405
#     4  12  27  44  71 106 138 180 236 284 335 422
#
# _framework density 21.344324
#
# number of rings (size 3 to 8) (size 9 to 14) (size 15 to 20)
#    0.000    0.444    5.556    3.000    3.111    0.444 
#    0.000    1.111    0.000    0.000    0.000    0.000 
#    0.000    0.000    0.000    0.000    0.000    0.000 
#
# Total GULP energy -100416.274315 kJ/mol
# GULP energy per Si atom -5578.681906 kJ/mol
# Density = 2.129574 g / cm^3
# Si number density = 21.344324 Si / 1000 Ang^3
#
#
#
# Elastic Constant Matrix: (Units=GPa)
#
#
# Indices 1 2 3 4 5 6 
#
# 1 123.0170 53.8038 47.3011 -0.0041 -33.8696 -0.0006
# 2 53.8038 121.1535 50.6622 0.0107 -8.2015 -0.0015
# 3 47.3011 50.6622 137.1238 -0.0233 -1.6695 -0.0020
# 4 -0.0041 0.0107 -0.0233 23.5158 -0.0069 -16.4738
# 5 -33.8696 -8.2015 -1.6695 -0.0069 32.5900 -0.0021
# 6 -0.0006 -0.0015 -0.0020 -16.4738 -0.0021 28.0323
#
#
#
# Elastic Compliance Matrix: (Units=1/GPa)
#
#
# Indices 1 2 3 4 5 6 
#
# 1 0.015490 -0.004397 -0.003539 0.000011 0.014811 0.000007
# 2 -0.004397 0.011182 -0.002637 -0.000015 -0.001891 -0.000009
# 3 -0.003539 -0.002637 0.009441 0.000015 -0.003858 0.000009
# 4 0.000011 -0.000015 0.000015 0.072282 0.000026 0.042478
# 5 0.014811 -0.001891 -0.003858 0.000026 0.045403 0.000019
# 6 0.000007 -0.000009 0.000009 0.042478 0.000019 0.060636
#
#
# Mechanical properties :
#
#
# Convention : Reuss Voigt Hill
#
# Bulk Modulus (GPa) = 66.81454 76.09206 71.45330
# Shear Modulus (GPa) = 20.78398 32.12944 26.45671
#
# Velocity S-wave (km/s) = 3.12388 3.88402 3.52450
# Velocity P-wave (km/s) = 6.66203 7.47270 7.07898
#
# Compressibility (1/GPa) = 0.01496680
#
# Stress axis : x y z
#
# Youngs Moduli (GPa) = 64.55585 89.43307 105.92286
#
# Poissons Ratio (x) = 0.39323 0.37482
# Poissons Ratio (y) = 0.28385 0.27937
# Poissons Ratio (z) = 0.22844 0.23588
#
# Static dielectric constant tensor:
#      x y z
#    x 1.814060 0.000020 0.028050 
#    y 0.000020 1.740960 0.000000 
#    z 0.028050 0.000000 1.744940 
# 
# From -- ./inp_files/301036.got.cif
#   From: 2010.05.17/outbox.cif.g08.bks.cpg/sg12_151_cif.got.tgz:301036.got - 2010.06.03 13:09:07.
