data_PCOD9222494
_publ_section_title
;
Structure prediction by ZEFSAII (Michael W. Deem and Ramdas Pophale) SiO2 
 PCOD9222494
Probable space group: C 2/M
;
_chemical_formula_sum "Si O2"
_cell_formula_units_Z 44
_cell_length_a 9.907797
_cell_length_b 31.917366
_cell_length_c 7.005880
_cell_angle_alpha 90.000000
_cell_angle_beta 45.000104
_cell_angle_gamma 90.000000
_cell_volume 1566.580182
_symmetry_space_group_name_H-M "C 2/M"
_symmetry_group_IT_number 12
_symmetry_cell_setting 'monoclinic'
loop_
_space_group_symop_operation_xyz
x,y,z
-x,y,-z
-x,-y,-z
x,-y,z
1/2+x,1/2+y,z
1/2-x,1/2+y,-z
1/2-x,1/2-y,-z
1/2+x,1/2-y,z
loop_
_atom_site_type_symbol
_atom_site_label
_atom_site_fract_x
_atom_site_fract_y
_atom_site_fract_z
Si Si1 0.216177 0.680298 0.436912
Si Si2 0.336011 0.500000 0.883607
Si Si3 0.153089 0.180298 0.130733
Si Si4 0.780381 0.500000 0.555630
Si Si5 0.000000 0.250000 0.500000
Si Si6 0.662072 0.410172 0.118919
Si Si7 0.219009 0.410172 0.443063
O O1 0.424805 0.681374 0.318865
O O2 0.128936 0.634934 0.576626
O O3 0.083743 0.720678 0.585531
O O4 0.256330 0.681374 0.168475
O O5 0.565432 0.500000 0.686078
O O6 0.287643 0.455067 0.840930
O O7 0.251511 0.500000 0.183057
O O8 0.169273 0.220678 0.246984
O O9 0.205563 0.134934 0.165502
O O10 0.871427 0.455067 0.416216
O O11 0.433056 0.410184 0.314949
O O12 0.748005 0.410184 0.818940
#
# Coordination Sequence:
#
# PCOD9222494 Si02
#       7
#     8   4   8   4   4   8   8
#     4   9  18  31  44  60  83 108 135 169 205 239
#     4   7   8  12  28  53  74  94 122 152 186 232
#     4   9  18  31  44  60  83 108 135 169 205 239
#     4   7   8  12  28  53  74  94 122 152 186 232
#     4  12  20  28  44  62  80 108 144 172 200 238
#     4   7  10  18  33  53  76  99 124 156 193 233
#     4   7  10  18  33  53  76  99 124 156 193 233
#
# _framework density 28.086656999999999
#
# number of rings (size 3 to 8) (size 9 to 14) (size 15 to 20)
#    0.000    3.818    0.000    5.455    0.000    0.000 
#    0.000    0.000    0.000    1.091    0.000    0.000 
#    0.000    0.000    0.000    0.000    0.000  111.273 
#
# Total GULP energy -122934.808322 kJ/mol
# GULP energy per Si atom -5587.945833 kJ/mol
# Density = 2.802273 g / cm^3
# Si number density = 28.086657 Si / 1000 Ang^3
#
#
#
# Elastic Constant Matrix: (Units=GPa)
#
#
# Indices 1 2 3 4 5 6 
#
# 1 64.3485 18.1947 41.6562 0.0000 -9.3137 0.0000
# 2 18.1947 291.1197 18.1942 0.0000 0.0003 0.0000
# 3 41.6562 18.1942 64.3478 0.0000 9.3140 0.0000
# 4 0.0000 0.0000 0.0000 5.9300 0.0000 -0.0001
# 5 -9.3137 0.0003 9.3140 0.0000 42.4385 0.0000
# 6 0.0000 0.0000 0.0000 -0.0001 0.0000 5.9298
#
#
#
# Elastic Compliance Matrix: (Units=1/GPa)
#
#
# Indices 1 2 3 4 5 6 
#
# 1 0.031696 -0.000603 -0.022056 0.000000 0.011797 0.000000
# 2 -0.000603 0.003510 -0.000602 0.000000 0.000000 0.000000
# 3 -0.022056 -0.000602 0.031697 0.000000 -0.011797 0.000000
# 4 0.000000 0.000000 0.000000 0.168635 0.000000 0.000004
# 5 0.011797 0.000000 -0.011797 0.000000 0.028742 0.000000
# 6 0.000000 0.000000 0.000000 0.000004 0.000000 0.168640
#
#
# Mechanical properties :
#
#
# Convention : Reuss Voigt Hill
#
# Bulk Modulus (GPa) = 49.06509 63.98958 56.52733
# Shear Modulus (GPa) = 10.28307 33.64437 21.96372
#
# Velocity S-wave (km/s) = 1.91550 3.46479 2.79946
# Velocity P-wave (km/s) = 4.73279 6.23207 5.53345
#
# Compressibility (1/GPa) = 0.02038109
#
# Stress axis : x y z
#
# Youngs Moduli (GPa) = 31.54944 284.87394 31.54907
#
# Poissons Ratio (x) = 0.17165 0.69585
# Poissons Ratio (y) = 0.01901 0.01901
# Poissons Ratio (z) = 0.69586 0.17163
#
# Static dielectric constant tensor:
#      x y z
#    x 2.144080 0.000000 0.000000 
#    y 0.000000 2.312550 0.000000 
#    z 0.000000 0.000000 2.144080 
# 
# From -- ./inp_files/53711.got.cif
#   From: 2010.05.17/outbox.cif.g08.bks.cpg/sg12_27_cif.got.tgz:53711.got - 2010.06.03 13:09:07.
