data_PCOD9222517
_publ_section_title
;
Structure prediction by ZEFSAII (Michael W. Deem and Ramdas Pophale) SiO2 
 PCOD9222517
Probable space group: C 2/M
;
_chemical_formula_sum "Si O2"
_cell_formula_units_Z 48
_cell_length_a 15.759507
_cell_length_b 16.503439
_cell_length_c 16.954010
_cell_angle_alpha 90.000000
_cell_angle_beta 28.394107
_cell_angle_gamma 90.000000
_cell_volume 2096.866805
_symmetry_space_group_name_H-M "C 2/M"
_symmetry_group_IT_number 12
_symmetry_cell_setting 'monoclinic'
loop_
_space_group_symop_operation_xyz
x,y,z
-x,y,-z
-x,-y,-z
x,-y,z
1/2+x,1/2+y,z
1/2-x,1/2+y,-z
1/2-x,1/2-y,-z
1/2+x,1/2-y,z
loop_
_atom_site_type_symbol
_atom_site_label
_atom_site_fract_x
_atom_site_fract_y
_atom_site_fract_z
Si Si1 0.273346 0.500000 0.417425
Si Si2 0.764810 0.000000 0.590573
Si Si3 0.282479 0.000000 0.191110
Si Si4 0.763353 0.339083 0.847756
Si Si5 0.398862 0.000000 0.666145
Si Si6 0.051307 0.161218 0.771795
Si Si7 0.041585 0.663453 0.765789
Si Si8 0.225337 0.837611 0.147897
O O1 0.372700 0.500000 0.420589
O O2 0.326944 0.582624 0.330644
O O3 0.060313 0.500000 0.597586
O O4 0.797745 0.000000 0.655932
O O5 0.661014 0.084960 0.666485
O O6 0.216043 0.082872 0.206926
O O7 0.500000 0.000000 0.000000
O O8 0.791943 0.416798 0.769297
O O9 0.914172 0.339402 0.793301
O O10 0.778725 0.247677 0.801966
O O11 0.576574 0.344197 0.047522
O O12 0.500000 0.000000 0.500000
O O13 0.140087 0.249889 0.692450
O O14 0.922494 0.160319 0.800247
O O15 0.911036 0.659855 0.947773
#
# Coordination Sequence:
#
# PCOD9222517 Si02
#       8
#     4   4   4   8   4   8   8   8
#     4  12  24  40  58  91 117 153 199 254 307 363
#     4  12  22  34  56  92 126 157 193 242 307 358
#     4  12  21  33  57  94 130 160 190 242 304 365
#     4   9  18  40  66  85 113 159 204 247 290 355
#     4  12  25  43  59  85 117 154 199 246 318 357
#     4   9  20  37  67  89 113 156 208 250 289 346
#     4   9  16  35  62  90 111 153 204 244 285 351
#     4   9  18  36  62  91 118 155 207 243 290 348
#
# _framework density 22.891297999999999
#
# number of rings (size 3 to 8) (size 9 to 14) (size 15 to 20)
#    0.000    2.000    3.333    3.000    0.000    3.333 
#    3.000    3.333    0.000    0.000    0.000    0.000 
#    0.000    0.000    0.000    0.000    0.000    0.000 
#
# Total GULP energy -134014.498381 kJ/mol
# GULP energy per Si atom -5583.937433 kJ/mol
# Density = 2.283920 g / cm^3
# Si number density = 22.891298 Si / 1000 Ang^3
#
#
#
# Elastic Constant Matrix: (Units=GPa)
#
#
# Indices 1 2 3 4 5 6 
#
# 1 46.2915 36.9897 17.4390 -0.0014 21.8214 0.0001
# 2 36.9897 250.8820 54.1190 -0.0221 17.8517 -0.0002
# 3 17.4390 54.1190 37.3647 -0.0244 10.8775 0.0016
# 4 -0.0014 -0.0221 -0.0244 -58.4039 0.0041 4.0785
# 5 21.8214 17.8517 10.8775 0.0041 36.0421 -0.0004
# 6 0.0001 -0.0002 0.0016 4.0785 -0.0004 15.1059
#
#
#
# Elastic Compliance Matrix: (Units=1/GPa)
#
#
# Indices 1 2 3 4 5 6 
#
# 1 0.034526 -0.002136 -0.007941 0.000002 -0.017449 0.000000
# 2 -0.002136 0.005934 -0.007804 0.000001 0.000709 0.000001
# 3 -0.007941 -0.007804 0.043028 -0.000015 -0.004313 -0.000001
# 4 0.000002 0.000001 -0.000015 -0.016805 0.000005 0.004537
# 5 -0.017449 0.000709 -0.004313 0.000005 0.039260 0.000000
# 6 0.000000 0.000001 -0.000001 0.004537 0.000000 0.064974
#
#
# Mechanical properties :
#
#
# Convention : Reuss Voigt Hill
#
# Bulk Modulus (GPa) = 20.95273 61.29262 41.12268
# Shear Modulus (GPa) = 22.46313 13.61485 18.03899
#
# Velocity S-wave (km/s) = 3.13596 2.44142 2.81023
# Velocity P-wave (km/s) = 4.72074 5.89754 5.34165
#
# Compressibility (1/GPa) = 0.04772647
#
# Stress axis : x y z
#
# Youngs Moduli (GPa) = 28.96407 168.52428 23.24045
#
# Poissons Ratio (x) = 0.35996 0.18454
# Poissons Ratio (y) = 0.06187 0.18137
# Poissons Ratio (z) = 0.22999 1.31520
#
# Static dielectric constant tensor:
#      x y z
#    x 2.056060 -0.000040 0.105080 
#    y -0.000040 1.851960 -0.000020 
#    z 0.105080 -0.000020 1.957050 
# 
# From -- ./inp_files/278093.got.cif
#   From: 2010.05.17/outbox.cif.g08.bks.cpg/sg12_140_cif.got.tgz:278093.got - 2010.06.03 13:09:07.
