data_PCOD9222150
_publ_section_title
;
Structure prediction by ZEFSAII (Michael W. Deem and Ramdas Pophale) SiO2 
 PCOD9222150
Probable space group: C 2/M
;
_chemical_formula_sum "Si O2"
_cell_formula_units_Z 36
_cell_length_a 15.206961
_cell_length_b 14.875584
_cell_length_c 11.705994
_cell_angle_alpha 90.000000
_cell_angle_beta 136.178599
_cell_angle_gamma 90.000000
_cell_volume 1833.537467
_symmetry_space_group_name_H-M "C 2/M"
_symmetry_group_IT_number 12
_symmetry_cell_setting 'monoclinic'
loop_
_space_group_symop_operation_xyz
x,y,z
-x,y,-z
-x,-y,-z
x,-y,z
1/2+x,1/2+y,z
1/2-x,1/2+y,-z
1/2-x,1/2-y,-z
1/2+x,1/2-y,z
loop_
_atom_site_type_symbol
_atom_site_label
_atom_site_fract_x
_atom_site_fract_y
_atom_site_fract_z
Si Si1 0.685528 0.000000 0.070062
Si Si2 0.802623 0.341921 0.493595
Si Si3 0.390070 0.000000 0.738578
Si Si4 0.338534 0.679488 0.151653
Si Si5 0.034729 0.105124 0.157536
Si Si6 0.500000 0.768761 0.500000
O O1 0.670585 0.000000 0.192817
O O2 0.759157 0.910994 0.099495
O O3 0.542204 0.000000 0.889132
O O4 0.750000 0.250000 0.500000
O O5 0.845843 0.411441 0.630427
O O6 0.683563 0.384440 0.316432
O O7 0.916869 0.323856 0.513181
O O8 0.457133 0.656891 0.181194
O O9 0.398770 0.713860 0.327489
O O10 0.250000 0.750000 0.000000
O O11 0.999124 0.000000 0.130162
O O12 0.000000 0.140396 0.000000
#
# Coordination Sequence:
#
# PCOD9222150 Si02
#       6
#     4   8   4   8   8   4
#     4  11  26  44  70 100 135 187 231 279 352 408
#     4  12  24  46  69 102 139 175 231 281 345 410
#     4  11  26  46  67  99 144 181 225 291 343 410
#     4  12  25  46  70 103 140 179 236 285 343 417
#     4  11  24  44  69  98 136 181 227 286 342 404
#     4  12  26  42  74 104 134 192 226 284 352 408
#
# _framework density 19.634177000000001
#
# number of rings (size 3 to 8) (size 9 to 14) (size 15 to 20)
#    0.000    0.444    4.444    4.000    0.000    0.889 
#    0.000    0.000    0.000    0.000    0.000    0.000 
#    0.000    0.000    0.000    0.000    0.000    0.000 
#
# Total GULP energy -100681.040950 kJ/mol
# GULP energy per Si atom -5593.391164 kJ/mol
# Density = 1.958949 g / cm^3
# Si number density = 19.634177 Si / 1000 Ang^3
#
#
#
# Elastic Constant Matrix: (Units=GPa)
#
#
# Indices 1 2 3 4 5 6 
#
# 1 101.0531 49.6953 46.2283 0.0000 12.8404 0.0000
# 2 49.6953 123.3013 67.1922 0.0000 -2.7656 0.0000
# 3 46.2283 67.1922 148.0905 0.0000 -11.9195 0.0000
# 4 0.0000 0.0000 0.0000 -29.0711 0.0000 -11.0614
# 5 12.8404 -2.7656 -11.9195 0.0000 33.5908 0.0000
# 6 0.0000 0.0000 0.0000 -11.0614 0.0000 23.2251
#
#
#
# Elastic Compliance Matrix: (Units=1/GPa)
#
#
# Indices 1 2 3 4 5 6 
#
# 1 0.014261 -0.004217 -0.003094 0.000000 -0.006896 0.000000
# 2 -0.004217 0.012046 -0.004055 0.000000 0.001164 0.000000
# 3 -0.003094 -0.004055 0.009910 0.000000 0.004365 0.000000
# 4 0.000000 0.000000 0.000000 -0.029121 0.000000 -0.013869
# 5 -0.006896 0.001164 0.004365 0.000000 0.034051 0.000000
# 6 0.000000 0.000000 0.000000 -0.013869 0.000000 0.036451
#
#
# Mechanical properties :
#
#
# Convention : Reuss Voigt Hill
#
# Bulk Modulus (GPa) = 74.15588 77.63071 75.89330
# Shear Modulus (GPa) = 47.69905 19.50423 33.60164
#
# Velocity S-wave (km/s) = 4.93423 3.15521 4.14138
# Velocity P-wave (km/s) = 8.38528 7.27312 7.84892
#
# Compressibility (1/GPa) = 0.01348511
#
# Stress axis : x y z
#
# Youngs Moduli (GPa) = 70.12194 83.01675 100.91061
#
# Poissons Ratio (x) = 0.35004 0.31218
# Poissons Ratio (y) = 0.29567 0.40924
# Poissons Ratio (z) = 0.21693 0.33667
#
# Static dielectric constant tensor:
#      x y z
#    x 1.663330 0.000000 -0.007760 
#    y 0.000000 1.690180 0.000000 
#    z -0.007760 0.000000 1.682940 
# 
# From -- ./inp_files/143987.got.cif
#   From: 2010.05.17/outbox.cif.g08.bks.cpg/sg12_72_cif.got.tgz:143987.got - 2010.06.03 13:09:07.
