data_PCOD9222562
_publ_section_title
;
Structure prediction by ZEFSAII (Michael W. Deem and Ramdas Pophale) SiO2 
 PCOD9222562
Probable space group: C 2/M
;
_chemical_formula_sum "Si O2"
_cell_formula_units_Z 50
_cell_length_a 14.090776
_cell_length_b 7.256087
_cell_length_c 18.103514
_cell_angle_alpha 90.000000
_cell_angle_beta 76.733952
_cell_angle_gamma 90.000000
_cell_volume 1801.580620
_symmetry_space_group_name_H-M "C 2/M"
_symmetry_group_IT_number 12
_symmetry_cell_setting 'monoclinic'
loop_
_space_group_symop_operation_xyz
x,y,z
-x,y,-z
-x,-y,-z
x,-y,z
1/2+x,1/2+y,z
1/2-x,1/2+y,-z
1/2-x,1/2-y,-z
1/2+x,1/2-y,z
loop_
_atom_site_type_symbol
_atom_site_label
_atom_site_fract_x
_atom_site_fract_y
_atom_site_fract_z
Si Si1 0.471776 0.722087 0.119997
Si Si2 0.198523 0.781273 0.086500
Si Si3 0.500000 0.000000 0.000000
Si Si4 0.213320 0.212465 0.238842
Si Si5 0.519987 0.286431 0.720610
Si Si6 0.911181 0.208649 0.443415
Si Si7 0.206803 0.774540 0.406104
O O1 0.466482 0.500000 0.112910
O O2 0.586667 0.784654 0.099498
O O3 0.435603 0.776636 0.209036
O O4 0.437829 0.839323 0.057025
O O5 0.246966 0.706762 0.153996
O O6 0.191429 0.000000 0.098874
O O7 0.250000 0.750000 0.000000
O O8 0.095844 0.214718 0.249621
O O9 0.222614 0.289893 0.319491
O O10 0.244386 0.000000 0.238624
O O11 0.550548 0.500000 0.710217
O O12 0.539920 0.200402 0.637069
O O13 0.891058 0.280287 0.530502
O O14 0.800406 0.203351 0.432565
O O15 0.949662 0.000000 0.441594
O O16 0.205668 0.000000 0.406309
#
# Coordination Sequence:
#
# PCOD9222562 Si02
#       7
#     8   8   2   8   8   8   8
#     4   9  20  38  55  79 113 144 179 230 280 320
#     4   9  18  34  55  74 104 140 174 224 281 326
#     4  12  22  36  60  82 108 146 186 226 270 354
#     4   8  15  30  51  74  98 128 170 219 264 307
#     4   8  15  32  54  72  99 138 170 212 265 314
#     4   9  17  30  50  72 102 138 168 204 263 319
#     4   9  17  30  48  75 103 131 168 213 258 313
#
# _framework density 27.753405999999998
#
# number of rings (size 3 to 8) (size 9 to 14) (size 15 to 20)
#    0.000    3.200    0.000    2.160    1.120    0.640 
#    4.320    4.000    1.760    0.000    0.000    4.480 
#    0.000    0.000    0.000    0.000    0.000    0.000 
#
# Total GULP energy -139355.694445 kJ/mol
# GULP energy per Si atom -5574.227778 kJ/mol
# Density = 2.769024 g / cm^3
# Si number density = 27.753406 Si / 1000 Ang^3
#
#
#
# Elastic Constant Matrix: (Units=GPa)
#
#
# Indices 1 2 3 4 5 6 
#
# 1 41.1323 10.8495 29.5432 0.0000 4.8986 0.0000
# 2 10.8495 153.3041 40.9478 0.0000 0.7826 0.0000
# 3 29.5432 40.9478 311.8933 0.0000 5.6245 0.0000
# 4 0.0000 0.0000 0.0000 -22.8598 0.0000 -15.8771
# 5 4.8986 0.7826 5.6245 0.0000 59.8450 0.0000
# 6 0.0000 0.0000 0.0000 -15.8771 0.0000 -5.3788
#
#
#
# Elastic Compliance Matrix: (Units=1/GPa)
#
#
# Indices 1 2 3 4 5 6 
#
# 1 0.026535 -0.001250 -0.002314 0.000000 -0.001938 0.000000
# 2 -0.001250 0.006819 -0.000778 0.000000 0.000086 0.000000
# 3 -0.002314 -0.000778 0.003530 0.000000 -0.000132 0.000000
# 4 0.000000 0.000000 0.000000 0.041656 0.000000 -0.122960
# 5 -0.001938 0.000086 -0.000132 0.000000 0.016880 0.000000
# 6 0.000000 0.000000 0.000000 -0.122960 0.000000 0.177038
#
#
# Mechanical properties :
#
#
# Convention : Reuss Voigt Hill
#
# Bulk Modulus (GPa) = 35.46310 74.33451 54.89880
# Shear Modulus (GPa) = 17.20921 34.65389 25.93155
#
# Velocity S-wave (km/s) = 2.49283 3.53744 3.06004
# Velocity P-wave (km/s) = 4.59253 6.59748 5.68410
#
# Compressibility (1/GPa) = 0.02819833
#
# Stress axis : x y z
#
# Youngs Moduli (GPa) = 37.68665 146.65102 283.28403
#
# Poissons Ratio (x) = 0.18329 0.65562
# Poissons Ratio (y) = 0.04710 0.22051
# Poissons Ratio (z) = 0.08722 0.11415
#
# Static dielectric constant tensor:
#      x y z
#    x 2.283830 0.000000 0.059280 
#    y 0.000000 1.991990 0.000000 
#    z 0.059280 0.000000 2.394450 
# 
# From -- ./inp_files/274182.got.cif
#   From: 2010.05.17/outbox.cif.g08.bks.cpg/sg12_138_cif.got.tgz:274182.got - 2010.06.03 13:09:07.
