data_PCOD9222870
_publ_section_title
;
Structure prediction by ZEFSAII (Michael W. Deem and Ramdas Pophale) SiO2 
 PCOD9222870
Probable space group: C 2/M
;
_chemical_formula_sum "Si O2"
_cell_formula_units_Z 56
_cell_length_a 28.405262
_cell_length_b 7.404753
_cell_length_c 16.882443
_cell_angle_alpha 90.000000
_cell_angle_beta 114.683363
_cell_angle_gamma 90.000000
_cell_volume 3226.498658
_symmetry_space_group_name_H-M "C 2/M"
_symmetry_group_IT_number 12
_symmetry_cell_setting 'monoclinic'
loop_
_space_group_symop_operation_xyz
x,y,z
-x,y,-z
-x,-y,-z
x,-y,z
1/2+x,1/2+y,z
1/2-x,1/2+y,-z
1/2-x,1/2-y,-z
1/2+x,1/2-y,z
loop_
_atom_site_type_symbol
_atom_site_label
_atom_site_fract_x
_atom_site_fract_y
_atom_site_fract_z
Si Si1 0.255582 0.783024 0.308161
Si Si2 0.937547 0.279521 0.040923
Si Si3 0.855120 0.284268 0.687613
Si Si4 0.054850 0.720268 0.135204
Si Si5 0.834982 0.712534 0.049608
Si Si6 0.759275 0.281309 0.131385
Si Si7 0.305549 0.784389 0.497957
O O1 0.197912 0.745339 0.300534
O O2 0.262103 0.716236 0.223431
O O3 0.296918 0.715322 0.402712
O O4 0.260548 0.000000 0.309340
O O5 0.936671 0.500000 0.040769
O O6 0.995317 0.225004 0.107117
O O7 0.930376 0.225611 0.944019
O O8 0.890433 0.213968 0.061871
O O9 0.861453 0.500000 0.685514
O O10 0.903804 0.214930 0.771534
O O11 0.846072 0.214042 0.591706
O O12 0.055661 0.500000 0.136455
O O13 0.842429 0.500000 0.069504
O O14 0.794590 0.731566 0.948793
O O15 0.805146 0.785291 0.105792
O O16 0.761110 0.500000 0.133407
O O17 0.250000 0.750000 0.500000
O O18 0.313235 0.000000 0.497830
#
# Coordination Sequence:
#
# PCOD9222870 Si02
#       7
#     8   8   8   8   8   8   8
#     4   9  16  25  35  49  73  99 116 135 170 212
#     4   8  13  21  33  50  71  90 109 139 176 206
#     4   9  15  23  37  55  71  89 117 148 172 198
#     4   8  13  20  32  52  72  87 108 141 177 205
#     4   9  16  26  39  53  69  91 119 147 171 199
#     4   9  17  26  36  52  72  94 118 141 170 207
#     4   8  14  23  34  49  69  92 115 139 169 204
#
# _framework density 17.356275
#
# number of rings (size 3 to 8) (size 9 to 14) (size 15 to 20)
#    0.000    3.429    0.000    1.714    0.000    1.714 
#    0.000    0.000    0.000    0.857    0.000    5.000 
#    0.000    8.000    0.000    0.000    0.000   63.143 
#
# Total GULP energy -155929.069026 kJ/mol
# GULP energy per Si atom -5568.895322 kJ/mol
# Density = 1.731677 g / cm^3
# Si number density = 17.356275 Si / 1000 Ang^3
#
#
#
# Elastic Constant Matrix: (Units=GPa)
#
#
# Indices 1 2 3 4 5 6 
#
# 1 101.5770 -2.6784 67.1627 0.0000 2.2934 0.0000
# 2 -2.6784 56.9557 -3.6306 0.0000 1.3780 0.0000
# 3 67.1627 -3.6306 171.2666 0.0000 -0.5399 0.0000
# 4 0.0000 0.0000 0.0000 3.2165 0.0000 2.0148
# 5 2.2934 1.3780 -0.5399 0.0000 24.8424 0.0000
# 6 0.0000 0.0000 0.0000 2.0148 0.0000 4.7073
#
#
#
# Elastic Compliance Matrix: (Units=1/GPa)
#
#
# Indices 1 2 3 4 5 6 
#
# 1 0.013342 0.000327 -0.005229 0.000000 -0.001363 0.000000
# 2 0.000327 0.017613 0.000242 0.000000 -0.001002 0.000000
# 3 -0.005229 0.000242 0.007897 0.000000 0.000641 0.000000
# 4 0.000000 0.000000 0.000000 0.424784 0.000000 -0.181816
# 5 -0.001363 -0.001002 0.000641 0.000000 0.040449 0.000000
# 6 0.000000 0.000000 0.000000 -0.181816 0.000000 0.290259
#
#
# Mechanical properties :
#
#
# Convention : Reuss Voigt Hill
#
# Bulk Modulus (GPa) = 33.86352 50.16742 42.01547
# Shear Modulus (GPa) = 6.14622 24.48295 15.31459
#
# Velocity S-wave (km/s) = 1.88385 3.75988 2.97369
# Velocity P-wave (km/s) = 4.92799 6.91493 6.00422
#
# Compressibility (1/GPa) = 0.02953030
#
# Stress axis : x y z
#
# Youngs Moduli (GPa) = 74.95219 56.77770 126.63480
#
# Poissons Ratio (x) = -0.01857 0.66222
# Poissons Ratio (y) = -0.02451 -0.03064
# Poissons Ratio (z) = 0.39196 -0.01374
#
# Static dielectric constant tensor:
#      x y z
#    x 1.568380 0.000000 -0.010870 
#    y 0.000000 1.677310 0.000000 
#    z -0.010870 0.000000 1.619940 
# 
# From -- ./inp_files/288739.got.cif
#   From: 2010.05.17/outbox.cif.g08.bks.cpg/sg12_145_cif.got.tgz:288739.got - 2010.06.03 13:09:07.
