data_PCOD9222184
_publ_section_title
;
Structure prediction by ZEFSAII (Michael W. Deem and Ramdas Pophale) SiO2 
 PCOD9222184
Probable space group: C 2/M
;
_chemical_formula_sum "Si O2"
_cell_formula_units_Z 42
_cell_length_a 14.493935
_cell_length_b 7.430595
_cell_length_c 18.620840
_cell_angle_alpha 90.000000
_cell_angle_beta 80.100177
_cell_angle_gamma 90.000000
_cell_volume 1975.576418
_symmetry_space_group_name_H-M "C 2/M"
_symmetry_group_IT_number 12
_symmetry_cell_setting 'monoclinic'
loop_
_space_group_symop_operation_xyz
x,y,z
-x,y,-z
-x,-y,-z
x,-y,z
1/2+x,1/2+y,z
1/2-x,1/2+y,-z
1/2-x,1/2-y,-z
1/2+x,1/2-y,z
loop_
_atom_site_type_symbol
_atom_site_label
_atom_site_fract_x
_atom_site_fract_y
_atom_site_fract_z
Si Si1 0.078635 0.212774 0.680474
Si Si2 0.903297 0.716557 0.796405
Si Si3 0.638924 0.285781 0.515539
Si Si4 0.000000 0.500000 0.500000
Si Si5 0.693588 0.283170 0.801833
Si Si6 0.018050 0.286400 0.918187
O O1 0.101710 0.281863 0.598684
O O2 0.145231 0.285044 0.735072
O O3 0.973523 0.241066 0.722084
O O4 0.095747 0.000000 0.673754
O O5 0.899376 0.500000 0.801939
O O6 0.798460 0.783346 0.799062
O O7 0.951617 0.785339 0.863291
O O8 0.622699 0.500000 0.507816
O O9 0.750000 0.250000 0.500000
O O10 0.579092 0.159565 0.471588
O O11 0.696745 0.500000 0.796499
O O12 0.623579 0.239419 0.876195
O O13 0.000240 0.500000 0.923806
O O14 0.000000 0.212764 0.000000
#
# Coordination Sequence:
#
# PCOD9222184 Si02
#       6
#     8   8   8   2   8   8
#     4   9  20  37  57  83 117 147 191 253 304 366
#     4   9  18  32  53  78 108 147 194 238 293 365
#     4  11  24  45  68  99 136 174 221 274 335 404
#     4  12  26  44  72  96 132 180 216 272 324 404
#     4   9  18  34  53  77 106 142 187 239 295 352
#     4   9  18  32  48  72 108 147 186 235 289 348
#
# _framework density 21.259616999999999
#
# number of rings (size 3 to 8) (size 9 to 14) (size 15 to 20)
#    0.000    2.476    0.952    0.286    1.333    3.429 
#    3.429    0.000    0.000    0.000    0.000    0.000 
#    0.000    0.000    0.000    0.000    0.000    0.000 
#
# Total GULP energy -116969.231441 kJ/mol
# GULP energy per Si atom -5569.963402 kJ/mol
# Density = 2.121123 g / cm^3
# Si number density = 21.259617 Si / 1000 Ang^3
#
#
#
# Elastic Constant Matrix: (Units=GPa)
#
#
# Indices 1 2 3 4 5 6 
#
# 1 106.3445 -11.2532 40.4707 0.0000 -16.3411 0.0000
# 2 -11.2532 107.1518 -9.2966 0.0000 6.9705 0.0000
# 3 40.4707 -9.2966 122.3504 0.0000 -11.0323 0.0000
# 4 0.0000 0.0000 0.0000 -10.7375 0.0000 -31.4506
# 5 -16.3411 6.9705 -11.0323 0.0000 9.4428 0.0000
# 6 0.0000 0.0000 0.0000 -31.4506 0.0000 -7.0539
#
#
#
# Elastic Compliance Matrix: (Units=1/GPa)
#
#
# Indices 1 2 3 4 5 6 
#
# 1 0.013536 -0.000137 -0.002645 0.000000 0.020435 0.000000
# 2 -0.000137 0.009806 0.000130 0.000000 -0.007324 0.000000
# 3 -0.002645 0.000130 0.009654 0.000000 0.006605 0.000000
# 4 0.000000 0.000000 0.000000 0.007723 0.000000 -0.034432
# 5 0.020435 -0.007324 0.006605 0.000000 0.154388 0.000000
# 6 0.000000 0.000000 0.000000 -0.034432 0.000000 0.011755
#
#
# Mechanical properties :
#
#
# Convention : Reuss Voigt Hill
#
# Bulk Modulus (GPa) = 36.11349 41.74316 38.92833
# Shear Modulus (GPa) = 22.58398 19.39202 20.98800
#
# Velocity S-wave (km/s) = 3.26282 3.02346 3.14542
# Velocity P-wave (km/s) = 5.58735 5.64500 5.61625
#
# Compressibility (1/GPa) = 0.02769048
#
# Stress axis : x y z
#
# Youngs Moduli (GPa) = 73.87946 101.97975 103.58783
#
# Poissons Ratio (x) = 0.01400 0.27400
# Poissons Ratio (y) = 0.01014 -0.01348
# Poissons Ratio (z) = 0.19542 -0.01327
#
# Static dielectric constant tensor:
#      x y z
#    x 1.787150 0.000000 0.063920 
#    y 0.000000 1.795630 0.000000 
#    z 0.063920 0.000000 1.810020 
# 
# From -- ./inp_files/267005.got.cif
#   From: 2010.05.17/outbox.cif.g08.bks.cpg/sg12_134_cif.got.tgz:267005.got - 2010.06.03 13:09:07.
