data_PCOD9222342
_publ_section_title
;
Structure prediction by ZEFSAII (Michael W. Deem and Ramdas Pophale) SiO2 
 PCOD9222342
Probable space group: C 2/M
;
_chemical_formula_sum "Si O2"
_cell_formula_units_Z 32
_cell_length_a 17.257695
_cell_length_b 20.277007
_cell_length_c 10.444346
_cell_angle_alpha 90.000000
_cell_angle_beta 154.270417
_cell_angle_gamma 90.000000
_cell_volume 1586.653005
_symmetry_space_group_name_H-M "C 2/M"
_symmetry_group_IT_number 12
_symmetry_cell_setting 'monoclinic'
loop_
_space_group_symop_operation_xyz
x,y,z
-x,y,-z
-x,-y,-z
x,-y,z
1/2+x,1/2+y,z
1/2-x,1/2+y,-z
1/2-x,1/2-y,-z
1/2+x,1/2-y,z
loop_
_atom_site_type_symbol
_atom_site_label
_atom_site_fract_x
_atom_site_fract_y
_atom_site_fract_z
Si Si1 0.068115 0.378408 0.304537
Si Si2 0.464632 0.243721 0.312384
Si Si3 0.653893 0.000000 0.623948
Si Si4 0.020394 0.000000 0.688012
Si Si5 0.206495 0.872740 0.617529
O O1 0.134443 0.435598 0.500901
O O2 0.200402 0.367742 0.382180
O O3 0.039253 0.306735 0.321439
O O4 0.868190 0.392290 0.954000
O O5 0.500000 0.210284 0.500000
O O6 0.584852 0.310079 0.478530
O O7 0.250000 0.250000 0.000000
O O8 0.500000 0.000000 0.500000
O O9 0.816693 0.000000 0.967335
O O10 0.922332 0.933749 0.578985
O O11 0.000000 0.000000 0.500000
#
# Coordination Sequence:
#
# PCOD9222342 Si02
#       5
#     8   8   4   4   8
#     4  11  25  46  70 100 141 183 230 280 341 409
#     4  12  25  44  70 101 137 182 233 283 339 403
#     4  12  27  44  71 105 134 177 234 282 338 413
#     4  12  27  44  73 103 138 175 226 285 347 409
#     4  11  25  46  69 100 141 186 224 283 348 400
#
# _framework density 20.168240999999998
#
# number of rings (size 3 to 8) (size 9 to 14) (size 15 to 20)
#    0.000    0.500    2.500    5.250    7.000    4.000 
#    0.000    0.000    0.000    0.000    0.000    0.000 
#    0.000    0.000    0.000    0.000    0.000    0.000 
#
# Total GULP energy -89109.000410 kJ/mol
# GULP energy per Si atom -5569.312526 kJ/mol
# Density = 2.012234 g / cm^3
# Si number density = 20.168241 Si / 1000 Ang^3
#
#
#
# Elastic Constant Matrix: (Units=GPa)
#
#
# Indices 1 2 3 4 5 6 
#
# 1 91.1829 35.0997 74.1064 0.0000 -1.8100 0.0000
# 2 35.0997 102.6035 56.1050 0.0000 8.6734 0.0000
# 3 74.1064 56.1050 172.1893 0.0000 -3.3914 0.0000
# 4 0.0000 0.0000 0.0000 37.3791 0.0000 -0.6306
# 5 -1.8100 8.6734 -3.3914 0.0000 30.3386 0.0000
# 6 0.0000 0.0000 0.0000 -0.6306 0.0000 30.6376
#
#
#
# Elastic Compliance Matrix: (Units=1/GPa)
#
#
# Indices 1 2 3 4 5 6 
#
# 1 0.017308 -0.002360 -0.006661 0.000000 0.000963 0.000000
# 2 -0.002360 0.012643 -0.003185 0.000000 -0.004111 0.000000
# 3 -0.006661 -0.003185 0.009744 0.000000 0.001602 0.000000
# 4 0.000000 0.000000 0.000000 0.026762 0.000000 0.000551
# 5 0.000963 -0.004111 0.001602 0.000000 0.034373 0.000000
# 6 0.000000 0.000000 0.000000 0.000551 0.000000 0.032651
#
#
# Mechanical properties :
#
#
# Convention : Reuss Voigt Hill
#
# Bulk Modulus (GPa) = 65.43307 77.39979 71.41643
# Shear Modulus (GPa) = 30.67741 33.04869 31.86305
#
# Velocity S-wave (km/s) = 3.90433 4.05242 3.97906
# Velocity P-wave (km/s) = 7.26905 7.76894 7.52315
#
# Compressibility (1/GPa) = 0.01528279
#
# Stress axis : x y z
#
# Youngs Moduli (GPa) = 57.77621 79.09822 102.63161
#
# Poissons Ratio (x) = 0.18667 0.68364
# Poissons Ratio (y) = 0.13635 0.32685
# Poissons Ratio (z) = 0.38486 0.25190
#
# Static dielectric constant tensor:
#      x y z
#    x 1.728920 0.000000 0.002290 
#    y 0.000000 1.647340 0.000000 
#    z 0.002290 0.000000 1.887920 
# 
# From -- ./inp_files/65666.got.cif
#   From: 2010.05.17/outbox.cif.g08.bks.cpg/sg12_33_cif.got.tgz:65666.got - 2010.06.03 13:09:07.
