data_PCOD9222589
_publ_section_title
;
Structure prediction by ZEFSAII (Michael W. Deem and Ramdas Pophale) SiO2 
 PCOD9222589
Probable space group: C 2/M
;
_chemical_formula_sum "Si O2"
_cell_formula_units_Z 56
_cell_length_a 11.443461
_cell_length_b 18.204867
_cell_length_c 14.744188
_cell_angle_alpha 90.000000
_cell_angle_beta 55.446207
_cell_angle_gamma 90.000000
_cell_volume 2529.757911
_symmetry_space_group_name_H-M "C 2/M"
_symmetry_group_IT_number 12
_symmetry_cell_setting 'monoclinic'
loop_
_space_group_symop_operation_xyz
x,y,z
-x,y,-z
-x,-y,-z
x,-y,z
1/2+x,1/2+y,z
1/2-x,1/2+y,-z
1/2-x,1/2-y,-z
1/2+x,1/2-y,z
loop_
_atom_site_type_symbol
_atom_site_label
_atom_site_fract_x
_atom_site_fract_y
_atom_site_fract_z
Si Si1 0.927253 0.346707 0.682004
Si Si2 0.158202 0.415234 0.091600
Si Si3 0.804303 0.913574 0.338636
Si Si4 0.744337 0.666307 0.465106
Si Si5 0.501043 0.775928 0.102423
Si Si6 0.814690 0.810633 0.710898
Si Si7 0.600999 0.366372 0.141761
O O1 0.849885 0.382061 0.803515
O O2 0.838933 0.376509 0.635809
O O3 0.916384 0.258620 0.682881
O O4 0.093837 0.363578 0.612654
O O5 0.113416 0.500000 0.112527
O O6 0.058332 0.358562 0.081561
O O7 0.307099 0.408068 0.973551
O O8 0.834168 0.880984 0.424565
O O9 0.939745 0.893505 0.217621
O O10 0.785346 0.000000 0.349253
O O11 0.750000 0.750000 0.500000
O O12 0.675107 0.662502 0.396450
O O13 0.343953 0.777355 0.211529
O O14 0.597911 0.719314 0.114500
O O15 0.500000 0.749896 0.000000
O O16 0.834675 0.867359 0.784869
#
# Coordination Sequence:
#
# PCOD9222589 Si02
#       7
#     8   8   8   8   8   8   8
#     4  12  24  45  74 104 139 180 228 296 351 410
#     4  12  26  43  67 105 144 181 227 285 356 420
#     4  12  28  47  69 103 144 185 231 288 351 413
#     4  12  25  45  74 104 134 183 240 289 341 410
#     4  12  22  42  70 103 137 181 235 286 342 420
#     4  12  22  43  74 104 133 177 242 294 340 407
#     4  12  25  46  71 102 142 186 234 284 345 416
#
# _framework density 22.136506000000001
#
# number of rings (size 3 to 8) (size 9 to 14) (size 15 to 20)
#    0.000    0.000    7.143    3.429    0.000    3.714 
#    0.000    3.571    0.000    0.000    0.000    0.000 
#    0.000    0.000    0.000    0.000    0.000    0.000 
#
# Total GULP energy -156721.119374 kJ/mol
# GULP energy per Si atom -5597.182835 kJ/mol
# Density = 2.208612 g / cm^3
# Si number density = 22.136506 Si / 1000 Ang^3
#
#
#
# Elastic Constant Matrix: (Units=GPa)
#
#
# Indices 1 2 3 4 5 6 
#
# 1 55.7015 9.2237 35.8462 0.0000 13.6366 0.0000
# 2 9.2237 74.3417 13.5310 0.0000 6.2667 0.0000
# 3 35.8462 13.5310 123.3157 0.0000 12.4646 0.0000
# 4 0.0000 0.0000 0.0000 19.5849 0.0000 5.2792
# 5 13.6366 6.2667 12.4646 0.0000 50.0971 0.0000
# 6 0.0000 0.0000 0.0000 5.2792 0.0000 -3.1064
#
#
#
# Elastic Compliance Matrix: (Units=1/GPa)
#
#
# Indices 1 2 3 4 5 6 
#
# 1 0.023270 -0.001378 -0.006145 0.000000 -0.004633 0.000000
# 2 -0.001378 0.013900 -0.001012 0.000000 -0.001112 0.000000
# 3 -0.006145 -0.001012 0.010078 0.000000 -0.000708 0.000000
# 4 0.000000 0.000000 0.000000 0.035018 0.000000 0.059512
# 5 -0.004633 -0.001112 -0.000708 0.000000 0.021538 0.000000
# 6 0.000000 0.000000 0.000000 0.059512 0.000000 -0.220778
#
#
# Mechanical properties :
#
#
# Convention : Reuss Voigt Hill
#
# Bulk Modulus (GPa) = 33.13687 41.17342 37.15514
# Shear Modulus (GPa) = -55.65160 26.29899 -14.67630
#
# Velocity S-wave (km/s) = -5.01944 3.45053 -2.57765
# Velocity P-wave (km/s) = 4.31175 5.87495 2.82169
#
# Compressibility (1/GPa) = 0.03017787
#
# Stress axis : x y z
#
# Youngs Moduli (GPa) = 42.97464 71.94061 99.22519
#
# Poissons Ratio (x) = 0.09915 0.60970
# Poissons Ratio (y) = 0.05923 0.10044
# Poissons Ratio (z) = 0.26406 0.07282
#
# Static dielectric constant tensor:
#      x y z
#    x 1.839290 0.000000 0.001020 
#    y 0.000000 1.774840 0.000000 
#    z 0.001020 0.000000 1.858330 
# 
# From -- ./inp_files/206566.got.cif
#   From: 2010.05.17/outbox.cif.g08.bks.cpg/sg12_104_cif.got.tgz:206566.got - 2010.06.03 13:09:07.
