data_PCOD9222371
_publ_section_title
;
Structure prediction by ZEFSAII (Michael W. Deem and Ramdas Pophale) SiO2 
 PCOD9222371
Probable space group: C 2/M
;
_chemical_formula_sum "Si O2"
_cell_formula_units_Z 42
_cell_length_a 9.488570
_cell_length_b 15.037412
_cell_length_c 14.468254
_cell_angle_alpha 90.000000
_cell_angle_beta 75.340056
_cell_angle_gamma 90.000000
_cell_volume 1997.175538
_symmetry_space_group_name_H-M "C 2/M"
_symmetry_group_IT_number 12
_symmetry_cell_setting 'monoclinic'
loop_
_space_group_symop_operation_xyz
x,y,z
-x,y,-z
-x,-y,-z
x,-y,z
1/2+x,1/2+y,z
1/2-x,1/2+y,-z
1/2-x,1/2-y,-z
1/2+x,1/2-y,z
loop_
_atom_site_type_symbol
_atom_site_label
_atom_site_fract_x
_atom_site_fract_y
_atom_site_fract_z
Si Si1 0.562378 0.338145 0.398532
Si Si2 0.865627 0.400828 0.775999
Si Si3 0.000000 0.500000 0.500000
Si Si4 0.535300 0.397435 0.785812
Si Si5 0.107926 0.348404 0.594192
Si Si6 0.406017 0.240635 0.928764
O O1 0.500000 0.386412 0.500000
O O2 0.531772 0.381161 0.304288
O O3 0.735103 0.328857 0.387505
O O4 0.472798 0.244982 0.410442
O O5 0.854501 0.500000 0.817047
O O6 0.709586 0.380354 0.755551
O O7 0.900013 0.330079 0.848136
O O8 0.996188 0.398468 0.681253
O O9 0.116595 0.419134 0.509182
O O10 0.512294 0.500000 0.815916
O O11 0.466298 0.330778 0.872138
O O12 0.500000 0.210982 0.000000
O O13 0.250000 0.250000 0.000000
#
# Coordination Sequence:
#
# PCOD9222371 Si02
#       6
#     8   8   2   8   8   8
#     4  12  27  45  74 104 145 196 240 284 354 427
#     4  11  25  47  73 104 145 188 236 296 368 423
#     4  12  28  44  74 108 144 186 248 300 344 420
#     4  11  27  47  73 107 147 189 240 301 358 433
#     4  12  26  45  71 105 144 190 238 293 352 418
#     4  12  26  47  75 105 140 186 240 300 366 436
#
# _framework density 21.029699000000001
#
# number of rings (size 3 to 8) (size 9 to 14) (size 15 to 20)
#    0.000    0.381    5.714    1.714    6.667    1.905 
#    0.000    0.000    0.000    0.000    0.000    0.000 
#    0.000    0.000    0.000    0.000    0.000    0.000 
#
# Total GULP energy -117116.163272 kJ/mol
# GULP energy per Si atom -5576.960156 kJ/mol
# Density = 2.098183 g / cm^3
# Si number density = 21.029699 Si / 1000 Ang^3
#
#
#
# Elastic Constant Matrix: (Units=GPa)
#
#
# Indices 1 2 3 4 5 6 
#
# 1 190.1192 45.9247 28.0745 0.0000 2.3468 0.0000
# 2 45.9247 104.4197 17.7643 0.0000 7.4009 0.0000
# 3 28.0745 17.7643 63.1118 0.0000 -4.5948 0.0000
# 4 0.0000 0.0000 0.0000 -503.2197 0.0000 -74.2001
# 5 2.3468 7.4009 -4.5948 0.0000 43.3532 0.0000
# 6 0.0000 0.0000 0.0000 -74.2001 0.0000 12.5728
#
#
#
# Elastic Compliance Matrix: (Units=1/GPa)
#
#
# Indices 1 2 3 4 5 6 
#
# 1 0.006133 -0.002332 -0.002083 0.000000 -0.000155 0.000000
# 2 -0.002332 0.011126 -0.002241 0.000000 -0.002011 0.000000
# 3 -0.002083 -0.002241 0.017574 0.000000 0.002358 0.000000
# 4 0.000000 0.000000 0.000000 -0.001063 0.000000 -0.006271
# 5 -0.000155 -0.002011 0.002358 0.000000 0.023668 0.000000
# 6 0.000000 0.000000 0.000000 -0.006271 0.000000 0.042528
#
#
# Mechanical properties :
#
#
# Convention : Reuss Voigt Hill
#
# Bulk Modulus (GPa) = 46.46543 60.13087 53.29815
# Shear Modulus (GPa) = 41.51063 -71.73292 -15.11115
#
# Velocity S-wave (km/s) = 4.44768 -5.84674 -2.68351
# Velocity P-wave (km/s) = 6.96556 4.11385 3.97462
#
# Compressibility (1/GPa) = 0.02152138
#
# Stress axis : x y z
#
# Youngs Moduli (GPa) = 163.06230 89.87939 56.90282
#
# Poissons Ratio (x) = 0.20959 0.11852
# Poissons Ratio (y) = 0.38024 0.12751
# Poissons Ratio (z) = 0.33965 0.20140
#
# Static dielectric constant tensor:
#      x y z
#    x 1.729980 0.000000 0.023420 
#    y 0.000000 1.771420 0.000000 
#    z 0.023420 0.000000 1.688190 
# 
# From -- ./inp_files/255264.got.cif
#   From: 2010.05.17/outbox.cif.g08.bks.cpg/sg12_128_cif.got.tgz:255264.got - 2010.06.03 13:09:07.
