data_PCOD9222631
_publ_section_title
;
Structure prediction by ZEFSAII (Michael W. Deem and Ramdas Pophale) SiO2 
 PCOD9222631
Probable space group: C 2/M
;
_chemical_formula_sum "Si O2"
_cell_formula_units_Z 44
_cell_length_a 8.247689
_cell_length_b 28.356089
_cell_length_c 9.491115
_cell_angle_alpha 90.000000
_cell_angle_beta 122.528480
_cell_angle_gamma 90.000000
_cell_volume 1871.489659
_symmetry_space_group_name_H-M "C 2/M"
_symmetry_group_IT_number 12
_symmetry_cell_setting 'monoclinic'
loop_
_space_group_symop_operation_xyz
x,y,z
-x,y,-z
-x,-y,-z
x,-y,z
1/2+x,1/2+y,z
1/2-x,1/2+y,-z
1/2-x,1/2-y,-z
1/2+x,1/2-y,z
loop_
_atom_site_type_symbol
_atom_site_label
_atom_site_fract_x
_atom_site_fract_y
_atom_site_fract_z
Si Si1 0.852972 0.868247 0.052647
Si Si2 0.398856 0.701569 0.301426
Si Si3 0.273452 0.446196 0.220155
Si Si4 0.500000 0.128880 0.500000
Si Si5 0.985061 0.305673 0.228964
Si Si6 0.264845 0.445914 0.535833
O O1 0.964919 0.839228 0.226593
O O2 0.738138 0.910162 0.077186
O O3 0.702296 0.830580 0.921024
O O4 0.000000 0.883968 0.000000
O O5 0.500000 0.697441 0.500000
O O6 0.442405 0.752551 0.257544
O O7 0.170609 0.695583 0.216342
O O8 0.214809 0.500000 0.163180
O O9 0.205637 0.433242 0.346526
O O10 0.505781 0.445713 0.343796
O O11 0.461751 0.162904 0.611660
O O12 0.326135 0.091900 0.402808
O O13 0.204864 0.500000 0.532824
#
# Coordination Sequence:
#
# PCOD9222631 Si02
#       6
#     8   8   8   4   8   8
#     4  12  26  43  70 104 143 182 228 285 346 402
#     4  12  27  48  74  97 138 183 231 283 345 414
#     4   9  20  41  68  97 135 181 229 275 338 407
#     4  12  23  38  66  96 140 172 235 278 340 408
#     4  12  27  45  68 102 137 180 233 285 342 407
#     4   9  19  37  64  97 134 180 226 279 336 405
#
# _framework density 23.510680000000001
#
# number of rings (size 3 to 8) (size 9 to 14) (size 15 to 20)
#    0.000    1.091    0.909    6.273    7.636    0.364 
#    0.000    1.818    0.000    4.364    0.000    0.000 
#    0.000    0.000    0.000    0.000    0.000    0.000 
#
# Total GULP energy -123209.322779 kJ/mol
# GULP energy per Si atom -5600.423763 kJ/mol
# Density = 2.345717 g / cm^3
# Si number density = 23.510680 Si / 1000 Ang^3
#
#
#
# Elastic Constant Matrix: (Units=GPa)
#
#
# Indices 1 2 3 4 5 6 
#
# 1 81.1312 15.9775 -6.9530 0.0000 -7.7614 0.0000
# 2 15.9775 122.9561 6.1242 0.0000 -22.1785 0.0000
# 3 -6.9530 6.1242 56.7004 0.0000 -0.1445 0.0000
# 4 0.0000 0.0000 0.0000 29.5400 0.0000 3.3553
# 5 -7.7614 -22.1785 -0.1445 0.0000 28.6930 0.0000
# 6 0.0000 0.0000 0.0000 3.3553 0.0000 43.9191
#
#
#
# Elastic Compliance Matrix: (Units=1/GPa)
#
#
# Indices 1 2 3 4 5 6 
#
# 1 0.012974 -0.001322 0.001740 0.000000 0.002496 0.000000
# 2 -0.001322 0.009643 -0.001186 0.000000 0.007090 0.000000
# 3 0.001740 -0.001186 0.017977 0.000000 -0.000355 0.000000
# 4 0.000000 0.000000 0.000000 0.034149 0.000000 -0.002609
# 5 0.002496 0.007090 -0.000355 0.000000 0.041005 0.000000
# 6 0.000000 0.000000 0.000000 -0.002609 0.000000 0.022968
#
#
# Mechanical properties :
#
#
# Convention : Reuss Voigt Hill
#
# Bulk Modulus (GPa) = 25.60276 32.34280 28.97278
# Shear Modulus (GPa) = 32.62191 36.80635 34.71413
#
# Velocity S-wave (km/s) = 3.72901 3.96095 3.84673
# Velocity P-wave (km/s) = 5.42717 5.89113 5.66390
#
# Compressibility (1/GPa) = 0.03905829
#
# Stress axis : x y z
#
# Youngs Moduli (GPa) = 77.07694 103.70540 55.62634
#
# Poissons Ratio (x) = 0.13713 -0.09680
# Poissons Ratio (y) = 0.10192 0.06595
# Poissons Ratio (z) = -0.13413 0.12295
#
# Static dielectric constant tensor:
#      x y z
#    x 1.869710 0.000000 0.019510 
#    y 0.000000 1.840720 0.000000 
#    z 0.019510 0.000000 1.950030 
# 
# From -- ./inp_files/42373.got.cif
#   From: 2010.05.17/outbox.cif.g08.bks.cpg/sg12_22_cif.got.tgz:42373.got - 2010.06.03 13:09:07.
