data_PCOD9222288
_publ_section_title
;
Structure prediction by ZEFSAII (Michael W. Deem and Ramdas Pophale) SiO2 
 PCOD9222288
Probable space group: C 2/M
;
_chemical_formula_sum "Si O2"
_cell_formula_units_Z 40
_cell_length_a 12.122656
_cell_length_b 17.816842
_cell_length_c 17.736703
_cell_angle_alpha 90.000000
_cell_angle_beta 29.262586
_cell_angle_gamma 90.000000
_cell_volume 1872.595832
_symmetry_space_group_name_H-M "C 2/M"
_symmetry_group_IT_number 12
_symmetry_cell_setting 'monoclinic'
loop_
_space_group_symop_operation_xyz
x,y,z
-x,y,-z
-x,-y,-z
x,-y,z
1/2+x,1/2+y,z
1/2-x,1/2+y,-z
1/2-x,1/2-y,-z
1/2+x,1/2-y,z
loop_
_atom_site_type_symbol
_atom_site_label
_atom_site_fract_x
_atom_site_fract_y
_atom_site_fract_z
Si Si1 0.123683 0.585345 0.129125
Si Si2 0.875632 0.183171 0.380600
Si Si3 0.542242 0.309429 0.839671
Si Si4 0.857735 0.648372 0.156411
Si Si5 0.047743 0.586753 0.352196
O O1 0.206285 0.500000 0.069248
O O2 0.056369 0.593516 0.256214
O O3 0.920014 0.601324 0.193233
O O4 0.321694 0.643234 0.991443
O O5 0.750000 0.250000 0.500000
O O6 0.953045 0.209448 0.251774
O O7 0.693528 0.117513 0.478439
O O8 0.094662 0.154108 0.294036
O O9 0.559647 0.232995 0.875648
O O10 0.757730 0.360391 0.731121
O O11 0.000000 0.619388 0.000000
O O12 0.083107 0.500000 0.351370
#
# Coordination Sequence:
#
# PCOD9222288 Si02
#       5
#     8   8   8   8   8
#     4  11  25  45  69  98 135 178 224 271 329 401
#     4  12  26  44  66 103 136 173 220 277 332 397
#     4  12  24  43  72  98 133 176 225 276 327 397
#     4  12  25  44  71  98 131 176 225 273 330 395
#     4  11  25  44  68 100 136 176 220 277 339 389
#
# _framework density 21.360721999999999
#
# number of rings (size 3 to 8) (size 9 to 14) (size 15 to 20)
#    0.000    0.400    4.000    4.800    0.000    7.600 
#    0.000    2.000    0.000    0.000    0.000    0.000 
#    0.000    0.000    0.000    0.000    0.000    0.000 
#
# Total GULP energy -112056.826298 kJ/mol
# GULP energy per Si atom -5602.841315 kJ/mol
# Density = 2.131210 g / cm^3
# Si number density = 21.360722 Si / 1000 Ang^3
#
#
#
# Elastic Constant Matrix: (Units=GPa)
#
#
# Indices 1 2 3 4 5 6 
#
# 1 98.1201 -1.8316 16.1058 -0.0237 -6.6718 0.0154
# 2 -1.8316 52.1087 -8.2341 -0.0073 7.3062 0.0160
# 3 16.1058 -8.2341 70.5640 0.1000 -8.2368 -0.0446
# 4 -0.0237 -0.0073 0.1000 16.6814 -0.0284 11.3875
# 5 -6.6718 7.3062 -8.2368 -0.0284 47.9099 0.0048
# 6 0.0154 0.0160 -0.0446 11.3875 0.0048 23.3888
#
#
#
# Elastic Compliance Matrix: (Units=1/GPa)
#
#
# Indices 1 2 3 4 5 6 
#
# 1 0.010645 -0.000147 -0.002318 0.000058 0.001106 -0.000040
# 2 -0.000147 0.019887 0.002039 -0.000003 -0.002703 -0.000008
# 3 -0.002318 0.002039 0.015169 -0.000164 0.001974 0.000108
# 4 0.000058 -0.000003 -0.000164 0.089793 0.000038 -0.043718
# 5 0.001106 -0.002703 0.001974 0.000038 0.021778 -0.000018
# 6 -0.000040 -0.000008 0.000108 -0.043718 -0.000018 0.064041
#
#
# Mechanical properties :
#
#
# Convention : Reuss Voigt Hill
#
# Bulk Modulus (GPa) = 22.29763 25.87480 24.08621
# Shear Modulus (GPa) = 21.08691 31.91286 26.49988
#
# Velocity S-wave (km/s) = 3.14535 3.86942 3.52602
# Velocity P-wave (km/s) = 4.86336 5.66593 5.27992
#
# Compressibility (1/GPa) = 0.04484782
#
# Stress axis : x y z
#
# Youngs Moduli (GPa) = 93.94502 50.28520 65.92318
#
# Poissons Ratio (x) = 0.00740 0.15279
# Poissons Ratio (y) = 0.01383 -0.13440
# Poissons Ratio (z) = 0.21774 -0.10251
#
# Static dielectric constant tensor:
#      x y z
#    x 1.768750 0.000000 0.008720 
#    y 0.000000 1.693240 0.000000 
#    z 0.008720 0.000000 1.740410 
# 
# From -- ./inp_files/46951.got.cif
#   From: 2010.05.17/outbox.cif.g08.bks.cpg/sg12_24_cif.got.tgz:46951.got - 2010.06.03 13:09:07.
