data_PCOD9222398
_publ_section_title
;
Structure prediction by ZEFSAII (Michael W. Deem and Ramdas Pophale) SiO2 
 PCOD9222398
Probable space group: C 2/M
;
_chemical_formula_sum "Si O2"
_cell_formula_units_Z 20
_cell_length_a 6.531460
_cell_length_b 17.836666
_cell_length_c 7.923528
_cell_angle_alpha 90.000000
_cell_angle_beta 54.714781
_cell_angle_gamma 90.000000
_cell_volume 753.503433
_symmetry_space_group_name_H-M "C 2/M"
_symmetry_group_IT_number 12
_symmetry_cell_setting 'monoclinic'
loop_
_space_group_symop_operation_xyz
x,y,z
-x,y,-z
-x,-y,-z
x,-y,z
1/2+x,1/2+y,z
1/2-x,1/2+y,-z
1/2-x,1/2-y,-z
1/2+x,1/2-y,z
loop_
_atom_site_type_symbol
_atom_site_label
_atom_site_fract_x
_atom_site_fract_y
_atom_site_fract_z
Si Si1 0.534645 0.810673 0.658581
Si Si2 0.175929 0.913572 0.248909
Si Si3 0.000000 0.827444 0.000000
O O1 0.500000 0.855814 0.500000
O O2 0.750000 0.750000 0.500000
O O3 0.600121 0.864924 0.779773
O O4 0.254183 0.781752 0.835641
O O5 0.000000 0.910669 0.500000
O O6 0.233376 0.000000 0.188282
O O7 0.055363 0.877166 0.139781
#
# Coordination Sequence:
#
# PCOD9222398 Si02
#       3
#     8   8   4
#     4  12  28  51  79 117 164 212 274 333 400 484
#     4  11  25  51  83 121 164 211 272 336 403 490
#     4  12  27  50  84 120 159 220 266 334 417 480
#
# _framework density 26.542677999999999
#
# number of rings (size 3 to 8) (size 9 to 14) (size 15 to 20)
#    0.000    0.400    4.000    3.000    0.000    7.200 
#    0.000    0.000    0.000    0.000    0.000    0.000 
#    0.000    0.000    0.000    0.000    0.000    0.000 
#
# Total GULP energy -55910.382982 kJ/mol
# GULP energy per Si atom -5591.038298 kJ/mol
# Density = 2.648227 g / cm^3
# Si number density = 26.542678 Si / 1000 Ang^3
#
#
#
# Elastic Constant Matrix: (Units=GPa)
#
#
# Indices 1 2 3 4 5 6 
#
# 1 181.5074 87.9755 105.6345 0.0000 27.4742 0.0000
# 2 87.9755 149.5105 46.7206 0.0000 25.0601 0.0000
# 3 105.6345 46.7206 206.7508 0.0000 7.2154 0.0000
# 4 0.0000 0.0000 0.0000 36.3464 0.0000 19.2822
# 5 27.4742 25.0601 7.2154 0.0000 123.6215 0.0000
# 6 0.0000 0.0000 0.0000 19.2822 0.0000 20.7685
#
#
#
# Elastic Compliance Matrix: (Units=1/GPa)
#
#
# Indices 1 2 3 4 5 6 
#
# 1 0.010357 -0.004588 -0.004216 0.000000 -0.001126 0.000000
# 2 -0.004588 0.009468 0.000237 0.000000 -0.000913 0.000000
# 3 -0.004216 0.000237 0.006920 0.000000 0.000485 0.000000
# 4 0.000000 0.000000 0.000000 0.054218 0.000000 -0.050337
# 5 -0.001126 -0.000913 0.000485 0.000000 0.008496 0.000000
# 6 0.000000 0.000000 0.000000 -0.050337 0.000000 0.094885
#
#
# Mechanical properties :
#
#
# Convention : Reuss Voigt Hill
#
# Bulk Modulus (GPa) = 104.05382 113.15888 108.60635
# Shear Modulus (GPa) = 24.42818 55.97647 40.20232
#
# Velocity S-wave (km/s) = 3.03700 4.59728 3.89605
# Velocity P-wave (km/s) = 7.18229 8.42053 7.82594
#
# Compressibility (1/GPa) = 0.00961041
#
# Stress axis : x y z
#
# Youngs Moduli (GPa) = 96.55112 105.62436 144.50486
#
# Poissons Ratio (x) = 0.48465 0.60918
# Poissons Ratio (y) = 0.44302 -0.03422
# Poissons Ratio (z) = 0.40702 -0.02501
#
# Static dielectric constant tensor:
#      x y z
#    x 2.302910 0.000000 -0.099900 
#    y 0.000000 1.983800 0.000000 
#    z -0.099900 0.000000 2.181500 
# 
# From -- ./inp_files/33228.got.cif
#   From: 2010.05.17/outbox.cif.g08.bks.cpg/sg12_17_cif.got.tgz:33228.got - 2010.06.03 13:09:07.
