data_PCOD9222411
_publ_section_title
;
Structure prediction by ZEFSAII (Michael W. Deem and Ramdas Pophale) SiO2 
 PCOD9222411
Probable space group: C 2/M
;
_chemical_formula_sum "Si O2"
_cell_formula_units_Z 32
_cell_length_a 10.548520
_cell_length_b 19.261968
_cell_length_c 9.763786
_cell_angle_alpha 90.000000
_cell_angle_beta 137.000313
_cell_angle_gamma 90.000000
_cell_volume 1352.979530
_symmetry_space_group_name_H-M "C 2/M"
_symmetry_group_IT_number 12
_symmetry_cell_setting 'monoclinic'
loop_
_space_group_symop_operation_xyz
x,y,z
-x,y,-z
-x,-y,-z
x,-y,z
1/2+x,1/2+y,z
1/2-x,1/2+y,-z
1/2-x,1/2-y,-z
1/2+x,1/2-y,z
loop_
_atom_site_type_symbol
_atom_site_label
_atom_site_fract_x
_atom_site_fract_y
_atom_site_fract_z
Si Si1 0.304939 0.840872 0.702561
Si Si2 0.715550 0.138845 0.989754
Si Si3 0.099415 0.920538 0.314828
Si Si4 0.283406 0.196393 0.294451
O O1 0.495773 0.876949 0.803504
O O2 0.145430 0.877020 0.488867
O O3 0.320574 0.757305 0.704414
O O4 0.273947 0.845393 0.840310
O O5 0.749693 0.194084 0.894622
O O6 0.882159 0.084425 0.105253
O O7 0.214566 0.877710 0.293654
O O8 0.155323 0.000000 0.373712
O O9 0.500000 0.206146 0.500000
#
# Coordination Sequence:
#
# PCOD9222411 Si02
#       4
#     8   8   8   8
#     4  11  26  46  76 108 145 184 241 306 358 418
#     4  11  26  44  74 109 139 187 237 296 363 421
#     4  12  28  49  72 104 150 196 237 290 357 435
#     4  12  25  46  76 110 144 185 244 301 360 420
#
# _framework density 23.651503999999999
#
# number of rings (size 3 to 8) (size 9 to 14) (size 15 to 20)
#    0.000    0.500    2.500    4.500   10.500    5.500 
#    0.000    2.500    0.000    0.000    0.000    0.000 
#    0.000    0.000    0.000    0.000    0.000    0.000 
#
# Total GULP energy -89349.870631 kJ/mol
# GULP energy per Si atom -5584.366914 kJ/mol
# Density = 2.359767 g / cm^3
# Si number density = 23.651504 Si / 1000 Ang^3
#
#
#
# Elastic Constant Matrix: (Units=GPa)
#
#
# Indices 1 2 3 4 5 6 
#
# 1 75.0566 28.1501 50.1922 0.0000 -8.8364 0.0000
# 2 28.1501 122.6099 43.7708 0.0000 -0.9028 0.0000
# 3 50.1922 43.7708 126.4922 0.0000 2.3843 0.0000
# 4 0.0000 0.0000 0.0000 1.4524 0.0000 -0.9160
# 5 -8.8364 -0.9028 2.3843 0.0000 62.1001 0.0000
# 6 0.0000 0.0000 0.0000 -0.9160 0.0000 -25.6042
#
#
#
# Elastic Compliance Matrix: (Units=1/GPa)
#
#
# Indices 1 2 3 4 5 6 
#
# 1 0.019022 -0.001861 -0.006960 0.000000 0.002947 0.000000
# 2 -0.001861 0.009492 -0.002545 0.000000 -0.000029 0.000000
# 3 -0.006960 -0.002545 0.011576 0.000000 -0.001472 0.000000
# 4 0.000000 0.000000 0.000000 0.673327 0.000000 -0.024088
# 5 0.002947 -0.000029 -0.001472 0.000000 0.016578 0.000000
# 6 0.000000 0.000000 0.000000 -0.024088 0.000000 -0.038194
#
#
# Mechanical properties :
#
#
# Convention : Reuss Voigt Hill
#
# Bulk Modulus (GPa) = 57.61208 63.15388 60.38298
# Shear Modulus (GPa) = 6.94137 21.05937 14.00037
#
# Velocity S-wave (km/s) = 1.71500 2.98720 2.43563
# Velocity P-wave (km/s) = 5.32290 6.21753 5.78752
#
# Compressibility (1/GPa) = 0.01735747
#
# Stress axis : x y z
#
# Youngs Moduli (GPa) = 52.56989 105.35491 86.38752
#
# Poissons Ratio (x) = 0.19608 0.60122
# Poissons Ratio (y) = 0.09784 0.21989
# Poissons Ratio (z) = 0.36587 0.26817
#
# Static dielectric constant tensor:
#      x y z
#    x 1.916430 0.000000 -0.015420 
#    y 0.000000 1.854070 0.000000 
#    z -0.015420 0.000000 1.906040 
# 
# From -- ./inp_files/131483.got.cif
#   From: 2010.05.17/outbox.cif.g08.bks.cpg/sg12_66_cif.got.tgz:131483.got - 2010.06.03 13:09:07.
