data_PCOD9222818
_publ_section_title
;
Structure prediction by ZEFSAII (Michael W. Deem and Ramdas Pophale) SiO2 
 PCOD9222818
Probable space group: C 2/M
;
_chemical_formula_sum "Si O2"
_cell_formula_units_Z 64
_cell_length_a 13.752694
_cell_length_b 7.396695
_cell_length_c 22.730284
_cell_angle_alpha 90.000000
_cell_angle_beta 89.820675
_cell_angle_gamma 90.000000
_cell_volume 2312.215062
_symmetry_space_group_name_H-M "C 2/M"
_symmetry_group_IT_number 12
_symmetry_cell_setting 'monoclinic'
loop_
_space_group_symop_operation_xyz
x,y,z
-x,y,-z
-x,-y,-z
x,-y,z
1/2+x,1/2+y,z
1/2-x,1/2+y,-z
1/2-x,1/2-y,-z
1/2+x,1/2-y,z
loop_
_atom_site_type_symbol
_atom_site_label
_atom_site_fract_x
_atom_site_fract_y
_atom_site_fract_z
Si Si1 0.507917 0.704654 0.932044
Si Si2 0.031285 0.215542 0.803331
Si Si3 0.167872 0.721495 0.428864
Si Si4 0.755713 0.276244 0.815083
Si Si5 0.395796 0.791145 0.450058
Si Si6 0.908616 0.716376 0.321971
Si Si7 0.261307 0.695336 0.065417
Si Si8 0.181693 0.292927 0.302004
O O1 0.465978 0.500000 0.937335
O O2 0.484155 0.784674 0.865918
O O3 0.624045 0.687191 0.925016
O O4 0.500000 0.783158 0.000000
O O5 0.144318 0.279542 0.805775
O O6 0.018017 0.249511 0.732612
O O7 0.028700 0.000000 0.810173
O O8 0.168964 0.500000 0.428626
O O9 0.278140 0.784528 0.440616
O O10 0.099361 0.780865 0.482891
O O11 0.144474 0.784874 0.363096
O O12 0.756208 0.500000 0.814104
O O13 0.781340 0.204231 0.879123
O O14 0.824853 0.211812 0.763118
O O15 0.434858 0.717590 0.387899
O O16 0.427092 0.000000 0.451949
O O17 0.896889 0.500000 0.325794
O O18 0.800695 0.795354 0.309583
O O19 0.213733 0.500000 0.067923
O O20 0.250000 0.750000 0.000000
O O21 0.148084 0.500000 0.299493
#
# Coordination Sequence:
#
# PCOD9222818 Si02
#       8
#     8   8   8   8   8   8   8   8
#     4   8  14  26  44  61  74  93 124 159 190 218
#     4   8  13  22  35  48  61  79 108 143 173 203
#     4   8  12  17  25  35  47  67  98 134 166 195
#     4   7  11  20  32  45  61  82 107 136 169 202
#     4   8  13  18  22  32  51  73  97 127 163 199
#     4   9  14  18  25  38  58  81 103 130 166 205
#     4   9  16  26  40  57  77  98 121 150 183 221
#     4   8  12  19  30  40  51  72 105 141 172 199
#
# _framework density 27.679086000000002
#
# number of rings (size 3 to 8) (size 9 to 14) (size 15 to 20)
#    0.000    3.875    0.000    2.625    0.000    0.500 
#    0.000    5.625    0.000    1.500    0.000    0.000 
#    0.000    0.000    0.000    0.000    0.000    1.250 
#
# Total GULP energy -178303.111223 kJ/mol
# GULP energy per Si atom -5571.972226 kJ/mol
# Density = 2.761609 g / cm^3
# Si number density = 27.679086 Si / 1000 Ang^3
#
#
#
# Elastic Constant Matrix: (Units=GPa)
#
#
# Indices 1 2 3 4 5 6 
#
# 1 75.2944 0.5454 35.0618 0.0000 -34.2857 0.0000
# 2 0.5454 108.3145 14.9556 0.0000 4.2760 0.0000
# 3 35.0618 14.9556 377.9026 0.0000 16.4590 0.0000
# 4 0.0000 0.0000 0.0000 22.6530 0.0000 6.1257
# 5 -34.2857 4.2760 16.4590 0.0000 48.0409 0.0000
# 6 0.0000 0.0000 0.0000 6.1257 0.0000 6.8428
#
#
#
# Elastic Compliance Matrix: (Units=1/GPa)
#
#
# Indices 1 2 3 4 5 6 
#
# 1 0.022269 -0.000394 -0.002786 0.000000 0.016882 0.000000
# 2 -0.000394 0.009314 -0.000288 0.000000 -0.001012 0.000000
# 3 -0.002786 -0.000288 0.003047 0.000000 -0.003006 0.000000
# 4 0.000000 0.000000 0.000000 0.058244 0.000000 -0.052140
# 5 0.016882 -0.001012 -0.003006 0.000000 0.033984 0.000000
# 6 0.000000 0.000000 0.000000 -0.052140 0.000000 0.192814
#
#
# Mechanical properties :
#
#
# Convention : Reuss Voigt Hill
#
# Bulk Modulus (GPa) = 36.10860 73.62635 54.86747
# Shear Modulus (GPa) = 14.88813 49.57061 32.22937
#
# Velocity S-wave (km/s) = 2.32175 4.23650 3.41602
# Velocity P-wave (km/s) = 4.50124 7.11255 5.95187
#
# Compressibility (1/GPa) = 0.02769423
#
# Stress axis : x y z
#
# Youngs Moduli (GPa) = 44.90621 107.36465 328.19330
#
# Poissons Ratio (x) = 0.04230 0.91427
# Poissons Ratio (y) = 0.01769 0.09452
# Poissons Ratio (z) = 0.12510 0.03092
#
# Static dielectric constant tensor:
#      x y z
#    x 2.388060 0.000000 0.139280 
#    y 0.000000 2.082150 0.000000 
#    z 0.139280 0.000000 2.339010 
# 
# From -- ./inp_files/348329.got.cif
#   From: 2010.05.17/outbox.cif.g08.bks.cpg/sg12_175_cif.got.tgz:348329.got - 2010.06.03 13:09:07.
