data_PCOD9222855
_publ_section_title
;
Structure prediction by ZEFSAII (Michael W. Deem and Ramdas Pophale) SiO2 
 PCOD9222855
Probable space group: C 2/M
;
_chemical_formula_sum "Si O2"
_cell_formula_units_Z 48
_cell_length_a 24.611353
_cell_length_b 14.973714
_cell_length_c 16.538293
_cell_angle_alpha 90.000000
_cell_angle_beta 157.112902
_cell_angle_gamma 90.000000
_cell_volume 2370.347830
_symmetry_space_group_name_H-M "C 2/M"
_symmetry_group_IT_number 12
_symmetry_cell_setting 'monoclinic'
loop_
_space_group_symop_operation_xyz
x,y,z
-x,y,-z
-x,-y,-z
x,-y,z
1/2+x,1/2+y,z
1/2-x,1/2+y,-z
1/2-x,1/2-y,-z
1/2+x,1/2-y,z
loop_
_atom_site_type_symbol
_atom_site_label
_atom_site_fract_x
_atom_site_fract_y
_atom_site_fract_z
Si Si1 0.498278 0.790777 0.731114
Si Si2 0.809719 0.170386 0.218445
Si Si3 0.413983 0.863026 0.310107
Si Si4 0.394642 0.106372 0.733870
Si Si5 0.397713 0.596846 0.177100
Si Si6 0.292591 0.104417 0.761862
O O1 0.487113 0.843405 0.631160
O O2 0.392523 0.828863 0.653445
O O3 0.522744 0.684786 0.748088
O O4 0.649374 0.823590 0.970439
O O5 0.870469 0.266630 0.284275
O O6 0.883081 0.105985 0.254367
O O7 0.807516 0.148799 0.309807
O O8 0.500000 0.907374 0.500000
O O9 0.263555 0.900967 0.076355
O O10 0.296529 0.135133 0.674382
O O11 0.372499 0.000000 0.684725
O O12 0.550425 0.112123 0.986461
O O13 0.457989 0.500000 0.237803
O O14 0.261570 0.000000 0.718462
#
# Coordination Sequence:
#
# PCOD9222855 Si02
#       6
#     8   8   8   8   8   8
#     4   8  15  26  39  57  81 109 134 161 201 243
#     4   8  14  25  40  58  80 106 130 161 205 246
#     4   9  17  27  39  57  82 108 138 171 202 237
#     4   8  13  21  36  61  85 100 123 165 209 244
#     4   9  16  26  41  60  83 110 138 166 197 236
#     4   8  12  19  36  61  82  98 122 161 209 250
#
# _framework density 20.250194
#
# number of rings (size 3 to 8) (size 9 to 14) (size 15 to 20)
#    0.000    3.667    0.000    3.500    0.000    4.333 
#    0.000    0.000    0.000   13.500    0.000   21.000 
#    0.000    0.000    0.000    0.000    0.000    0.000 
#
# Total GULP energy -133637.150093 kJ/mol
# GULP energy per Si atom -5568.214587 kJ/mol
# Density = 2.020410 g / cm^3
# Si number density = 20.250194 Si / 1000 Ang^3
#
#
#
# Elastic Constant Matrix: (Units=GPa)
#
#
# Indices 1 2 3 4 5 6 
#
# 1 171.5980 72.3522 29.0689 0.0000 -42.6730 0.0000
# 2 72.3522 110.3045 3.9847 0.0000 -22.4639 0.0000
# 3 29.0689 3.9847 67.4386 0.0000 -2.9203 0.0000
# 4 0.0000 0.0000 0.0000 -8.7512 0.0000 -10.4406
# 5 -42.6730 -22.4639 -2.9203 0.0000 20.3514 0.0000
# 6 0.0000 0.0000 0.0000 -10.4406 0.0000 14.9117
#
#
#
# Elastic Compliance Matrix: (Units=1/GPa)
#
#
# Indices 1 2 3 4 5 6 
#
# 1 0.014934 -0.004365 -0.005063 0.000000 0.025769 0.000000
# 2 -0.004365 0.012972 0.001347 0.000000 0.005359 0.000000
# 3 -0.005063 0.001347 0.016639 0.000000 -0.006742 0.000000
# 4 0.000000 0.000000 0.000000 -0.062261 0.000000 -0.043593
# 5 0.025769 0.005359 -0.006742 0.000000 0.108117 0.000000
# 6 0.000000 0.000000 0.000000 -0.043593 0.000000 0.036539
#
#
# Mechanical properties :
#
#
# Convention : Reuss Voigt Hill
#
# Bulk Modulus (GPa) = 35.23287 62.23919 48.73603
# Shear Modulus (GPa) = 32.77333 21.56473 27.16903
#
# Velocity S-wave (km/s) = 4.02732 3.26684 3.66685
# Velocity P-wave (km/s) = 6.24999 6.71055 6.48436
#
# Compressibility (1/GPa) = 0.02838259
#
# Stress axis : x y z
#
# Youngs Moduli (GPa) = 66.96165 77.09165 60.09875
#
# Poissons Ratio (x) = 0.33649 0.30430
# Poissons Ratio (y) = 0.29227 -0.08095
# Poissons Ratio (z) = 0.33905 -0.10384
#
# Static dielectric constant tensor:
#      x y z
#    x 1.763000 0.000000 -0.005780 
#    y 0.000000 1.728450 0.000000 
#    z -0.005780 0.000000 1.794030 
# 
# From -- ./inp_files/155260.got.cif
#   From: 2010.05.17/outbox.cif.g08.bks.cpg/sg12_78_cif.got.tgz:155260.got - 2010.06.03 13:09:07.
