data_PCOD9222800
_publ_section_title
;
Structure prediction by ZEFSAII (Michael W. Deem and Ramdas Pophale) SiO2 
 PCOD9222800
Probable space group: C 2/M
;
_chemical_formula_sum "Si O2"
_cell_formula_units_Z 48
_cell_length_a 28.000359
_cell_length_b 7.264057
_cell_length_c 11.417606
_cell_angle_alpha 90.000000
_cell_angle_beta 120.876670
_cell_angle_gamma 90.000000
_cell_volume 1993.167614
_symmetry_space_group_name_H-M "C 2/M"
_symmetry_group_IT_number 12
_symmetry_cell_setting 'monoclinic'
loop_
_space_group_symop_operation_xyz
x,y,z
-x,y,-z
-x,-y,-z
x,-y,z
1/2+x,1/2+y,z
1/2-x,1/2+y,-z
1/2-x,1/2-y,-z
1/2+x,1/2-y,z
loop_
_atom_site_type_symbol
_atom_site_label
_atom_site_fract_x
_atom_site_fract_y
_atom_site_fract_z
Si Si1 0.235846 0.277550 0.659386
Si Si2 0.861176 0.275452 0.310961
Si Si3 0.063986 0.275441 0.081574
Si Si4 0.074266 0.275270 0.837080
Si Si5 0.838767 0.710362 0.649149
Si Si6 0.034165 0.710829 0.420129
O O1 0.238792 0.500000 0.660523
O O2 0.200831 0.222703 0.729401
O O3 0.197594 0.210764 0.502113
O O4 0.297599 0.211309 0.709602
O O5 0.863631 0.500000 0.315452
O O6 0.884030 0.216843 0.213431
O O7 0.906108 0.213315 0.466215
O O8 0.064428 0.500000 0.088010
O O9 0.102722 0.209969 0.236192
O O10 0.088702 0.221961 0.986540
O O11 0.000000 0.218846 0.000000
O O12 0.072531 0.500000 0.830738
O O13 0.011426 0.211670 0.726085
O O14 0.848856 0.500000 0.626740
O O15 0.043780 0.500000 0.394747
O O16 0.000000 0.707299 0.500000
#
# Coordination Sequence:
#
# PCOD9222800 Si02
#       6
#     8   8   8   8   8   8
#     4   9  17  29  47  65  84 113 149 183 210 245
#     4   8  13  21  36  58  82 108 139 176 214 246
#     4   9  17  26  39  59  86 118 143 168 214 270
#     4   8  13  21  33  54  84 112 138 171 212 257
#     4   9  18  31  44  63  90 115 142 178 216 255
#     4   7  10  16  28  49  78 106 128 160 207 249
#
# _framework density 24.082270000000001
#
# number of rings (size 3 to 8) (size 9 to 14) (size 15 to 20)
#    0.000    3.667    0.000    2.000    2.333    0.000 
#    0.000    0.833    0.000    0.500    0.000    0.000 
#    0.000    6.000    0.000    0.000    0.000    0.000 
#
# Total GULP energy -133900.651218 kJ/mol
# GULP energy per Si atom -5579.193801 kJ/mol
# Density = 2.402746 g / cm^3
# Si number density = 24.082270 Si / 1000 Ang^3
#
#
#
# Elastic Constant Matrix: (Units=GPa)
#
#
# Indices 1 2 3 4 5 6 
#
# 1 120.9723 -7.2313 3.4970 0.0000 8.5192 0.0000
# 2 -7.2313 106.0148 -1.4050 0.0000 0.5126 0.0000
# 3 3.4970 -1.4050 73.2376 0.0000 5.5821 0.0000
# 4 0.0000 0.0000 0.0000 -30.8938 0.0000 -9.6749
# 5 8.5192 0.5126 5.5821 0.0000 31.0605 0.0000
# 6 0.0000 0.0000 0.0000 -9.6749 0.0000 -4.2481
#
#
#
# Elastic Compliance Matrix: (Units=1/GPa)
#
#
# Indices 1 2 3 4 5 6 
#
# 1 0.008469 0.000586 -0.000218 0.000000 -0.002293 0.000000
# 2 0.000586 0.009477 0.000180 0.000000 -0.000350 0.000000
# 3 -0.000218 0.000180 0.013854 0.000000 -0.002433 0.000000
# 4 0.000000 0.000000 0.000000 -0.112870 0.000000 0.257056
# 5 -0.002293 -0.000350 -0.002433 0.000000 0.033267 0.000000
# 6 0.000000 0.000000 0.000000 0.257056 0.000000 -0.820828
#
#
# Mechanical properties :
#
#
# Convention : Reuss Voigt Hill
#
# Bulk Modulus (GPa) = 30.39942 32.21624 31.30783
# Shear Modulus (GPa) = -5.82233 19.54131 6.85949
#
# Velocity S-wave (km/s) = -1.55658 2.85167 1.68954
# Velocity P-wave (km/s) = 3.06920 4.92436 4.10300
#
# Compressibility (1/GPa) = 0.03289536
#
# Stress axis : x y z
#
# Youngs Moduli (GPa) = 118.07502 105.52210 72.18389
#
# Poissons Ratio (x) = -0.06182 0.01576
# Poissons Ratio (y) = -0.06918 -0.01303
# Poissons Ratio (z) = 0.02578 -0.01904
#
# Static dielectric constant tensor:
#      x y z
#    x 1.939550 0.000000 -0.011130 
#    y 0.000000 1.981250 0.000000 
#    z -0.011130 0.000000 1.891230 
# 
# From -- ./inp_files/164048.got.cif
#   From: 2010.05.17/outbox.cif.g08.bks.cpg/sg12_83_cif.got.tgz:164048.got - 2010.06.03 13:09:07.
