data_PCOD9222968
_publ_section_title
;
Structure prediction by ZEFSAII (Michael W. Deem and Ramdas Pophale) SiO2 
 PCOD9222968
Probable space group: C 2/M
;
_chemical_formula_sum "Si O2"
_cell_formula_units_Z 48
_cell_length_a 11.002161
_cell_length_b 27.999639
_cell_length_c 6.906002
_cell_angle_alpha 90.000000
_cell_angle_beta 78.024735
_cell_angle_gamma 90.000000
_cell_volume 2081.140166
_symmetry_space_group_name_H-M "C 2/M"
_symmetry_group_IT_number 12
_symmetry_cell_setting 'monoclinic'
loop_
_space_group_symop_operation_xyz
x,y,z
-x,y,-z
-x,-y,-z
x,-y,z
1/2+x,1/2+y,z
1/2-x,1/2+y,-z
1/2-x,1/2-y,-z
1/2+x,1/2-y,z
loop_
_atom_site_type_symbol
_atom_site_label
_atom_site_fract_x
_atom_site_fract_y
_atom_site_fract_z
Si Si1 0.220052 0.778633 0.705142
Si Si2 0.829298 0.556349 0.243242
Si Si3 0.400264 0.944901 0.761807
Si Si4 0.669182 0.612532 0.743319
Si Si5 0.451861 0.267821 0.733953
Si Si6 0.394050 0.379580 0.778761
O O1 0.250000 0.750000 0.500000
O O2 0.210360 0.834652 0.668625
O O3 0.334999 0.766551 0.806607
O O4 0.079822 0.764987 0.813045
O O5 0.803986 0.500000 0.296173
O O6 0.711607 0.591480 0.300912
O O7 0.958260 0.573459 0.299019
O O8 0.863183 0.557190 0.001729
O O9 0.286665 0.921565 0.685670
O O10 0.406488 0.000000 0.706733
O O11 0.534052 0.601138 0.700704
O O12 0.639806 0.615058 0.983557
O O13 0.500000 0.257240 0.500000
O O14 0.403160 0.322521 0.745544
#
# Coordination Sequence:
#
# PCOD9222968 Si02
#       6
#     8   8   8   8   8   8
#     4   9  18  32  47  63  86 116 150 185 224 272
#     4   8  14  25  41  63  93 125 152 179 220 272
#     4   8  14  25  41  64  95 124 148 180 222 270
#     4   9  17  28  43  66  93 118 148 186 227 267
#     4   9  18  32  47  62  85 115 150 187 227 273
#     4   9  17  28  43  65  91 117 148 189 228 265
#
# _framework density 23.064281000000001
#
# number of rings (size 3 to 8) (size 9 to 14) (size 15 to 20)
#    0.000    3.333    0.000    1.000    0.000    2.667 
#    0.000    3.333    0.000    0.500    0.000    3.500 
#    0.000   30.000    0.000    0.000    0.000    0.000 
#
# Total GULP energy -134008.293391 kJ/mol
# GULP energy per Si atom -5583.678891 kJ/mol
# Density = 2.301179 g / cm^3
# Si number density = 23.064281 Si / 1000 Ang^3
#
#
#
# Elastic Constant Matrix: (Units=GPa)
#
#
# Indices 1 2 3 4 5 6 
#
# 1 250.9487 99.6352 28.7324 0.0000 -27.5794 0.0000
# 2 99.6352 61.3189 13.3418 0.0000 -25.3698 0.0000
# 3 28.7324 13.3418 75.4777 0.0000 -15.5395 0.0000
# 4 0.0000 0.0000 0.0000 22.7693 0.0000 -9.5468
# 5 -27.5794 -25.3698 -15.5395 0.0000 47.5656 0.0000
# 6 0.0000 0.0000 0.0000 -9.5468 0.0000 50.1579
#
#
#
# Elastic Compliance Matrix: (Units=1/GPa)
#
#
# Indices 1 2 3 4 5 6 
#
# 1 0.012139 -0.021375 -0.001866 0.000000 -0.004972 0.000000
# 2 -0.021375 0.058725 0.001773 0.000000 0.019507 0.000000
# 3 -0.001866 0.001773 0.014600 0.000000 0.004633 0.000000
# 4 0.000000 0.000000 0.000000 0.047728 0.000000 0.009084
# 5 -0.004972 0.019507 0.004633 0.000000 0.030059 0.000000
# 6 0.000000 0.000000 0.000000 0.009084 0.000000 0.021666
#
#
# Mechanical properties :
#
#
# Convention : Reuss Voigt Hill
#
# Bulk Modulus (GPa) = 23.51485 74.57376 49.04430
# Shear Modulus (GPa) = 20.65880 40.50097 30.57988
#
# Velocity S-wave (km/s) = 2.99608 4.19502 3.64518
# Velocity P-wave (km/s) = 4.71022 7.47445 6.24714
#
# Compressibility (1/GPa) = 0.04252632
#
# Stress axis : x y z
#
# Youngs Moduli (GPa) = 82.38168 17.02866 68.49359
#
# Poissons Ratio (x) = 0.36398 0.12782
# Poissons Ratio (y) = 1.76089 -0.12141
# Poissons Ratio (z) = 0.15374 -0.03018
#
# Static dielectric constant tensor:
#      x y z
#    x 1.935530 0.000000 0.050900 
#    y 0.000000 1.773790 0.000000 
#    z 0.050900 0.000000 1.951720 
# 
# From -- ./inp_files/124766.got.cif
#   From: 2010.05.17/outbox.cif.g08.bks.cpg/sg12_63_cif.got.tgz:124766.got - 2010.06.03 13:09:07.
