data_PCOD9222394
_publ_section_title
;
Structure prediction by ZEFSAII (Michael W. Deem and Ramdas Pophale) SiO2 
 PCOD9222394
Probable space group: C 2/M
;
_chemical_formula_sum "Si O2"
_cell_formula_units_Z 48
_cell_length_a 15.611150
_cell_length_b 24.766253
_cell_length_c 9.316633
_cell_angle_alpha 90.000000
_cell_angle_beta 40.755168
_cell_angle_gamma 90.000000
_cell_volume 2351.543501
_symmetry_space_group_name_H-M "C 2/M"
_symmetry_group_IT_number 12
_symmetry_cell_setting 'monoclinic'
loop_
_space_group_symop_operation_xyz
x,y,z
-x,y,-z
-x,-y,-z
x,-y,z
1/2+x,1/2+y,z
1/2-x,1/2+y,-z
1/2-x,1/2-y,-z
1/2+x,1/2-y,z
loop_
_atom_site_type_symbol
_atom_site_label
_atom_site_fract_x
_atom_site_fract_y
_atom_site_fract_z
Si Si1 0.459852 0.144646 0.392493
Si Si2 0.224804 0.695800 0.933446
Si Si3 0.005241 0.846733 0.844557
Si Si4 0.709052 0.285623 0.754121
Si Si5 0.376887 0.397798 0.586333
Si Si6 0.873642 0.561672 0.260902
O O1 0.500000 0.123365 0.500000
O O2 0.354407 0.192725 0.547916
O O3 0.390322 0.102163 0.373990
O O4 0.593038 0.167615 0.155415
O O5 0.201343 0.724259 0.808508
O O6 0.329709 0.649485 0.756448
O O7 0.250000 0.750000 0.000000
O O8 0.110358 0.799696 0.750341
O O9 0.058691 0.873725 0.638586
O O10 0.000000 0.881289 0.000000
O O11 0.860486 0.821685 0.031127
O O12 0.500000 0.428911 0.500000
O O13 0.249958 0.427732 0.686306
O O14 0.868835 0.500000 0.319145
O O15 0.000000 0.568832 0.000000
#
# Coordination Sequence:
#
# PCOD9222394 Si02
#       6
#     8   8   8   8   8   8
#     4  12  24  42  71  99 141 183 232 285 342 413
#     4  12  25  37  59 104 142 186 227 270 330 421
#     4   8  20  39  58  86 128 180 217 276 320 396
#     4   9  21  36  59  90 139 180 221 259 333 395
#     4  12  25  41  69  97 140 179 230 285 349 413
#     4  11  25  50  74 100 133 176 240 305 351 403
#
# _framework density 20.412123999999999
#
# number of rings (size 3 to 8) (size 9 to 14) (size 15 to 20)
#    1.000    0.167    5.000    1.000    4.667    4.000 
#    0.000    0.000    0.000    4.500    0.000    0.000 
#    0.000    0.000    0.000    0.000    0.000    0.000 
#
# Total GULP energy -133619.631306 kJ/mol
# GULP energy per Si atom -5567.484638 kJ/mol
# Density = 2.036567 g / cm^3
# Si number density = 20.412124 Si / 1000 Ang^3
#
#
#
# Elastic Constant Matrix: (Units=GPa)
#
#
# Indices 1 2 3 4 5 6 
#
# 1 115.4196 35.4376 39.6241 0.0000 -10.6390 0.0000
# 2 35.4376 52.7904 26.3638 0.0000 4.7914 0.0000
# 3 39.6241 26.3638 124.5890 0.0000 -16.2439 0.0000
# 4 0.0000 0.0000 0.0000 5.9299 0.0000 -10.5005
# 5 -10.6390 4.7914 -16.2439 0.0000 33.1938 0.0000
# 6 0.0000 0.0000 0.0000 -10.5005 0.0000 -131.1408
#
#
#
# Elastic Compliance Matrix: (Units=1/GPa)
#
#
# Indices 1 2 3 4 5 6 
#
# 1 0.011931 -0.007551 -0.001662 0.000000 0.004101 0.000000
# 2 -0.007551 0.026985 -0.004414 0.000000 -0.008476 0.000000
# 3 -0.001662 -0.004414 0.010150 0.000000 0.005072 0.000000
# 4 0.000000 0.000000 0.000000 0.147697 0.000000 -0.011826
# 5 0.004101 -0.008476 0.005072 0.000000 0.035146 0.000000
# 6 0.000000 0.000000 0.000000 -0.011826 0.000000 -0.006678
#
#
# Mechanical properties :
#
#
# Convention : Reuss Voigt Hill
#
# Bulk Modulus (GPa) = 45.84505 55.07221 50.45863
# Shear Modulus (GPa) = 19.24884 -5.64519 6.80183
#
# Velocity S-wave (km/s) = 3.07418 -1.66481 1.82743
# Velocity P-wave (km/s) = 5.92531 4.83148 5.40613
#
# Compressibility (1/GPa) = 0.02181260
#
# Stress axis : x y z
#
# Youngs Moduli (GPa) = 83.81428 37.05696 98.52074
#
# Poissons Ratio (x) = 0.27983 0.16374
# Poissons Ratio (y) = 0.63292 0.43484
# Poissons Ratio (z) = 0.13930 0.16356
#
# Static dielectric constant tensor:
#      x y z
#    x 1.935990 0.000000 0.041760 
#    y 0.000000 1.695070 0.000000 
#    z 0.041760 0.000000 1.737280 
# 
# From -- ./inp_files/67344.got.cif
#   From: 2010.05.17/outbox.cif.g08.bks.cpg/sg12_34_cif.got.tgz:67344.got - 2010.06.03 13:09:07.
