data_PCOD9222770
_publ_section_title
;
Structure prediction by ZEFSAII (Michael W. Deem and Ramdas Pophale) SiO2 
 PCOD9222770
Probable space group: C 2/M
;
_chemical_formula_sum "Si O2"
_cell_formula_units_Z 26
_cell_length_a 33.975055
_cell_length_b 8.349561
_cell_length_c 4.847487
_cell_angle_alpha 90.000000
_cell_angle_beta 125.016174
_cell_angle_gamma 90.000000
_cell_volume 1126.209312
_symmetry_space_group_name_H-M "C 2/M"
_symmetry_group_IT_number 12
_symmetry_cell_setting 'monoclinic'
loop_
_space_group_symop_operation_xyz
x,y,z
-x,y,-z
-x,-y,-z
x,-y,z
1/2+x,1/2+y,z
1/2-x,1/2+y,-z
1/2-x,1/2-y,-z
1/2+x,1/2-y,z
loop_
_atom_site_type_symbol
_atom_site_label
_atom_site_fract_x
_atom_site_fract_y
_atom_site_fract_z
Si Si1 0.297687 0.186478 0.839701
Si Si2 0.500000 0.000000 0.500000
Si Si3 0.852421 0.813891 0.563804
Si Si4 0.549182 0.817844 0.270492
O O1 0.250000 0.250000 0.500000
O O2 0.188395 0.218104 0.830021
O O3 0.339480 0.213269 0.782076
O O4 0.293162 0.000000 0.890306
O O5 0.460995 0.137812 0.455420
O O6 0.902015 0.759941 0.622373
O O7 0.853677 0.000000 0.643880
O O8 0.544948 0.000000 0.109434
O O9 0.500000 0.728330 0.000000
#
# Coordination Sequence:
#
# PCOD9222770 Si02
#       4
#     8   2   8   8
#     4  12  26  47  71  98 132 176 223 277 334 400
#     4   8  18  36  62  90 128 172 228 268 322 396
#     4  12  26  43  68 102 138 175 221 276 336 398
#     4   9  20  36  61  90 127 173 220 266 323 391
#
# _framework density 23.086293000000001
#
# number of rings (size 3 to 8) (size 9 to 14) (size 15 to 20)
#    0.923    0.308    0.000    6.462    4.308    0.615 
#    0.000    0.769    0.000    0.000    0.000    0.000 
#    0.000    0.000    0.000    0.000    0.000    0.000 
#
# Total GULP energy -72391.696982 kJ/mol
# GULP energy per Si atom -5568.592076 kJ/mol
# Density = 2.303375 g / cm^3
# Si number density = 23.086293 Si / 1000 Ang^3
#
#
#
# Elastic Constant Matrix: (Units=GPa)
#
#
# Indices 1 2 3 4 5 6 
#
# 1 91.6883 -2.4363 -2.2873 0.0000 4.1381 0.0000
# 2 -2.4363 75.0101 -8.7830 0.0000 18.4014 0.0000
# 3 -2.2873 -8.7830 51.9620 0.0000 11.2128 0.0000
# 4 0.0000 0.0000 0.0000 28.4554 0.0000 5.9485
# 5 4.1381 18.4014 11.2128 0.0000 43.3821 0.0000
# 6 0.0000 0.0000 0.0000 5.9485 0.0000 26.6441
#
#
#
# Elastic Compliance Matrix: (Units=1/GPa)
#
#
# Indices 1 2 3 4 5 6 
#
# 1 0.011031 0.000890 0.001000 0.000000 -0.001688 0.000000
# 2 0.000890 0.015828 0.004428 0.000000 -0.007943 0.000000
# 3 0.001000 0.004428 0.021672 0.000000 -0.007575 0.000000
# 4 0.000000 0.000000 0.000000 0.036863 0.000000 -0.008230
# 5 -0.001688 -0.007943 -0.007575 0.000000 0.028539 0.000000
# 6 0.000000 0.000000 0.000000 -0.008230 0.000000 0.039369
#
#
# Mechanical properties :
#
#
# Convention : Reuss Voigt Hill
#
# Bulk Modulus (GPa) = 16.34860 21.29413 18.82137
# Shear Modulus (GPa) = 31.04527 35.17411 33.10969
#
# Velocity S-wave (km/s) = 3.67106 3.90756 3.79115
# Velocity P-wave (km/s) = 5.00658 5.44081 5.22820
#
# Compressibility (1/GPa) = 0.06116731
#
# Stress axis : x y z
#
# Youngs Moduli (GPa) = 90.65124 63.18096 46.14233
#
# Poissons Ratio (x) = -0.05620 -0.04615
# Poissons Ratio (y) = -0.08064 -0.20434
# Poissons Ratio (z) = -0.09067 -0.27979
#
# Static dielectric constant tensor:
#      x y z
#    x 1.789360 0.000000 0.071820 
#    y 0.000000 1.822040 0.000000 
#    z 0.071820 0.000000 1.804020 
# 
# From -- ./inp_files/100520.got.cif
#   From: 2010.05.17/outbox.cif.g08.bks.cpg/sg12_51_cif.got.tgz:100520.got - 2010.06.03 13:09:07.
