data_PCOD9222765
_publ_section_title
;
Structure prediction by ZEFSAII (Michael W. Deem and Ramdas Pophale) SiO2 
 PCOD9222765
Probable space group: C 2/M
;
_chemical_formula_sum "Si O2"
_cell_formula_units_Z 40
_cell_length_a 9.750944
_cell_length_b 9.865717
_cell_length_c 20.531725
_cell_angle_alpha 90.000000
_cell_angle_beta 98.087005
_cell_angle_gamma 90.000000
_cell_volume 1955.511321
_symmetry_space_group_name_H-M "C 2/M"
_symmetry_group_IT_number 12
_symmetry_cell_setting 'monoclinic'
loop_
_space_group_symop_operation_xyz
x,y,z
-x,y,-z
-x,-y,-z
x,-y,z
1/2+x,1/2+y,z
1/2-x,1/2+y,-z
1/2-x,1/2-y,-z
1/2+x,1/2-y,z
loop_
_atom_site_type_symbol
_atom_site_label
_atom_site_fract_x
_atom_site_fract_y
_atom_site_fract_z
Si Si1 0.501811 0.000000 0.378666
Si Si2 0.105872 0.227896 0.453686
Si Si3 0.173011 0.000000 0.354895
Si Si4 0.142402 0.500000 0.246993
Si Si5 0.452520 0.500000 0.227945
Si Si6 0.990688 0.267228 0.850189
Si Si7 0.730596 0.343669 0.061701
O O1 0.544305 0.131817 0.422634
O O2 0.337471 0.000000 0.355118
O O3 0.581652 0.000000 0.315417
O O4 0.250000 0.250000 0.500000
O O5 0.000000 0.170470 0.500000
O O6 0.131175 0.129324 0.395102
O O7 0.085319 0.000000 0.283457
O O8 0.308879 0.500000 0.257841
O O9 0.087519 0.369149 0.203785
O O10 0.459842 0.633743 0.184536
O O11 0.888095 0.219070 0.900496
O O12 0.125324 0.338047 0.889325
O O13 0.698226 0.500000 0.042693
O O14 0.750000 0.250000 0.000000
#
# Coordination Sequence:
#
# PCOD9222765 Si02
#       7
#     4   8   4   4   4   8   8
#     4  12  28  47  70 109 145 185 239 301 352 418
#     4  12  25  47  74 103 146 189 233 293 362 426
#     4  12  28  46  72 108 143 185 243 297 356 421
#     4  12  28  46  73 102 141 186 244 292 352 422
#     4  12  28  46  73 103 139 189 242 294 352 423
#     4  12  26  48  72 103 143 187 234 294 359 417
#     4  12  28  46  75 108 144 184 235 293 354 424
#
# _framework density 20.455006999999998
#
# number of rings (size 3 to 8) (size 9 to 14) (size 15 to 20)
#    0.000    0.000    6.000    3.000    8.400    4.800 
#    0.000    0.000    0.000    0.000    0.000    0.000 
#    0.000    0.000    0.000    0.000    0.000    0.000 
#
# Total GULP energy -112048.202803 kJ/mol
# GULP energy per Si atom -5602.410140 kJ/mol
# Density = 2.040845 g / cm^3
# Si number density = 20.455007 Si / 1000 Ang^3
#
#
#
# Elastic Constant Matrix: (Units=GPa)
#
#
# Indices 1 2 3 4 5 6 
#
# 1 133.3159 8.8351 16.4676 0.0000 -23.9943 0.0000
# 2 8.8351 120.6442 18.8638 0.0000 -15.0251 0.0000
# 3 16.4676 18.8638 73.5955 0.0000 -21.4068 0.0000
# 4 0.0000 0.0000 0.0000 14.9072 0.0000 2.7460
# 5 -23.9943 -15.0251 -21.4068 0.0000 49.2749 0.0000
# 6 0.0000 0.0000 0.0000 2.7460 0.0000 27.5623
#
#
#
# Elastic Compliance Matrix: (Units=1/GPa)
#
#
# Indices 1 2 3 4 5 6 
#
# 1 0.008260 -0.000026 -0.000771 0.000000 0.003679 0.000000
# 2 -0.000026 0.008795 -0.001685 0.000000 0.001937 0.000000
# 3 -0.000771 -0.001685 0.015949 0.000000 0.006039 0.000000
# 4 0.000000 0.000000 0.000000 0.068336 0.000000 -0.006808
# 5 0.003679 0.001937 0.006039 0.000000 0.025300 0.000000
# 6 0.000000 0.000000 0.000000 -0.006808 0.000000 0.036960
#
#
# Mechanical properties :
#
#
# Convention : Reuss Voigt Hill
#
# Bulk Modulus (GPa) = 35.66413 46.20983 40.93698
# Shear Modulus (GPa) = 28.10373 37.24148 32.67261
#
# Velocity S-wave (km/s) = 3.71068 4.27154 4.00095
# Velocity P-wave (km/s) = 5.98599 6.85333 6.43429
#
# Compressibility (1/GPa) = 0.02803937
#
# Stress axis : x y z
#
# Youngs Moduli (GPa) = 121.06266 113.69461 62.69987
#
# Poissons Ratio (x) = 0.00297 0.04837
# Poissons Ratio (y) = 0.00316 0.10566
# Poissons Ratio (z) = 0.09339 0.19159
#
# Static dielectric constant tensor:
#      x y z
#    x 1.650480 0.000000 0.007180 
#    y 0.000000 1.708810 0.000000 
#    z 0.007180 0.000000 1.685370 
# 
# From -- ./inp_files/331836.got.cif
#   From: 2010.05.17/outbox.cif.g08.bks.cpg/sg12_166_cif.got.tgz:331836.got - 2010.06.03 13:09:07.
