data_PCOD9222220
_publ_section_title
;
Structure prediction by ZEFSAII (Michael W. Deem and Ramdas Pophale) SiO2 
 PCOD9222220
Probable space group: C 2/M
;
_chemical_formula_sum "Si O2"
_cell_formula_units_Z 34
_cell_length_a 22.405400
_cell_length_b 16.843205
_cell_length_c 9.499127
_cell_angle_alpha 90.000000
_cell_angle_beta 154.566080
_cell_angle_gamma 90.000000
_cell_volume 1539.550034
_symmetry_space_group_name_H-M "C 2/M"
_symmetry_group_IT_number 12
_symmetry_cell_setting 'monoclinic'
loop_
_space_group_symop_operation_xyz
x,y,z
-x,y,-z
-x,-y,-z
x,-y,z
1/2+x,1/2+y,z
1/2-x,1/2+y,-z
1/2-x,1/2-y,-z
1/2+x,1/2-y,z
loop_
_atom_site_type_symbol
_atom_site_label
_atom_site_fract_x
_atom_site_fract_y
_atom_site_fract_z
Si Si1 0.835743 0.326844 0.128211
Si Si2 0.106755 0.174327 0.120277
Si Si3 0.500000 0.000000 0.000000
Si Si4 0.372595 0.151797 0.882994
Si Si5 0.871375 0.091904 0.130631
O O1 0.000000 0.317123 0.500000
O O2 0.750000 0.250000 0.000000
O O3 0.814287 0.347048 0.918048
O O4 0.770422 0.394777 0.086771
O O5 0.250569 0.164887 0.509663
O O6 0.049557 0.263263 0.965232
O O7 0.127513 0.136244 0.013765
O O8 0.000000 0.134048 0.000000
O O9 0.547446 0.071874 0.988925
O O10 0.000000 0.120385 0.500000
O O11 0.893304 0.000000 0.148101
#
# Coordination Sequence:
#
# PCOD9222220 Si02
#       5
#     8   8   2   8   8
#     4  12  27  45  76 105 146 197 251 316 385 458
#     4  11  24  46  75 102 146 197 250 304 382 460
#     4  12  28  48  72 108 158 188 256 328 376 444
#     4  11  27  43  73 107 144 195 246 309 378 456
#     4  11  26  47  74 110 152 197 257 322 386 461
#
# _framework density 22.084374
#
# number of rings (size 3 to 8) (size 9 to 14) (size 15 to 20)
#    0.000    0.706    3.529    2.118    9.882    0.941 
#    0.000    0.000    0.000    0.000    0.000    0.000 
#    0.000    0.000    0.000    0.000    0.000    0.000 
#
# Total GULP energy -94724.907656 kJ/mol
# GULP energy per Si atom -5572.053392 kJ/mol
# Density = 2.203411 g / cm^3
# Si number density = 22.084374 Si / 1000 Ang^3
#
#
#
# Elastic Constant Matrix: (Units=GPa)
#
#
# Indices 1 2 3 4 5 6 
#
# 1 236.9494 66.1825 56.6206 0.0000 -30.6503 0.0000
# 2 66.1825 108.7783 34.8898 0.0000 -21.2901 0.0000
# 3 56.6206 34.8898 97.6463 0.0000 -9.9837 0.0000
# 4 0.0000 0.0000 0.0000 15.6300 0.0000 3.8055
# 5 -30.6503 -21.2901 -9.9837 0.0000 44.9647 0.0000
# 6 0.0000 0.0000 0.0000 3.8055 0.0000 33.5206
#
#
#
# Elastic Compliance Matrix: (Units=1/GPa)
#
#
# Indices 1 2 3 4 5 6 
#
# 1 0.005695 -0.002295 -0.002248 0.000000 0.002297 0.000000
# 2 -0.002295 0.012140 -0.002639 0.000000 0.003598 0.000000
# 3 -0.002248 -0.002639 0.012486 0.000000 -0.000009 0.000000
# 4 0.000000 0.000000 0.000000 0.065798 0.000000 -0.007470
# 5 0.002297 0.003598 -0.000009 0.000000 0.025507 0.000000
# 6 0.000000 0.000000 0.000000 -0.007470 0.000000 0.030680
#
#
# Mechanical properties :
#
#
# Convention : Reuss Voigt Hill
#
# Bulk Modulus (GPa) = 62.66316 84.30664 73.48490
# Shear Modulus (GPa) = 29.07146 37.86846 33.46996
#
# Velocity S-wave (km/s) = 3.63213 4.14541 3.89723
# Velocity P-wave (km/s) = 6.78424 7.82114 7.32107
#
# Compressibility (1/GPa) = 0.01595834
#
# Stress axis : x y z
#
# Youngs Moduli (GPa) = 175.57808 82.37343 80.08661
#
# Poissons Ratio (x) = 0.18903 0.18002
# Poissons Ratio (y) = 0.40291 0.21136
# Poissons Ratio (z) = 0.39466 0.21740
#
# Static dielectric constant tensor:
#      x y z
#    x 1.793420 0.000000 0.011670 
#    y 0.000000 1.825220 0.000000 
#    z 0.011670 0.000000 1.830710 
# 
# From -- ./inp_files/88533.got.cif
#   From: 2010.05.17/outbox.cif.g08.bks.cpg/sg12_45_cif.got.tgz:88533.got - 2010.06.03 13:09:07.
