data_PCOD9222505
_publ_section_title
;
Structure prediction by ZEFSAII (Michael W. Deem and Ramdas Pophale) SiO2 
 PCOD9222505
Probable space group: C 2/M
;
_chemical_formula_sum "Si O2"
_cell_formula_units_Z 48
_cell_length_a 9.277486
_cell_length_b 20.235647
_cell_length_c 12.809539
_cell_angle_alpha 90.000000
_cell_angle_beta 109.439418
_cell_angle_gamma 90.000000
_cell_volume 2267.721898
_symmetry_space_group_name_H-M "C 2/M"
_symmetry_group_IT_number 12
_symmetry_cell_setting 'monoclinic'
loop_
_space_group_symop_operation_xyz
x,y,z
-x,y,-z
-x,-y,-z
x,-y,z
1/2+x,1/2+y,z
1/2-x,1/2+y,-z
1/2-x,1/2-y,-z
1/2+x,1/2-y,z
loop_
_atom_site_type_symbol
_atom_site_label
_atom_site_fract_x
_atom_site_fract_y
_atom_site_fract_z
Si Si1 0.995088 0.575740 0.652418
Si Si2 0.834871 0.274891 0.758231
Si Si3 0.001645 0.804889 0.620149
Si Si4 0.040971 0.612002 0.897393
Si Si5 0.738240 0.419745 0.435478
Si Si6 0.819980 0.191766 0.944770
O O1 0.993986 0.500000 0.619501
O O2 0.147985 0.600623 0.632112
O O3 0.002457 0.578493 0.778323
O O4 0.838992 0.600563 0.561759
O O5 0.920116 0.248246 0.676396
O O6 0.676949 0.311440 0.697243
O O7 0.946441 0.319459 0.856922
O O8 0.792128 0.212772 0.819332
O O9 0.911036 0.874253 0.604239
O O10 0.000000 0.781488 0.500000
O O11 0.220075 0.627938 0.944442
O O12 0.000000 0.582876 0.000000
O O13 0.707606 0.500000 0.426978
O O14 0.750000 0.250000 0.000000
O O15 0.000000 0.183086 0.000000
#
# Coordination Sequence:
#
# PCOD9222505 Si02
#       6
#     8   8   8   8   8   8
#     4   9  20  41  69  95 120 163 212 265 321 373
#     4  12  23  39  58  88 134 172 204 255 316 379
#     4  12  25  39  58  94 132 168 210 261 320 373
#     4  12  23  38  63  93 128 165 213 256 315 381
#     4   9  20  43  71  93 122 166 218 264 315 377
#     4  12  20  38  59  84 117 162 214 251 298 372
#
# _framework density 21.166616000000001
#
# number of rings (size 3 to 8) (size 9 to 14) (size 15 to 20)
#    0.000    1.000    5.000    3.500    0.000    0.667 
#    0.000    0.833    0.000    0.500    0.000    0.000 
#    0.000    0.000    0.000    0.000    0.000    0.000 
#
# Total GULP energy -134000.164871 kJ/mol
# GULP energy per Si atom -5583.340203 kJ/mol
# Density = 2.111844 g / cm^3
# Si number density = 21.166616 Si / 1000 Ang^3
#
#
#
# Elastic Constant Matrix: (Units=GPa)
#
#
# Indices 1 2 3 4 5 6 
#
# 1 149.8333 40.1918 64.0137 0.0000 15.0862 0.0000
# 2 40.1918 49.1551 26.7629 0.0000 5.7710 0.0000
# 3 64.0137 26.7629 143.4664 0.0000 -13.1786 0.0000
# 4 0.0000 0.0000 0.0000 25.8548 0.0000 4.5600
# 5 15.0862 5.7710 -13.1786 0.0000 50.0890 0.0000
# 6 0.0000 0.0000 0.0000 4.5600 0.0000 25.2563
#
#
#
# Elastic Compliance Matrix: (Units=1/GPa)
#
#
# Indices 1 2 3 4 5 6 
#
# 1 0.010205 -0.005897 -0.003764 0.000000 -0.003385 0.000000
# 2 -0.005897 0.026785 -0.002547 0.000000 -0.001980 0.000000
# 3 -0.003764 -0.002547 0.009485 0.000000 0.003923 0.000000
# 4 0.000000 0.000000 0.000000 0.039950 0.000000 -0.007213
# 5 -0.003385 -0.001980 0.003923 0.000000 0.022244 0.000000
# 6 0.000000 0.000000 0.000000 -0.007213 0.000000 0.040896
#
#
# Mechanical properties :
#
#
# Convention : Reuss Voigt Hill
#
# Bulk Modulus (GPa) = 45.33493 67.15461 56.24477
# Shear Modulus (GPa) = 27.57324 34.33911 30.95617
#
# Velocity S-wave (km/s) = 3.61318 4.03218 3.82841
# Velocity P-wave (km/s) = 6.23469 7.31256 6.79503
#
# Compressibility (1/GPa) = 0.02205805
#
# Stress axis : x y z
#
# Youngs Moduli (GPa) = 97.99168 37.33431 105.42619
#
# Poissons Ratio (x) = 0.22017 0.39684
# Poissons Ratio (y) = 0.57789 0.26853
# Poissons Ratio (z) = 0.36886 0.09510
#
# Static dielectric constant tensor:
#      x y z
#    x 1.805030 0.000000 -0.014350 
#    y 0.000000 1.796310 0.000000 
#    z -0.014350 0.000000 1.780540 
# 
# From -- ./inp_files/121820.got.cif
#   From: 2010.05.17/outbox.cif.g08.bks.cpg/sg12_61_cif.got.tgz:121820.got - 2010.06.03 13:09:07.
