data_PCOD9222667
_publ_section_title
;
Structure prediction by ZEFSAII (Michael W. Deem and Ramdas Pophale) SiO2 
 PCOD9222667
Probable space group: C 2/M
;
_chemical_formula_sum "Si O2"
_cell_formula_units_Z 60
_cell_length_a 8.645201
_cell_length_b 30.542534
_cell_length_c 10.742548
_cell_angle_alpha 90.000000
_cell_angle_beta 107.899918
_cell_angle_gamma 90.000000
_cell_volume 2699.227837
_symmetry_space_group_name_H-M "C 2/M"
_symmetry_group_IT_number 12
_symmetry_cell_setting 'monoclinic'
loop_
_space_group_symop_operation_xyz
x,y,z
-x,y,-z
-x,-y,-z
x,-y,z
1/2+x,1/2+y,z
1/2-x,1/2+y,-z
1/2-x,1/2-y,-z
1/2+x,1/2-y,z
loop_
_atom_site_type_symbol
_atom_site_label
_atom_site_fract_x
_atom_site_fract_y
_atom_site_fract_z
Si Si1 0.500000 0.089255 0.000000
Si Si2 0.241901 0.052287 0.439720
Si Si3 0.037070 0.279694 0.186047
Si Si4 0.175647 0.298788 0.474706
Si Si5 0.418474 0.363781 0.668502
Si Si6 0.330934 0.310618 0.867382
Si Si7 0.007635 0.551973 0.285745
Si Si8 0.269245 0.659919 0.114947
O O1 0.510151 0.068017 0.862059
O O2 0.338029 0.118121 0.946035
O O3 0.097791 0.086451 0.379920
O O4 0.360074 0.059331 0.348169
O O5 0.337014 0.065825 0.590416
O O6 0.204706 0.000000 0.436243
O O7 0.127054 0.303406 0.321313
O O8 0.072729 0.228407 0.179690
O O9 0.139236 0.301821 0.102600
O O10 0.850390 0.289978 0.164352
O O11 0.250000 0.250000 0.500000
O O12 0.312914 0.332570 0.552464
O O13 0.000000 0.302060 0.500000
O O14 0.330537 0.352868 0.778689
O O15 0.602724 0.350130 0.744540
O O16 0.364514 0.325263 0.016153
O O17 0.022712 0.500000 0.278677
#
# Coordination Sequence:
#
# PCOD9222667 Si02
#       8
#     4   8   8   8   8   8   8   8
#     4  12  23  44  68  98 142 174 238 276 349 410
#     4   9  21  43  73 105 137 177 229 283 348 420
#     4  12  24  44  67  93 134 188 229 288 343 403
#     4  12  26  45  66  99 137 176 230 289 342 405
#     4  12  26  42  71 100 139 180 231 290 344 408
#     4  12  24  46  67  96 137 181 236 283 342 414
#     4   9  20  40  72 104 135 175 222 283 346 419
#     4  12  28  43  63 100 134 188 229 285 340 411
#
# _framework density 22.228577999999999
#
# number of rings (size 3 to 8) (size 9 to 14) (size 15 to 20)
#    0.000    0.800    4.000    3.400    5.600    1.067 
#    0.000    1.333    0.000    4.800    0.000    0.000 
#    0.000    0.000    0.000    0.000    0.000    0.000 
#
# Total GULP energy -167346.266590 kJ/mol
# GULP energy per Si atom -5578.208886 kJ/mol
# Density = 2.217799 g / cm^3
# Si number density = 22.228578 Si / 1000 Ang^3
#
#
#
# Elastic Constant Matrix: (Units=GPa)
#
#
# Indices 1 2 3 4 5 6 
#
# 1 87.1594 28.4880 23.1455 0.0000 11.3245 0.0000
# 2 28.4880 93.6568 40.5495 0.0000 21.9123 0.0000
# 3 23.1455 40.5495 135.6711 0.0000 6.8022 0.0000
# 4 0.0000 0.0000 0.0000 39.8053 0.0000 7.3476
# 5 11.3245 21.9123 6.8022 0.0000 44.8794 0.0000
# 6 0.0000 0.0000 0.0000 7.3476 0.0000 23.1093
#
#
#
# Elastic Compliance Matrix: (Units=1/GPa)
#
#
# Indices 1 2 3 4 5 6 
#
# 1 0.013004 -0.003048 -0.001227 0.000000 -0.001607 0.000000
# 2 -0.003048 0.014476 -0.003518 0.000000 -0.005766 0.000000
# 3 -0.001227 -0.003518 0.008595 0.000000 0.000724 0.000000
# 4 0.000000 0.000000 0.000000 0.026689 0.000000 -0.008486
# 5 -0.001607 -0.005766 0.000724 0.000000 0.025393 0.000000
# 6 0.000000 0.000000 0.000000 -0.008486 0.000000 0.045971
#
#
# Mechanical properties :
#
#
# Convention : Reuss Voigt Hill
#
# Bulk Modulus (GPa) = 48.80402 55.65035 52.22719
# Shear Modulus (GPa) = 31.94000 36.51243 34.22622
#
# Velocity S-wave (km/s) = 3.79474 4.05728 3.92821
# Velocity P-wave (km/s) = 6.41898 6.85847 6.64236
#
# Compressibility (1/GPa) = 0.02049011
#
# Stress axis : x y z
#
# Youngs Moduli (GPa) = 76.89836 69.07762 116.34546
#
# Poissons Ratio (x) = 0.21057 0.14274
# Poissons Ratio (y) = 0.23441 0.40926
# Poissons Ratio (z) = 0.09434 0.24299
#
# Static dielectric constant tensor:
#      x y z
#    x 1.905890 0.000000 0.078600 
#    y 0.000000 1.768680 0.000000 
#    z 0.078600 0.000000 1.855160 
# 
# From -- ./inp_files/125791.got.cif
#   From: 2010.05.17/outbox.cif.g08.bks.cpg/sg12_63_cif.got.tgz:125791.got - 2010.06.03 13:09:07.
