data_PCOD9222512
_publ_section_title
;
Structure prediction by ZEFSAII (Michael W. Deem and Ramdas Pophale) SiO2 
 PCOD9222512
Probable space group: C 2/M
;
_chemical_formula_sum "Si O2"
_cell_formula_units_Z 56
_cell_length_a 14.366576
_cell_length_b 29.732407
_cell_length_c 14.369757
_cell_angle_alpha 90.000000
_cell_angle_beta 29.000304
_cell_angle_gamma 90.000000
_cell_volume 2975.830248
_symmetry_space_group_name_H-M "C 2/M"
_symmetry_group_IT_number 12
_symmetry_cell_setting 'monoclinic'
loop_
_space_group_symop_operation_xyz
x,y,z
-x,y,-z
-x,-y,-z
x,-y,z
1/2+x,1/2+y,z
1/2-x,1/2+y,-z
1/2-x,1/2-y,-z
1/2+x,1/2-y,z
loop_
_atom_site_type_symbol
_atom_site_label
_atom_site_fract_x
_atom_site_fract_y
_atom_site_fract_z
Si Si1 0.202990 0.446549 0.796235
Si Si2 0.580894 0.447097 0.581378
Si Si3 0.360548 0.355333 0.424369
Si Si4 0.032547 0.314190 0.818123
Si Si5 0.188908 0.182502 0.245248
Si Si6 0.020258 0.789934 0.128151
Si Si7 0.174844 0.713399 0.282567
O O1 0.176318 0.500000 0.808416
O O2 0.362936 0.442278 0.735554
O O3 0.288238 0.433496 0.622266
O O4 0.000000 0.425332 0.000000
O O5 0.611901 0.500000 0.576950
O O6 0.626722 0.407768 0.613246
O O7 0.146399 0.339312 0.637389
O O8 0.501026 0.346827 0.390866
O O9 0.449433 0.323190 0.269094
O O10 0.179606 0.318382 0.777606
O O11 0.987154 0.262156 0.833074
O O12 0.832219 0.330420 0.035813
O O13 0.124891 0.234866 0.299806
O O14 0.854446 0.788750 0.195221
O O15 0.223232 0.803567 0.902350
O O16 0.000000 0.695321 0.500000
#
# Coordination Sequence:
#
# PCOD9222512 Si02
#       7
#     8   8   8   8   8   8   8
#     4   8  15  31  50  63  85 126 168 202 235 275
#     4   9  20  33  45  68  96 126 165 204 243 283
#     4  12  21  30  49  72  99 128 161 206 244 279
#     4   9  19  33  45  65 100 130 163 198 229 282
#     4   9  19  31  46  69  94 131 164 188 234 283
#     4   9  20  33  48  74  95 124 166 196 238 297
#     4   9  17  35  54  65  94 130 155 195 243 288
#
# _framework density 18.818276999999998
#
# number of rings (size 3 to 8) (size 9 to 14) (size 15 to 20)
#    0.000    2.714    0.000    5.143    4.000    4.571 
#    0.000    0.000    0.000    0.000    0.000    2.000 
#    0.000    1.143    0.000    0.000    0.000    0.000 
#
# Total GULP energy -155919.757227 kJ/mol
# GULP energy per Si atom -5568.562758 kJ/mol
# Density = 1.877545 g / cm^3
# Si number density = 18.818277 Si / 1000 Ang^3
#
#
#
# Elastic Constant Matrix: (Units=GPa)
#
#
# Indices 1 2 3 4 5 6 
#
# 1 33.8087 17.5353 12.5235 -0.0002 3.7078 0.0003
# 2 17.5353 94.7082 39.9327 -0.0001 7.6496 0.0000
# 3 12.5235 39.9327 159.0925 -0.0006 -4.2306 0.0003
# 4 -0.0002 -0.0001 -0.0006 5.5270 0.0002 0.2073
# 5 3.7078 7.6496 -4.2306 0.0002 18.5394 -0.0003
# 6 0.0003 0.0000 0.0003 0.2073 -0.0003 14.9455
#
#
#
# Elastic Compliance Matrix: (Units=1/GPa)
#
#
# Indices 1 2 3 4 5 6 
#
# 1 0.033330 -0.005164 -0.001457 0.000002 -0.004868 -0.000001
# 2 -0.005164 0.013212 -0.003046 0.000000 -0.005114 0.000000
# 3 -0.001457 -0.003046 0.007250 0.000001 0.003203 0.000000
# 4 0.000002 0.000000 0.000001 0.181023 -0.000003 -0.002511
# 5 -0.004868 -0.005114 0.003203 -0.000003 0.057754 0.000001
# 6 -0.000001 0.000000 0.000000 -0.002511 0.000001 0.066945
#
#
# Mechanical properties :
#
#
# Convention : Reuss Voigt Hill
#
# Bulk Modulus (GPa) = 29.01982 47.51028 38.26505
# Shear Modulus (GPa) = 12.80960 22.31024 17.55992
#
# Velocity S-wave (km/s) = 2.61185 3.44694 3.05803
# Velocity P-wave (km/s) = 4.95482 6.41432 5.73122
#
# Compressibility (1/GPa) = 0.03445921
#
# Stress axis : x y z
#
# Youngs Moduli (GPa) = 30.00306 75.68844 137.93078
#
# Poissons Ratio (x) = 0.39082 0.20097
# Poissons Ratio (y) = 0.15492 0.42011
# Poissons Ratio (z) = 0.04372 0.23053
#
# Static dielectric constant tensor:
#      x y z
#    x 1.700550 0.000000 0.025410 
#    y 0.000000 1.692310 0.000000 
#    z 0.025410 0.000000 1.800240 
# 
# From -- ./inp_files/219047.got.cif
#   From: 2010.05.17/outbox.cif.g08.bks.cpg/sg12_110_cif.got.tgz:219047.got - 2010.06.03 13:09:07.
