data_PCOD9222587
_publ_section_title
;
Structure prediction by ZEFSAII (Michael W. Deem and Ramdas Pophale) SiO2 
 PCOD9222587
Probable space group: C 2/M
;
_chemical_formula_sum "Si O2"
_cell_formula_units_Z 40
_cell_length_a 27.037649
_cell_length_b 10.094054
_cell_length_c 13.314397
_cell_angle_alpha 90.000000
_cell_angle_beta 146.694946
_cell_angle_gamma 90.000000
_cell_volume 1995.284185
_symmetry_space_group_name_H-M "C 2/M"
_symmetry_group_IT_number 12
_symmetry_cell_setting 'monoclinic'
loop_
_space_group_symop_operation_xyz
x,y,z
-x,y,-z
-x,-y,-z
x,-y,z
1/2+x,1/2+y,z
1/2-x,1/2+y,-z
1/2-x,1/2-y,-z
1/2+x,1/2-y,z
loop_
_atom_site_type_symbol
_atom_site_label
_atom_site_fract_x
_atom_site_fract_y
_atom_site_fract_z
Si Si1 0.776596 0.000000 0.915600
Si Si2 0.536395 0.500000 0.450253
Si Si3 0.268786 0.500000 0.133332
Si Si4 0.287432 0.342701 0.475319
Si Si5 0.168918 0.719649 0.078887
Si Si6 0.971544 0.255638 0.691667
Si Si7 0.932327 0.500000 0.478862
O O1 0.808880 0.869932 0.912525
O O2 0.668552 0.000000 0.733093
O O3 0.803098 0.000000 0.077696
O O4 0.500000 0.500000 0.500000
O O5 0.644999 0.500000 0.646401
O O6 0.506310 0.628886 0.339474
O O7 0.208283 0.627136 0.056937
O O8 0.291486 0.500000 0.506813
O O9 0.250000 0.250000 0.500000
O O10 0.221607 0.322772 0.268149
O O11 0.386319 0.288755 0.612943
O O12 0.061481 0.704663 0.903776
O O13 0.945851 0.372923 0.572466
O O14 0.000000 0.500000 0.500000
#
# Coordination Sequence:
#
# PCOD9222587 Si02
#       7
#     4   4   4   8   8   8   4
#     4  12  24  38  68 106 141 187 234 278 340 415
#     4  12  22  42  68 100 141 193 234 280 342 419
#     4  12  22  44  64 100 149 191 230 280 344 419
#     4  12  28  52  76 101 136 185 236 297 359 409
#     4  12  24  45  69 101 142 182 230 290 345 415
#     4  12  24  45  69 101 142 182 230 289 344 416
#     4  12  24  40  64 106 149 185 230 278 340 413
#
# _framework density 20.047270999999999
#
# number of rings (size 3 to 8) (size 9 to 14) (size 15 to 20)
#    0.000    0.000    6.000    4.800    2.800    0.800 
#    0.000    2.000    0.000    0.000    0.000    0.000 
#    0.000    0.000    0.000    0.000    0.000    0.000 
#
# Total GULP energy -111951.776115 kJ/mol
# GULP energy per Si atom -5597.588806 kJ/mol
# Density = 2.000164 g / cm^3
# Si number density = 20.047271 Si / 1000 Ang^3
#
#
#
# Elastic Constant Matrix: (Units=GPa)
#
#
# Indices 1 2 3 4 5 6 
#
# 1 123.0969 41.5288 19.2022 0.0000 10.2344 0.0000
# 2 41.5288 149.3271 -5.1549 0.0000 -0.4842 0.0000
# 3 19.2022 -5.1549 119.4234 0.0000 27.7255 0.0000
# 4 0.0000 0.0000 0.0000 26.3215 0.0000 2.8135
# 5 10.2344 -0.4842 27.7255 0.0000 30.1616 0.0000
# 6 0.0000 0.0000 0.0000 2.8135 0.0000 37.7677
#
#
#
# Elastic Compliance Matrix: (Units=1/GPa)
#
#
# Indices 1 2 3 4 5 6 
#
# 1 0.009375 -0.002653 -0.001110 0.000000 -0.002203 0.000000
# 2 -0.002653 0.007458 0.000651 0.000000 0.000422 0.000000
# 3 -0.001110 0.000651 0.010794 0.000000 -0.009535 0.000000
# 4 0.000000 0.000000 0.000000 0.038297 0.000000 -0.002853
# 5 -0.002203 0.000422 -0.009535 0.000000 0.042674 0.000000
# 6 0.000000 0.000000 0.000000 -0.002853 0.000000 0.026690
#
#
# Mechanical properties :
#
#
# Convention : Reuss Voigt Hill
#
# Bulk Modulus (GPa) = 46.72525 55.88882 51.30704
# Shear Modulus (GPa) = 33.63679 41.26826 37.45252
#
# Velocity S-wave (km/s) = 4.10063 4.54204 4.32697
# Velocity P-wave (km/s) = 6.76597 7.44620 7.11422
#
# Compressibility (1/GPa) = 0.02140170
#
# Stress axis : x y z
#
# Youngs Moduli (GPa) = 106.66663 134.07935 92.64579
#
# Poissons Ratio (x) = 0.35568 0.10288
# Poissons Ratio (y) = 0.28296 -0.06027
# Poissons Ratio (z) = 0.11845 -0.08722
#
# Static dielectric constant tensor:
#      x y z
#    x 1.681840 0.000000 0.022360 
#    y 0.000000 1.667210 0.000000 
#    z 0.022360 0.000000 1.720030 
# 
# From -- ./inp_files/250278.got.cif
#   From: 2010.05.17/outbox.cif.g08.bks.cpg/sg12_126_cif.got.tgz:250278.got - 2010.06.03 13:09:07.
