data_PCOD9222395
_publ_section_title
;
Structure prediction by ZEFSAII (Michael W. Deem and Ramdas Pophale) SiO2 
 PCOD9222395
Probable space group: C 2/M
;
_chemical_formula_sum "Si O2"
_cell_formula_units_Z 34
_cell_length_a 7.586292
_cell_length_b 21.452212
_cell_length_c 17.914490
_cell_angle_alpha 90.000000
_cell_angle_beta 149.951453
_cell_angle_gamma 90.000000
_cell_volume 1459.865433
_symmetry_space_group_name_H-M "C 2/M"
_symmetry_group_IT_number 12
_symmetry_cell_setting 'monoclinic'
loop_
_space_group_symop_operation_xyz
x,y,z
-x,y,-z
-x,-y,-z
x,-y,z
1/2+x,1/2+y,z
1/2-x,1/2+y,-z
1/2-x,1/2-y,-z
1/2+x,1/2-y,z
loop_
_atom_site_type_symbol
_atom_site_label
_atom_site_fract_x
_atom_site_fract_y
_atom_site_fract_z
Si Si1 0.317669 0.568649 0.514272
Si Si2 0.648174 0.791109 0.838531
Si Si3 0.756557 0.171666 0.710486
Si Si4 0.500000 0.000000 0.000000
Si Si5 0.647332 0.104547 0.163328
O O1 0.500000 0.572958 0.500000
O O2 0.134229 0.500000 0.450660
O O3 0.607254 0.571479 0.684790
O O4 0.069631 0.628693 0.433590
O O5 0.730452 0.822361 0.789891
O O6 0.323738 0.743154 0.709905
O O7 0.556223 0.842770 0.865853
O O8 0.000000 0.758232 0.000000
O O9 0.090366 0.136906 0.798948
O O10 0.567377 0.945946 0.960847
#
# Coordination Sequence:
#
# PCOD9222395 Si02
#       5
#     8   8   8   2   8
#     4  11  25  50  76 109 157 199 252 317 377 447
#     4  12  26  48  72 111 160 200 251 314 376 452
#     4  12  26  46  77 110 150 202 250 313 382 441
#     4  12  28  48  78 112 146 204 250 304 386 448
#     4  12  26  49  76 111 153 198 257 312 373 461
#
# _framework density 23.289818
#
# number of rings (size 3 to 8) (size 9 to 14) (size 15 to 20)
#    0.000    0.235    5.882    2.824    3.294    1.882 
#    4.235    1.765    0.000    0.000    0.000    0.000 
#    0.000    0.000    0.000    0.000    0.000    0.000 
#
# Total GULP energy -94819.312952 kJ/mol
# GULP energy per Si atom -5577.606644 kJ/mol
# Density = 2.323681 g / cm^3
# Si number density = 23.289818 Si / 1000 Ang^3
#
#
#
# Elastic Constant Matrix: (Units=GPa)
#
#
# Indices 1 2 3 4 5 6 
#
# 1 150.9391 63.6699 25.3040 -0.0019 -10.8471 0.0064
# 2 63.6699 142.1088 25.5237 -0.0012 -11.0853 0.0068
# 3 25.3040 25.5237 48.1169 -0.0198 -21.7179 -0.0078
# 4 -0.0019 -0.0012 -0.0198 32.5259 -0.0135 -26.7710
# 5 -10.8471 -11.0853 -21.7179 -0.0135 26.0969 0.0074
# 6 0.0064 0.0068 -0.0078 -26.7710 0.0074 13.0542
#
#
#
# Elastic Compliance Matrix: (Units=1/GPa)
#
#
# Indices 1 2 3 4 5 6 
#
# 1 0.008476 -0.003312 -0.002795 0.000007 -0.000210 0.000010
# 2 -0.003312 0.009073 -0.003128 0.000009 -0.000126 0.000013
# 3 -0.002795 -0.003128 0.036497 -0.000060 0.027882 -0.000113
# 4 0.000007 0.000009 -0.000060 -0.044693 -0.000040 -0.091654
# 5 -0.000210 -0.000126 0.027882 -0.000040 0.061382 -0.000100
# 6 0.000010 0.000013 -0.000113 -0.091654 -0.000100 -0.111357
#
#
# Mechanical properties :
#
#
# Convention : Reuss Voigt Hill
#
# Bulk Modulus (GPa) = 28.10936 63.35111 45.73023
# Shear Modulus (GPa) = -485.67589 29.44655 -228.11467
#
# Velocity S-wave (km/s) = -14.45643 3.55963 -9.90751
# Velocity P-wave (km/s) = 16.32653 6.64491 10.54516
#
# Compressibility (1/GPa) = 0.03557534
#
# Stress axis : x y z
#
# Youngs Moduli (GPa) = 117.98457 110.22213 27.39986
#
# Poissons Ratio (x) = 0.36503 0.07659
# Poissons Ratio (y) = 0.39073 0.08570
# Poissons Ratio (z) = 0.32981 0.34473
#
# Static dielectric constant tensor:
#      x y z
#    x 1.824620 0.000000 0.018570 
#    y 0.000000 1.989020 0.000000 
#    z 0.018570 0.000000 1.922660 
# 
# From -- ./inp_files/258382.got.cif
#   From: 2010.05.17/outbox.cif.g08.bks.cpg/sg12_130_cif.got.tgz:258382.got - 2010.06.03 13:09:07.
