data_PCOD9222539
_publ_section_title
;
Structure prediction by ZEFSAII (Michael W. Deem and Ramdas Pophale) SiO2 
 PCOD9222539
Probable space group: C 2/M
;
_chemical_formula_sum "Si O2"
_cell_formula_units_Z 40
_cell_length_a 16.555824
_cell_length_b 21.926879
_cell_length_c 5.038110
_cell_angle_alpha 90.000000
_cell_angle_beta 107.542883
_cell_angle_gamma 90.000000
_cell_volume 1743.862132
_symmetry_space_group_name_H-M "C 2/M"
_symmetry_group_IT_number 12
_symmetry_cell_setting 'monoclinic'
loop_
_space_group_symop_operation_xyz
x,y,z
-x,y,-z
-x,-y,-z
x,-y,z
1/2+x,1/2+y,z
1/2-x,1/2+y,-z
1/2-x,1/2-y,-z
1/2+x,1/2-y,z
loop_
_atom_site_type_symbol
_atom_site_label
_atom_site_fract_x
_atom_site_fract_y
_atom_site_fract_z
Si Si1 0.097927 0.881240 0.534122
Si Si2 0.136322 0.632531 0.716520
Si Si3 0.829380 0.177669 0.901782
Si Si4 0.090449 0.702723 0.167695
Si Si5 0.708634 0.500000 0.771067
Si Si6 0.674955 0.000000 0.612127
O O1 0.114788 0.861291 0.250121
O O2 0.152545 0.940766 0.657764
O O3 0.000000 0.891212 0.500000
O O4 0.133703 0.829400 0.767023
O O5 0.235472 0.650588 0.798400
O O6 0.091882 0.677152 0.463512
O O7 0.126394 0.562527 0.624146
O O8 0.105843 0.647046 0.981286
O O9 0.837658 0.247324 0.817457
O O10 0.000000 0.731098 0.000000
O O11 0.787446 0.500000 0.646178
O O12 0.745346 0.500000 0.103908
#
# Coordination Sequence:
#
# PCOD9222539 Si02
#       6
#     8   8   8   8   4   4
#     4  12  23  38  63  99 140 180 218 265 329 396
#     4  12  24  46  71  99 129 179 227 271 330 398
#     4  12  24  44  68 100 135 178 218 269 327 405
#     4  12  26  45  69 101 137 173 219 280 337 390
#     4  12  21  42  60  94 139 172 226 274 319 388
#     4  12  24  44  72  94 132 172 228 284 322 386
#
# _framework density 22.937591000000001
#
# number of rings (size 3 to 8) (size 9 to 14) (size 15 to 20)
#    0.000    0.000    4.000    7.500    0.000    0.000 
#    0.000    6.000    0.000    0.000    0.000    0.000 
#    0.000    0.000    0.000    0.000    0.000    0.000 
#
# Total GULP energy -112131.014669 kJ/mol
# GULP energy per Si atom -5606.550733 kJ/mol
# Density = 2.288538 g / cm^3
# Si number density = 22.937591 Si / 1000 Ang^3
#
#
#
# Elastic Constant Matrix: (Units=GPa)
#
#
# Indices 1 2 3 4 5 6 
#
# 1 55.2346 -11.3307 0.9860 0.0000 -17.8029 0.0000
# 2 -11.3307 97.7758 -3.2530 0.0000 4.1239 0.0000
# 3 0.9860 -3.2530 54.9905 0.0000 -4.6031 0.0000
# 4 0.0000 0.0000 0.0000 21.6510 0.0000 -9.8440
# 5 -17.8029 4.1239 -4.6031 0.0000 27.0618 0.0000
# 6 0.0000 0.0000 0.0000 -9.8440 0.0000 19.4492
#
#
#
# Elastic Compliance Matrix: (Units=1/GPa)
#
#
# Indices 1 2 3 4 5 6 
#
# 1 0.023439 0.002105 0.000982 0.000000 0.015266 0.000000
# 2 0.002105 0.010495 0.000573 0.000000 -0.000117 0.000000
# 3 0.000982 0.000573 0.018512 0.000000 0.003707 0.000000
# 4 0.000000 0.000000 0.000000 0.059993 0.000000 0.030365
# 5 0.015266 -0.000117 0.003707 0.000000 0.047644 0.000000
# 6 0.000000 0.000000 0.000000 0.030365 0.000000 0.066785
#
#
# Mechanical properties :
#
#
# Convention : Reuss Voigt Hill
#
# Bulk Modulus (GPa) = 16.73155 20.08950 18.41052
# Shear Modulus (GPa) = 20.87947 28.40564 24.64255
#
# Velocity S-wave (km/s) = 3.02035 3.52289 3.28125
# Velocity P-wave (km/s) = 4.41288 5.03240 4.73279
#
# Compressibility (1/GPa) = 0.05976734
#
# Stress axis : x y z
#
# Youngs Moduli (GPa) = 42.66332 95.27953 54.02020
#
# Poissons Ratio (x) = -0.20057 -0.05305
# Poissons Ratio (y) = -0.08981 -0.03097
# Poissons Ratio (z) = -0.04190 -0.05463
#
# Static dielectric constant tensor:
#      x y z
#    x 1.835530 0.000000 0.016890 
#    y 0.000000 1.846930 0.000000 
#    z 0.016890 0.000000 1.798180 
# 
# From -- ./inp_files/15925.got.cif
#   From: 2010.05.17/outbox.cif.g08.bks.cpg/sg12_8_cif.got.tgz:15925.got - 2010.06.03 13:09:07.
