data_PCOD9222643
_publ_section_title
;
Structure prediction by ZEFSAII (Michael W. Deem and Ramdas Pophale) SiO2 
 PCOD9222643
Probable space group: C 2/M
;
_chemical_formula_sum "Si O2"
_cell_formula_units_Z 44
_cell_length_a 8.634307
_cell_length_b 21.887509
_cell_length_c 12.551201
_cell_angle_alpha 90.000000
_cell_angle_beta 57.605327
_cell_angle_gamma 90.000000
_cell_volume 2002.838283
_symmetry_space_group_name_H-M "C 2/M"
_symmetry_group_IT_number 12
_symmetry_cell_setting 'monoclinic'
loop_
_space_group_symop_operation_xyz
x,y,z
-x,y,-z
-x,-y,-z
x,-y,z
1/2+x,1/2+y,z
1/2-x,1/2+y,-z
1/2-x,1/2-y,-z
1/2+x,1/2-y,z
loop_
_atom_site_type_symbol
_atom_site_label
_atom_site_fract_x
_atom_site_fract_y
_atom_site_fract_z
Si Si1 0.500000 0.654464 0.500000
Si Si2 0.900284 0.705071 0.886946
Si Si3 0.789217 0.643039 0.557969
Si Si4 0.088776 0.066421 0.801750
Si Si5 0.795921 0.749127 0.703270
Si Si6 0.295416 0.931244 0.952797
O O1 0.685379 0.626870 0.486140
O O2 0.583133 0.692521 0.370427
O O3 0.878396 0.707657 0.766336
O O4 0.895045 0.634113 0.924258
O O5 0.101485 0.732608 0.824457
O O6 0.750000 0.750000 0.000000
O O7 0.663926 0.615540 0.695773
O O8 0.789700 0.714075 0.592663
O O9 0.000000 0.622200 0.500000
O O10 0.195082 0.069714 0.874624
O O11 0.126216 0.000000 0.740554
O O12 0.873586 0.071704 0.902911
O O13 0.382064 0.000000 0.930624
#
# Coordination Sequence:
#
# PCOD9222643 Si02
#       6
#     4   8   8   8   8   8
#     4  12  26  42  59  96 129 178 222 266 338 404
#     4  12  24  37  65 101 132 163 218 283 340 405
#     4  12  23  40  66  91 131 174 221 272 330 402
#     4   9  19  37  63  93 124 164 218 278 330 395
#     4  12  23  41  60  90 135 169 210 276 337 395
#     4   9  19  37  64  95 128 170 221 271 336 412
#
# _framework density 21.968823
#
# number of rings (size 3 to 8) (size 9 to 14) (size 15 to 20)
#    0.000    1.091    4.545    4.364    2.545    0.364 
#    0.000    0.455    0.000    3.273    0.000    0.000 
#    0.000    0.000    0.000    0.000    0.000    0.000 
#
# Total GULP energy -122617.076099 kJ/mol
# GULP energy per Si atom -5573.503459 kJ/mol
# Density = 2.191882 g / cm^3
# Si number density = 21.968823 Si / 1000 Ang^3
#
#
#
# Elastic Constant Matrix: (Units=GPa)
#
#
# Indices 1 2 3 4 5 6 
#
# 1 106.5817 9.1084 17.6328 0.0000 13.2735 0.0000
# 2 9.1084 69.6695 11.5656 0.0000 -0.9030 0.0000
# 3 17.6328 11.5656 67.7379 0.0000 3.4216 0.0000
# 4 0.0000 0.0000 0.0000 5.0069 0.0000 -7.9641
# 5 13.2735 -0.9030 3.4216 0.0000 34.6549 0.0000
# 6 0.0000 0.0000 0.0000 -7.9641 0.0000 11.7126
#
#
#
# Elastic Compliance Matrix: (Units=1/GPa)
#
#
# Indices 1 2 3 4 5 6 
#
# 1 0.010320 -0.001012 -0.002324 0.000000 -0.003750 0.000000
# 2 -0.001012 0.014885 -0.002329 0.000000 0.001005 0.000000
# 3 -0.002324 -0.002329 0.015802 0.000000 -0.000731 0.000000
# 4 0.000000 0.000000 0.000000 -2.448538 0.000000 -1.664912
# 5 -0.003750 0.001005 -0.000731 0.000000 0.030391 0.000000
# 6 0.000000 0.000000 0.000000 -1.664912 0.000000 -1.046698
#
#
# Mechanical properties :
#
#
# Convention : Reuss Voigt Hill
#
# Bulk Modulus (GPa) = 33.69519 35.62252 34.65885
# Shear Modulus (GPa) = -1.46946 23.98705 11.25879
#
# Velocity S-wave (km/s) = -0.81874 3.30793 2.26628
# Velocity P-wave (km/s) = 3.80490 5.55338 4.76011
#
# Compressibility (1/GPa) = 0.02967783
#
# Stress axis : x y z
#
# Youngs Moduli (GPa) = 96.89460 67.17975 63.28167
#
# Poissons Ratio (x) = 0.06799 0.14709
# Poissons Ratio (y) = 0.09806 0.14738
# Poissons Ratio (z) = 0.22521 0.15645
#
# Static dielectric constant tensor:
#      x y z
#    x 1.896570 0.000000 0.027880 
#    y 0.000000 1.862400 0.000000 
#    z 0.027880 0.000000 1.764640 
# 
# From -- ./inp_files/122360.got.cif
#   From: 2010.05.17/outbox.cif.g08.bks.cpg/sg12_62_cif.got.tgz:122360.got - 2010.06.03 13:09:07.
