data_PCOD9222875
_publ_section_title
;
Structure prediction by ZEFSAII (Michael W. Deem and Ramdas Pophale) SiO2 
 PCOD9222875
Probable space group: C 2/M
;
_chemical_formula_sum "Si O2"
_cell_formula_units_Z 64
_cell_length_a 14.484787
_cell_length_b 9.069204
_cell_length_c 22.607232
_cell_angle_alpha 90.000000
_cell_angle_beta 81.384030
_cell_angle_gamma 90.000000
_cell_volume 2936.294760
_symmetry_space_group_name_H-M "C 2/M"
_symmetry_group_IT_number 12
_symmetry_cell_setting 'monoclinic'
loop_
_space_group_symop_operation_xyz
x,y,z
-x,y,-z
-x,-y,-z
x,-y,z
1/2+x,1/2+y,z
1/2-x,1/2+y,-z
1/2-x,1/2-y,-z
1/2+x,1/2-y,z
loop_
_atom_site_type_symbol
_atom_site_label
_atom_site_fract_x
_atom_site_fract_y
_atom_site_fract_z
Si Si1 0.691715 0.669781 0.805585
Si Si2 0.936744 0.677532 0.685110
Si Si3 0.625400 0.325226 0.065466
Si Si4 0.748633 0.163850 0.561015
Si Si5 0.733428 0.177710 0.688374
Si Si6 0.031400 0.832594 0.434255
Si Si7 0.915168 0.670718 0.815003
Si Si8 0.326902 0.322254 0.064226
O O1 0.671678 0.500000 0.791764
O O2 0.675590 0.773692 0.751182
O O3 0.802804 0.676852 0.812012
O O4 0.641301 0.708491 0.871994
O O5 0.939209 0.500000 0.683300
O O6 0.831058 0.736721 0.687492
O O7 0.988792 0.743690 0.623316
O O8 0.962095 0.725940 0.749531
O O9 0.619196 0.500000 0.072581
O O10 0.570475 0.253491 0.124978
O O11 0.732052 0.269331 0.063823
O O12 0.607319 0.289669 0.998090
O O13 0.750000 0.250000 0.500000
O O14 0.699595 0.220562 0.625696
O O15 0.856994 0.155572 0.569896
O O16 0.712430 0.000000 0.552521
O O17 0.745707 0.000000 0.687259
O O18 0.000000 0.765868 0.500000
O O19 0.992846 0.000000 0.434049
O O20 0.939546 0.500000 0.820393
O O21 0.306587 0.500000 0.064273
#
# Coordination Sequence:
#
# PCOD9222875 Si02
#       8
#     8   8   8   8   8   8   8   8
#     4   8  13  21  31  42  59  85 115 149 190 230
#     4   9  16  25  37  53  72  95 124 157 193 233
#     4   9  14  18  26  38  52  76 111 147 181 220
#     4   9  18  30  44  62  83 107 133 164 201 240
#     4   9  16  25  36  52  72  93 122 159 196 231
#     4   9  18  32  47  63  84 107 132 166 206 242
#     4   8  14  22  29  40  61  85 110 146 187 222
#     4   8  14  21  25  34  55  79 106 144 186 223
#
# _framework density 21.796175999999999
#
# number of rings (size 3 to 8) (size 9 to 14) (size 15 to 20)
#    0.000    3.375    0.000    3.375    0.000    8.250 
#    0.000    0.000    0.000    0.000    0.000    0.000 
#    0.000    0.000    0.000    0.000    0.000    1.250 
#
# Total GULP energy -178200.562121 kJ/mol
# GULP energy per Si atom -5568.767566 kJ/mol
# Density = 2.174657 g / cm^3
# Si number density = 21.796176 Si / 1000 Ang^3
#
#
#
# Elastic Constant Matrix: (Units=GPa)
#
#
# Indices 1 2 3 4 5 6 
#
# 1 56.3919 0.5767 2.1674 0.0000 -3.1386 0.0000
# 2 0.5767 42.7930 80.7189 0.0000 -10.1056 0.0000
# 3 2.1674 80.7189 287.0146 0.0000 -21.6061 0.0000
# 4 0.0000 0.0000 0.0000 45.9444 0.0000 -2.2860
# 5 -3.1386 -10.1056 -21.6061 0.0000 -6.0672 0.0000
# 6 0.0000 0.0000 0.0000 -2.2860 0.0000 -5.2946
#
#
#
# Elastic Compliance Matrix: (Units=1/GPa)
#
#
# Indices 1 2 3 4 5 6 
#
# 1 0.017415 -0.001196 -0.000255 0.000000 -0.006108 0.000000
# 2 -0.001196 0.045123 -0.014425 0.000000 -0.023168 0.000000
# 3 -0.000255 -0.014425 0.007383 0.000000 -0.002131 0.000000
# 4 0.000000 0.000000 0.000000 0.021308 0.000000 -0.009200
# 5 -0.006108 -0.023168 -0.002131 0.000000 -0.115482 0.000000
# 6 0.000000 0.000000 0.000000 -0.009200 0.000000 -0.184900
#
#
# Mechanical properties :
#
#
# Convention : Reuss Voigt Hill
#
# Bulk Modulus (GPa) = 26.20030 61.45838 43.82934
# Shear Modulus (GPa) = -30.36234 27.09897 -1.63169
#
# Velocity S-wave (km/s) = -3.73636 3.52986 -0.86616
# Velocity P-wave (km/s) = 2.56264 6.69860 4.37631
#
# Compressibility (1/GPa) = 0.03816751
#
# Stress axis : x y z
#
# Youngs Moduli (GPa) = 57.42140 22.16159 135.45477
#
# Poissons Ratio (x) = 0.02652 0.03452
# Poissons Ratio (y) = 0.06870 1.95398
# Poissons Ratio (z) = 0.01463 0.31969
#
# Static dielectric constant tensor:
#      x y z
#    x 1.587460 0.000000 -0.016590 
#    y 0.000000 1.745520 0.000000 
#    z -0.016590 0.000000 1.885620 
# 
# From -- ./inp_files/323368.got.cif
#   From: 2010.05.17/outbox.cif.g08.bks.cpg/sg12_162_cif.got.tgz:323368.got - 2010.06.03 13:09:07.
