data_PCOD9222495
_publ_section_title
;
Structure prediction by ZEFSAII (Michael W. Deem and Ramdas Pophale) SiO2 
 PCOD9222495
Probable space group: C 2/M
;
_chemical_formula_sum "Si O2"
_cell_formula_units_Z 42
_cell_length_a 16.136420
_cell_length_b 15.124579
_cell_length_c 15.574885
_cell_angle_alpha 90.000000
_cell_angle_beta 28.206132
_cell_angle_gamma 90.000000
_cell_volume 1796.596198
_symmetry_space_group_name_H-M "C 2/M"
_symmetry_group_IT_number 12
_symmetry_cell_setting 'monoclinic'
loop_
_space_group_symop_operation_xyz
x,y,z
-x,y,-z
-x,-y,-z
x,-y,z
1/2+x,1/2+y,z
1/2-x,1/2+y,-z
1/2-x,1/2-y,-z
1/2+x,1/2-y,z
loop_
_atom_site_type_symbol
_atom_site_label
_atom_site_fract_x
_atom_site_fract_y
_atom_site_fract_z
Si Si1 0.000000 0.500000 0.500000
Si Si2 0.652037 0.662974 0.444364
Si Si3 0.966344 0.646823 0.397845
Si Si4 0.546918 0.787842 0.142956
Si Si5 0.807347 0.401321 0.131987
Si Si6 0.069472 0.097710 0.703063
O O1 0.052395 0.577490 0.382326
O O2 0.561198 0.757964 0.534053
O O3 0.853249 0.684141 0.288298
O O4 0.674548 0.621057 0.329931
O O5 0.579002 0.605912 0.590629
O O6 0.063396 0.665128 0.219814
O O7 0.770222 0.609948 0.554035
O O8 0.535156 0.682377 0.165832
O O9 0.680528 0.827050 0.951924
O O10 0.778414 0.500000 0.123518
O O11 0.000000 0.402650 0.000000
O O12 0.008214 0.000000 0.784108
#
# Coordination Sequence:
#
# PCOD9222495 Si02
#       6
#     2   8   8   8   8   8
#     4  12  20  28  48  64  86 128 164 192 208 256
#     4   8  15  27  42  64  95 115 142 191 234 268
#     4   9  18  28  41  65  90 120 157 189 221 258
#     4   8  16  26  41  67  94 117 143 188 230 269
#     4   9  15  23  42  69  93 117 144 182 233 278
#     4   9  14  26  45  65  95 121 143 181 231 278
#
# _framework density 23.377541000000001
#
# number of rings (size 3 to 8) (size 9 to 14) (size 15 to 20)
#    0.000    3.238    0.952    2.857    1.333    2.286 
#    0.000    0.000    2.095    4.000    0.000   16.667 
#    0.000    0.000    0.000    0.000    0.000    0.000 
#
# Total GULP energy -117161.293137 kJ/mol
# GULP energy per Si atom -5579.109197 kJ/mol
# Density = 2.332433 g / cm^3
# Si number density = 23.377541 Si / 1000 Ang^3
#
#
#
# Elastic Constant Matrix: (Units=GPa)
#
#
# Indices 1 2 3 4 5 6 
#
# 1 47.5987 15.6299 26.6967 0.0001 5.4898 -0.0004
# 2 15.6299 193.4900 65.0362 0.0004 25.7477 -0.0006
# 3 26.6967 65.0362 132.4301 0.0005 12.3331 -0.0008
# 4 0.0001 0.0004 0.0005 13.6091 -0.0010 9.7495
# 5 5.4898 25.7477 12.3331 -0.0010 40.2112 0.0011
# 6 -0.0004 -0.0006 -0.0008 9.7495 0.0011 27.0360
#
#
#
# Elastic Compliance Matrix: (Units=1/GPa)
#
#
# Indices 1 2 3 4 5 6 
#
# 1 0.023821 -0.000158 -0.004561 0.000000 -0.001752 0.000000
# 2 -0.000158 0.006596 -0.002899 -0.000001 -0.003313 0.000000
# 3 -0.004561 -0.002899 0.009948 -0.000001 -0.000572 0.000000
# 4 0.000000 -0.000001 -0.000001 0.099075 0.000004 -0.035727
# 5 -0.001752 -0.003313 -0.000572 0.000004 0.027405 -0.000003
# 6 0.000000 0.000000 0.000000 -0.035727 -0.000003 0.049871
#
#
# Mechanical properties :
#
#
# Convention : Reuss Voigt Hill
#
# Bulk Modulus (GPa) = 39.79558 65.36050 52.57804
# Shear Modulus (GPa) = 20.80480 33.91500 27.35990
#
# Velocity S-wave (km/s) = 2.98644 3.81301 3.42475
# Velocity P-wave (km/s) = 5.38068 6.88511 6.17885
#
# Compressibility (1/GPa) = 0.02512842
#
# Stress axis : x y z
#
# Youngs Moduli (GPa) = 41.97930 151.60079 100.52586
#
# Poissons Ratio (x) = 0.02394 0.45854
# Poissons Ratio (y) = 0.00663 0.29143
# Poissons Ratio (z) = 0.19149 0.43950
#
# Static dielectric constant tensor:
#      x y z
#    x 1.999080 0.000000 -0.051390 
#    y 0.000000 1.819840 0.000000 
#    z -0.051390 0.000000 1.852340 
# 
# From -- ./inp_files/73739.got.cif
#   From: 2010.05.17/outbox.cif.g08.bks.cpg/sg12_37_cif.got.tgz:73739.got - 2010.06.03 13:09:07.
