data_PCOD9222060
_publ_section_title
;
Structure prediction by ZEFSAII (Michael W. Deem and Ramdas Pophale) SiO2 
 PCOD9222060
Probable space group: C 2/M
;
_chemical_formula_sum "Si O2"
_cell_formula_units_Z 48
_cell_length_a 11.848522
_cell_length_b 15.854068
_cell_length_c 13.704308
_cell_angle_alpha 90.000000
_cell_angle_beta 122.611833
_cell_angle_gamma 90.000000
_cell_volume 2168.452948
_symmetry_space_group_name_H-M "C 2/M"
_symmetry_group_IT_number 12
_symmetry_cell_setting 'monoclinic'
loop_
_space_group_symop_operation_xyz
x,y,z
-x,y,-z
-x,-y,-z
x,-y,z
1/2+x,1/2+y,z
1/2-x,1/2+y,-z
1/2-x,1/2-y,-z
1/2+x,1/2-y,z
loop_
_atom_site_type_symbol
_atom_site_label
_atom_site_fract_x
_atom_site_fract_y
_atom_site_fract_z
Si Si1 0.872099 0.203585 0.498397
Si Si2 0.387845 0.902946 0.135807
Si Si3 0.370223 0.644513 0.873373
Si Si4 0.001238 0.100523 0.266642
Si Si5 0.206924 0.333426 0.108549
Si Si6 0.330561 0.094889 0.711451
O O1 0.750000 0.250000 0.500000
O O2 0.937515 0.139780 0.607084
O O3 0.789704 0.152482 0.378595
O O4 0.000000 0.245674 0.500000
O O5 0.259626 0.900132 0.144275
O O6 0.522824 0.874038 0.253176
O O7 0.409636 0.000000 0.115992
O O8 0.356407 0.847383 0.026540
O O9 0.399920 0.617524 0.777514
O O10 0.336355 0.743311 0.869990
O O11 0.500000 0.624707 0.000000
O O12 0.865516 0.150710 0.175766
O O13 0.974679 0.000000 0.263504
O O14 0.160432 0.400369 0.167418
O O15 0.307831 0.000000 0.666634
#
# Coordination Sequence:
#
# PCOD9222060 Si02
#       6
#     8   8   8   8   8   8
#     4  12  28  48  75 105 141 187 242 300 362 432
#     4  11  24  42  68 102 143 185 235 292 358 428
#     4  12  26  42  68 102 148 190 234 289 364 432
#     4  12  27  46  73 105 140 184 240 295 352 426
#     4  12  24  40  70 102 140 180 234 291 349 419
#     4  11  24  43  69  98 136 180 233 294 352 419
#
# _framework density 22.135596
#
# number of rings (size 3 to 8) (size 9 to 14) (size 15 to 20)
#    0.000    0.333    3.333    5.500    4.667    2.667 
#    0.000    0.000    0.000    4.000    0.000    0.000 
#    0.000    0.000    0.000    0.000    0.000    0.000 
#
# Total GULP energy -134241.747603 kJ/mol
# GULP energy per Si atom -5593.406150 kJ/mol
# Density = 2.208521 g / cm^3
# Si number density = 22.135596 Si / 1000 Ang^3
#
#
#
# Elastic Constant Matrix: (Units=GPa)
#
#
# Indices 1 2 3 4 5 6 
#
# 1 161.2487 25.2297 41.8002 0.0000 15.2219 0.0000
# 2 25.2297 52.1391 3.0339 0.0000 11.4842 0.0000
# 3 41.8002 3.0339 68.7474 0.0000 12.1922 0.0000
# 4 0.0000 0.0000 0.0000 2.5447 0.0000 12.4054
# 5 15.2219 11.4842 12.1922 0.0000 44.7319 0.0000
# 6 0.0000 0.0000 0.0000 12.4054 0.0000 30.0805
#
#
#
# Elastic Compliance Matrix: (Units=1/GPa)
#
#
# Indices 1 2 3 4 5 6 
#
# 1 0.007993 -0.003474 -0.004605 0.000000 -0.000573 0.000000
# 2 -0.003474 0.021839 0.002031 0.000000 -0.004978 0.000000
# 3 -0.004605 0.002031 0.017938 0.000000 -0.003844 0.000000
# 4 0.000000 0.000000 0.000000 -0.388900 0.000000 0.160385
# 5 -0.000573 -0.004978 -0.003844 0.000000 0.024876 0.000000
# 6 0.000000 0.000000 0.000000 0.160385 0.000000 -0.032900
#
#
# Mechanical properties :
#
#
# Convention : Reuss Voigt Hill
#
# Bulk Modulus (GPa) = 28.03109 46.91810 37.47459
# Shear Modulus (GPa) = -15.37670 29.60951 7.11641
#
# Velocity S-wave (km/s) = -2.63850 3.66135 1.79496
# Velocity P-wave (km/s) = 1.84624 6.25426 4.61109
#
# Compressibility (1/GPa) = 0.03567468
#
# Stress axis : x y z
#
# Youngs Moduli (GPa) = 125.11078 45.79044 55.74770
#
# Poissons Ratio (x) = 0.15905 0.25672
# Poissons Ratio (y) = 0.43458 -0.11323
# Poissons Ratio (z) = 0.57613 -0.09301
#
# Static dielectric constant tensor:
#      x y z
#    x 1.894790 0.000000 0.023420 
#    y 0.000000 1.858490 0.000000 
#    z 0.023420 0.000000 1.777990 
# 
# From -- ./inp_files/205146.got.cif
#   From: 2010.05.17/outbox.cif.g08.bks.cpg/sg12_103_cif.got.tgz:205146.got - 2010.06.03 13:09:07.
