data_PCOD9222489
_publ_section_title
;
Structure prediction by ZEFSAII (Michael W. Deem and Ramdas Pophale) SiO2 
 PCOD9222489
Probable space group: C 2/M
;
_chemical_formula_sum "Si O2"
_cell_formula_units_Z 48
_cell_length_a 14.750473
_cell_length_b 11.599474
_cell_length_c 15.080721
_cell_angle_alpha 90.000000
_cell_angle_beta 74.567124
_cell_angle_gamma 90.000000
_cell_volume 2487.239716
_symmetry_space_group_name_H-M "C 2/M"
_symmetry_group_IT_number 12
_symmetry_cell_setting 'monoclinic'
loop_
_space_group_symop_operation_xyz
x,y,z
-x,y,-z
-x,-y,-z
x,-y,z
1/2+x,1/2+y,z
1/2-x,1/2+y,-z
1/2-x,1/2-y,-z
1/2+x,1/2-y,z
loop_
_atom_site_type_symbol
_atom_site_label
_atom_site_fract_x
_atom_site_fract_y
_atom_site_fract_z
Si Si1 0.167822 0.000000 0.889802
Si Si2 0.949589 0.238463 0.608255
Si Si3 0.340379 0.500000 0.298666
Si Si4 0.130367 0.000000 0.089472
Si Si5 0.259951 0.731245 0.392852
Si Si6 0.429080 0.135246 0.276807
Si Si7 0.444737 0.500000 0.714867
Si Si8 0.018620 0.796746 0.901375
O O1 0.104678 0.115048 0.895794
O O2 0.216461 0.000000 0.780441
O O3 0.199835 0.000000 0.985166
O O4 0.842983 0.277112 0.621468
O O5 0.946024 0.113592 0.655254
O O6 0.000000 0.231467 0.500000
O O7 0.006620 0.323279 0.657800
O O8 0.314623 0.613360 0.359117
O O9 0.454205 0.500000 0.259150
O O10 0.068468 0.883394 0.093699
O O11 0.142462 0.000000 0.192703
O O12 0.250000 0.750000 0.500000
O O13 0.322911 0.830525 0.331837
O O14 0.459830 0.211799 0.184336
O O15 0.438424 0.000000 0.258099
O O16 0.000000 0.735155 0.000000
#
# Coordination Sequence:
#
# PCOD9222489 Si02
#       8
#     4   8   4   4   8   8   4   8
#     4   9  14  28  60  95 115 147 206 260 301 351
#     4  12  25  42  62  91 124 163 208 256 310 369
#     4  12  20  40  67  86 121 163 210 255 299 368
#     4   9  14  27  62  93 117 147 201 262 302 357
#     4  12  26  42  62  91 123 164 210 256 308 369
#     4  12  25  42  61  91 131 166 205 257 314 368
#     4  12  19  39  66  92 121 152 207 259 310 356
#     4   9  16  33  61  93 121 157 202 251 307 367
#
# _framework density 19.298501000000002
#
# number of rings (size 3 to 8) (size 9 to 14) (size 15 to 20)
#    0.000    1.000    8.333    1.250    3.500    0.667 
#    0.000    0.000    0.000    4.000    0.000    0.000 
#    0.000    0.000    0.000    0.000    0.000    0.000 
#
# Total GULP energy -133809.968391 kJ/mol
# GULP energy per Si atom -5575.415350 kJ/mol
# Density = 1.925458 g / cm^3
# Si number density = 19.298501 Si / 1000 Ang^3
#
#
#
# Elastic Constant Matrix: (Units=GPa)
#
#
# Indices 1 2 3 4 5 6 
#
# 1 30.6641 -18.9112 3.5312 0.0000 6.2065 0.0000
# 2 -18.9112 99.6552 50.2727 0.0000 2.2100 0.0000
# 3 3.5312 50.2727 180.8747 0.0000 1.4595 0.0000
# 4 0.0000 0.0000 0.0000 5.4628 0.0000 0.8311
# 5 6.2065 2.2100 1.4595 0.0000 10.7350 0.0000
# 6 0.0000 0.0000 0.0000 0.8311 0.0000 17.4568
#
#
#
# Elastic Compliance Matrix: (Units=1/GPa)
#
#
# Indices 1 2 3 4 5 6 
#
# 1 0.045654 0.011193 -0.003775 0.000000 -0.028186 0.000000
# 2 0.011193 0.014457 -0.004165 0.000000 -0.008881 0.000000
# 3 -0.003775 -0.004165 0.006743 0.000000 0.002123 0.000000
# 4 0.000000 0.000000 0.000000 0.184393 0.000000 -0.008778
# 5 -0.028186 -0.008881 0.002123 0.000000 0.110989 0.000000
# 6 0.000000 0.000000 0.000000 -0.008778 0.000000 0.057702
#
#
# Mechanical properties :
#
#
# Convention : Reuss Voigt Hill
#
# Bulk Modulus (GPa) = 13.63142 42.33103 27.98123
# Shear Modulus (GPa) = 11.41853 25.15099 18.28476
#
# Velocity S-wave (km/s) = 2.43508 3.61399 3.08144
# Velocity P-wave (km/s) = 3.87104 6.27671 5.21450
#
# Compressibility (1/GPa) = 0.07335990
#
# Stress axis : x y z
#
# Youngs Moduli (GPa) = 21.90385 69.17214 148.30473
#
# Poissons Ratio (x) = -0.77424 0.55983
# Poissons Ratio (y) = -0.24517 0.61769
# Poissons Ratio (z) = 0.08268 0.28810
#
# Static dielectric constant tensor:
#      x y z
#    x 1.703450 0.000000 0.005930 
#    y 0.000000 1.632440 0.000000 
#    z 0.005930 0.000000 1.736770 
# 
# From -- ./inp_files/212724.got.cif
#   From: 2010.05.17/outbox.cif.g08.bks.cpg/sg12_107_cif.got.tgz:212724.got - 2010.06.03 13:09:07.
