data_PCOD9222063
_publ_section_title
;
Structure prediction by ZEFSAII (Michael W. Deem and Ramdas Pophale) SiO2 
 PCOD9222063
Probable space group: C 2/M
;
_chemical_formula_sum "Si O2"
_cell_formula_units_Z 40
_cell_length_a 18.420375
_cell_length_b 14.939594
_cell_length_c 16.883768
_cell_angle_alpha 90.000000
_cell_angle_beta 23.052735
_cell_angle_gamma 90.000000
_cell_volume 1819.387215
_symmetry_space_group_name_H-M "C 2/M"
_symmetry_group_IT_number 12
_symmetry_cell_setting 'monoclinic'
loop_
_space_group_symop_operation_xyz
x,y,z
-x,y,-z
-x,-y,-z
x,-y,z
1/2+x,1/2+y,z
1/2-x,1/2+y,-z
1/2-x,1/2-y,-z
1/2+x,1/2-y,z
loop_
_atom_site_type_symbol
_atom_site_label
_atom_site_fract_x
_atom_site_fract_y
_atom_site_fract_z
Si Si1 0.811672 0.174553 0.236111
Si Si2 0.500000 0.315339 0.500000
Si Si3 0.712760 0.000000 0.237066
Si Si4 0.135273 0.368488 0.168891
Si Si5 0.204042 0.103176 0.580287
Si Si6 0.910642 0.841190 0.756688
O O1 0.660712 0.250538 0.372752
O O2 0.732064 0.078861 0.285925
O O3 0.858140 0.160878 0.281617
O O4 0.000000 0.192214 0.000000
O O5 0.419139 0.367893 0.656525
O O6 0.695661 0.076746 0.185094
O O7 0.137593 0.264131 0.190400
O O8 0.925157 0.392102 0.357838
O O9 0.265588 0.385549 0.962684
O O10 0.109093 0.141440 0.597688
O O11 0.146199 0.000000 0.649416
#
# Coordination Sequence:
#
# PCOD9222063 Si02
#       6
#     8   4   4   8   8   8
#     4  12  25  37  66 106 142 171 209 277 351 407
#     4  12  26  47  67  96 138 180 230 278 325 405
#     4  12  21  43  68 106 140 168 213 274 352 408
#     4  11  24  42  68  97 140 175 217 273 338 409
#     4  12  25  41  68 102 137 178 220 274 339 407
#     4  11  26  44  66  96 135 184 225 271 333 397
#
# _framework density 21.985426
#
# number of rings (size 3 to 8) (size 9 to 14) (size 15 to 20)
#    0.000    0.400    6.000    2.100    7.000    1.200 
#    0.000    0.500    0.000    1.200    0.000    0.000 
#    0.000    0.000    0.000    0.000    0.000    0.000 
#
# Total GULP energy -111511.352463 kJ/mol
# GULP energy per Si atom -5575.567623 kJ/mol
# Density = 2.193539 g / cm^3
# Si number density = 21.985426 Si / 1000 Ang^3
#
#
#
# Elastic Constant Matrix: (Units=GPa)
#
#
# Indices 1 2 3 4 5 6 
#
# 1 113.6485 1.2305 19.1657 0.0637 30.3670 0.0037
# 2 1.2305 32.3024 -8.0803 0.0648 -4.0371 0.0034
# 3 19.1657 -8.0803 88.6324 0.0396 21.4197 0.0032
# 4 0.0637 0.0648 0.0396 25.4698 -0.0296 22.5252
# 5 30.3670 -4.0371 21.4197 -0.0296 32.1233 -0.0035
# 6 0.0037 0.0034 0.0032 22.5252 -0.0035 32.9009
#
#
#
# Elastic Compliance Matrix: (Units=1/GPa)
#
#
# Indices 1 2 3 4 5 6 
#
# 1 0.011885 -0.001880 0.000037 -0.000092 -0.011496 0.000061
# 2 -0.001880 0.032140 0.002302 -0.000185 0.004281 0.000124
# 3 0.000037 0.002302 0.013617 -0.000089 -0.008826 0.000058
# 4 -0.000092 -0.000185 -0.000089 0.099523 0.000207 -0.068137
# 5 -0.011496 0.004281 -0.008826 0.000207 0.048421 -0.000135
# 6 0.000061 0.000124 0.000058 -0.068137 -0.000135 0.077043
#
#
# Mechanical properties :
#
#
# Convention : Reuss Voigt Hill
#
# Bulk Modulus (GPa) = 17.07634 28.80169 22.93902
# Shear Modulus (GPa) = 16.59850 32.91663 24.75756
#
# Velocity S-wave (km/s) = 2.75067 3.87357 3.35937
# Velocity P-wave (km/s) = 4.22755 5.75629 5.05010
#
# Compressibility (1/GPa) = 0.05856055
#
# Stress axis : x y z
#
# Youngs Moduli (GPa) = 84.13944 31.11351 73.43559
#
# Poissons Ratio (x) = 0.05850 -0.00271
# Poissons Ratio (y) = 0.15819 -0.16905
# Poissons Ratio (z) = -0.00311 -0.07163
#
# Static dielectric constant tensor:
#      x y z
#    x 1.773940 0.000000 0.006930 
#    y 0.000000 1.801530 0.000000 
#    z 0.006930 0.000000 1.911130 
# 
# From -- ./inp_files/60916.got.cif
#   From: 2010.05.17/outbox.cif.g08.bks.cpg/sg12_31_cif.got.tgz:60916.got - 2010.06.03 13:09:07.
