data_PCOD9222320
_publ_section_title
;
Structure prediction by ZEFSAII (Michael W. Deem and Ramdas Pophale) SiO2 
 PCOD9222320
Probable space group: C 2/M
;
_chemical_formula_sum "Si O2"
_cell_formula_units_Z 40
_cell_length_a 8.501456
_cell_length_b 16.968938
_cell_length_c 12.843512
_cell_angle_alpha 90.000000
_cell_angle_beta 108.769235
_cell_angle_gamma 90.000000
_cell_volume 1754.285146
_symmetry_space_group_name_H-M "C 2/M"
_symmetry_group_IT_number 12
_symmetry_cell_setting 'monoclinic'
loop_
_space_group_symop_operation_xyz
x,y,z
-x,y,-z
-x,-y,-z
x,-y,z
1/2+x,1/2+y,z
1/2-x,1/2+y,-z
1/2-x,1/2-y,-z
1/2+x,1/2-y,z
loop_
_atom_site_type_symbol
_atom_site_label
_atom_site_fract_x
_atom_site_fract_y
_atom_site_fract_z
Si Si1 0.056575 0.129623 0.263413
Si Si2 0.969746 0.712667 0.113416
Si Si3 0.311339 0.586052 0.920245
Si Si4 0.810149 0.339421 0.500144
Si Si5 0.295093 0.087880 0.726938
O O1 0.163121 0.087936 0.197450
O O2 0.179913 0.131782 0.386892
O O3 0.994967 0.213189 0.197307
O O4 0.889191 0.089006 0.265498
O O5 0.799450 0.661970 0.077674
O O6 0.101143 0.648882 0.182691
O O7 0.000000 0.733764 0.000000
O O8 0.245661 0.500000 0.941959
O O9 0.500000 0.591805 0.000000
O O10 0.750000 0.250000 0.500000
O O11 0.795320 0.382845 0.607607
O O12 0.000000 0.342925 0.500000
O O13 0.365202 0.000000 0.747144
#
# Coordination Sequence:
#
# PCOD9222320 Si02
#       5
#     8   8   8   8   8
#     4  12  25  45  74 102 141 187 238 293 349 428
#     4  12  26  45  71 103 142 189 242 295 352 425
#     4  11  25  45  68  99 142 188 233 293 360 418
#     4  12  26  47  74 104 142 187 234 291 354 424
#     4  12  27  46  74 110 144 185 238 298 359 420
#
# _framework density 22.801310999999998
#
# number of rings (size 3 to 8) (size 9 to 14) (size 15 to 20)
#    0.000    0.200    2.000    7.200    0.000    8.400 
#    0.000    0.000    0.000    0.000    0.000    0.000 
#    0.000    0.000    0.000    0.000    0.000    0.000 
#
# Total GULP energy -111929.193865 kJ/mol
# GULP energy per Si atom -5596.459693 kJ/mol
# Density = 2.274941 g / cm^3
# Si number density = 22.801311 Si / 1000 Ang^3
#
#
#
# Elastic Constant Matrix: (Units=GPa)
#
#
# Indices 1 2 3 4 5 6 
#
# 1 108.7615 36.2897 18.3343 0.0000 3.0275 0.0000
# 2 36.2897 146.0157 24.6943 0.0000 4.2930 0.0000
# 3 18.3343 24.6943 122.5621 0.0000 12.6792 0.0000
# 4 0.0000 0.0000 0.0000 7.9020 0.0000 -16.7671
# 5 3.0275 4.2930 12.6792 0.0000 48.3648 0.0000
# 6 0.0000 0.0000 0.0000 -16.7671 0.0000 -17.8232
#
#
#
# Elastic Compliance Matrix: (Units=1/GPa)
#
#
# Indices 1 2 3 4 5 6 
#
# 1 0.010155 -0.002345 -0.001030 0.000000 -0.000157 0.000000
# 2 -0.002345 0.007635 -0.001164 0.000000 -0.000226 0.000000
# 3 -0.001030 -0.001164 0.008768 0.000000 -0.002131 0.000000
# 4 0.000000 0.000000 0.000000 0.042238 0.000000 -0.039735
# 5 -0.000157 -0.000226 -0.002131 0.000000 0.021265 0.000000
# 6 0.000000 0.000000 0.000000 -0.039735 0.000000 -0.018726
#
#
# Mechanical properties :
#
#
# Convention : Reuss Voigt Hill
#
# Bulk Modulus (GPa) = 57.21100 59.55287 58.38193
# Shear Modulus (GPa) = 57.97812 27.55679 42.76745
#
# Velocity S-wave (km/s) = 5.04804 3.48021 4.33558
# Velocity P-wave (km/s) = 7.68912 6.50569 7.12203
#
# Compressibility (1/GPa) = 0.01747916
#
# Stress axis : x y z
#
# Youngs Moduli (GPa) = 98.47438 130.97748 114.04771
#
# Poissons Ratio (x) = 0.30714 0.11751
# Poissons Ratio (y) = 0.23092 0.13277
# Poissons Ratio (z) = 0.10146 0.15248
#
# Static dielectric constant tensor:
#      x y z
#    x 1.802100 0.000000 -0.124980 
#    y 0.000000 1.872890 0.000000 
#    z -0.124980 0.000000 1.088410 
# 
# From -- ./inp_files/119130.got.cif
#   From: 2010.05.17/outbox.cif.g08.bks.cpg/sg12_60_cif.got.tgz:119130.got - 2010.06.03 13:09:07.
