data_PCOD9222992
_publ_section_title
;
Structure prediction by ZEFSAII (Michael W. Deem and Ramdas Pophale) SiO2 
 PCOD9222992
Probable space group: C 2/M
;
_chemical_formula_sum "Si O2"
_cell_formula_units_Z 48
_cell_length_a 9.123402
_cell_length_b 28.780637
_cell_length_c 7.188771
_cell_angle_alpha 90.000000
_cell_angle_beta 78.854610
_cell_angle_gamma 90.000000
_cell_volume 1852.007637
_symmetry_space_group_name_H-M "C 2/M"
_symmetry_group_IT_number 12
_symmetry_cell_setting 'monoclinic'
loop_
_space_group_symop_operation_xyz
x,y,z
-x,y,-z
-x,-y,-z
x,-y,z
1/2+x,1/2+y,z
1/2-x,1/2+y,-z
1/2-x,1/2-y,-z
1/2+x,1/2-y,z
loop_
_atom_site_type_symbol
_atom_site_label
_atom_site_fract_x
_atom_site_fract_y
_atom_site_fract_z
Si Si1 0.914669 0.865752 0.827006
Si Si2 0.126856 0.052333 0.649617
Si Si3 0.625763 0.198144 0.227113
Si Si4 0.667663 0.901759 0.137553
Si Si5 0.790514 0.288734 0.234515
Si Si6 0.400788 0.051315 0.334320
O O1 0.850417 0.823925 0.718550
O O2 0.017658 0.904751 0.709864
O O3 0.764061 0.890439 0.934770
O O4 0.000000 0.849884 0.000000
O O5 0.241803 0.056373 0.792520
O O6 0.233800 0.059768 0.445918
O O7 0.063765 0.000000 0.664539
O O8 0.676806 0.145847 0.256666
O O9 0.726487 0.237815 0.292521
O O10 0.447204 0.201876 0.299052
O O11 0.660744 0.206242 0.996754
O O12 0.494408 0.913687 0.187511
O O13 0.500000 0.050591 0.500000
O O14 0.403703 0.000000 0.248186
#
# Coordination Sequence:
#
# PCOD9222992 Si02
#       6
#     8   8   8   8   8   8
#     4   9  18  27  44  72 100 122 157 198 243 281
#     4   9  17  28  46  72  98 126 161 199 239 285
#     4   9  18  28  46  69  96 129 163 198 241 285
#     4   9  16  26  43  70  95 120 160 195 238 281
#     4   9  18  29  45  68 100 129 159 199 241 290
#     4   8  14  26  44  67  93 123 159 196 236 284
#
# _framework density 25.917818
#
# number of rings (size 3 to 8) (size 9 to 14) (size 15 to 20)
#    0.000    3.167    0.000    1.500    9.333    3.667 
#    0.000    0.000    0.000    4.000    0.000   19.833 
#    0.000    0.000    0.000    0.000    0.000    0.000 
#
# Total GULP energy -134065.156902 kJ/mol
# GULP energy per Si atom -5586.048204 kJ/mol
# Density = 2.585883 g / cm^3
# Si number density = 25.917818 Si / 1000 Ang^3
#
#
#
# Elastic Constant Matrix: (Units=GPa)
#
#
# Indices 1 2 3 4 5 6 
#
# 1 139.4608 58.2822 7.0129 0.0000 -18.5162 0.0000
# 2 58.2822 169.7035 40.1145 0.0000 -38.7552 0.0000
# 3 7.0129 40.1145 53.5901 0.0000 -18.5473 0.0000
# 4 0.0000 0.0000 0.0000 10.7724 0.0000 -28.1545
# 5 -18.5162 -38.7552 -18.5473 0.0000 50.8427 0.0000
# 6 0.0000 0.0000 0.0000 -28.1545 0.0000 31.5789
#
#
#
# Elastic Compliance Matrix: (Units=1/GPa)
#
#
# Indices 1 2 3 4 5 6 
#
# 1 0.008525 -0.002985 0.001609 0.000000 0.001417 0.000000
# 2 -0.002985 0.008997 -0.004975 0.000000 0.003956 0.000000
# 3 0.001609 -0.004975 0.024108 0.000000 0.005588 0.000000
# 4 0.000000 0.000000 0.000000 -0.069789 0.000000 -0.062221
# 5 0.001417 0.003956 0.005588 0.000000 0.025239 0.000000
# 6 0.000000 0.000000 0.000000 -0.062221 0.000000 -0.023807
#
#
# Mechanical properties :
#
#
# Convention : Reuss Voigt Hill
#
# Bulk Modulus (GPa) = 34.56829 63.73041 49.14935
# Shear Modulus (GPa) = -1140.74042 35.79512 -552.47265
#
# Velocity S-wave (km/s) = -21.00221 3.72035 -14.61595
# Velocity P-wave (km/s) = 23.97410 6.56486 16.30429
#
# Compressibility (1/GPa) = 0.02892824
#
# Stress axis : x y z
#
# Youngs Moduli (GPa) = 117.30307 111.14684 41.48069
#
# Poissons Ratio (x) = 0.33172 -0.06673
# Poissons Ratio (y) = 0.35010 0.20636
# Poissons Ratio (z) = -0.18871 0.55294
#
# Static dielectric constant tensor:
#      x y z
#    x 2.061220 0.000000 0.081030 
#    y 0.000000 1.996120 0.000000 
#    z 0.081030 0.000000 2.119150 
# 
# From -- ./inp_files/124763.got.cif
#   From: 2010.05.17/outbox.cif.g08.bks.cpg/sg12_63_cif.got.tgz:124763.got - 2010.06.03 13:09:07.
