data_PCOD9222168
_publ_section_title
;
Structure prediction by ZEFSAII (Michael W. Deem and Ramdas Pophale) SiO2 
 PCOD9222168
Probable space group: C 2/M
;
_chemical_formula_sum "Si O2"
_cell_formula_units_Z 48
_cell_length_a 11.241922
_cell_length_b 21.513053
_cell_length_c 11.972587
_cell_angle_alpha 90.000000
_cell_angle_beta 130.199077
_cell_angle_gamma 90.000000
_cell_volume 2211.637395
_symmetry_space_group_name_H-M "C 2/M"
_symmetry_group_IT_number 12
_symmetry_cell_setting 'monoclinic'
loop_
_space_group_symop_operation_xyz
x,y,z
-x,y,-z
-x,-y,-z
x,-y,z
1/2+x,1/2+y,z
1/2-x,1/2+y,-z
1/2-x,1/2-y,-z
1/2+x,1/2-y,z
loop_
_atom_site_type_symbol
_atom_site_label
_atom_site_fract_x
_atom_site_fract_y
_atom_site_fract_z
Si Si1 0.827271 0.074113 0.547836
Si Si2 0.164970 0.350502 0.638768
Si Si3 0.642871 0.370964 0.837010
Si Si4 0.035918 0.765005 0.154090
Si Si5 0.662708 0.929879 0.859967
Si Si6 0.632536 0.872315 0.231404
O O1 0.715043 0.097058 0.579574
O O2 0.764417 0.109128 0.400371
O O3 0.998238 0.097222 0.686693
O O4 0.823489 0.000000 0.530485
O O5 0.300609 0.299813 0.725704
O O6 0.152756 0.383548 0.750334
O O7 0.000000 0.323684 0.500000
O O8 0.590774 0.303907 0.852411
O O9 0.786657 0.367946 0.839620
O O10 0.694092 0.411166 0.974532
O O11 0.054526 0.694605 0.205016
O O12 0.000000 0.767130 0.000000
O O13 0.504877 0.921743 0.835714
O O14 0.677867 0.000000 0.829062
#
# Coordination Sequence:
#
# PCOD9222168 Si02
#       6
#     8   8   8   8   8   8
#     4  11  25  45  69 101 142 185 232 282 344 413
#     4  11  24  44  73 103 134 185 233 290 346 397
#     4  11  26  45  70 104 136 186 229 284 352 409
#     4  11  25  47  73 100 140 179 240 286 341 409
#     4  12  25  44  71 105 140 182 235 286 347 410
#     4  12  27  42  70 103 139 190 222 286 351 410
#
# _framework density 21.703378000000001
#
# number of rings (size 3 to 8) (size 9 to 14) (size 15 to 20)
#    0.000    0.667    3.333    3.500    2.333   10.000 
#    0.000    2.500    0.000    0.000    0.000    0.000 
#    0.000    0.000    0.000    0.000    0.000    0.000 
#
# Total GULP energy -134410.015214 kJ/mol
# GULP energy per Si atom -5600.417301 kJ/mol
# Density = 2.165398 g / cm^3
# Si number density = 21.703378 Si / 1000 Ang^3
#
#
#
# Elastic Constant Matrix: (Units=GPa)
#
#
# Indices 1 2 3 4 5 6 
#
# 1 52.9738 -15.8404 -14.4675 0.0000 -18.8449 0.0000
# 2 -15.8404 73.8595 4.7411 0.0000 -17.1922 0.0000
# 3 -14.4675 4.7411 106.8795 0.0000 -7.0042 0.0000
# 4 0.0000 0.0000 0.0000 -70.2310 0.0000 32.0197
# 5 -18.8449 -17.1922 -7.0042 0.0000 33.3067 0.0000
# 6 0.0000 0.0000 0.0000 32.0197 0.0000 2.5146
#
#
#
# Elastic Compliance Matrix: (Units=1/GPa)
#
#
# Indices 1 2 3 4 5 6 
#
# 1 0.034268 0.013381 0.005849 0.000000 0.027526 0.000000
# 2 0.013381 0.020616 0.002119 0.000000 0.018658 0.000000
# 3 0.005849 0.002119 0.010487 0.000000 0.006609 0.000000
# 4 0.000000 0.000000 0.000000 -0.002092 0.000000 0.026642
# 5 0.027526 0.018658 0.006609 0.000000 0.056619 0.000000
# 6 0.000000 0.000000 0.000000 0.026642 0.000000 0.058435
#
#
# Mechanical properties :
#
#
# Convention : Reuss Voigt Hill
#
# Bulk Modulus (GPa) = 9.25329 20.28659 14.76994
# Shear Modulus (GPa) = 29.12783 10.40334 19.76559
#
# Velocity S-wave (km/s) = 3.66743 2.19176 3.02108
# Velocity P-wave (km/s) = 4.71234 3.97147 4.35768
#
# Compressibility (1/GPa) = 0.10806967
#
# Stress axis : x y z
#
# Youngs Moduli (GPa) = 29.18185 48.50606 95.35506
#
# Poissons Ratio (x) = -0.64906 -0.55772
# Poissons Ratio (y) = -0.39048 -0.20211
# Poissons Ratio (z) = -0.17068 -0.10281
#
# Static dielectric constant tensor:
#      x y z
#    x 1.799540 0.000000 0.007760 
#    y 0.000000 1.734490 0.000000 
#    z 0.007760 0.000000 1.776890 
# 
# From -- ./inp_files/133712.got.cif
#   From: 2010.05.17/outbox.cif.g08.bks.cpg/sg12_67_cif.got.tgz:133712.got - 2010.06.03 13:09:07.
