data_PCOD9222985
_publ_section_title
;
Structure prediction by ZEFSAII (Michael W. Deem and Ramdas Pophale) SiO2 
 PCOD9222985
Probable space group: C 2/M
;
_chemical_formula_sum "Si O2"
_cell_formula_units_Z 64
_cell_length_a 25.786957
_cell_length_b 7.470516
_cell_length_c 24.237865
_cell_angle_alpha 90.000000
_cell_angle_beta 43.536226
_cell_angle_gamma 90.000000
_cell_volume 3216.225084
_symmetry_space_group_name_H-M "C 2/M"
_symmetry_group_IT_number 12
_symmetry_cell_setting 'monoclinic'
loop_
_space_group_symop_operation_xyz
x,y,z
-x,y,-z
-x,-y,-z
x,-y,z
1/2+x,1/2+y,z
1/2-x,1/2+y,-z
1/2-x,1/2-y,-z
1/2+x,1/2-y,z
loop_
_atom_site_type_symbol
_atom_site_label
_atom_site_fract_x
_atom_site_fract_y
_atom_site_fract_z
Si Si1 0.409650 0.215929 0.807107
Si Si2 0.081477 0.714836 0.453520
Si Si3 0.741815 0.713595 0.144372
Si Si4 0.233692 0.214094 0.274349
Si Si5 0.174073 0.286336 0.024113
Si Si6 0.421289 0.219685 0.329491
Si Si7 0.818366 0.292541 0.316000
Si Si8 0.667674 0.216971 0.494935
O O1 0.340843 0.261201 0.819233
O O2 0.492878 0.276046 0.726237
O O3 0.410995 0.000000 0.807800
O O4 0.389582 0.280685 0.884748
O O5 0.076125 0.500000 0.460558
O O6 0.147751 0.756447 0.359521
O O7 0.110222 0.774757 0.491106
O O8 0.000000 0.785591 0.500000
O O9 0.752493 0.500000 0.139226
O O10 0.746102 0.784952 0.203190
O O11 0.804809 0.784082 0.052820
O O12 0.286760 0.285819 0.282984
O O13 0.244633 0.000000 0.264545
O O14 0.163363 0.500000 0.027264
O O15 0.250000 0.250000 0.000000
O O16 0.388796 0.281748 0.295660
O O17 0.365090 0.276542 0.421506
O O18 0.420383 0.000000 0.330167
O O19 0.835693 0.500000 0.291358
O O20 0.748558 0.284859 0.412798
O O21 0.671980 0.000000 0.491779
#
# Coordination Sequence:
#
# PCOD9222985 Si02
#       8
#     8   8   8   8   8   8   8   8
#     4   9  17  28  45  68  88 110 139 173 214 257
#     4   9  18  29  42  60  85 114 139 172 215 251
#     4   9  17  29  44  64  90 115 139 171 209 253
#     4   9  18  30  44  61  83 114 146 172 204 249
#     4   8  14  26  43  62  86 112 137 167 207 252
#     4   9  17  28  45  65  85 108 139 180 215 248
#     4   9  17  31  46  60  81 112 147 178 208 244
#     4   9  17  29  43  61  83 109 142 177 213 249
#
# _framework density 19.899106
#
# number of rings (size 3 to 8) (size 9 to 14) (size 15 to 20)
#    0.000    3.125    0.000    0.375    1.750    0.750 
#    0.000    1.250    0.000    0.750    0.000    5.250 
#    0.000    0.000    0.000   24.625    0.000   19.250 
#
# Total GULP energy -178291.948651 kJ/mol
# GULP energy per Si atom -5571.623395 kJ/mol
# Density = 1.985381 g / cm^3
# Si number density = 19.899106 Si / 1000 Ang^3
#
#
#
# Elastic Constant Matrix: (Units=GPa)
#
#
# Indices 1 2 3 4 5 6 
#
# 1 56.7103 -0.6590 36.6248 -0.0276 18.6686 0.0145
# 2 -0.6590 55.8272 -7.6822 -0.0033 1.3581 -0.0137
# 3 36.6248 -7.6822 74.6716 -0.0199 38.7443 0.0153
# 4 -0.0276 -0.0033 -0.0199 1.2171 0.0120 7.3563
# 5 18.6686 1.3581 38.7443 0.0120 27.1938 -0.0071
# 6 0.0145 -0.0137 0.0153 7.3563 -0.0071 -5.0106
#
#
#
# Elastic Compliance Matrix: (Units=1/GPa)
#
#
# Indices 1 2 3 4 5 6 
#
# 1 0.025968 -0.001711 -0.014218 0.000013 0.002515 0.000052
# 2 -0.001711 0.019717 0.010620 0.000037 -0.014941 0.000049
# 3 -0.014218 0.010620 0.063926 0.000010 -0.081849 0.000256
# 4 0.000013 0.000037 0.000010 0.083214 -0.000029 0.122171
# 5 0.002515 -0.014941 -0.081849 -0.000029 0.152406 -0.000461
# 6 0.000052 0.000049 0.000256 0.122171 -0.000461 -0.020212
#
#
# Mechanical properties :
#
#
# Convention : Reuss Voigt Hill
#
# Bulk Modulus (GPa) = 10.10169 27.08625 18.59397
# Shear Modulus (GPa) = 13.56356 15.27510 14.41933
#
# Velocity S-wave (km/s) = 2.61361 2.77361 2.69480
# Velocity P-wave (km/s) = 3.76768 4.88862 4.36429
#
# Compressibility (1/GPa) = 0.09899329
#
# Stress axis : x y z
#
# Youngs Moduli (GPa) = 38.50935 50.71750 15.64305
#
# Poissons Ratio (x) = 0.08678 0.22241
# Poissons Ratio (y) = 0.06589 -0.16613
# Poissons Ratio (z) = 0.54751 -0.53862
#
# Static dielectric constant tensor:
#      x y z
#    x 1.700100 0.000000 0.027180 
#    y 0.000000 1.754850 0.000000 
#    z 0.027180 0.000000 1.714960 
# 
# From -- ./inp_files/327483.got.cif
#   From: 2010.05.17/outbox.cif.g08.bks.cpg/sg12_164_cif.got.tgz:327483.got - 2010.06.03 13:09:07.
