data_PCOD9222090
_publ_section_title
;
Structure prediction by ZEFSAII (Michael W. Deem and Ramdas Pophale) SiO2 
 PCOD9222090
Probable space group: C 2/M
;
_chemical_formula_sum "Si O2"
_cell_formula_units_Z 40
_cell_length_a 9.150218
_cell_length_b 18.315615
_cell_length_c 11.933649
_cell_angle_alpha 90.000000
_cell_angle_beta 101.867643
_cell_angle_gamma 90.000000
_cell_volume 1957.233485
_symmetry_space_group_name_H-M "C 2/M"
_symmetry_group_IT_number 12
_symmetry_cell_setting 'monoclinic'
loop_
_space_group_symop_operation_xyz
x,y,z
-x,y,-z
-x,-y,-z
x,-y,z
1/2+x,1/2+y,z
1/2-x,1/2+y,-z
1/2-x,1/2-y,-z
1/2+x,1/2-y,z
loop_
_atom_site_type_symbol
_atom_site_label
_atom_site_fract_x
_atom_site_fract_y
_atom_site_fract_z
Si Si1 0.758257 0.832331 0.793671
Si Si2 0.639423 0.584047 0.606918
Si Si3 0.830507 0.585299 0.011478
Si Si4 0.606218 0.321480 0.825151
Si Si5 0.824423 0.325934 0.474485
O O1 0.695842 0.896037 0.862635
O O2 0.669309 0.759272 0.814144
O O3 0.731658 0.846033 0.658164
O O4 0.935247 0.820707 0.838831
O O5 0.500000 0.589387 0.500000
O O6 0.657647 0.500000 0.644075
O O7 0.612427 0.635084 0.708836
O O8 0.778600 0.613897 0.558191
O O9 0.801964 0.500000 0.984571
O O10 0.714856 0.635885 0.926428
O O11 0.000000 0.601609 0.000000
O O12 0.750000 0.250000 0.500000
O O13 0.000000 0.315219 0.500000
#
# Coordination Sequence:
#
# PCOD9222090 Si02
#       5
#     8   8   8   8   8
#     4  12  25  42  72 101 134 177 232 276 334 404
#     4  11  24  43  67 100 139 179 223 274 342 406
#     4  11  27  48  69  98 137 179 225 282 342 398
#     4  12  24  44  70 100 134 180 224 283 334 403
#     4  12  24  42  69 102 139 177 223 278 333 399
#
# _framework density 20.437009
#
# number of rings (size 3 to 8) (size 9 to 14) (size 15 to 20)
#    0.000    0.400    4.000    4.800    2.800    3.600 
#    0.000    0.000    0.000    0.000    0.000    0.000 
#    0.000    0.000    0.000    0.000    0.000    0.000 
#
# Total GULP energy -111998.316456 kJ/mol
# GULP energy per Si atom -5599.915823 kJ/mol
# Density = 2.039049 g / cm^3
# Si number density = 20.437009 Si / 1000 Ang^3
#
#
#
# Elastic Constant Matrix: (Units=GPa)
#
#
# Indices 1 2 3 4 5 6 
#
# 1 149.1233 15.3040 4.4600 0.0000 -10.6488 0.0000
# 2 15.3040 42.7748 -12.0525 0.0000 -1.8941 0.0000
# 3 4.4600 -12.0525 68.5578 0.0000 -9.6854 0.0000
# 4 0.0000 0.0000 0.0000 50.7090 0.0000 1.6768
# 5 -10.6488 -1.8941 -9.6854 0.0000 31.3355 0.0000
# 6 0.0000 0.0000 0.0000 1.6768 0.0000 28.7328
#
#
#
# Elastic Compliance Matrix: (Units=1/GPa)
#
#
# Indices 1 2 3 4 5 6 
#
# 1 0.007144 -0.002644 -0.000637 0.000000 0.002071 0.000000
# 2 -0.002644 0.025839 0.005028 0.000000 0.002217 0.000000
# 3 -0.000637 0.005028 0.016233 0.000000 0.005105 0.000000
# 4 0.000000 0.000000 0.000000 0.019758 0.000000 -0.001153
# 5 0.002071 0.002217 0.005105 0.000000 0.034328 0.000000
# 6 0.000000 0.000000 0.000000 -0.001153 0.000000 0.034871
#
#
# Mechanical properties :
#
#
# Convention : Reuss Voigt Hill
#
# Bulk Modulus (GPa) = 18.97176 30.65321 24.81248
# Shear Modulus (GPa) = 32.84086 39.00509 35.92298
#
# Velocity S-wave (km/s) = 4.01300 4.37344 4.19709
# Velocity P-wave (km/s) = 5.54756 6.36663 5.97116
#
# Compressibility (1/GPa) = 0.05270992
#
# Stress axis : x y z
#
# Youngs Moduli (GPa) = 139.97498 38.70120 61.60397
#
# Poissons Ratio (x) = 0.10232 0.03924
# Poissons Ratio (y) = 0.37006 -0.30973
# Poissons Ratio (z) = 0.08916 -0.19458
#
# Static dielectric constant tensor:
#      x y z
#    x 1.707560 0.000000 -0.015500 
#    y 0.000000 1.685510 0.000000 
#    z -0.015500 0.000000 1.775640 
# 
# From -- ./inp_files/118910.got.cif
#   From: 2010.05.17/outbox.cif.g08.bks.cpg/sg12_60_cif.got.tgz:118910.got - 2010.06.03 13:09:07.
