data_PCOD9222250
_publ_section_title
;
Structure prediction by ZEFSAII (Michael W. Deem and Ramdas Pophale) SiO2 
 PCOD9222250
Probable space group: C 2/M
;
_chemical_formula_sum "Si O2"
_cell_formula_units_Z 42
_cell_length_a 16.994110
_cell_length_b 15.782482
_cell_length_c 8.223144
_cell_angle_alpha 90.000000
_cell_angle_beta 117.357869
_cell_angle_gamma 90.000000
_cell_volume 1958.843208
_symmetry_space_group_name_H-M "C 2/M"
_symmetry_group_IT_number 12
_symmetry_cell_setting 'monoclinic'
loop_
_space_group_symop_operation_xyz
x,y,z
-x,y,-z
-x,-y,-z
x,-y,z
1/2+x,1/2+y,z
1/2-x,1/2+y,-z
1/2-x,1/2-y,-z
1/2+x,1/2-y,z
loop_
_atom_site_type_symbol
_atom_site_label
_atom_site_fract_x
_atom_site_fract_y
_atom_site_fract_z
Si Si1 0.876848 0.354619 0.515625
Si Si2 0.272198 0.099263 0.741152
Si Si3 0.224447 0.653950 0.928601
Si Si4 0.000000 0.500000 0.500000
Si Si5 0.589491 0.665119 0.485065
Si Si6 0.443392 0.500000 0.738902
Si Si7 0.137410 0.000000 0.979361
O O1 0.815782 0.378388 0.610783
O O2 0.826590 0.351061 0.292100
O O3 0.950770 0.425449 0.561621
O O4 0.911213 0.260072 0.583200
O O5 0.180819 0.151412 0.668029
O O6 0.252269 0.000000 0.725409
O O7 0.326508 0.121295 0.956969
O O8 0.303333 0.584098 0.985096
O O9 0.250000 0.750000 0.000000
O O10 0.500000 0.655617 0.500000
O O11 0.592685 0.588119 0.363079
O O12 0.408827 0.500000 0.889395
O O13 0.547852 0.500000 0.788863
#
# Coordination Sequence:
#
# PCOD9222250 Si02
#       7
#     8   8   8   2   8   4   4
#     4  12  27  49  72 103 142 187 236 291 345 413
#     4  12  25  45  74 105 138 188 236 284 352 419
#     4  12  26  44  72 101 141 181 236 285 342 417
#     4  12  26  50  74  96 146 190 228 292 352 402
#     4  12  24  42  71 103 141 184 230 287 354 415
#     4  11  25  40  69 100 147 181 224 293 353 421
#     4  11  25  45  63 106 143 181 229 290 354 405
#
# _framework density 21.441226
#
# number of rings (size 3 to 8) (size 9 to 14) (size 15 to 20)
#    0.000    0.190    5.714    3.714    2.667    0.000 
#    0.000    1.905    0.000    0.000    0.000    0.000 
#    0.000    0.000    0.000    0.000    0.000    0.000 
#
# Total GULP energy -116954.060810 kJ/mol
# GULP energy per Si atom -5569.240991 kJ/mol
# Density = 2.139243 g / cm^3
# Si number density = 21.441226 Si / 1000 Ang^3
#
#
#
# Elastic Constant Matrix: (Units=GPa)
#
#
# Indices 1 2 3 4 5 6 
#
# 1 112.5669 40.1912 31.8282 0.0000 -26.8681 0.0000
# 2 40.1912 206.7050 25.9715 0.0000 -8.0823 0.0000
# 3 31.8282 25.9715 66.3682 0.0000 -19.3091 0.0000
# 4 0.0000 0.0000 0.0000 57.9546 0.0000 -7.1098
# 5 -26.8681 -8.0823 -19.3091 0.0000 20.2691 0.0000
# 6 0.0000 0.0000 0.0000 -7.1098 0.0000 30.0256
#
#
#
# Elastic Compliance Matrix: (Units=1/GPa)
#
#
# Indices 1 2 3 4 5 6 
#
# 1 0.013811 -0.001905 -0.001069 0.000000 0.016530 0.000000
# 2 -0.001905 0.005351 -0.001791 0.000000 -0.002097 0.000000
# 3 -0.001069 -0.001791 0.021666 0.000000 0.018509 0.000000
# 4 0.000000 0.000000 0.000000 0.017771 0.000000 0.004208
# 5 0.016530 -0.002097 0.018509 0.000000 0.088044 0.000000
# 6 0.000000 0.000000 0.000000 0.004208 0.000000 0.034301
#
#
# Mechanical properties :
#
#
# Convention : Reuss Voigt Hill
#
# Bulk Modulus (GPa) = 31.94924 64.62467 48.28695
# Shear Modulus (GPa) = 24.88717 40.82647 32.85682
#
# Velocity S-wave (km/s) = 3.41062 4.36835 3.91885
# Velocity P-wave (km/s) = 5.51752 7.45983 6.56095
#
# Compressibility (1/GPa) = 0.03129965
#
# Stress axis : x y z
#
# Youngs Moduli (GPa) = 72.40367 186.87488 46.15591
#
# Poissons Ratio (x) = 0.35596 0.04933
# Poissons Ratio (y) = 0.13792 0.08265
# Poissons Ratio (z) = 0.07739 0.33463
#
# Static dielectric constant tensor:
#      x y z
#    x 1.775020 0.000000 0.029100 
#    y 0.000000 1.793140 0.000000 
#    z 0.029100 0.000000 1.980130 
# 
# From -- ./inp_files/73774.got.cif
#   From: 2010.05.17/outbox.cif.g08.bks.cpg/sg12_37_cif.got.tgz:73774.got - 2010.06.03 13:09:07.
