data_PCOD9222346
_publ_section_title
;
Structure prediction by ZEFSAII (Michael W. Deem and Ramdas Pophale) SiO2 
 PCOD9222346
Probable space group: C 2/M
;
_chemical_formula_sum "Si O2"
_cell_formula_units_Z 44
_cell_length_a 14.774577
_cell_length_b 14.158426
_cell_length_c 25.157898
_cell_angle_alpha 90.000000
_cell_angle_beta 25.142847
_cell_angle_gamma 90.000000
_cell_volume 2235.975815
_symmetry_space_group_name_H-M "C 2/M"
_symmetry_group_IT_number 12
_symmetry_cell_setting 'monoclinic'
loop_
_space_group_symop_operation_xyz
x,y,z
-x,y,-z
-x,-y,-z
x,-y,z
1/2+x,1/2+y,z
1/2-x,1/2+y,-z
1/2-x,1/2-y,-z
1/2+x,1/2-y,z
loop_
_atom_site_type_symbol
_atom_site_label
_atom_site_fract_x
_atom_site_fract_y
_atom_site_fract_z
Si Si1 0.760465 0.000000 0.855184
Si Si2 0.780595 0.500000 0.007153
Si Si3 0.862191 0.186193 0.733656
Si Si4 0.053897 0.303652 0.221297
Si Si5 0.325987 0.610564 0.638875
Si Si6 0.390469 0.793113 0.971773
Si Si7 0.218704 0.000000 0.914957
O O1 0.855036 0.000000 0.865373
O O2 0.830615 0.908761 0.785055
O O3 0.500000 0.000000 0.000000
O O4 0.907646 0.403191 0.947584
O O5 0.691831 0.500000 0.994103
O O6 0.009224 0.257566 0.688970
O O7 0.916952 0.151716 0.645449
O O8 0.631488 0.238620 0.851036
O O9 0.155547 0.407015 0.169469
O O10 0.862335 0.320811 0.281863
O O11 0.242285 0.234689 0.099928
O O12 0.500000 0.609275 0.500000
O O13 0.254830 0.500000 0.684065
O O14 0.250000 0.750000 0.000000
O O15 0.000000 0.000000 0.000000
#
# Coordination Sequence:
#
# PCOD9222346 Si02
#       7
#     4   4   8   8   8   8   4
#     4  12  20  32  58  92 125 161 196 247 306 370
#     4  12  22  34  52  86 135 168 212 241 288 383
#     4  12  22  38  63  93 127 161 207 257 317 383
#     4  12  24  38  61  95 125 163 209 254 321 380
#     4  11  25  46  69  88 116 168 227 274 308 358
#     4  12  21  34  58  90 129 164 198 247 312 391
#     4  12  24  36  54  86 137 174 193 238 315 392
#
# _framework density 19.678208999999999
#
# number of rings (size 3 to 8) (size 9 to 14) (size 15 to 20)
#    0.000    0.182    9.091    1.636    0.000    0.727 
#    0.000    0.000    0.000    0.000    0.000    3.182 
#    0.000    0.000    0.000    0.000    0.000    0.000 
#
# Total GULP energy -122707.103413 kJ/mol
# GULP energy per Si atom -5577.595610 kJ/mol
# Density = 1.963342 g / cm^3
# Si number density = 19.678209 Si / 1000 Ang^3
#
#
#
# Elastic Constant Matrix: (Units=GPa)
#
#
# Indices 1 2 3 4 5 6 
#
# 1 135.9928 49.7511 17.3241 0.0007 42.3484 0.0023
# 2 49.7511 105.3191 20.4547 0.0061 18.6375 -0.0023
# 3 17.3241 20.4547 47.1219 -0.0036 25.4196 0.0046
# 4 0.0007 0.0061 -0.0036 22.5880 -0.0043 11.0618
# 5 42.3484 18.6375 25.4196 -0.0043 32.2849 -0.0039
# 6 0.0023 -0.0023 0.0046 11.0618 -0.0039 30.4960
#
#
#
# Elastic Compliance Matrix: (Units=1/GPa)
#
#
# Indices 1 2 3 4 5 6 
#
# 1 0.016093 -0.004952 0.010566 0.000001 -0.026569 -0.000007
# 2 -0.004952 0.012239 -0.005536 -0.000006 0.003790 0.000005
# 3 0.010566 -0.005536 0.044314 0.000008 -0.045555 -0.000016
# 4 0.000001 -0.000006 0.000008 0.053834 0.000001 -0.019527
# 5 -0.026569 0.003790 -0.045555 0.000001 0.099506 0.000021
# 6 -0.000007 0.000005 -0.000016 -0.019527 0.000021 0.039874
#
#
# Mechanical properties :
#
#
# Convention : Reuss Voigt Hill
#
# Bulk Modulus (GPa) = 13.73610 51.49929 32.61769
# Shear Modulus (GPa) = 17.24302 30.46737 23.85520
#
# Velocity S-wave (km/s) = 2.96336 3.93909 3.48554
# Velocity P-wave (km/s) = 4.32484 6.84953 5.72801
#
# Compressibility (1/GPa) = 0.07280088
#
# Stress axis : x y z
#
# Youngs Moduli (GPa) = 62.13942 81.70631 22.56605
#
# Poissons Ratio (x) = 0.40463 -0.23843
# Poissons Ratio (y) = 0.30773 0.12493
# Poissons Ratio (z) = -0.65656 0.45235
#
# Static dielectric constant tensor:
#      x y z
#    x 1.761570 -0.000010 0.052930 
#    y -0.000010 1.704900 0.000010 
#    z 0.052930 0.000010 1.756960 
# 
# From -- ./inp_files/240371.got.cif
#   From: 2010.05.17/outbox.cif.g08.bks.cpg/sg12_121_cif.got.tgz:240371.got - 2010.06.03 13:09:07.
