data_PCOD9222261
_publ_section_title
;
Structure prediction by ZEFSAII (Michael W. Deem and Ramdas Pophale) SiO2 
 PCOD9222261
Probable space group: C 2/M
;
_chemical_formula_sum "Si O2"
_cell_formula_units_Z 48
_cell_length_a 14.584491
_cell_length_b 18.254096
_cell_length_c 16.908952
_cell_angle_alpha 90.000000
_cell_angle_beta 28.999791
_cell_angle_gamma 90.000000
_cell_volume 2182.411641
_symmetry_space_group_name_H-M "C 2/M"
_symmetry_group_IT_number 12
_symmetry_cell_setting 'monoclinic'
loop_
_space_group_symop_operation_xyz
x,y,z
-x,y,-z
-x,-y,-z
x,-y,z
1/2+x,1/2+y,z
1/2-x,1/2+y,-z
1/2-x,1/2-y,-z
1/2+x,1/2-y,z
loop_
_atom_site_type_symbol
_atom_site_label
_atom_site_fract_x
_atom_site_fract_y
_atom_site_fract_z
Si Si1 0.612002 0.861440 0.730759
Si Si2 0.517682 0.705442 0.839456
Si Si3 0.876795 0.330967 0.670410
Si Si4 0.781072 0.585002 0.185820
Si Si5 0.461170 0.689819 0.361285
Si Si6 0.223296 0.419249 0.110935
O O1 0.487408 0.792737 0.857105
O O2 0.726648 0.897729 0.715410
O O3 0.769991 0.832553 0.550719
O O4 0.463302 0.914539 0.802078
O O5 0.681748 0.697619 0.780378
O O6 0.570237 0.687437 0.708927
O O7 0.357137 0.648488 0.985764
O O8 0.839504 0.401015 0.752564
O O9 0.000000 0.345529 0.500000
O O10 0.970196 0.268160 0.655254
O O11 0.744487 0.500000 0.196608
O O12 0.630566 0.634617 0.254699
O O13 0.000000 0.600351 0.000000
O O14 0.310663 0.500000 0.037905
#
# Coordination Sequence:
#
# PCOD9222261 Si02
#       6
#     8   8   8   8   8   8
#     4  12  23  44  74 104 136 184 233 294 350 420
#     4  12  25  44  75 103 136 182 233 294 346 416
#     4  12  24  45  74 105 140 183 240 295 345 417
#     4  11  25  42  66 105 147 183 225 284 355 422
#     4  12  24  44  74 106 141 178 236 291 355 416
#     4  12  29  48  69 103 147 190 237 290 350 419
#
# _framework density 21.994016999999999
#
# number of rings (size 3 to 8) (size 9 to 14) (size 15 to 20)
#    0.000    0.167    5.000    4.500    2.333    5.667 
#    0.000    1.667    0.000    0.000    0.000    0.000 
#    0.000    0.000    0.000    0.000    0.000    0.000 
#
# Total GULP energy -134325.943721 kJ/mol
# GULP energy per Si atom -5596.914322 kJ/mol
# Density = 2.194396 g / cm^3
# Si number density = 21.994017 Si / 1000 Ang^3
#
#
#
# Elastic Constant Matrix: (Units=GPa)
#
#
# Indices 1 2 3 4 5 6 
#
# 1 8.8262 72.7228 -48.7707 0.0696 -32.4965 0.0169
# 2 72.7228 59.4501 77.8571 -0.0057 10.3744 0.0360
# 3 -48.7707 77.8571 34.5987 0.1033 -26.2273 0.0741
# 4 0.0696 -0.0057 0.1033 -26.8381 -0.0153 -46.5640
# 5 -32.4965 10.3744 -26.2273 -0.0153 19.6832 -0.0304
# 6 0.0169 0.0360 0.0741 -46.5640 -0.0304 -18.7874
#
#
#
# Elastic Compliance Matrix: (Units=1/GPa)
#
#
# Indices 1 2 3 4 5 6 
#
# 1 0.005285 0.005276 -0.008286 0.000000 -0.005096 -0.000009
# 2 0.005276 0.005308 0.002612 0.000000 0.009392 0.000010
# 3 -0.008286 0.002612 0.006582 0.000016 -0.006285 -0.000005
# 4 0.000000 0.000000 0.000016 0.011291 -0.000014 -0.027983
# 5 -0.005096 0.009392 -0.006285 -0.000014 0.029067 -0.000024
# 6 -0.000009 0.000010 -0.000005 -0.027983 -0.000024 0.016129
#
#
# Mechanical properties :
#
#
# Convention : Reuss Voigt Hill
#
# Bulk Modulus (GPa) = 61.05492 34.05481 47.55487
# Shear Modulus (GPa) = 62.56469 -5.11742 28.72363
#
# Velocity S-wave (km/s) = 5.33929 -1.52702 3.61775
# Velocity P-wave (km/s) = 8.11361 3.52253 6.25456
#
# Compressibility (1/GPa) = 0.01637870
#
# Stress axis : x y z
#
# Youngs Moduli (GPa) = 189.22699 188.39137 151.91985
#
# Poissons Ratio (x) = -0.99389 1.25874
# Poissons Ratio (y) = -0.99830 -0.39675
# Poissons Ratio (z) = 1.56784 -0.49200
#
# Static dielectric constant tensor:
#      x y z
#    x 1.796920 0.000000 0.017630 
#    y 0.000000 1.781590 0.000010 
#    z 0.017630 0.000010 1.842050 
# 
# From -- ./inp_files/271608.got.cif
#   From: 2010.05.17/outbox.cif.g08.bks.cpg/sg12_136_cif.got.tgz:271608.got - 2010.06.03 13:09:07.
