data_PCOD9222507
_publ_section_title
;
Structure prediction by ZEFSAII (Michael W. Deem and Ramdas Pophale) SiO2 
 PCOD9222507
Probable space group: C 2/M
;
_chemical_formula_sum "Si O2"
_cell_formula_units_Z 36
_cell_length_a 5.055108
_cell_length_b 30.633828
_cell_length_c 11.596286
_cell_angle_alpha 90.000000
_cell_angle_beta 66.565356
_cell_angle_gamma 90.000000
_cell_volume 1647.644367
_symmetry_space_group_name_H-M "C 2/M"
_symmetry_group_IT_number 12
_symmetry_cell_setting 'monoclinic'
loop_
_space_group_symop_operation_xyz
x,y,z
-x,y,-z
-x,-y,-z
x,-y,z
1/2+x,1/2+y,z
1/2-x,1/2+y,-z
1/2-x,1/2-y,-z
1/2+x,1/2-y,z
loop_
_atom_site_type_symbol
_atom_site_label
_atom_site_fract_x
_atom_site_fract_y
_atom_site_fract_z
Si Si1 0.965984 0.872443 0.642665
Si Si2 0.668641 0.000000 0.094018
Si Si3 0.129050 0.225758 0.279097
Si Si4 0.667165 0.088760 0.235055
Si Si5 0.000000 0.296068 0.000000
Si Si6 0.000000 0.143451 0.000000
O O1 0.992205 0.822828 0.685086
O O2 0.638400 0.887234 0.723588
O O3 0.000000 0.871713 0.500000
O O4 0.200597 0.904750 0.660228
O O5 0.619486 0.957947 0.183688
O O6 0.500000 0.000000 0.000000
O O7 0.000000 0.000000 0.000000
O O8 0.374420 0.239153 0.326300
O O9 0.298611 0.228267 0.127017
O O10 0.919213 0.112628 0.119331
O O11 0.776262 0.326775 0.972253
#
# Coordination Sequence:
#
# PCOD9222507 Si02
#       6
#     8   4   8   8   4   4
#     4  12  27  48  70  93 137 194 238 277 330 400
#     4  12  26  42  75 116 145 170 212 281 351 422
#     4  12  24  40  64  98 132 175 230 290 344 403
#     4  12  24  46  70 106 138 174 229 278 346 407
#     4  12  22  39  62 103 133 176 217 283 362 415
#     4  12  20  38  72  96 133 174 219 276 350 416
#
# _framework density 21.849375999999999
#
# number of rings (size 3 to 8) (size 9 to 14) (size 15 to 20)
#    0.000    0.000    5.556    5.333    1.556    0.889 
#    0.000    3.333    0.000    0.000    0.000    0.000 
#    0.000    0.000    0.000    0.000    0.000    0.000 
#
# Total GULP energy -100665.335461 kJ/mol
# GULP energy per Si atom -5592.518637 kJ/mol
# Density = 2.179965 g / cm^3
# Si number density = 21.849376 Si / 1000 Ang^3
#
#
#
# Elastic Constant Matrix: (Units=GPa)
#
#
# Indices 1 2 3 4 5 6 
#
# 1 116.5711 36.6170 15.0037 0.0000 23.5888 0.0000
# 2 36.6170 112.9786 31.7251 0.0000 7.3350 0.0000
# 3 15.0037 31.7251 56.1690 0.0000 13.8095 0.0000
# 4 0.0000 0.0000 0.0000 8.0945 0.0000 4.4890
# 5 23.5888 7.3350 13.8095 0.0000 29.9687 0.0000
# 6 0.0000 0.0000 0.0000 4.4890 0.0000 31.2041
#
#
#
# Elastic Compliance Matrix: (Units=1/GPa)
#
#
# Indices 1 2 3 4 5 6 
#
# 1 0.011221 -0.003363 0.000983 0.000000 -0.008462 0.000000
# 2 -0.003363 0.011529 -0.006282 0.000000 0.002720 0.000000
# 3 0.000983 -0.006282 0.023572 0.000000 -0.010098 0.000000
# 4 0.000000 0.000000 0.000000 0.134252 0.000000 -0.019313
# 5 -0.008462 0.002720 -0.010098 0.000000 0.044016 0.000000
# 6 0.000000 0.000000 0.000000 -0.019313 0.000000 0.034825
#
#
# Mechanical properties :
#
#
# Convention : Reuss Voigt Hill
#
# Bulk Modulus (GPa) = 34.48755 50.26782 42.37769
# Shear Modulus (GPa) = 17.45782 27.34499 22.40140
#
# Velocity S-wave (km/s) = 2.82974 3.54152 3.20545
# Velocity P-wave (km/s) = 5.14733 6.30711 5.75651
#
# Compressibility (1/GPa) = 0.02899597
#
# Stress axis : x y z
#
# Youngs Moduli (GPa) = 89.12104 86.73998 42.42382
#
# Poissons Ratio (x) = 0.29173 -0.04169
# Poissons Ratio (y) = 0.29974 0.26651
# Poissons Ratio (z) = -0.08758 0.54490
#
# Static dielectric constant tensor:
#      x y z
#    x 1.785360 0.000000 0.063080 
#    y 0.000000 1.785520 0.000000 
#    z 0.063080 0.000000 1.833230 
# 
# From -- ./inp_files/115417.got.cif
#   From: 2010.05.17/outbox.cif.g08.bks.cpg/sg12_58_cif.got.tgz:115417.got - 2010.06.03 13:09:07.
