data_PCOD9222752
_publ_section_title
;
Structure prediction by ZEFSAII (Michael W. Deem and Ramdas Pophale) SiO2 
 PCOD9222752
Probable space group: C 2/M
;
_chemical_formula_sum "Si O2"
_cell_formula_units_Z 48
_cell_length_a 14.415546
_cell_length_b 26.003395
_cell_length_c 9.169228
_cell_angle_alpha 90.000000
_cell_angle_beta 41.233505
_cell_angle_gamma 90.000000
_cell_volume 2265.502598
_symmetry_space_group_name_H-M "C 2/M"
_symmetry_group_IT_number 12
_symmetry_cell_setting 'monoclinic'
loop_
_space_group_symop_operation_xyz
x,y,z
-x,y,-z
-x,-y,-z
x,-y,z
1/2+x,1/2+y,z
1/2-x,1/2+y,-z
1/2-x,1/2-y,-z
1/2+x,1/2-y,z
loop_
_atom_site_type_symbol
_atom_site_label
_atom_site_fract_x
_atom_site_fract_y
_atom_site_fract_z
Si Si1 0.156791 0.771024 0.474074
Si Si2 0.262074 0.443323 0.814139
Si Si3 0.627626 0.836624 0.958780
Si Si4 0.542440 0.336518 0.103308
Si Si5 0.963308 0.942900 0.302831
Si Si6 0.131783 0.322813 0.278897
O O1 0.250000 0.750000 0.500000
O O2 0.240234 0.813308 0.281715
O O3 0.137312 0.724556 0.384718
O O4 0.018984 0.799926 0.698483
O O5 0.197782 0.500000 0.906235
O O6 0.157362 0.396335 0.956928
O O7 0.335429 0.439974 0.568799
O O8 0.393012 0.439913 0.771522
O O9 0.500000 0.830267 0.000000
O O10 0.602931 0.810168 0.143866
O O11 0.465674 0.391743 0.204495
O O12 0.500000 0.311603 0.000000
O O13 0.709642 0.344265 0.910145
O O14 0.959244 0.000000 0.238652
O O15 0.000000 0.355079 0.500000
#
# Coordination Sequence:
#
# PCOD9222752 Si02
#       6
#     8   8   8   8   8   8
#     4  12  27  45  66  98 134 177 233 280 333 406
#     4   9  18  37  67  97 126 167 221 280 340 401
#     4  12  26  43  66  96 137 177 226 283 334 405
#     4  12  25  43  72  98 134 183 229 282 343 406
#     4   9  18  37  66 101 130 162 221 285 338 402
#     4  12  29  44  66  98 137 180 227 277 344 400
#
# _framework density 21.187351
#
# number of rings (size 3 to 8) (size 9 to 14) (size 15 to 20)
#    0.000    1.000    5.000    2.500    7.000    0.667 
#    0.000    0.000    0.000    2.000    0.000    0.000 
#    0.000    0.000    0.000    0.000    0.000    0.000 
#
# Total GULP energy -134106.864883 kJ/mol
# GULP energy per Si atom -5587.786037 kJ/mol
# Density = 2.113913 g / cm^3
# Si number density = 21.187351 Si / 1000 Ang^3
#
#
#
# Elastic Constant Matrix: (Units=GPa)
#
#
# Indices 1 2 3 4 5 6 
#
# 1 88.3584 3.4510 28.4504 0.0000 16.8548 0.0000
# 2 3.4510 114.8535 39.1619 0.0000 12.9929 0.0000
# 3 28.4504 39.1619 125.7392 0.0000 7.3153 0.0000
# 4 0.0000 0.0000 0.0000 24.4427 0.0000 2.9225
# 5 16.8548 12.9929 7.3153 0.0000 35.9371 0.0000
# 6 0.0000 0.0000 0.0000 2.9225 0.0000 23.3686
#
#
#
# Elastic Compliance Matrix: (Units=1/GPa)
#
#
# Indices 1 2 3 4 5 6 
#
# 1 0.013439 0.001351 -0.003103 0.000000 -0.006160 0.000000
# 2 0.001351 0.010194 -0.003268 0.000000 -0.003654 0.000000
# 3 -0.003103 -0.003268 0.009634 0.000000 0.000676 0.000000
# 4 0.000000 0.000000 0.000000 0.041533 0.000000 -0.005194
# 5 -0.006160 -0.003654 0.000676 0.000000 0.031899 0.000000
# 6 0.000000 0.000000 0.000000 -0.005194 0.000000 0.043442
#
#
# Mechanical properties :
#
#
# Convention : Reuss Voigt Hill
#
# Bulk Modulus (GPa) = 43.05482 52.34197 47.69839
# Shear Modulus (GPa) = 29.77561 33.94221 31.85891
#
# Velocity S-wave (km/s) = 3.75286 4.00685 3.88193
# Velocity P-wave (km/s) = 6.25650 6.79444 6.53101
#
# Compressibility (1/GPa) = 0.02322620
#
# Stress axis : x y z
#
# Youngs Moduli (GPa) = 74.41045 98.09869 103.80301
#
# Poissons Ratio (x) = -0.13255 0.32212
# Poissons Ratio (y) = -0.10054 0.33923
# Poissons Ratio (z) = 0.23091 0.32059
#
# Static dielectric constant tensor:
#      x y z
#    x 1.779940 0.000000 -0.020990 
#    y 0.000000 1.792660 0.000000 
#    z -0.020990 0.000000 1.775730 
# 
# From -- ./inp_files/67340.got.cif
#   From: 2010.05.17/outbox.cif.g08.bks.cpg/sg12_34_cif.got.tgz:67340.got - 2010.06.03 13:09:07.
