data_PCOD9222487
_publ_section_title
;
Structure prediction by ZEFSAII (Michael W. Deem and Ramdas Pophale) SiO2 
 PCOD9222487
Probable space group: C 2/M
;
_chemical_formula_sum "Si O2"
_cell_formula_units_Z 44
_cell_length_a 23.258180
_cell_length_b 17.126613
_cell_length_c 16.848592
_cell_angle_alpha 90.000000
_cell_angle_beta 17.959944
_cell_angle_gamma 90.000000
_cell_volume 2069.462840
_symmetry_space_group_name_H-M "C 2/M"
_symmetry_group_IT_number 12
_symmetry_cell_setting 'monoclinic'
loop_
_space_group_symop_operation_xyz
x,y,z
-x,y,-z
-x,-y,-z
x,-y,z
1/2+x,1/2+y,z
1/2-x,1/2+y,-z
1/2-x,1/2-y,-z
1/2+x,1/2-y,z
loop_
_atom_site_type_symbol
_atom_site_label
_atom_site_fract_x
_atom_site_fract_y
_atom_site_fract_z
Si Si1 0.356199 0.500000 0.019134
Si Si2 0.937852 0.729640 0.894111
Si Si3 0.287800 0.666763 0.355719
Si Si4 0.834709 0.500000 0.880580
Si Si5 0.932093 0.871108 0.801349
Si Si6 0.735414 0.500000 0.675318
Si Si7 0.294600 0.810972 0.238647
O O1 0.459221 0.426021 0.843558
O O2 0.167163 0.500000 0.213818
O O3 0.306524 0.500000 0.175756
O O4 0.085635 0.670549 0.662289
O O5 0.069511 0.785542 0.776355
O O6 0.860129 0.788374 0.929680
O O7 0.797391 0.690149 0.139849
O O8 0.337492 0.579563 0.267464
O O9 0.273413 0.721455 0.296676
O O10 0.044370 0.500000 0.630765
O O11 0.714804 0.422075 0.056516
O O12 0.125267 0.856474 0.502184
O O13 0.500000 0.837659 0.000000
#
# Coordination Sequence:
#
# PCOD9222487 Si02
#       7
#     4   8   8   4   8   4   8
#     4   8  19  33  52  75 106 137 172 227 255 298
#     4   9  16  34  48  77 110 132 168 213 272 307
#     4   9  20  29  53  80 105 133 172 222 253 324
#     4   8  21  35  53  73 108 139 175 230 252 302
#     4   8  17  32  52  76 103 140 171 219 262 304
#     4  12  19  36  55  79 101 141 181 211 275 303
#     4   9  16  31  53  73 103 144 171 208 265 321
#
# _framework density 21.261557
#
# number of rings (size 3 to 8) (size 9 to 14) (size 15 to 20)
#    1.091    1.818    0.000    2.455    0.000    1.455 
#    0.000   12.273    0.000    4.364    0.000    0.000 
#    0.000    0.000    0.000    0.000    0.000    0.000 
#
# Total GULP energy -122532.267737 kJ/mol
# GULP energy per Si atom -5569.648534 kJ/mol
# Density = 2.121316 g / cm^3
# Si number density = 21.261557 Si / 1000 Ang^3
#
#
#
# Elastic Constant Matrix: (Units=GPa)
#
#
# Indices 1 2 3 4 5 6 
#
# 1 36.0461 13.9617 26.9798 -0.0086 1.8062 -0.0084
# 2 13.9617 81.5460 38.5060 -0.0009 2.4786 0.0039
# 3 26.9798 38.5060 133.7298 -0.0124 11.1585 -0.0246
# 4 -0.0086 -0.0009 -0.0124 13.9856 0.0061 -11.9556
# 5 1.8062 2.4786 11.1585 0.0061 31.7596 0.0022
# 6 -0.0084 0.0039 -0.0246 -11.9556 0.0022 -63.0690
#
#
#
# Elastic Compliance Matrix: (Units=1/GPa)
#
#
# Indices 1 2 3 4 5 6 
#
# 1 0.033274 -0.002920 -0.005906 0.000011 0.000411 -0.000004
# 2 -0.002920 0.014453 -0.003597 -0.000002 0.000302 0.000003
# 3 -0.005906 -0.003597 0.009945 0.000003 -0.002878 -0.000004
# 4 0.000011 -0.000002 0.000003 0.061531 -0.000012 -0.011664
# 5 0.000411 0.000302 -0.002878 -0.000012 0.032451 0.000005
# 6 -0.000004 0.000003 -0.000004 -0.011664 0.000005 -0.013645
#
#
# Mechanical properties :
#
#
# Convention : Reuss Voigt Hill
#
# Bulk Modulus (GPa) = 30.46630 45.57966 38.02298
# Shear Modulus (GPa) = 28.76907 7.99354 18.38130
#
# Velocity S-wave (km/s) = 3.68244 1.94108 2.94348
# Velocity P-wave (km/s) = 5.69569 5.14858 5.42903
#
# Compressibility (1/GPa) = 0.03282316
#
# Stress axis : x y z
#
# Youngs Moduli (GPa) = 30.05386 69.19188 100.54998
#
# Poissons Ratio (x) = 0.20207 0.59388
# Poissons Ratio (y) = 0.08777 0.36173
# Poissons Ratio (z) = 0.17751 0.24892
#
# Static dielectric constant tensor:
#      x y z
#    x 1.843800 0.000000 -0.017260 
#    y 0.000000 1.785210 0.000000 
#    z -0.017260 0.000000 1.777140 
# 
# From -- ./inp_files/293594.got.cif
#   From: 2010.05.17/outbox.cif.g08.bks.cpg/sg12_147_cif.got.tgz:293594.got - 2010.06.03 13:09:07.
