data_PCOD9222982
_publ_section_title
;
Structure prediction by ZEFSAII (Michael W. Deem and Ramdas Pophale) SiO2 
 PCOD9222982
Probable space group: C 2/M
;
_chemical_formula_sum "Si O2"
_cell_formula_units_Z 64
_cell_length_a 24.733891
_cell_length_b 7.564022
_cell_length_c 17.624453
_cell_angle_alpha 90.000000
_cell_angle_beta 83.985720
_cell_angle_gamma 90.000000
_cell_volume 3279.169241
_symmetry_space_group_name_H-M "C 2/M"
_symmetry_group_IT_number 12
_symmetry_cell_setting 'monoclinic'
loop_
_space_group_symop_operation_xyz
x,y,z
-x,y,-z
-x,-y,-z
x,-y,z
1/2+x,1/2+y,z
1/2-x,1/2+y,-z
1/2-x,1/2-y,-z
1/2+x,1/2-y,z
loop_
_atom_site_type_symbol
_atom_site_label
_atom_site_fract_x
_atom_site_fract_y
_atom_site_fract_z
Si Si1 0.940430 0.715694 0.038646
Si Si2 0.765395 0.788392 0.583571
Si Si3 0.721435 0.711546 0.178680
Si Si4 0.549890 0.209311 0.238462
Si Si5 0.142334 0.212578 0.327367
Si Si6 0.313848 0.783594 0.270181
Si Si7 0.627825 0.788951 0.091305
Si Si8 0.432037 0.783541 0.214275
O O1 0.940043 0.500000 0.039549
O O2 0.932221 0.771021 0.126159
O O3 0.894598 0.775742 0.985868
O O4 0.000000 0.768496 0.000000
O O5 0.750000 0.750000 0.500000
O O6 0.825062 0.726045 0.603044
O O7 0.720754 0.725198 0.651461
O O8 0.766092 0.000000 0.590980
O O9 0.722757 0.500000 0.180658
O O10 0.680619 0.772965 0.251679
O O11 0.780550 0.770762 0.198952
O O12 0.690171 0.757307 0.106163
O O13 0.582092 0.233349 0.312294
O O14 0.587799 0.281476 0.164155
O O15 0.488562 0.277393 0.243037
O O16 0.568435 0.000000 0.783799
O O17 0.142009 0.000000 0.327447
O O18 0.375863 0.724118 0.260003
O O19 0.314115 0.000000 0.270838
O O20 0.621426 0.000000 0.091353
O O21 0.546346 0.000000 0.225399
#
# Coordination Sequence:
#
# PCOD9222982 Si02
#       8
#     8   8   8   8   8   8   8   8
#     4   9  14  22  36  58  88 115 142 179 220 255
#     4   9  17  30  49  71  90 109 137 173 211 252
#     4   8  14  26  42  57  78 111 145 174 207 252
#     4   9  15  23  40  65  86 107 142 183 213 239
#     4   8  15  27  42  61  86 112 137 168 207 252
#     4   8  15  28  44  62  85 113 144 173 207 257
#     4   9  15  23  38  61  85 107 139 185 223 245
#     4   9  15  24  41  63  86 114 146 180 215 250
#
# _framework density 19.517137999999999
#
# number of rings (size 3 to 8) (size 9 to 14) (size 15 to 20)
#    0.000    3.375    1.250    1.500    0.000    0.500 
#    0.000    2.500    0.000    3.375    0.000    5.250 
#    0.000    0.000    0.000    0.000    0.000    0.000 
#
# Total GULP energy -178148.853130 kJ/mol
# GULP energy per Si atom -5567.151660 kJ/mol
# Density = 1.947272 g / cm^3
# Si number density = 19.517138 Si / 1000 Ang^3
#
#
#
# Elastic Constant Matrix: (Units=GPa)
#
#
# Indices 1 2 3 4 5 6 
#
# 1 161.4034 5.7181 71.5322 0.0000 33.7493 0.0000
# 2 5.7181 39.4492 0.3941 0.0000 -0.4707 0.0000
# 3 71.5322 0.3941 88.4354 0.0000 30.8508 0.0000
# 4 0.0000 0.0000 0.0000 7.1594 0.0000 9.4879
# 5 33.7493 -0.4707 30.8508 0.0000 32.9054 0.0000
# 6 0.0000 0.0000 0.0000 9.4879 0.0000 11.7176
#
#
#
# Elastic Compliance Matrix: (Units=1/GPa)
#
#
# Indices 1 2 3 4 5 6 
#
# 1 0.010076 -0.001442 -0.006734 0.000000 -0.004042 0.000000
# 2 -0.001442 0.025567 0.000607 0.000000 0.001275 0.000000
# 3 -0.006734 0.000607 0.021309 0.000000 -0.013063 0.000000
# 4 0.000000 0.000000 0.000000 -1.911495 0.000000 1.547772
# 5 -0.004042 0.001275 -0.013063 0.000000 0.046801 0.000000
# 6 0.000000 0.000000 0.000000 1.547772 0.000000 -1.167917
#
#
# Mechanical properties :
#
#
# Convention : Reuss Voigt Hill
#
# Bulk Modulus (GPa) = 23.91421 49.39741 36.65581
# Shear Modulus (GPa) = -1.69688 24.46605 11.38459
#
# Velocity S-wave (km/s) = -0.93344 3.54442 2.41781
# Velocity P-wave (km/s) = 3.33433 6.48962 5.15912
#
# Compressibility (1/GPa) = 0.04181615
#
# Stress axis : x y z
#
# Youngs Moduli (GPa) = 99.24320 39.11269 46.92880
#
# Poissons Ratio (x) = 0.05638 0.31601
# Poissons Ratio (y) = 0.14306 -0.02850
# Poissons Ratio (z) = 0.66829 -0.02375
#
# Static dielectric constant tensor:
#      x y z
#    x 1.719420 0.000000 0.038580 
#    y 0.000000 1.754770 0.000000 
#    z 0.038580 0.000000 1.679760 
# 
# From -- ./inp_files/287630.got.cif
#   From: 2010.05.17/outbox.cif.g08.bks.cpg/sg12_144_cif.got.tgz:287630.got - 2010.06.03 13:09:07.
