data_PCOD9222065
_publ_section_title
;
Structure prediction by ZEFSAII (Michael W. Deem and Ramdas Pophale) SiO2 
 PCOD9222065
Probable space group: C 2/M
;
_chemical_formula_sum "Si O2"
_cell_formula_units_Z 36
_cell_length_a 20.980667
_cell_length_b 15.310037
_cell_length_c 8.378969
_cell_angle_alpha 90.000000
_cell_angle_beta 139.574673
_cell_angle_gamma 90.000000
_cell_volume 1745.287351
_symmetry_space_group_name_H-M "C 2/M"
_symmetry_group_IT_number 12
_symmetry_cell_setting 'monoclinic'
loop_
_space_group_symop_operation_xyz
x,y,z
-x,y,-z
-x,-y,-z
x,-y,z
1/2+x,1/2+y,z
1/2-x,1/2+y,-z
1/2-x,1/2-y,-z
1/2+x,1/2-y,z
loop_
_atom_site_type_symbol
_atom_site_label
_atom_site_fract_x
_atom_site_fract_y
_atom_site_fract_z
Si Si1 0.816800 0.600894 0.928755
Si Si2 0.996098 0.282542 0.803314
Si Si3 0.500000 0.656244 0.500000
Si Si4 0.220457 0.264876 0.622532
Si Si5 0.300889 0.594517 0.991957
O O1 0.810675 0.500000 0.862943
O O2 0.731107 0.667013 0.709550
O O3 0.794668 0.600391 0.075823
O O4 0.918628 0.646569 0.068987
O O5 0.998499 0.213686 0.660279
O O6 0.883581 0.313054 0.571609
O O7 0.000000 0.253293 0.000000
O O8 0.399884 0.602325 0.285337
O O9 0.250000 0.250000 0.500000
O O10 0.295197 0.325494 0.860659
O O11 0.301038 0.500000 0.911545
#
# Coordination Sequence:
#
# PCOD9222065 Si02
#       5
#     8   8   4   8   8
#     4  11  24  43  66  99 135 176 224 281 341 400
#     4  12  24  41  71 101 133 182 231 278 341 410
#     4  12  21  42  73  96 136 184 227 284 341 408
#     4  12  23  44  68  94 137 181 224 279 346 406
#     4  11  24  42  69 100 133 179 233 282 341 409
#
# _framework density 20.626975000000002
#
# number of rings (size 3 to 8) (size 9 to 14) (size 15 to 20)
#    0.000    0.444    6.667    2.333    0.000    2.222 
#    0.000    2.778    0.000    3.333    0.000    0.000 
#    0.000    0.000    0.000    0.000    0.000    0.000 
#
# Total GULP energy -100203.185338 kJ/mol
# GULP energy per Si atom -5566.843630 kJ/mol
# Density = 2.058003 g / cm^3
# Si number density = 20.626975 Si / 1000 Ang^3
#
#
#
# Elastic Constant Matrix: (Units=GPa)
#
#
# Indices 1 2 3 4 5 6 
#
# 1 102.6913 46.5744 35.0108 0.0000 1.2728 0.0000
# 2 46.5744 127.7213 29.6806 0.0000 -19.3710 0.0000
# 3 35.0108 29.6806 102.7913 0.0000 6.4935 0.0000
# 4 0.0000 0.0000 0.0000 -46.3305 0.0000 5.5039
# 5 1.2728 -19.3710 6.4935 0.0000 43.8395 0.0000
# 6 0.0000 0.0000 0.0000 5.5039 0.0000 13.2664
#
#
#
# Elastic Compliance Matrix: (Units=1/GPa)
#
#
# Indices 1 2 3 4 5 6 
#
# 1 0.012686 -0.004200 -0.002996 0.000000 -0.001780 0.000000
# 2 -0.004200 0.010585 -0.001947 0.000000 0.005088 0.000000
# 3 -0.002996 -0.001947 0.011467 0.000000 -0.002472 0.000000
# 4 0.000000 0.000000 0.000000 -0.020570 0.000000 0.008534
# 5 -0.001780 0.005088 -0.002472 0.000000 0.025476 0.000000
# 6 0.000000 0.000000 0.000000 0.008534 0.000000 0.071838
#
#
# Mechanical properties :
#
#
# Convention : Reuss Voigt Hill
#
# Bulk Modulus (GPa) = 60.78061 61.74841 61.26451
# Shear Modulus (GPa) = 36.96776 16.95093 26.95935
#
# Velocity S-wave (km/s) = 4.23804 2.86979 3.61916
# Velocity P-wave (km/s) = 7.31290 6.40169 6.87241
#
# Compressibility (1/GPa) = 0.01645262
#
# Stress axis : x y z
#
# Youngs Moduli (GPa) = 78.82605 94.47117 87.20493
#
# Poissons Ratio (x) = 0.39677 0.26124
# Poissons Ratio (y) = 0.33107 0.16982
# Poissons Ratio (z) = 0.23614 0.18397
#
# Static dielectric constant tensor:
#      x y z
#    x 1.845630 0.000000 0.000860 
#    y 0.000000 1.822220 0.000000 
#    z 0.000860 0.000000 1.776890 
# 
# From -- ./inp_files/86427.got.cif
#   From: 2010.05.17/outbox.cif.g08.bks.cpg/sg12_44_cif.got.tgz:86427.got - 2010.06.03 13:09:07.
