data_PCOD9222291
_publ_section_title
;
Structure prediction by ZEFSAII (Michael W. Deem and Ramdas Pophale) SiO2 
 PCOD9222291
Probable space group: C 2/M
;
_chemical_formula_sum "Si O2"
_cell_formula_units_Z 44
_cell_length_a 12.763829
_cell_length_b 27.030884
_cell_length_c 12.781115
_cell_angle_alpha 90.000000
_cell_angle_beta 32.253125
_cell_angle_gamma 90.000000
_cell_volume 2353.288341
_symmetry_space_group_name_H-M "C 2/M"
_symmetry_group_IT_number 12
_symmetry_cell_setting 'monoclinic'
loop_
_space_group_symop_operation_xyz
x,y,z
-x,y,-z
-x,-y,-z
x,-y,z
1/2+x,1/2+y,z
1/2-x,1/2+y,-z
1/2-x,1/2-y,-z
1/2+x,1/2-y,z
loop_
_atom_site_type_symbol
_atom_site_label
_atom_site_fract_x
_atom_site_fract_y
_atom_site_fract_z
Si Si1 0.500000 0.621139 0.500000
Si Si2 0.471791 0.140912 0.780115
Si Si3 0.232109 0.803895 0.809714
Si Si4 0.797517 0.801346 0.403589
Si Si5 0.196087 0.806100 0.163568
Si Si6 0.109061 0.558376 0.796035
O O1 0.395791 0.657639 0.672069
O O2 0.320619 0.585334 0.617819
O O3 0.339062 0.156139 0.793013
O O4 0.688532 0.157641 0.563970
O O5 0.480272 0.085459 0.815482
O O6 0.393561 0.173388 0.944297
O O7 0.287640 0.803331 0.640464
O O8 0.274840 0.749043 0.818430
O O9 0.000000 0.812785 0.000000
O O10 0.750000 0.750000 0.500000
O O11 0.031107 0.805739 0.212253
O O12 0.129065 0.500000 0.762158
O O13 0.000000 0.565886 0.000000
#
# Coordination Sequence:
#
# PCOD9222291 Si02
#       6
#     4   8   8   8   8   8
#     4  12  23  40  68  96 130 158 207 260 322 382
#     4  12  24  42  61  88 127 169 211 258 312 372
#     4  12  25  38  60  92 137 174 212 250 301 376
#     4  12  23  39  58  89 128 175 210 249 302 369
#     4  12  24  38  58  95 129 169 207 251 305 382
#     4  11  25  44  68  94 121 159 212 273 327 372
#
# _framework density 18.697241999999999
#
# number of rings (size 3 to 8) (size 9 to 14) (size 15 to 20)
#    0.000    0.182    7.273    3.545    2.545    0.000 
#    0.000    0.000    0.000    2.727    0.000    0.000 
#    0.000    0.000    0.000    0.000    0.000    0.000 
#
# Total GULP energy -122931.742657 kJ/mol
# GULP energy per Si atom -5587.806484 kJ/mol
# Density = 1.865469 g / cm^3
# Si number density = 18.697242 Si / 1000 Ang^3
#
#
#
# Elastic Constant Matrix: (Units=GPa)
#
#
# Indices 1 2 3 4 5 6 
#
# 1 107.7880 79.6346 33.9993 0.0000 10.4866 0.0000
# 2 79.6346 116.0468 25.5171 0.0000 7.5055 0.0000
# 3 33.9993 25.5171 80.6969 0.0000 8.8717 0.0000
# 4 0.0000 0.0000 0.0000 26.9812 0.0000 1.1550
# 5 10.4866 7.5055 8.8717 0.0000 38.3398 0.0000
# 6 0.0000 0.0000 0.0000 1.1550 0.0000 27.5456
#
#
#
# Elastic Compliance Matrix: (Units=1/GPa)
#
#
# Indices 1 2 3 4 5 6 
#
# 1 0.020350 -0.012892 -0.004271 0.000000 -0.002054 0.000000
# 2 -0.012892 0.017480 -0.000110 0.000000 0.000130 0.000000
# 3 -0.004271 -0.000110 0.014463 0.000000 -0.002157 0.000000
# 4 0.000000 0.000000 0.000000 0.037130 0.000000 -0.001557
# 5 -0.002054 0.000130 -0.002157 0.000000 0.027118 0.000000
# 6 0.000000 0.000000 0.000000 -0.001557 0.000000 0.036369
#
#
# Mechanical properties :
#
#
# Convention : Reuss Voigt Hill
#
# Bulk Modulus (GPa) = 56.34981 64.75929 60.55455
# Shear Modulus (GPa) = 25.85696 29.59871 27.72784
#
# Velocity S-wave (km/s) = 3.72281 3.98308 3.85514
# Velocity P-wave (km/s) = 6.97729 7.47423 7.23003
#
# Compressibility (1/GPa) = 0.01774629
#
# Stress axis : x y z
#
# Youngs Moduli (GPa) = 49.14116 57.20792 69.13981
#
# Poissons Ratio (x) = 0.73755 0.29531
# Poissons Ratio (y) = 0.63355 0.00759
# Poissons Ratio (z) = 0.20989 0.00628
#
# Static dielectric constant tensor:
#      x y z
#    x 1.718070 0.000000 -0.011800 
#    y 0.000000 1.599330 0.000000 
#    z -0.011800 0.000000 1.727670 
# 
# From -- ./inp_files/135743.got.cif
#   From: 2010.05.17/outbox.cif.g08.bks.cpg/sg12_68_cif.got.tgz:135743.got - 2010.06.03 13:09:07.
