data_PCOD9222805
_publ_section_title
;
Structure prediction by ZEFSAII (Michael W. Deem and Ramdas Pophale) SiO2 
 PCOD9222805
Probable space group: C 2/M
;
_chemical_formula_sum "Si O2"
_cell_formula_units_Z 64
_cell_length_a 15.407684
_cell_length_b 7.296704
_cell_length_c 22.000468
_cell_angle_alpha 90.000000
_cell_angle_beta 100.171729
_cell_angle_gamma 90.000000
_cell_volume 2434.534515
_symmetry_space_group_name_H-M "C 2/M"
_symmetry_group_IT_number 12
_symmetry_cell_setting 'monoclinic'
loop_
_space_group_symop_operation_xyz
x,y,z
-x,y,-z
-x,-y,-z
x,-y,z
1/2+x,1/2+y,z
1/2-x,1/2+y,-z
1/2-x,1/2-y,-z
1/2+x,1/2-y,z
loop_
_atom_site_type_symbol
_atom_site_label
_atom_site_fract_x
_atom_site_fract_y
_atom_site_fract_z
Si Si1 0.076969 0.719171 0.787686
Si Si2 0.876226 0.708106 0.965360
Si Si3 0.707581 0.719114 0.586200
Si Si4 0.614600 0.781899 0.459207
Si Si5 0.605389 0.779022 0.163510
Si Si6 0.325946 0.224079 0.084630
Si Si7 0.983573 0.718706 0.663414
Si Si8 0.296752 0.781632 0.712093
O O1 0.090624 0.500000 0.784071
O O2 0.146818 0.788004 0.845155
O O3 0.984923 0.747745 0.811616
O O4 0.058743 0.792910 0.717804
O O5 0.909098 0.500000 0.970632
O O6 0.904935 0.795538 0.905536
O O7 0.770933 0.707407 0.942221
O O8 0.887322 0.781914 0.035061
O O9 0.714007 0.500000 0.590393
O O10 0.624857 0.756260 0.532433
O O11 0.793889 0.787621 0.559647
O O12 0.721554 0.788566 0.656702
O O13 0.536091 0.710254 0.406670
O O14 0.613452 0.000000 0.450702
O O15 0.683406 0.709658 0.217790
O O16 0.617106 0.000000 0.159419
O O17 0.326089 0.000000 0.084076
O O18 0.998816 0.500000 0.661620
O O19 0.889325 0.741949 0.686677
O O20 0.283985 0.000000 0.717257
#
# Coordination Sequence:
#
# PCOD9222805 Si02
#       8
#     8   8   8   8   8   8   8   8
#     4   8  13  22  38  59  79  99 128 165 196 221
#     4   9  17  28  42  60  81 104 128 156 192 231
#     4   8  12  17  26  41  62  89 118 144 173 213
#     4   8  12  17  26  41  62  89 118 144 173 213
#     4   8  13  22  38  59  79  99 128 165 196 221
#     4   9  17  28  42  60  81 104 128 156 192 231
#     4   7  10  17  29  46  68  92 118 150 186 219
#     4   7  10  17  29  46  68  92 118 150 186 219
#
# _framework density 26.288394
#
# number of rings (size 3 to 8) (size 9 to 14) (size 15 to 20)
#    0.000    4.000    0.000    3.000    0.000    0.500 
#    0.000    2.500    0.000    2.250    0.000    7.000 
#    0.000    1.000    0.000   12.500    0.000   10.500 
#
# Total GULP energy -178387.571548 kJ/mol
# GULP energy per Si atom -5574.611611 kJ/mol
# Density = 2.622856 g / cm^3
# Si number density = 26.288394 Si / 1000 Ang^3
#
#
#
# Elastic Constant Matrix: (Units=GPa)
#
#
# Indices 1 2 3 4 5 6 
#
# 1 21.5338 4.1394 137.4631 0.0000 -29.4284 0.0000
# 2 4.1394 115.6794 7.6016 0.0000 5.2197 0.0000
# 3 137.4631 7.6016 116.1005 0.0000 88.0961 0.0000
# 4 0.0000 0.0000 0.0000 -7.5835 0.0000 -0.5966
# 5 -29.4284 5.2197 88.0961 0.0000 22.1964 0.0000
# 6 0.0000 0.0000 0.0000 -0.5966 0.0000 -8.9690
#
#
#
# Elastic Compliance Matrix: (Units=1/GPa)
#
#
# Indices 1 2 3 4 5 6 
#
# 1 0.003857 0.000108 0.004193 0.000000 -0.011555 0.000000
# 2 0.000108 0.008684 -0.000370 0.000000 -0.000429 0.000000
# 3 0.004193 -0.000370 0.000304 0.000000 0.004439 0.000000
# 4 0.000000 0.000000 0.000000 -0.132559 0.000000 0.008818
# 5 -0.011555 -0.000429 0.004439 0.000000 0.012217 0.000000
# 6 0.000000 0.000000 0.000000 0.008818 0.000000 -0.112082
#
#
# Mechanical properties :
#
#
# Convention : Reuss Voigt Hill
#
# Bulk Modulus (GPa) = 48.29020 61.30243 54.79631
# Shear Modulus (GPa) = -22.67202 8.06943 -7.30129
#
# Velocity S-wave (km/s) = -2.93991 1.75392 -1.66836
# Velocity P-wave (km/s) = 2.62396 5.24132 4.14468
#
# Compressibility (1/GPa) = 0.02070813
#
# Stress axis : x y z
#
# Youngs Moduli (GPa) = 259.24317 115.14843 3284.61219
#
# Poissons Ratio (x) = -0.01241 -13.77398
# Poissons Ratio (y) = -0.02794 1.21642
# Poissons Ratio (z) = -1.08713 0.04264
#
# Static dielectric constant tensor:
#      x y z
#    x 2.054210 0.000000 -0.001110 
#    y 0.000000 1.947360 0.000000 
#    z -0.001110 0.000000 2.164550 
# 
# From -- ./inp_files/320728.got.cif
#   From: 2010.05.17/outbox.cif.g08.bks.cpg/sg12_161_cif.got.tgz:320728.got - 2010.06.03 13:09:07.
