data_PCOD9222249
_publ_section_title
;
Structure prediction by ZEFSAII (Michael W. Deem and Ramdas Pophale) SiO2 
 PCOD9222249
Probable space group: C 2/M
;
_chemical_formula_sum "Si O2"
_cell_formula_units_Z 64
_cell_length_a 19.367227
_cell_length_b 17.914544
_cell_length_c 14.529361
_cell_angle_alpha 90.000000
_cell_angle_beta 140.874092
_cell_angle_gamma 90.000000
_cell_volume 3181.027476
_symmetry_space_group_name_H-M "C 2/M"
_symmetry_group_IT_number 12
_symmetry_cell_setting 'monoclinic'
loop_
_space_group_symop_operation_xyz
x,y,z
-x,y,-z
-x,-y,-z
x,-y,z
1/2+x,1/2+y,z
1/2-x,1/2+y,-z
1/2-x,1/2-y,-z
1/2+x,1/2-y,z
loop_
_atom_site_type_symbol
_atom_site_label
_atom_site_fract_x
_atom_site_fract_y
_atom_site_fract_z
Si Si1 0.607620 0.159613 0.883964
Si Si2 0.809271 0.829909 0.572614
Si Si3 0.667544 0.153270 0.158283
Si Si4 0.284488 0.412054 0.929156
Si Si5 0.606928 0.912251 0.283409
Si Si6 0.369382 0.671768 0.846819
Si Si7 0.442949 0.329584 0.213954
Si Si8 0.617302 0.414368 0.669299
O O1 0.690857 0.125717 0.895649
O O2 0.485554 0.127073 0.750372
O O3 0.600185 0.248741 0.862647
O O4 0.640844 0.139021 0.023277
O O5 0.750000 0.750000 0.500000
O O6 0.724981 0.889423 0.444824
O O7 0.838378 0.843160 0.709418
O O8 0.926686 0.828253 0.644844
O O9 0.598026 0.118249 0.169563
O O10 0.658509 0.241733 0.162208
O O11 0.787200 0.117560 0.295518
O O12 0.268115 0.500000 0.910363
O O13 0.297144 0.377679 0.841047
O O14 0.399066 0.389615 0.095628
O O15 0.590709 0.000000 0.266663
O O16 0.500000 0.661806 0.000000
O O17 0.392188 0.357104 0.256498
O O18 0.500000 0.416213 0.500000
O O19 0.643814 0.500000 0.725460
#
# Coordination Sequence:
#
# PCOD9222249 Si02
#       8
#     8   8   8   8   8   8   8   8
#     4  12  24  45  69 100 140 183 232 276 337 418
#     4  12  24  46  73 101 135 176 230 282 338 407
#     4  12  22  41  70  98 135 178 232 277 335 416
#     4  12  26  43  68 103 136 176 231 289 343 393
#     4  12  27  43  69 105 141 179 222 283 351 407
#     4  12  24  46  72  98 130 177 233 284 334 407
#     4  12  22  43  71  96 132 181 229 282 337 404
#     4  11  25  40  59  97 142 177 219 279 350 410
#
# _framework density 20.119284
#
# number of rings (size 3 to 8) (size 9 to 14) (size 15 to 20)
#    0.000    0.125    6.250    4.125    0.000    4.750 
#    0.000    0.625    0.000    1.500    0.000    0.000 
#    0.000    0.000    0.000    0.000    0.000    0.000 
#
# Total GULP energy -178948.170960 kJ/mol
# GULP energy per Si atom -5592.130343 kJ/mol
# Density = 2.007349 g / cm^3
# Si number density = 20.119284 Si / 1000 Ang^3
#
#
#
# Elastic Constant Matrix: (Units=GPa)
#
#
# Indices 1 2 3 4 5 6 
#
# 1 132.7812 45.5130 42.8337 0.0000 14.3015 0.0000
# 2 45.5130 86.8225 15.6482 0.0000 -3.3136 0.0000
# 3 42.8337 15.6482 91.5726 0.0000 3.6103 0.0000
# 4 0.0000 0.0000 0.0000 19.9200 0.0000 0.6764
# 5 14.3015 -3.3136 3.6103 0.0000 41.4407 0.0000
# 6 0.0000 0.0000 0.0000 0.6764 0.0000 7.8502
#
#
#
# Elastic Compliance Matrix: (Units=1/GPa)
#
#
# Indices 1 2 3 4 5 6 
#
# 1 0.011066 -0.005204 -0.004134 0.000000 -0.003875 0.000000
# 2 -0.005204 0.014384 -0.000141 0.000000 0.002958 0.000000
# 3 -0.004134 -0.000141 0.012866 0.000000 0.000295 0.000000
# 4 0.000000 0.000000 0.000000 0.050348 0.000000 -0.004338
# 5 -0.003875 0.002958 0.000295 0.000000 0.025679 0.000000
# 6 0.000000 0.000000 0.000000 -0.004338 0.000000 0.127759
#
#
# Mechanical properties :
#
#
# Convention : Reuss Voigt Hill
#
# Bulk Modulus (GPa) = 51.65427 57.68514 54.66970
# Shear Modulus (GPa) = 18.69075 27.65427 23.17251
#
# Velocity S-wave (km/s) = 3.05125 3.71147 3.39743
# Velocity P-wave (km/s) = 6.17602 6.86298 6.52854
#
# Compressibility (1/GPa) = 0.01935948
#
# Stress axis : x y z
#
# Youngs Moduli (GPa) = 90.36891 69.52302 77.72143
#
# Poissons Ratio (x) = 0.36177 0.32131
# Poissons Ratio (y) = 0.47024 0.01093
# Poissons Ratio (z) = 0.37360 0.00977
#
# Static dielectric constant tensor:
#      x y z
#    x 1.711320 0.000000 -0.000200 
#    y 0.000000 1.667380 0.000000 
#    z -0.000200 0.000000 1.742230 
# 
# From -- ./inp_files/226871.got.cif
#   From: 2010.05.17/outbox.cif.g08.bks.cpg/sg12_114_cif.got.tgz:226871.got - 2010.06.03 13:09:07.
