data_PCOD9222093
_publ_section_title
;
Structure prediction by ZEFSAII (Michael W. Deem and Ramdas Pophale) SiO2 
 PCOD9222093
Probable space group: C 2/M
;
_chemical_formula_sum "Si O2"
_cell_formula_units_Z 50
_cell_length_a 31.100798
_cell_length_b 7.635547
_cell_length_c 32.046572
_cell_angle_alpha 90.000000
_cell_angle_beta 161.460669
_cell_angle_gamma 90.000000
_cell_volume 2419.689813
_symmetry_space_group_name_H-M "C 2/M"
_symmetry_group_IT_number 12
_symmetry_cell_setting 'monoclinic'
loop_
_space_group_symop_operation_xyz
x,y,z
-x,y,-z
-x,-y,-z
x,-y,z
1/2+x,1/2+y,z
1/2-x,1/2+y,-z
1/2-x,1/2-y,-z
1/2+x,1/2-y,z
loop_
_atom_site_type_symbol
_atom_site_label
_atom_site_fract_x
_atom_site_fract_y
_atom_site_fract_z
Si Si1 0.743218 0.788099 0.127137
Si Si2 0.542300 0.287179 0.426380
Si Si3 0.324690 0.290178 0.111416
Si Si4 0.178850 0.797119 0.638384
Si Si5 0.118038 0.790036 0.405040
Si Si6 0.525447 0.705611 0.069924
Si Si7 0.000000 0.500000 0.500000
O O1 0.751069 0.729100 0.086027
O O2 0.885417 0.732218 0.278945
O O3 0.742937 0.000000 0.127549
O O4 0.609515 0.728698 0.027366
O O5 0.543887 0.500000 0.428218
O O6 0.617819 0.232803 0.537793
O O7 0.614271 0.228208 0.449701
O O8 0.330123 0.500000 0.119582
O O9 0.479511 0.225241 0.256109
O O10 0.250000 0.250000 0.000000
O O11 0.340622 0.788781 0.787320
O O12 0.115533 0.657153 0.611707
O O13 0.140841 0.000000 0.610976
O O14 0.250000 0.750000 0.500000
O O15 0.109160 0.000000 0.399045
O O16 0.554234 0.500000 0.092945
O O17 0.500000 0.776906 0.000000
#
# Coordination Sequence:
#
# PCOD9222093 Si02
#       7
#     8   8   8   8   8   8   2
#     4   9  19  38  61  83 112 155 201 246 299 363
#     4   8  18  38  62  84 113 154 203 245 299 367
#     4   9  19  35  56  82 115 152 195 241 294 357
#     4  11  24  43  67  91 121 164 203 250 310 361
#     4   9  18  35  55  83 116 152 195 244 293 353
#     4  11  25  42  59  88 126 158 199 255 305 360
#     4  12  26  44  62  98 128 152 208 260 296 370
#
# _framework density 20.663806000000001
#
# number of rings (size 3 to 8) (size 9 to 14) (size 15 to 20)
#    0.000    2.400    0.800    2.640    2.240    3.840 
#    1.440    6.400    0.000    0.000    0.000    0.000 
#    0.000    0.000    0.000    0.000    0.000    0.000 
#
# Total GULP energy -139300.863317 kJ/mol
# GULP energy per Si atom -5572.034533 kJ/mol
# Density = 2.061677 g / cm^3
# Si number density = 20.663806 Si / 1000 Ang^3
#
#
#
# Elastic Constant Matrix: (Units=GPa)
#
#
# Indices 1 2 3 4 5 6 
#
# 1 132.7705 8.3701 101.2057 -0.0020 10.5639 -0.0006
# 2 8.3701 75.7740 8.8719 -0.0018 0.4682 0.0000
# 3 101.2057 8.8719 147.8200 0.0151 1.4485 0.0035
# 4 -0.0020 -0.0018 0.0151 24.5579 0.0052 11.5446
# 5 10.5639 0.4682 1.4485 0.0052 44.5717 0.0011
# 6 -0.0006 0.0000 0.0035 11.5446 0.0011 17.9629
#
#
#
# Elastic Compliance Matrix: (Units=1/GPa)
#
#
# Indices 1 2 3 4 5 6 
#
# 1 0.016298 -0.000480 -0.011095 0.000011 -0.003497 -0.000004
# 2 -0.000480 0.013305 -0.000470 0.000002 -0.000011 -0.000001
# 3 -0.011095 -0.000470 0.014368 -0.000012 0.002168 0.000005
# 4 0.000011 0.000002 -0.000012 0.058349 -0.000008 -0.037501
# 5 -0.003497 -0.000011 0.002168 -0.000008 0.023194 0.000003
# 6 -0.000004 -0.000001 0.000005 -0.037501 0.000003 0.079772
#
#
# Mechanical properties :
#
#
# Convention : Reuss Voigt Hill
#
# Bulk Modulus (GPa) = 50.29817 65.91776 58.10797
# Shear Modulus (GPa) = 21.18613 33.27963 27.23288
#
# Velocity S-wave (km/s) = 3.20547 4.01749 3.63423
# Velocity P-wave (km/s) = 6.17204 7.31366 6.76697
#
# Compressibility (1/GPa) = 0.01988144
#
# Stress axis : x y z
#
# Youngs Moduli (GPa) = 61.35800 75.15846 69.59710
#
# Poissons Ratio (x) = 0.03604 0.77220
# Poissons Ratio (y) = 0.02943 0.03272
# Poissons Ratio (z) = 0.68079 0.03533
#
# Static dielectric constant tensor:
#      x y z
#    x 1.758410 0.000000 -0.003850 
#    y 0.000000 1.785350 0.000000 
#    z -0.003850 0.000000 1.712450 
# 
# From -- ./inp_files/384883.got.cif
#   From: 2010.05.17/outbox.cif.g08.bks.cpg/sg12_193_cif.got.tgz:384883.got - 2010.06.03 13:09:07.
