data_PCOD9222586
_publ_section_title
;
Structure prediction by ZEFSAII (Michael W. Deem and Ramdas Pophale) SiO2 
 PCOD9222586
Probable space group: C 2/M
;
_chemical_formula_sum "Si O2"
_cell_formula_units_Z 56
_cell_length_a 8.223196
_cell_length_b 30.698035
_cell_length_c 16.788246
_cell_angle_alpha 90.000000
_cell_angle_beta 142.364927
_cell_angle_gamma 90.000000
_cell_volume 2587.823841
_symmetry_space_group_name_H-M "C 2/M"
_symmetry_group_IT_number 12
_symmetry_cell_setting 'monoclinic'
loop_
_space_group_symop_operation_xyz
x,y,z
-x,y,-z
-x,-y,-z
x,-y,z
1/2+x,1/2+y,z
1/2-x,1/2+y,-z
1/2-x,1/2-y,-z
1/2+x,1/2-y,z
loop_
_atom_site_type_symbol
_atom_site_label
_atom_site_fract_x
_atom_site_fract_y
_atom_site_fract_z
Si Si1 0.060597 0.550247 0.319602
Si Si2 0.341104 0.375869 0.855220
Si Si3 0.524268 0.206268 0.760257
Si Si4 0.500000 0.175805 0.000000
Si Si5 0.959988 0.864242 0.247219
Si Si6 0.750000 0.750000 0.000000
Si Si7 0.516685 0.720435 0.371621
Si Si8 0.052001 0.948588 0.387430
O O1 0.988817 0.500000 0.294362
O O2 0.197878 0.560784 0.457645
O O3 0.290661 0.555360 0.342206
O O4 0.805185 0.578252 0.201970
O O5 0.482047 0.369057 0.824568
O O6 0.108357 0.340101 0.762613
O O7 0.500000 0.370805 0.000000
O O8 0.624174 0.243744 0.739381
O O9 0.209271 0.208324 0.652693
O O10 0.674572 0.216856 0.899180
O O11 0.355614 0.147183 0.876605
O O12 0.281917 0.209319 0.948849
O O13 0.085397 0.822705 0.345480
O O14 0.031541 0.910096 0.315398
O O15 0.750000 0.750000 0.500000
O O16 0.067707 0.000000 0.367558
#
# Coordination Sequence:
#
# PCOD9222586 Si02
#       8
#     8   8   8   4   8   4   8   8
#     4   9  21  47  76 105 140 184 231 288 357 428
#     4  12  29  42  70 104 143 192 240 292 354 422
#     4  12  25  44  65  96 135 181 236 286 344 409
#     4  12  26  42  67  94 134 186 239 290 334 416
#     4  12  26  45  68 106 143 184 242 292 353 425
#     4  12  22  42  66  90 124 182 236 284 332 408
#     4  12  27  45  67  96 138 185 230 292 353 412
#     4   9  21  46  80 107 138 183 233 289 360 430
#
# _framework density 21.639804000000002
#
# number of rings (size 3 to 8) (size 9 to 14) (size 15 to 20)
#    0.000    0.857    2.857    3.857    9.000    1.429 
#    0.000    1.786    0.000    0.000    0.000    0.000 
#    0.000    0.000    0.000    0.000    0.000    0.000 
#
# Total GULP energy -155881.385706 kJ/mol
# GULP energy per Si atom -5567.192347 kJ/mol
# Density = 2.159055 g / cm^3
# Si number density = 21.639804 Si / 1000 Ang^3
#
#
#
# Elastic Constant Matrix: (Units=GPa)
#
#
# Indices 1 2 3 4 5 6 
#
# 1 75.9557 54.9048 38.9876 0.0000 -10.2106 0.0000
# 2 54.9048 113.8954 71.5649 0.0000 -11.7666 0.0000
# 3 38.9876 71.5649 80.2618 0.0000 -14.2512 0.0000
# 4 0.0000 0.0000 0.0000 30.3538 0.0000 2.3288
# 5 -10.2106 -11.7666 -14.2512 0.0000 27.7981 0.0000
# 6 0.0000 0.0000 0.0000 2.3288 0.0000 29.8135
#
#
#
# Elastic Compliance Matrix: (Units=1/GPa)
#
#
# Indices 1 2 3 4 5 6 
#
# 1 0.020668 -0.008368 -0.002045 0.000000 0.003001 0.000000
# 2 -0.008368 0.023368 -0.017119 0.000000 -0.001959 0.000000
# 3 -0.002045 -0.017119 0.030030 0.000000 0.007398 0.000000
# 4 0.000000 0.000000 0.000000 0.033143 0.000000 -0.002589
# 5 0.003001 -0.001959 0.007398 0.000000 0.040040 0.000000
# 6 0.000000 0.000000 0.000000 -0.002589 0.000000 0.033744
#
#
# Mechanical properties :
#
#
# Convention : Reuss Voigt Hill
#
# Bulk Modulus (GPa) = 52.62737 66.78083 59.70410
# Shear Modulus (GPa) = 20.62781 24.57012 22.59897
#
# Velocity S-wave (km/s) = 3.09080 3.37325 3.23511
# Velocity P-wave (km/s) = 6.09179 6.78962 6.45015
#
# Compressibility (1/GPa) = 0.01900152
#
# Stress axis : x y z
#
# Youngs Moduli (GPa) = 48.38487 42.79369 33.29963
#
# Poissons Ratio (x) = 0.35809 0.06811
# Poissons Ratio (y) = 0.40488 0.57005
# Poissons Ratio (z) = 0.09897 0.73258
#
# Static dielectric constant tensor:
#      x y z
#    x 1.879060 0.000000 0.055510 
#    y 0.000000 1.741070 0.000000 
#    z 0.055510 0.000000 1.906330 
# 
# From -- ./inp_files/259909.got.cif
#   From: 2010.05.17/outbox.cif.g08.bks.cpg/sg12_130_cif.got.tgz:259909.got - 2010.06.03 13:09:07.
