data_PCOD9222332
_publ_section_title
;
Structure prediction by ZEFSAII (Michael W. Deem and Ramdas Pophale) SiO2 
 PCOD9222332
Probable space group: C 2/M
;
_chemical_formula_sum "Si O2"
_cell_formula_units_Z 30
_cell_length_a 10.405743
_cell_length_b 21.509280
_cell_length_c 11.787309
_cell_angle_alpha 90.000000
_cell_angle_beta 148.182313
_cell_angle_gamma 90.000000
_cell_volume 1390.925832
_symmetry_space_group_name_H-M "C 2/M"
_symmetry_group_IT_number 12
_symmetry_cell_setting 'monoclinic'
loop_
_space_group_symop_operation_xyz
x,y,z
-x,y,-z
-x,-y,-z
x,-y,z
1/2+x,1/2+y,z
1/2-x,1/2+y,-z
1/2-x,1/2-y,-z
1/2+x,1/2-y,z
loop_
_atom_site_type_symbol
_atom_site_label
_atom_site_fract_x
_atom_site_fract_y
_atom_site_fract_z
Si Si1 0.435724 0.929384 0.820312
Si Si2 0.231510 0.255106 0.849655
Si Si3 0.000000 0.500000 0.500000
Si Si4 0.500000 0.335364 0.500000
Si Si5 0.778322 0.398033 0.170633
O O1 0.672902 0.913588 0.924048
O O2 0.226400 0.879632 0.639589
O O3 0.355100 0.000000 0.735174
O O4 0.500000 0.925434 0.000000
O O5 0.060364 0.207232 0.654429
O O6 0.160080 0.325802 0.766186
O O7 0.500000 0.244106 0.000000
O O8 0.250000 0.250000 0.000000
O O9 0.057691 0.445459 0.637207
O O10 0.500000 0.408085 0.000000
#
# Coordination Sequence:
#
# PCOD9222332 Si02
#       5
#     8   8   2   4   8
#     4  11  25  46  70 100 139 185 236 288 350 411
#     4  11  25  45  71 103 141 186 232 294 355 415
#     4  12  24  40  66 102 138 176 226 276 350 422
#     4  12  24  44  72 106 140 184 240 288 346 426
#     4  11  25  46  69 101 138 182 225 289 351 417
#
# _framework density 21.568366999999999
#
# number of rings (size 3 to 8) (size 9 to 14) (size 15 to 20)
#    0.000    0.800    1.333    5.600    0.000   10.667 
#    4.800    0.000    0.000    0.000    0.000    0.000 
#    0.000    0.000    0.000    0.000    0.000    0.000 
#
# Total GULP energy -83675.250606 kJ/mol
# GULP energy per Si atom -5578.350040 kJ/mol
# Density = 2.151928 g / cm^3
# Si number density = 21.568367 Si / 1000 Ang^3
#
#
#
# Elastic Constant Matrix: (Units=GPa)
#
#
# Indices 1 2 3 4 5 6 
#
# 1 187.5462 50.2490 58.7973 0.0004 -19.2110 -0.0001
# 2 50.2490 187.0769 79.8565 0.0003 -13.1480 -0.0001
# 3 58.7973 79.8565 81.0503 0.0003 -25.8212 -0.0001
# 4 0.0004 0.0003 0.0003 9.0962 0.0002 -5.2847
# 5 -19.2110 -13.1480 -25.8212 0.0002 22.5561 -0.0001
# 6 -0.0001 -0.0001 -0.0001 -5.2847 -0.0001 32.3966
#
#
#
# Elastic Compliance Matrix: (Units=1/GPa)
#
#
# Indices 1 2 3 4 5 6 
#
# 1 0.006928 0.000515 -0.005600 0.000000 -0.000210 0.000000
# 2 0.000515 0.010258 -0.013278 0.000000 -0.008782 0.000000
# 3 -0.005600 -0.013278 0.040135 -0.000001 0.033435 0.000000
# 4 0.000000 0.000000 -0.000001 0.121445 -0.000002 0.019811
# 5 -0.000210 -0.008782 0.033435 -0.000002 0.077311 0.000000
# 6 0.000000 0.000000 0.000000 0.019811 0.000000 0.034099
#
#
# Mechanical properties :
#
#
# Convention : Reuss Voigt Hill
#
# Bulk Modulus (GPa) = 48.55737 92.60877 70.58307
# Shear Modulus (GPa) = 14.98046 30.59449 22.78748
#
# Velocity S-wave (km/s) = 2.63830 3.77037 3.25395
# Velocity P-wave (km/s) = 5.64296 7.87304 6.84937
#
# Compressibility (1/GPa) = 0.02059420
#
# Stress axis : x y z
#
# Youngs Moduli (GPa) = 144.33574 97.48641 24.91582
#
# Poissons Ratio (x) = -0.05019 0.13953
# Poissons Ratio (y) = -0.07431 0.33084
# Poissons Ratio (z) = 0.80831 1.29444
#
# Static dielectric constant tensor:
#      x y z
#    x 1.792930 0.000000 -0.020310 
#    y 0.000000 1.779990 0.000000 
#    z -0.020310 0.000000 1.715990 
# 
# From -- ./inp_files/6112.got.cif
#   From: 2010.05.17/outbox.cif.g08.bks.cpg/sg12_4_cif.got.tgz:6112.got - 2010.06.03 13:09:07.
