data_PCOD9222339
_publ_section_title
;
Structure prediction by ZEFSAII (Michael W. Deem and Ramdas Pophale) SiO2 
 PCOD9222339
Probable space group: C 2/M
;
_chemical_formula_sum "Si O2"
_cell_formula_units_Z 36
_cell_length_a 7.416414
_cell_length_b 22.512905
_cell_length_c 9.287405
_cell_angle_alpha 90.000000
_cell_angle_beta 62.671687
_cell_angle_gamma 90.000000
_cell_volume 1377.602062
_symmetry_space_group_name_H-M "C 2/M"
_symmetry_group_IT_number 12
_symmetry_cell_setting 'monoclinic'
loop_
_space_group_symop_operation_xyz
x,y,z
-x,y,-z
-x,-y,-z
x,-y,z
1/2+x,1/2+y,z
1/2-x,1/2+y,-z
1/2-x,1/2-y,-z
1/2+x,1/2-y,z
loop_
_atom_site_type_symbol
_atom_site_label
_atom_site_fract_x
_atom_site_fract_y
_atom_site_fract_z
Si Si1 0.194571 0.370492 0.751671
Si Si2 0.856586 0.721041 0.821483
Si Si3 0.167438 0.000000 0.645970
Si Si4 0.920800 0.884306 0.181737
Si Si5 0.500000 0.302319 0.500000
Si Si6 0.692508 0.000000 0.726621
O O1 0.029586 0.320236 0.826504
O O2 0.379554 0.371975 0.796329
O O3 0.310552 0.348607 0.562659
O O4 0.099969 0.436029 0.794822
O O5 0.700060 0.676113 0.802274
O O6 0.451771 0.739082 0.656297
O O7 0.750000 0.750000 0.000000
O O8 0.210111 0.061839 0.707659
O O9 0.274856 0.000000 0.454954
O O10 0.921748 0.000000 0.708736
O O11 0.000000 0.906383 0.000000
#
# Coordination Sequence:
#
# PCOD9222339 Si02
#       6
#     8   8   4   8   4   4
#     4  11  26  50  77 112 155 203 262 325 396 462
#     4  12  31  49  74 116 157 208 268 322 387 475
#     4   9  19  41  72 113 152 193 261 320 396 463
#     4  11  25  45  75 108 152 208 257 322 393 464
#     4  12  28  47  78 109 156 208 258 318 390 474
#     4   9  20  43  80 110 146 200 257 329 391 464
#
# _framework density 26.132365
#
# number of rings (size 3 to 8) (size 9 to 14) (size 15 to 20)
#    0.000    1.111    0.000    5.000   12.444    4.444 
#    0.000    1.111    0.000   12.000    0.000    0.000 
#    0.000    0.000    0.000    0.000    0.000    0.000 
#
# Total GULP energy -100805.630686 kJ/mol
# GULP energy per Si atom -5600.312816 kJ/mol
# Density = 2.607289 g / cm^3
# Si number density = 26.132365 Si / 1000 Ang^3
#
#
#
# Elastic Constant Matrix: (Units=GPa)
#
#
# Indices 1 2 3 4 5 6 
#
# 1 101.9577 50.3292 40.1870 0.0000 7.2316 0.0000
# 2 50.3292 228.4429 98.6526 0.0000 -6.0282 0.0000
# 3 40.1870 98.6526 123.2758 0.0000 -1.8445 0.0000
# 4 0.0000 0.0000 0.0000 19.1139 0.0000 29.5909
# 5 7.2316 -6.0282 -1.8445 0.0000 41.7018 0.0000
# 6 0.0000 0.0000 0.0000 29.5909 0.0000 -38.2885
#
#
#
# Elastic Compliance Matrix: (Units=1/GPa)
#
#
# Indices 1 2 3 4 5 6 
#
# 1 0.011771 -0.001503 -0.002670 0.000000 -0.002377 0.000000
# 2 -0.001503 0.006903 -0.005019 0.000000 0.001037 0.000000
# 3 -0.002670 -0.005019 0.013004 0.000000 0.000313 0.000000
# 4 0.000000 0.000000 0.000000 0.023819 0.000000 0.018408
# 5 -0.002377 0.001037 0.000313 0.000000 0.024556 0.000000
# 6 0.000000 0.000000 0.000000 0.018408 0.000000 -0.011891
#
#
# Mechanical properties :
#
#
# Convention : Reuss Voigt Hill
#
# Bulk Modulus (GPa) = 75.22346 92.44601 83.83474
# Shear Modulus (GPa) = 54.95893 22.13930 38.54911
#
# Velocity S-wave (km/s) = 4.59093 2.91383 3.84493
# Velocity P-wave (km/s) = 7.54654 6.83911 7.20151
#
# Compressibility (1/GPa) = 0.01329372
#
# Stress axis : x y z
#
# Youngs Moduli (GPa) = 84.95565 144.85613 76.90228
#
# Poissons Ratio (x) = 0.21771 0.20533
# Poissons Ratio (y) = 0.12768 0.38598
# Poissons Ratio (z) = 0.22683 0.72704
#
# Static dielectric constant tensor:
#      x y z
#    x 2.137670 0.000000 -0.001710 
#    y 0.000000 2.117990 0.000000 
#    z -0.001710 0.000000 2.058780 
# 
# From -- ./inp_files/46681.got.cif
#   From: 2010.05.17/outbox.cif.g08.bks.cpg/sg12_24_cif.got.tgz:46681.got - 2010.06.03 13:09:07.
