data_PCOD9222830
_publ_section_title
;
Structure prediction by ZEFSAII (Michael W. Deem and Ramdas Pophale) SiO2 
 PCOD9222830
Probable space group: C 2/M
;
_chemical_formula_sum "Si O2"
_cell_formula_units_Z 48
_cell_length_a 9.258624
_cell_length_b 33.019971
_cell_length_c 14.772663
_cell_angle_alpha 90.000000
_cell_angle_beta 23.146929
_cell_angle_gamma 90.000000
_cell_volume 1775.310575
_symmetry_space_group_name_H-M "C 2/M"
_symmetry_group_IT_number 12
_symmetry_cell_setting 'monoclinic'
loop_
_space_group_symop_operation_xyz
x,y,z
-x,y,-z
-x,-y,-z
x,-y,z
1/2+x,1/2+y,z
1/2-x,1/2+y,-z
1/2-x,1/2-y,-z
1/2+x,1/2-y,z
loop_
_atom_site_type_symbol
_atom_site_label
_atom_site_fract_x
_atom_site_fract_y
_atom_site_fract_z
Si Si1 0.980547 0.956477 0.384425
Si Si2 0.905259 0.788947 0.229342
Si Si3 0.430460 0.717427 0.672478
Si Si4 0.147690 0.043227 0.074661
Si Si5 0.496558 0.369828 0.372814
Si Si6 0.135800 0.129544 0.081549
O O1 0.998171 0.956523 0.264715
O O2 0.827147 0.912580 0.502542
O O3 0.817198 0.000000 0.507068
O O4 0.408573 0.956829 0.169004
O O5 0.500000 0.799104 0.500000
O O6 0.857547 0.743275 0.220206
O O7 0.158698 0.790858 0.171623
O O8 0.021803 0.827800 0.103000
O O9 0.602937 0.675302 0.537845
O O10 0.750000 0.750000 0.500000
O O11 0.034042 0.086178 0.097897
O O12 0.034070 0.000000 0.099393
O O13 0.465567 0.370926 0.281573
O O14 0.927655 0.370546 0.151469
#
# Coordination Sequence:
#
# PCOD9222830 Si02
#       6
#     8   8   8   8   8   8
#     4   7   9  14  26  46  71  94 114 142 181 218
#     4   9  17  28  40  53  72  98 127 154 183 219
#     4   9  17  28  40  54  73  98 126 153 183 219
#     4   7   9  14  26  45  69  95 119 141 173 218
#     4   8  13  21  34  53  75  96 121 152 185 218
#     4   8  13  21  34  52  73  98 123 150 184 218
#
# _framework density 27.037521999999999
#
# number of rings (size 3 to 8) (size 9 to 14) (size 15 to 20)
#    0.000    4.000    0.000    3.000    0.000    0.667 
#    0.000    0.000    0.000    0.500    0.000    3.500 
#    0.000    7.333    0.000    8.500    0.000    6.667 
#
# Total GULP energy -133743.644082 kJ/mol
# GULP energy per Si atom -5572.651837 kJ/mol
# Density = 2.697598 g / cm^3
# Si number density = 27.037522 Si / 1000 Ang^3
#
#
#
# Elastic Constant Matrix: (Units=GPa)
#
#
# Indices 1 2 3 4 5 6 
#
# 1 71.0700 18.1028 15.3136 0.0000 -5.0908 0.0000
# 2 18.1028 368.7549 15.6142 0.0000 -1.4245 0.0000
# 3 15.3136 15.6142 44.1671 0.0000 -12.4333 0.0000
# 4 0.0000 0.0000 0.0000 4.8804 0.0000 11.8885
# 5 -5.0908 -1.4245 -12.4333 0.0000 22.8592 0.0000
# 6 0.0000 0.0000 0.0000 11.8885 0.0000 -3.6399
#
#
#
# Elastic Compliance Matrix: (Units=1/GPa)
#
#
# Indices 1 2 3 4 5 6 
#
# 1 0.015319 -0.000541 -0.004923 0.000000 0.000700 0.000000
# 2 -0.000541 0.002776 -0.000920 0.000000 -0.000448 0.000000
# 3 -0.004923 -0.000920 0.028751 0.000000 0.014484 0.000000
# 4 0.000000 0.000000 0.000000 0.022878 0.000000 0.074723
# 5 0.000700 -0.000448 0.014484 0.000000 0.051752 0.000000
# 6 0.000000 0.000000 0.000000 0.074723 0.000000 -0.030675
#
#
# Mechanical properties :
#
#
# Convention : Reuss Voigt Hill
#
# Bulk Modulus (GPa) = 29.34443 64.67259 47.00851
# Shear Modulus (GPa) = 43.50569 33.81737 38.66153
#
# Velocity S-wave (km/s) = 4.01569 3.54044 3.78553
# Velocity P-wave (km/s) = 5.69015 6.37844 6.04410
#
# Compressibility (1/GPa) = 0.03407802
#
# Stress axis : x y z
#
# Youngs Moduli (GPa) = 65.27674 360.28288 34.78172
#
# Poissons Ratio (x) = 0.19487 0.17124
# Poissons Ratio (y) = 0.03531 0.03199
# Poissons Ratio (z) = 0.32137 0.33137
#
# Static dielectric constant tensor:
#      x y z
#    x 2.347470 0.000000 0.165360 
#    y 0.000000 2.296360 0.000000 
#    z 0.165360 0.000000 2.293070 
# 
# From -- ./inp_files/53735.got.cif
#   From: 2010.05.17/outbox.cif.g08.bks.cpg/sg12_27_cif.got.tgz:53735.got - 2010.06.03 13:09:07.
