data_PCOD9222196
_publ_section_title
;
Structure prediction by ZEFSAII (Michael W. Deem and Ramdas Pophale) SiO2 
 PCOD9222196
Probable space group: C 2/M
;
_chemical_formula_sum "Si O2"
_cell_formula_units_Z 52
_cell_length_a 10.432586
_cell_length_b 22.743043
_cell_length_c 11.716297
_cell_angle_alpha 90.000000
_cell_angle_beta 126.999587
_cell_angle_gamma 90.000000
_cell_volume 2220.147832
_symmetry_space_group_name_H-M "C 2/M"
_symmetry_group_IT_number 12
_symmetry_cell_setting 'monoclinic'
loop_
_space_group_symop_operation_xyz
x,y,z
-x,y,-z
-x,-y,-z
x,-y,z
1/2+x,1/2+y,z
1/2-x,1/2+y,-z
1/2-x,1/2-y,-z
1/2+x,1/2-y,z
loop_
_atom_site_type_symbol
_atom_site_label
_atom_site_fract_x
_atom_site_fract_y
_atom_site_fract_z
Si Si1 0.000000 0.751782 0.500000
Si Si2 0.324214 0.724047 0.921551
Si Si3 0.255608 0.931979 0.924404
Si Si4 0.181788 0.352409 0.482054
Si Si5 0.363532 0.892696 0.215835
Si Si6 0.266353 0.671090 0.267134
Si Si7 0.886466 0.065202 0.747364
O O1 0.867360 0.707209 0.479028
O O2 0.936338 0.794408 0.365431
O O3 0.197706 0.674529 0.817534
O O4 0.342385 0.779198 0.847236
O O5 0.500000 0.694964 0.000000
O O6 0.250000 0.750000 0.000000
O O7 0.252809 0.887218 0.817211
O O8 0.073367 0.925975 0.873750
O O9 0.284092 0.000000 0.908833
O O10 0.374098 0.912514 0.089815
O O11 0.229355 0.339350 0.378386
O O12 0.316612 0.386964 0.623193
O O13 0.023168 0.392677 0.377322
O O14 0.226931 0.930411 0.203865
O O15 0.872834 0.000000 0.688592
#
# Coordination Sequence:
#
# PCOD9222196 Si02
#       7
#     4   8   8   8   8   8   8
#     4  12  24  46  68 102 136 182 226 284 346 416
#     4  12  24  41  69 103 142 180 225 282 357 426
#     4  11  26  46  68 100 138 182 232 283 346 415
#     4  12  25  45  69 106 137 178 229 285 348 420
#     4  12  23  43  71 105 137 176 227 291 348 408
#     4  12  26  42  71  97 140 180 227 280 349 415
#     4  11  24  45  71  97 133 183 237 286 336 410
#
# _framework density 23.421862999999998
#
# number of rings (size 3 to 8) (size 9 to 14) (size 15 to 20)
#    0.000    0.308    4.615    4.154    0.000    3.692 
#    0.000    2.692    0.000    0.000    0.000    0.000 
#    0.000    0.000    0.000    0.000    0.000    0.000 
#
# Total GULP energy -145451.469909 kJ/mol
# GULP energy per Si atom -5594.287304 kJ/mol
# Density = 2.336855 g / cm^3
# Si number density = 23.421863 Si / 1000 Ang^3
#
#
#
# Elastic Constant Matrix: (Units=GPa)
#
#
# Indices 1 2 3 4 5 6 
#
# 1 53.6618 17.2690 5.7353 0.0000 -10.7392 0.0000
# 2 17.2690 137.4709 44.9886 0.0000 -18.2733 0.0000
# 3 5.7353 44.9886 111.4868 0.0000 -12.0474 0.0000
# 4 0.0000 0.0000 0.0000 32.3960 0.0000 -2.9578
# 5 -10.7392 -18.2733 -12.0474 0.0000 45.7329 0.0000
# 6 0.0000 0.0000 0.0000 -2.9578 0.0000 26.4363
#
#
#
# Elastic Compliance Matrix: (Units=1/GPa)
#
#
# Indices 1 2 3 4 5 6 
#
# 1 0.020067 -0.002072 0.000230 0.000000 0.003945 0.000000
# 2 -0.002072 0.008889 -0.003242 0.000000 0.002211 0.000000
# 3 0.000230 -0.003242 0.010429 0.000000 0.001506 0.000000
# 4 0.000000 0.000000 0.000000 0.031187 0.000000 0.003489
# 5 0.003945 0.002211 0.001506 0.000000 0.024073 0.000000
# 6 0.000000 0.000000 0.000000 0.003489 0.000000 0.038217
#
#
# Mechanical properties :
#
#
# Convention : Reuss Voigt Hill
#
# Bulk Modulus (GPa) = 34.22515 48.73391 41.47953
# Shear Modulus (GPa) = 32.72952 36.55481 34.64216
#
# Velocity S-wave (km/s) = 3.74223 3.95487 3.85002
# Velocity P-wave (km/s) = 5.77205 6.45809 6.12468
#
# Compressibility (1/GPa) = 0.02921828
#
# Stress axis : x y z
#
# Youngs Moduli (GPa) = 49.83351 112.49476 95.88948
#
# Poissons Ratio (x) = 0.23305 -0.02205
# Poissons Ratio (y) = 0.10324 0.31083
# Poissons Ratio (z) = -0.01146 0.36466
#
# Static dielectric constant tensor:
#      x y z
#    x 1.984560 0.000000 0.077720 
#    y 0.000000 1.865480 0.000000 
#    z 0.077720 0.000000 1.939920 
# 
# From -- ./inp_files/136009.got.cif
#   From: 2010.05.17/outbox.cif.g08.bks.cpg/sg12_69_cif.got.tgz:136009.got - 2010.06.03 13:09:07.
