data_PCOD9222719
_publ_section_title
;
Structure prediction by ZEFSAII (Michael W. Deem and Ramdas Pophale) SiO2 
 PCOD9222719
Probable space group: C 2/M
;
_chemical_formula_sum "Si O2"
_cell_formula_units_Z 44
_cell_length_a 7.888423
_cell_length_b 23.714086
_cell_length_c 11.988547
_cell_angle_alpha 90.000000
_cell_angle_beta 63.339573
_cell_angle_gamma 90.000000
_cell_volume 2004.222366
_symmetry_space_group_name_H-M "C 2/M"
_symmetry_group_IT_number 12
_symmetry_cell_setting 'monoclinic'
loop_
_space_group_symop_operation_xyz
x,y,z
-x,y,-z
-x,-y,-z
x,-y,z
1/2+x,1/2+y,z
1/2-x,1/2+y,-z
1/2-x,1/2-y,-z
1/2+x,1/2-y,z
loop_
_atom_site_type_symbol
_atom_site_label
_atom_site_fract_x
_atom_site_fract_y
_atom_site_fract_z
Si Si1 0.500000 0.689894 0.500000
Si Si2 0.001963 0.679078 0.869757
Si Si3 0.776554 0.634519 0.570971
Si Si4 0.022888 0.065036 0.808075
Si Si5 0.826104 0.737867 0.723045
Si Si6 0.306944 0.934060 0.935326
O O1 0.683298 0.652444 0.480180
O O2 0.504403 0.732624 0.393840
O O3 0.848544 0.711374 0.838621
O O4 0.969104 0.612138 0.868864
O O5 0.188406 0.708939 0.769819
O O6 0.000000 0.692530 0.000000
O O7 0.624255 0.592800 0.673026
O O8 0.776619 0.685652 0.659468
O O9 0.000000 0.616200 0.500000
O O10 0.173143 0.067504 0.865834
O O11 0.985776 0.000000 0.793839
O O12 0.826076 0.086489 0.921653
O O13 0.362140 0.000000 0.934686
#
# Coordination Sequence:
#
# PCOD9222719 Si02
#       6
#     4   8   8   8   8   8
#     4  12  26  44  67  94 137 188 232 280 342 414
#     4  12  26  40  68 102 139 179 226 290 343 416
#     4  12  24  42  71  97 134 179 235 285 340 414
#     4   9  20  41  69  96 131 178 225 283 349 412
#     4  12  24  45  63  96 140 181 229 280 345 413
#     4   9  20  42  69  97 132 179 227 276 346 414
#
# _framework density 21.953652000000002
#
# number of rings (size 3 to 8) (size 9 to 14) (size 15 to 20)
#    0.000    1.091    4.545    3.273    2.545    2.182 
#    0.000    0.455    0.000    0.000    0.000    0.000 
#    0.000    0.000    0.000    0.000    0.000    0.000 
#
# Total GULP energy -122585.138626 kJ/mol
# GULP energy per Si atom -5572.051756 kJ/mol
# Density = 2.190368 g / cm^3
# Si number density = 21.953652 Si / 1000 Ang^3
#
#
#
# Elastic Constant Matrix: (Units=GPa)
#
#
# Indices 1 2 3 4 5 6 
#
# 1 84.6959 49.0018 35.5078 0.0000 65.4344 0.0000
# 2 49.0018 105.9525 79.7487 0.0000 29.3261 0.0000
# 3 35.5078 79.7487 131.6552 0.0000 88.2551 0.0000
# 4 0.0000 0.0000 0.0000 41.9637 0.0000 -9.6612
# 5 65.4344 29.3261 88.2551 0.0000 125.0531 0.0000
# 6 0.0000 0.0000 0.0000 -9.6612 0.0000 74.5077
#
#
#
# Elastic Compliance Matrix: (Units=1/GPa)
#
#
# Indices 1 2 3 4 5 6 
#
# 1 0.087833 -0.076918 0.078990 0.000000 -0.083667 0.000000
# 2 -0.076918 0.087849 -0.086616 0.000000 0.080775 0.000000
# 3 0.078990 -0.086616 0.100300 0.000000 -0.091806 0.000000
# 4 0.000000 0.000000 0.000000 0.024563 0.000000 0.003185
# 5 -0.083667 0.080775 -0.091806 0.000000 0.097624 0.000000
# 6 0.000000 0.000000 0.000000 0.003185 0.000000 0.013834
#
#
# Mechanical properties :
#
#
# Convention : Reuss Voigt Hill
#
# Bulk Modulus (GPa) = 9.35506 72.31335 40.83420
# Shear Modulus (GPa) = 8.10735 58.84125 33.47430
#
# Velocity S-wave (km/s) = 1.92379 5.18273 3.90907
# Velocity P-wave (km/s) = 3.03400 8.29607 6.24620
#
# Compressibility (1/GPa) = 0.10689406
#
# Stress axis : x y z
#
# Youngs Moduli (GPa) = 11.38526 11.38315 9.97004
#
# Poissons Ratio (x) = 0.87557 -0.78753
# Poissons Ratio (y) = 0.87573 0.86357
# Poissons Ratio (z) = -0.89932 0.98596
#
# Static dielectric constant tensor:
#      x y z
#    x 1.909550 0.000000 -0.038320 
#    y 0.000000 1.804510 0.000000 
#    z -0.038320 0.000000 1.837960 
# 
# From -- ./inp_files/122359.got.cif
#   From: 2010.05.17/outbox.cif.g08.bks.cpg/sg12_62_cif.got.tgz:122359.got - 2010.06.03 13:09:07.
