data_PCOD9222832
_publ_section_title
;
Structure prediction by ZEFSAII (Michael W. Deem and Ramdas Pophale) SiO2 
 PCOD9222832
Probable space group: C 2/M
;
_chemical_formula_sum "Si O2"
_cell_formula_units_Z 48
_cell_length_a 7.629381
_cell_length_b 30.830511
_cell_length_c 10.521892
_cell_angle_alpha 90.000000
_cell_angle_beta 52.883336
_cell_angle_gamma 90.000000
_cell_volume 1973.534412
_symmetry_space_group_name_H-M "C 2/M"
_symmetry_group_IT_number 12
_symmetry_cell_setting 'monoclinic'
loop_
_space_group_symop_operation_xyz
x,y,z
-x,y,-z
-x,-y,-z
x,-y,z
1/2+x,1/2+y,z
1/2-x,1/2+y,-z
1/2-x,1/2-y,-z
1/2+x,1/2-y,z
loop_
_atom_site_type_symbol
_atom_site_label
_atom_site_fract_x
_atom_site_fract_y
_atom_site_fract_z
Si Si1 0.334283 0.952932 0.786576
Si Si2 0.718488 0.360222 0.185010
Si Si3 0.765734 0.294435 0.376793
Si Si4 0.768155 0.637591 0.875985
Si Si5 0.123836 0.046126 0.160204
Si Si6 0.295159 0.300523 0.314270
O O1 0.398222 0.902220 0.751447
O O2 0.125395 0.953711 0.782639
O O3 0.449402 0.000000 0.713846
O O4 0.260322 0.953720 0.967821
O O5 0.801423 0.335764 0.273358
O O6 0.677085 0.411604 0.218338
O O7 0.493105 0.333723 0.257662
O O8 0.826917 0.357706 0.997899
O O9 0.500000 0.287655 0.500000
O O10 0.829585 0.300345 0.495454
O O11 0.858985 0.250155 0.275519
O O12 0.784175 0.680790 0.785635
O O13 0.500000 0.626371 0.000000
O O14 0.168752 0.000000 0.205377
#
# Coordination Sequence:
#
# PCOD9222832 Si02
#       6
#     8   8   8   8   8   8
#     4   8  10  15  29  51  74  96 116 133 165 216
#     4   9  15  25  39  57  76  95 118 150 178 209
#     4   9  18  28  38  48  67  98 130 154 178 212
#     4   9  13  21  36  55  73  92 115 149 176 209
#     4   8  11  17  32  53  75  98 116 132 168 220
#     4   9  16  27  38  50  68  96 127 150 180 216
#
# _framework density 24.321845
#
# number of rings (size 3 to 8) (size 9 to 14) (size 15 to 20)
#    0.000    3.333    5.000    1.000    0.000    0.667 
#    0.000    0.000    0.000    5.500    0.000    0.000 
#    0.000    2.667    0.000   11.333    0.000  157.667 
#
# Total GULP energy -133705.687240 kJ/mol
# GULP energy per Si atom -5571.070302 kJ/mol
# Density = 2.426649 g / cm^3
# Si number density = 24.321845 Si / 1000 Ang^3
#
#
#
# Elastic Constant Matrix: (Units=GPa)
#
#
# Indices 1 2 3 4 5 6 
#
# 1 87.4875 40.1526 30.0197 0.0000 43.6622 0.0000
# 2 40.1526 275.6286 74.9713 0.0000 33.7964 0.0000
# 3 30.0197 74.9713 47.3817 0.0000 26.6095 0.0000
# 4 0.0000 0.0000 0.0000 121.8289 0.0000 59.6284
# 5 43.6622 33.7964 26.6095 0.0000 50.3219 0.0000
# 6 0.0000 0.0000 0.0000 59.6284 0.0000 43.0958
#
#
#
# Elastic Compliance Matrix: (Units=1/GPa)
#
#
# Indices 1 2 3 4 5 6 
#
# 1 0.020767 0.000141 -0.004563 0.000000 -0.015700 0.000000
# 2 0.000141 0.006450 -0.011086 0.000000 0.001408 0.000000
# 3 -0.004563 -0.011086 0.049974 0.000000 -0.015020 0.000000
# 4 0.000000 0.000000 0.000000 0.025429 0.000000 -0.035184
# 5 -0.015700 0.001408 -0.015020 0.000000 0.040492 0.000000
# 6 0.000000 0.000000 0.000000 -0.035184 0.000000 0.071886
#
#
# Mechanical properties :
#
#
# Convention : Reuss Voigt Hill
#
# Bulk Modulus (GPa) = 21.65733 77.86498 49.76116
# Shear Modulus (GPa) = 19.12741 60.73959 39.93350
#
# Velocity S-wave (km/s) = 2.80738 5.00275 4.05641
# Velocity P-wave (km/s) = 4.40821 8.09036 6.51484
#
# Compressibility (1/GPa) = 0.04617373
#
# Stress axis : x y z
#
# Youngs Moduli (GPa) = 48.15403 155.02898 20.01059
#
# Poissons Ratio (x) = -0.02187 0.09131
# Poissons Ratio (y) = -0.00679 0.22184
# Poissons Ratio (z) = 0.21973 1.71871
#
# Static dielectric constant tensor:
#      x y z
#    x 2.181450 0.000000 -0.105080 
#    y 0.000000 1.978040 0.000000 
#    z -0.105080 0.000000 1.907820 
# 
# From -- ./inp_files/136268.got.cif
#   From: 2010.05.17/outbox.cif.g08.bks.cpg/sg12_69_cif.got.tgz:136268.got - 2010.06.03 13:09:07.
