data_PCOD9222013
_publ_section_title
;
Structure prediction by ZEFSAII (Michael W. Deem and Ramdas Pophale) SiO2 
 PCOD9222013
Probable space group: C 2/M
;
_chemical_formula_sum "Si O2"
_cell_formula_units_Z 50
_cell_length_a 10.317831
_cell_length_b 16.880052
_cell_length_c 14.552756
_cell_angle_alpha 90.000000
_cell_angle_beta 69.049721
_cell_angle_gamma 90.000000
_cell_volume 2367.029433
_symmetry_space_group_name_H-M "C 2/M"
_symmetry_group_IT_number 12
_symmetry_cell_setting 'monoclinic'
loop_
_space_group_symop_operation_xyz
x,y,z
-x,y,-z
-x,-y,-z
x,-y,z
1/2+x,1/2+y,z
1/2-x,1/2+y,-z
1/2-x,1/2-y,-z
1/2+x,1/2-y,z
loop_
_atom_site_type_symbol
_atom_site_label
_atom_site_fract_x
_atom_site_fract_y
_atom_site_fract_z
Si Si1 0.989720 0.309958 0.392893
Si Si2 0.903846 0.284790 0.936992
Si Si3 0.502734 0.623878 0.355382
Si Si4 0.159518 0.407784 0.206153
Si Si5 0.730720 0.586721 0.446717
Si Si6 0.985508 0.880858 0.151004
Si Si7 0.500000 0.500000 0.000000
O O1 0.008638 0.219146 0.359811
O O2 0.838529 0.343101 0.406368
O O3 0.000000 0.315612 0.500000
O O4 0.096612 0.365381 0.311757
O O5 0.887674 0.356438 0.869593
O O6 0.984642 0.211342 0.870000
O O7 0.750000 0.250000 0.000000
O O8 0.000000 0.306512 0.000000
O O9 0.621065 0.590802 0.391899
O O10 0.357258 0.598479 0.437905
O O11 0.518770 0.597713 0.247036
O O12 0.119833 0.500000 0.209549
O O13 0.325664 0.403096 0.172568
O O14 0.798801 0.500000 0.431305
O O15 0.061993 0.931067 0.053891
#
# Coordination Sequence:
#
# PCOD9222013 Si02
#       7
#     8   8   8   8   8   8   2
#     4  12  25  43  70 103 145 192 233 290 358 435
#     4  12  25  48  76 104 142 189 239 306 373 435
#     4  11  24  41  73  98 137 188 239 289 353 433
#     4  12  27  46  72 107 147 186 245 302 363 442
#     4  11  25  43  65 104 144 181 237 293 352 423
#     4  12  25  44  73 105 141 184 240 295 365 427
#     4  12  24  44  72 110 134 176 242 310 342 434
#
# _framework density 21.123522999999999
#
# number of rings (size 3 to 8) (size 9 to 14) (size 15 to 20)
#    0.000    0.320    6.400    2.880    4.480    4.160 
#    0.000    0.000    3.520    0.000    0.000    0.000 
#    0.000    0.000    0.000    0.000    0.000    0.000 
#
# Total GULP energy -139612.318675 kJ/mol
# GULP energy per Si atom -5584.492747 kJ/mol
# Density = 2.107545 g / cm^3
# Si number density = 21.123523 Si / 1000 Ang^3
#
#
#
# Elastic Constant Matrix: (Units=GPa)
#
#
# Indices 1 2 3 4 5 6 
#
# 1 52.8909 15.4628 16.2928 0.0000 9.9626 0.0000
# 2 15.4628 172.1943 44.9175 0.0000 13.2501 0.0000
# 3 16.2928 44.9175 126.7994 0.0000 32.8448 0.0000
# 4 0.0000 0.0000 0.0000 82.0329 0.0000 -19.4852
# 5 9.9626 13.2501 32.8448 0.0000 32.5992 0.0000
# 6 0.0000 0.0000 0.0000 -19.4852 0.0000 31.8876
#
#
#
# Elastic Compliance Matrix: (Units=1/GPa)
#
#
# Indices 1 2 3 4 5 6 
#
# 1 0.020461 -0.001219 -0.000955 0.000000 -0.004795 0.000000
# 2 -0.001219 0.006476 -0.002100 0.000000 -0.000144 0.000000
# 3 -0.000955 -0.002100 0.011443 0.000000 -0.010384 0.000000
# 4 0.000000 0.000000 0.000000 0.014260 0.000000 0.008714
# 5 -0.004795 -0.000144 -0.010384 0.000000 0.042661 0.000000
# 6 0.000000 0.000000 0.000000 0.008714 0.000000 0.036685
#
#
# Mechanical properties :
#
#
# Convention : Reuss Voigt Hill
#
# Bulk Modulus (GPa) = 33.52285 56.13676 44.82981
# Shear Modulus (GPa) = 33.22758 47.65138 40.43948
#
# Velocity S-wave (km/s) = 3.97043 4.75473 4.38017
# Velocity P-wave (km/s) = 6.07646 7.53501 6.84470
#
# Compressibility (1/GPa) = 0.02983040
#
# Stress axis : x y z
#
# Youngs Moduli (GPa) = 48.87418 154.42227 87.39127
#
# Poissons Ratio (x) = 0.18828 0.08346
# Poissons Ratio (y) = 0.05959 0.18353
# Poissons Ratio (z) = 0.04668 0.32431
#
# Static dielectric constant tensor:
#      x y z
#    x 1.754230 0.000000 -0.040700 
#    y 0.000000 1.741540 0.000000 
#    z -0.040700 0.000000 1.816930 
# 
# From -- ./inp_files/204943.got.cif
#   From: 2010.05.17/outbox.cif.g08.bks.cpg/sg12_103_cif.got.tgz:204943.got - 2010.06.03 13:09:07.
