data_PCOD9222746
_publ_section_title
;
Structure prediction by ZEFSAII (Michael W. Deem and Ramdas Pophale) SiO2 
 PCOD9222746
Probable space group: C 2/M
;
_chemical_formula_sum "Si O2"
_cell_formula_units_Z 36
_cell_length_a 9.788152
_cell_length_b 13.298926
_cell_length_c 13.398294
_cell_angle_alpha 90.000000
_cell_angle_beta 99.788865
_cell_angle_gamma 90.000000
_cell_volume 1718.689354
_symmetry_space_group_name_H-M "C 2/M"
_symmetry_group_IT_number 12
_symmetry_cell_setting 'monoclinic'
loop_
_space_group_symop_operation_xyz
x,y,z
-x,y,-z
-x,-y,-z
x,-y,z
1/2+x,1/2+y,z
1/2-x,1/2+y,-z
1/2-x,1/2-y,-z
1/2+x,1/2-y,z
loop_
_atom_site_type_symbol
_atom_site_label
_atom_site_fract_x
_atom_site_fract_y
_atom_site_fract_z
Si Si1 0.319107 0.500000 0.723648
Si Si2 0.000000 0.828589 0.500000
Si Si3 0.607406 0.780083 0.934221
Si Si4 0.443609 0.332317 0.276331
Si Si5 0.792243 0.500000 0.718855
Si Si6 0.086596 0.500000 0.864366
Si Si7 0.270603 0.500000 0.502178
O O1 0.424453 0.404553 0.731633
O O2 0.213881 0.500000 0.801553
O O3 0.227651 0.500000 0.611017
O O4 0.971995 0.779813 0.388069
O O5 0.870246 0.903160 0.501112
O O6 0.581460 0.740377 0.819331
O O7 0.599952 0.899490 0.928725
O O8 0.500000 0.736692 0.000000
O O9 0.750000 0.750000 0.000000
O O10 0.308490 0.404588 0.271151
O O11 0.827175 0.500000 0.605103
O O12 0.934299 0.500000 0.795859
#
# Coordination Sequence:
#
# PCOD9222746 Si02
#       7
#     4   4   8   8   4   4   4
#     4   9  18  34  60  89 120 152 196 238 276 342
#     4   7  12  28  60  89 112 144 196 241 270 329
#     4  12  26  43  62  84 116 154 196 242 291 347
#     4   9  18  38  64  89 113 154 201 236 278 340
#     4   9  18  35  62  90 122 151 186 237 294 344
#     4  12  25  40  56  83 119 151 188 243 300 342
#     4   7  12  27  53  88 120 152 183 228 286 336
#
# _framework density 20.946193999999998
#
# number of rings (size 3 to 8) (size 9 to 14) (size 15 to 20)
#    0.000    2.444    0.000    5.667    0.000    2.222 
#    0.000    6.111    0.000    9.333    0.000    0.000 
#    0.000    0.000    0.000    0.000    0.000    0.000 
#
# Total GULP energy -100416.500456 kJ/mol
# GULP energy per Si atom -5578.694470 kJ/mol
# Density = 2.089852 g / cm^3
# Si number density = 20.946194 Si / 1000 Ang^3
#
#
#
# Elastic Constant Matrix: (Units=GPa)
#
#
# Indices 1 2 3 4 5 6 
#
# 1 117.0734 6.9133 51.1181 0.0000 7.8291 0.0000
# 2 6.9133 68.1710 59.0860 0.0000 13.6003 0.0000
# 3 51.1181 59.0860 176.2913 0.0000 1.8718 0.0000
# 4 0.0000 0.0000 0.0000 34.2015 0.0000 -3.7467
# 5 7.8291 13.6003 1.8718 0.0000 36.1017 0.0000
# 6 0.0000 0.0000 0.0000 -3.7467 0.0000 8.7574
#
#
#
# Elastic Compliance Matrix: (Units=1/GPa)
#
#
# Indices 1 2 3 4 5 6 
#
# 1 0.010308 0.003028 -0.003970 0.000000 -0.003171 0.000000
# 2 0.003028 0.023771 -0.008748 0.000000 -0.009158 0.000000
# 3 -0.003970 -0.008748 0.009717 0.000000 0.003653 0.000000
# 4 0.000000 0.000000 0.000000 0.030676 0.000000 0.013124
# 5 -0.003171 -0.009158 0.003653 0.000000 0.031648 0.000000
# 6 0.000000 0.000000 0.000000 0.013124 0.000000 0.119804
#
#
# Mechanical properties :
#
#
# Convention : Reuss Voigt Hill
#
# Bulk Modulus (GPa) = 40.95599 66.19671 53.57635
# Shear Modulus (GPa) = 19.72829 32.10670 25.91749
#
# Velocity S-wave (km/s) = 3.07230 3.91937 3.52140
# Velocity P-wave (km/s) = 5.67281 7.22176 6.49363
#
# Compressibility (1/GPa) = 0.02441645
#
# Stress axis : x y z
#
# Youngs Moduli (GPa) = 97.00774 42.06767 102.91300
#
# Poissons Ratio (x) = -0.12740 0.40861
# Poissons Ratio (y) = -0.29378 0.90029
# Poissons Ratio (z) = 0.38516 0.36801
#
# Static dielectric constant tensor:
#      x y z
#    x 1.710690 0.000000 -0.021400 
#    y 0.000000 1.758900 0.000000 
#    z -0.021400 0.000000 1.764770 
# 
# From -- ./inp_files/194214.got.cif
#   From: 2010.05.17/outbox.cif.g08.bks.cpg/sg12_98_cif.got.tgz:194214.got - 2010.06.03 13:09:07.
