data_PCOD9222764
_publ_section_title
;
Structure prediction by ZEFSAII (Michael W. Deem and Ramdas Pophale) SiO2 
 PCOD9222764
Probable space group: C 2/M
;
_chemical_formula_sum "Si O2"
_cell_formula_units_Z 34
_cell_length_a 16.233847
_cell_length_b 16.966926
_cell_length_c 7.387905
_cell_angle_alpha 90.000000
_cell_angle_beta 45.615183
_cell_angle_gamma 90.000000
_cell_volume 1454.267213
_symmetry_space_group_name_H-M "C 2/M"
_symmetry_group_IT_number 12
_symmetry_cell_setting 'monoclinic'
loop_
_space_group_symop_operation_xyz
x,y,z
-x,y,-z
-x,-y,-z
x,-y,z
1/2+x,1/2+y,z
1/2-x,1/2+y,-z
1/2-x,1/2-y,-z
1/2+x,1/2-y,z
loop_
_atom_site_type_symbol
_atom_site_label
_atom_site_fract_x
_atom_site_fract_y
_atom_site_fract_z
Si Si1 0.524816 0.685800 0.748806
Si Si2 0.742809 0.091394 0.699291
Si Si3 0.402747 0.861724 0.402215
Si Si4 0.223362 0.160274 0.984358
Si Si5 0.500000 0.000000 0.500000
O O1 0.643339 0.641772 0.522434
O O2 0.536550 0.777315 0.677489
O O3 0.500000 0.681565 0.000000
O O4 0.413531 0.650216 0.821184
O O5 0.760461 0.000000 0.629652
O O6 0.637206 0.122488 0.741558
O O7 0.726535 0.104034 0.937913
O O8 0.284399 0.855711 0.700702
O O9 0.470946 0.931225 0.392348
O O10 0.250000 0.250000 0.000000
#
# Coordination Sequence:
#
# PCOD9222764 Si02
#       5
#     8   8   8   8   2
#     4  12  25  48  80 108 149 203 250 305 375 446
#     4  12  27  48  74 111 153 194 250 313 371 446
#     4  12  26  52  72 111 152 193 249 310 375 447
#     4  12  25  46  78 107 147 197 250 305 370 443
#     4  12  28  48  82 106 150 194 240 320 378 436
#
# _framework density 23.379473000000001
#
# number of rings (size 3 to 8) (size 9 to 14) (size 15 to 20)
#    0.000    0.000    5.882    4.235    1.647    2.353 
#    0.000    1.765    0.000    0.000    0.000    0.000 
#    0.000    0.000    0.000    0.000    0.000    0.000 
#
# Total GULP energy -95127.012335 kJ/mol
# GULP energy per Si atom -5595.706608 kJ/mol
# Density = 2.332626 g / cm^3
# Si number density = 23.379473 Si / 1000 Ang^3
#
#
#
# Elastic Constant Matrix: (Units=GPa)
#
#
# Indices 1 2 3 4 5 6 
#
# 1 167.2865 18.1899 24.5470 0.0000 -4.1684 0.0000
# 2 18.1899 114.1667 1.2967 0.0000 -15.2321 0.0000
# 3 24.5470 1.2967 60.4709 0.0000 -12.1426 0.0000
# 4 0.0000 0.0000 0.0000 -19.2483 0.0000 9.8497
# 5 -4.1684 -15.2321 -12.1426 0.0000 40.8005 0.0000
# 6 0.0000 0.0000 0.0000 9.8497 0.0000 42.3764
#
#
#
# Elastic Compliance Matrix: (Units=1/GPa)
#
#
# Indices 1 2 3 4 5 6 
#
# 1 0.006480 -0.001075 -0.002717 0.000000 -0.000548 0.000000
# 2 -0.001075 0.009412 0.000976 0.000000 0.003695 0.000000
# 3 -0.002717 0.000976 0.018757 0.000000 0.005669 0.000000
# 4 0.000000 0.000000 0.000000 -0.046430 0.000000 0.010792
# 5 -0.000548 0.003695 0.005669 0.000000 0.027520 0.000000
# 6 0.000000 0.000000 0.000000 0.010792 0.000000 0.021090
#
#
# Mechanical properties :
#
#
# Convention : Reuss Voigt Hill
#
# Bulk Modulus (GPa) = 34.46141 47.77683 41.11912
# Shear Modulus (GPa) = 95.90941 32.64509 64.27725
#
# Velocity S-wave (km/s) = 6.41186 3.74078 5.24907
# Velocity P-wave (km/s) = 8.34194 6.25601 7.37312
#
# Compressibility (1/GPa) = 0.02901796
#
# Stress axis : x y z
#
# Youngs Moduli (GPa) = 154.32837 106.24531 53.31240
#
# Poissons Ratio (x) = 0.11417 0.14486
# Poissons Ratio (y) = 0.16585 -0.05205
# Poissons Ratio (z) = 0.41935 -0.10372
#
# Static dielectric constant tensor:
#      x y z
#    x 1.869370 0.000000 -0.000820 
#    y 0.000000 1.793020 0.000000 
#    z -0.000820 0.000000 1.913660 
# 
# From -- ./inp_files/88331.got.cif
#   From: 2010.05.17/outbox.cif.g08.bks.cpg/sg12_45_cif.got.tgz:88331.got - 2010.06.03 13:09:07.
