data_PCOD9222365
_publ_section_title
;
Structure prediction by ZEFSAII (Michael W. Deem and Ramdas Pophale) SiO2 
 PCOD9222365
Probable space group: C 2/M
;
_chemical_formula_sum "Si O2"
_cell_formula_units_Z 32
_cell_length_a 13.952580
_cell_length_b 22.913469
_cell_length_c 9.409084
_cell_angle_alpha 90.000000
_cell_angle_beta 149.147209
_cell_angle_gamma 90.000000
_cell_volume 1542.657745
_symmetry_space_group_name_H-M "C 2/M"
_symmetry_group_IT_number 12
_symmetry_cell_setting 'monoclinic'
loop_
_space_group_symop_operation_xyz
x,y,z
-x,y,-z
-x,-y,-z
x,-y,z
1/2+x,1/2+y,z
1/2-x,1/2+y,-z
1/2-x,1/2-y,-z
1/2+x,1/2-y,z
loop_
_atom_site_type_symbol
_atom_site_label
_atom_site_fract_x
_atom_site_fract_y
_atom_site_fract_z
Si Si1 0.529601 0.742866 0.204959
Si Si2 0.534553 0.142448 0.708547
Si Si3 0.329293 0.431963 0.676120
Si Si4 0.443541 0.374770 0.265284
O O1 0.750000 0.750000 0.500000
O O2 0.442085 0.800615 0.163193
O O3 0.463727 0.686099 0.205714
O O4 0.500000 0.737304 0.000000
O O5 0.500000 0.159299 0.500000
O O6 0.647476 0.106685 0.474709
O O7 0.727642 0.107030 0.969981
O O8 0.285831 0.500000 0.639788
O O9 0.413310 0.418538 0.628512
O O10 0.500000 0.416561 0.000000
O O11 0.500000 0.366980 0.500000
#
# Coordination Sequence:
#
# PCOD9222365 Si02
#       4
#     8   8   8   8
#     4  12  23  41  69  98 140 179 215 272 339 399
#     4  12  24  42  70 100 133 178 224 273 339 402
#     4  11  25  47  71  98 133 177 231 285 331 396
#     4  12  25  44  68 102 139 177 220 277 340 399
#
# _framework density 20.743421000000001
#
# number of rings (size 3 to 8) (size 9 to 14) (size 15 to 20)
#    0.000    0.250    5.000    5.250    0.000    2.000 
#    0.000    1.250    0.000    0.000    0.000    0.000 
#    0.000    0.000    0.000    0.000    0.000    0.000 
#
# Total GULP energy -89565.861508 kJ/mol
# GULP energy per Si atom -5597.866344 kJ/mol
# Density = 2.069621 g / cm^3
# Si number density = 20.743421 Si / 1000 Ang^3
#
#
#
# Elastic Constant Matrix: (Units=GPa)
#
#
# Indices 1 2 3 4 5 6 
#
# 1 126.1138 14.0722 59.6074 0.0000 -21.8018 0.0000
# 2 14.0722 62.7080 10.4876 0.0000 -1.5903 0.0000
# 3 59.6074 10.4876 123.6646 0.0000 -12.0792 0.0000
# 4 0.0000 0.0000 0.0000 21.2132 0.0000 -5.2515
# 5 -21.8018 -1.5903 -12.0792 0.0000 62.7931 0.0000
# 6 0.0000 0.0000 0.0000 -5.2515 0.0000 2.9887
#
#
#
# Elastic Compliance Matrix: (Units=1/GPa)
#
#
# Indices 1 2 3 4 5 6 
#
# 1 0.010874 -0.001560 -0.004835 0.000000 0.002806 0.000000
# 2 -0.001560 0.016402 -0.000664 0.000000 -0.000254 0.000000
# 3 -0.004835 -0.000664 0.010505 0.000000 0.000325 0.000000
# 4 0.000000 0.000000 0.000000 0.083432 0.000000 0.146600
# 5 0.002806 -0.000254 0.000325 0.000000 0.016956 0.000000
# 6 0.000000 0.000000 0.000000 0.146600 0.000000 0.592186
#
#
# Mechanical properties :
#
#
# Convention : Reuss Voigt Hill
#
# Bulk Modulus (GPa) = 42.26105 53.42455 47.84280
# Shear Modulus (GPa) = 6.64576 32.62027 19.63301
#
# Velocity S-wave (km/s) = 1.79186 3.96985 3.07981
# Velocity P-wave (km/s) = 4.96975 6.84279 5.98006
#
# Compressibility (1/GPa) = 0.02366245
#
# Stress axis : x y z
#
# Youngs Moduli (GPa) = 91.96531 60.96948 95.19402
#
# Poissons Ratio (x) = 0.09514 0.46024
# Poissons Ratio (y) = 0.14350 0.06318
# Poissons Ratio (z) = 0.44463 0.04046
#
# Static dielectric constant tensor:
#      x y z
#    x 1.747020 0.000000 0.026440 
#    y 0.000000 1.764590 0.000000 
#    z 0.026440 0.000000 1.726650 
# 
# From -- ./inp_files/51117.got.cif
#   From: 2010.05.17/outbox.cif.g08.bks.cpg/sg12_26_cif.got.tgz:51117.got - 2010.06.03 13:09:07.
