data_PCOD9222872
_publ_section_title
;
Structure prediction by ZEFSAII (Michael W. Deem and Ramdas Pophale) SiO2 
 PCOD9222872
Probable space group: C 2/M
;
_chemical_formula_sum "Si O2"
_cell_formula_units_Z 56
_cell_length_a 19.074458
_cell_length_b 27.207907
_cell_length_c 7.505530
_cell_angle_alpha 90.000000
_cell_angle_beta 135.378054
_cell_angle_gamma 90.000000
_cell_volume 2736.082049
_symmetry_space_group_name_H-M "C 2/M"
_symmetry_group_IT_number 12
_symmetry_cell_setting 'monoclinic'
loop_
_space_group_symop_operation_xyz
x,y,z
-x,y,-z
-x,-y,-z
x,-y,z
1/2+x,1/2+y,z
1/2-x,1/2+y,-z
1/2-x,1/2-y,-z
1/2+x,1/2-y,z
loop_
_atom_site_type_symbol
_atom_site_label
_atom_site_fract_x
_atom_site_fract_y
_atom_site_fract_z
Si Si1 0.301621 0.184926 0.716640
Si Si2 0.328168 0.601326 0.470661
Si Si3 0.594956 0.750183 0.369653
Si Si4 0.711524 0.607771 0.028299
Si Si5 0.982933 0.163933 0.254399
Si Si6 0.412454 0.500000 0.594862
Si Si7 0.855957 0.000000 0.066528
Si Si8 0.671499 0.796465 0.838518
O O1 0.262599 0.130166 0.603456
O O2 0.379199 0.207761 0.721684
O O3 0.196126 0.215771 0.536447
O O4 0.349851 0.188891 0.998561
O O5 0.305469 0.603391 0.216737
O O6 0.429805 0.631544 0.669356
O O7 0.358184 0.547098 0.577537
O O8 0.496830 0.716454 0.188357
O O9 0.594380 0.773821 0.563225
O O10 0.618022 0.634927 0.949631
O O11 0.705667 0.550650 0.079019
O O12 0.791664 0.652029 0.183915
O O13 0.000000 0.168655 0.500000
O O14 0.386395 0.500000 0.334020
O O15 0.533450 0.500000 0.825628
O O16 0.750000 0.750000 0.000000
#
# Coordination Sequence:
#
# PCOD9222872 Si02
#       8
#     8   8   8   8   8   4   4   8
#     4   8  15  26  39  56  77 101 140 174 211 250
#     4   8  13  20  34  54  79 108 137 175 204 236
#     4   9  16  26  42  57  77 106 141 175 215 254
#     4   9  15  23  38  60  89 116 150 183 214 250
#     4   9  14  22  37  58  80 110 144 178 211 253
#     4   9  12  18  32  57  83 107 146 175 203 238
#     4   9  14  20  34  61  87 117 150 181 204 254
#     4   9  16  27  42  60  80 110 142 179 215 255
#
# _framework density 20.467223000000001
#
# number of rings (size 3 to 8) (size 9 to 14) (size 15 to 20)
#    0.000    3.286    1.429    2.571    0.000    0.000 
#    0.000    0.000    0.000   25.714    0.000    1.000 
#    0.000    0.000    0.000   11.571    0.000  108.286 
#
# Total GULP energy -155940.668632 kJ/mol
# GULP energy per Si atom -5569.309594 kJ/mol
# Density = 2.042064 g / cm^3
# Si number density = 20.467223 Si / 1000 Ang^3
#
#
#
# Elastic Constant Matrix: (Units=GPa)
#
#
# Indices 1 2 3 4 5 6 
#
# 1 66.5377 53.1700 11.7104 0.0000 -10.0882 0.0000
# 2 53.1700 181.3406 20.3562 0.0000 6.4083 0.0000
# 3 11.7104 20.3562 21.4110 0.0000 -8.7993 0.0000
# 4 0.0000 0.0000 0.0000 7.9479 0.0000 7.5440
# 5 -10.0882 6.4083 -8.7993 0.0000 12.5407 0.0000
# 6 0.0000 0.0000 0.0000 7.5440 0.0000 34.9567
#
#
#
# Elastic Compliance Matrix: (Units=1/GPa)
#
#
# Indices 1 2 3 4 5 6 
#
# 1 0.026129 -0.009646 0.007790 0.000000 0.031413 0.000000
# 2 -0.009646 0.010832 -0.014736 0.000000 -0.023634 0.000000
# 3 0.007790 -0.014736 0.087297 0.000000 0.075049 0.000000
# 4 0.000000 0.000000 0.000000 0.158232 0.000000 -0.034148
# 5 0.031413 -0.023634 0.075049 0.000000 0.169745 0.000000
# 6 0.000000 0.000000 0.000000 -0.034148 0.000000 0.035976
#
#
# Mechanical properties :
#
#
# Convention : Reuss Voigt Hill
#
# Bulk Modulus (GPa) = 10.97999 48.86249 29.92124
# Shear Modulus (GPa) = 9.06204 23.35924 16.21064
#
# Velocity S-wave (km/s) = 2.10647 3.38198 2.81735
# Velocity P-wave (km/s) = 3.36044 6.25905 5.02336
#
# Compressibility (1/GPa) = 0.09107474
#
# Stress axis : x y z
#
# Youngs Moduli (GPa) = 38.27225 92.31981 11.45515
#
# Poissons Ratio (x) = 0.89048 -0.08923
# Poissons Ratio (y) = 0.36916 0.16880
# Poissons Ratio (z) = -0.29813 1.36038
#
# Static dielectric constant tensor:
#      x y z
#    x 1.740270 0.000000 -0.026520 
#    y 0.000000 1.822590 0.000000 
#    z -0.026520 0.000000 1.784970 
# 
# From -- ./inp_files/99563.got.cif
#   From: 2010.05.17/outbox.cif.g08.bks.cpg/sg12_50_cif.got.tgz:99563.got - 2010.06.03 13:09:07.
