data_PCOD9222573
_publ_section_title
;
Structure prediction by ZEFSAII (Michael W. Deem and Ramdas Pophale) SiO2 
 PCOD9222573
Probable space group: C 2/M
;
_chemical_formula_sum "Si O2"
_cell_formula_units_Z 38
_cell_length_a 18.129293
_cell_length_b 17.540780
_cell_length_c 23.271793
_cell_angle_alpha 90.000000
_cell_angle_beta 164.504717
_cell_angle_gamma 90.000000
_cell_volume 1977.103899
_symmetry_space_group_name_H-M "C 2/M"
_symmetry_group_IT_number 12
_symmetry_cell_setting 'monoclinic'
loop_
_space_group_symop_operation_xyz
x,y,z
-x,y,-z
-x,-y,-z
x,-y,z
1/2+x,1/2+y,z
1/2-x,1/2+y,-z
1/2-x,1/2-y,-z
1/2+x,1/2-y,z
loop_
_atom_site_type_symbol
_atom_site_label
_atom_site_fract_x
_atom_site_fract_y
_atom_site_fract_z
Si Si1 0.000000 0.500000 0.500000
Si Si2 0.500000 0.727171 0.000000
Si Si3 0.092481 0.671193 0.395879
Si Si4 0.022498 0.585737 0.809368
Si Si5 0.674649 0.783766 0.254342
Si Si6 0.135795 0.121235 0.289384
O O1 0.124158 0.567251 0.552228
O O2 0.428633 0.773562 0.888477
O O3 0.211682 0.683570 0.801947
O O4 0.250000 0.750000 0.500000
O O5 0.300772 0.631789 0.596418
O O6 0.057301 0.623513 0.311295
O O7 0.908652 0.500000 0.730259
O O8 0.948949 0.645038 0.804453
O O9 0.351988 0.582445 0.059222
O O10 0.622955 0.704601 0.249718
O O11 0.000000 0.794391 0.500000
#
# Coordination Sequence:
#
# PCOD9222573 Si02
#       6
#     2   4   8   8   8   8
#     4  12  24  40  66 104 136 164 210 288 342 384
#     4  12  22  38  72 100 122 174 232 268 338 406
#     4  12  24  43  69  99 130 175 228 274 333 407
#     4  12  27  44  67  99 139 180 222 277 336 396
#     4  12  23  44  68  97 133 178 227 275 331 403
#     4  12  23  44  65  98 139 170 216 275 340 399
#
# _framework density 19.220032
#
# number of rings (size 3 to 8) (size 9 to 14) (size 15 to 20)
#    0.000    0.000    8.421    1.895    1.474    0.421 
#    0.000    2.105    0.000    0.000    0.000    0.000 
#    0.000    0.000    0.000    0.000    0.000    0.000 
#
# Total GULP energy -105787.249792 kJ/mol
# GULP energy per Si atom -5567.749989 kJ/mol
# Density = 1.917629 g / cm^3
# Si number density = 19.220032 Si / 1000 Ang^3
#
#
#
# Elastic Constant Matrix: (Units=GPa)
#
#
# Indices 1 2 3 4 5 6 
#
# 1 129.7119 56.7813 20.5623 0.0218 -47.3593 -0.0997
# 2 56.7813 155.6658 31.6762 -0.0597 -9.1323 -0.0715
# 3 20.5623 31.6762 78.5076 -0.1034 -25.8939 0.0051
# 4 0.0218 -0.0597 -0.1034 18.0415 0.0062 -23.3984
# 5 -47.3593 -9.1323 -25.8939 0.0062 46.1274 0.1616
# 6 -0.0997 -0.0715 0.0051 -23.3984 0.1616 100.7631
#
#
#
# Elastic Compliance Matrix: (Units=1/GPa)
#
#
# Indices 1 2 3 4 5 6 
#
# 1 0.015852 -0.005538 0.003791 -0.000061 0.017307 -0.000030
# 2 -0.005538 0.008936 -0.004230 0.000041 -0.006292 0.000021
# 3 0.003791 -0.004230 0.017744 0.000074 0.013016 -0.000004
# 4 -0.000061 0.000041 0.000074 0.079315 -0.000089 0.018418
# 5 0.017307 -0.006292 0.013016 -0.000089 0.045509 -0.000082
# 6 -0.000030 0.000021 -0.000004 0.018418 -0.000082 0.014201
#
#
# Mechanical properties :
#
#
# Convention : Reuss Voigt Hill
#
# Bulk Modulus (GPa) = 32.70403 64.65833 48.68118
# Shear Modulus (GPa) = 24.54541 49.97744 37.26142
#
# Velocity S-wave (km/s) = 3.57749 5.10482 4.40782
# Velocity P-wave (km/s) = 5.84099 8.27404 7.16160
#
# Compressibility (1/GPa) = 0.03057727
#
# Stress axis : x y z
#
# Youngs Moduli (GPa) = 63.08488 111.90891 56.35580
#
# Poissons Ratio (x) = 0.61978 -0.21364
# Poissons Ratio (y) = 0.34938 0.23838
# Poissons Ratio (z) = -0.23915 0.47337
#
# Static dielectric constant tensor:
#      x y z
#    x 1.512090 -0.000900 0.008360 
#    y -0.000900 1.866920 0.000000 
#    z 0.008360 0.000000 1.686360 
# 
# From -- ./inp_files/311802.got.cif
#   From: 2010.05.17/outbox.cif.g08.bks.cpg/sg12_156_cif.got.tgz:311802.got - 2010.06.03 13:09:07.
