data_PCOD9222900
_publ_section_title
;
Structure prediction by ZEFSAII (Michael W. Deem and Ramdas Pophale) SiO2 
 PCOD9222900
Probable space group: C 2/M
;
_chemical_formula_sum "Si O2"
_cell_formula_units_Z 56
_cell_length_a 13.951438
_cell_length_b 9.484331
_cell_length_c 20.754445
_cell_angle_alpha 90.000000
_cell_angle_beta 65.509656
_cell_angle_gamma 90.000000
_cell_volume 2499.154217
_symmetry_space_group_name_H-M "C 2/M"
_symmetry_group_IT_number 12
_symmetry_cell_setting 'monoclinic'
loop_
_space_group_symop_operation_xyz
x,y,z
-x,y,-z
-x,-y,-z
x,-y,z
1/2+x,1/2+y,z
1/2-x,1/2+y,-z
1/2-x,1/2-y,-z
1/2+x,1/2-y,z
loop_
_atom_site_type_symbol
_atom_site_label
_atom_site_fract_x
_atom_site_fract_y
_atom_site_fract_z
Si Si1 0.677492 0.835588 0.266064
Si Si2 0.783697 0.155432 0.432329
Si Si3 0.005218 0.339458 0.144885
Si Si4 0.217808 0.661584 0.871380
Si Si5 0.610924 0.338658 0.008744
Si Si6 0.597446 0.663696 0.721415
Si Si7 0.563115 0.840917 0.421969
O O1 0.699621 0.741367 0.197492
O O2 0.792147 0.836493 0.269642
O O3 0.591739 0.782689 0.342879
O O4 0.654262 0.000000 0.257672
O O5 0.750000 0.250000 0.500000
O O6 0.872263 0.209754 0.359117
O O7 0.678957 0.143030 0.419236
O O8 0.815518 0.000000 0.445929
O O9 0.043228 0.500000 0.138734
O O10 0.893930 0.342532 0.136598
O O11 0.977717 0.269639 0.220624
O O12 0.081684 0.240103 0.082645
O O13 0.248200 0.500000 0.875360
O O14 0.190171 0.748395 0.943150
O O15 0.645448 0.500000 0.007669
O O16 0.500000 0.343011 0.000000
O O17 0.561239 0.500000 0.730853
O O18 0.500000 0.772105 0.500000
O O19 0.516869 0.000000 0.425873
#
# Coordination Sequence:
#
# PCOD9222900 Si02
#       7
#     8   8   8   8   8   8   8
#     4   8  13  22  36  51  67  91 125 161 195 234
#     4   9  17  28  43  62  83 108 138 173 211 250
#     4   9  15  21  30  45  64  88 120 157 194 230
#     4   9  15  21  29  43  65  91 120 155 192 231
#     4   9  15  21  29  41  60  89 123 156 189 227
#     4   8  14  24  35  48  68  95 126 157 192 236
#     4   8  14  26  44  63  81 105 140 177 209 245
#
# _framework density 22.407581
#
# number of rings (size 3 to 8) (size 9 to 14) (size 15 to 20)
#    0.000    3.429    0.000    3.000    0.000    5.714 
#    0.000    2.143    0.000    1.714    0.000    0.000 
#    0.000    0.000    0.000    1.286    0.000   16.286 
#
# Total GULP energy -156224.747607 kJ/mol
# GULP energy per Si atom -5579.455272 kJ/mol
# Density = 2.235658 g / cm^3
# Si number density = 22.407581 Si / 1000 Ang^3
#
#
#
# Elastic Constant Matrix: (Units=GPa)
#
#
# Indices 1 2 3 4 5 6 
#
# 1 61.7173 7.7010 2.2116 0.0000 -13.3557 0.0000
# 2 7.7010 152.3535 142.1071 0.0000 -4.2713 0.0000
# 3 2.2116 142.1071 273.5445 0.0000 -4.1792 0.0000
# 4 0.0000 0.0000 0.0000 15.2824 0.0000 1.4800
# 5 -13.3557 -4.2713 -4.1792 0.0000 18.5121 0.0000
# 6 0.0000 0.0000 0.0000 1.4800 0.0000 -0.0622
#
#
#
# Elastic Compliance Matrix: (Units=1/GPa)
#
#
# Indices 1 2 3 4 5 6 
#
# 1 0.019322 -0.001243 0.000700 0.000000 0.013811 0.000000
# 2 -0.001243 0.012853 -0.006658 0.000000 0.000566 0.000000
# 3 0.000700 -0.006658 0.007118 0.000000 0.000576 0.000000
# 4 0.000000 0.000000 0.000000 0.019798 0.000000 0.471259
# 5 0.013811 0.000566 0.000576 0.000000 0.064243 0.000000
# 6 0.000000 0.000000 0.000000 0.471259 0.000000 -4.866344
#
#
# Mechanical properties :
#
#
# Convention : Reuss Voigt Hill
#
# Bulk Modulus (GPa) = 40.17526 87.96163 64.06845
# Shear Modulus (GPa) = -1.05925 29.11949 14.03012
#
# Velocity S-wave (km/s) = -0.68829 3.60882 2.50498
# Velocity P-wave (km/s) = 4.16372 7.53029 6.08448
#
# Compressibility (1/GPa) = 0.02489094
#
# Stress axis : x y z
#
# Youngs Moduli (GPa) = 51.75547 77.80259 140.48979
#
# Poissons Ratio (x) = 0.09669 -0.09840
# Poissons Ratio (y) = 0.06432 0.93545
# Poissons Ratio (z) = -0.03625 0.51805
#
# Static dielectric constant tensor:
#      x y z
#    x 2.061360 0.000000 0.085810 
#    y 0.000000 1.802780 0.000000 
#    z 0.085810 0.000000 1.847640 
# 
# From -- ./inp_files/319018.got.cif
#   From: 2010.05.17/outbox.cif.g08.bks.cpg/sg12_160_cif.got.tgz:319018.got - 2010.06.03 13:09:07.
