data_PCOD9222396
_publ_section_title
;
Structure prediction by ZEFSAII (Michael W. Deem and Ramdas Pophale) SiO2 
 PCOD9222396
Probable space group: C 2/M
;
_chemical_formula_sum "Si O2"
_cell_formula_units_Z 40
_cell_length_a 14.451392
_cell_length_b 27.195850
_cell_length_c 8.451288
_cell_angle_alpha 90.000000
_cell_angle_beta 149.501622
_cell_angle_gamma 90.000000
_cell_volume 1685.711394
_symmetry_space_group_name_H-M "C 2/M"
_symmetry_group_IT_number 12
_symmetry_cell_setting 'monoclinic'
loop_
_space_group_symop_operation_xyz
x,y,z
-x,y,-z
-x,-y,-z
x,-y,z
1/2+x,1/2+y,z
1/2-x,1/2+y,-z
1/2-x,1/2-y,-z
1/2+x,1/2-y,z
loop_
_atom_site_type_symbol
_atom_site_label
_atom_site_fract_x
_atom_site_fract_y
_atom_site_fract_z
Si Si1 0.194227 0.863792 0.204377
Si Si2 0.323080 0.183338 0.836340
Si Si3 0.424440 0.763317 0.558077
Si Si4 0.686447 0.406856 0.840016
Si Si5 0.553525 0.945557 0.264006
O O1 0.305555 0.812761 0.360706
O O2 0.311796 0.902921 0.479567
O O3 0.171945 0.886129 0.995780
O O4 0.000000 0.857191 0.000000
O O5 0.184030 0.216679 0.533313
O O6 0.227106 0.139066 0.782995
O O7 0.500000 0.167151 0.000000
O O8 0.407284 0.221167 0.086495
O O9 0.500000 0.747176 0.500000
O O10 0.500000 0.430056 0.500000
O O11 0.865893 0.439747 0.085474
O O12 0.633035 0.000000 0.407066
O O13 0.500000 0.941971 0.000000
#
# Coordination Sequence:
#
# PCOD9222396 Si02
#       5
#     8   8   8   8   8
#     4  12  26  45  71 105 143 186 238 289 347 418
#     4  12  26  42  68  98 144 187 238 291 345 411
#     4  12  24  44  65  99 142 189 237 289 346 408
#     4  12  26  44  71 104 145 188 232 291 346 415
#     4  11  25  50  79 106 139 179 228 293 359 422
#
# _framework density 23.728853000000001
#
# number of rings (size 3 to 8) (size 9 to 14) (size 15 to 20)
#    0.000    0.200    4.000    4.800    5.600    2.400 
#    0.000    0.000    0.000    0.000    0.000    0.000 
#    0.000    0.000    0.000    0.000    0.000    0.000 
#
# Total GULP energy -112177.928262 kJ/mol
# GULP energy per Si atom -5608.896413 kJ/mol
# Density = 2.367485 g / cm^3
# Si number density = 23.728853 Si / 1000 Ang^3
#
#
#
# Elastic Constant Matrix: (Units=GPa)
#
#
# Indices 1 2 3 4 5 6 
#
# 1 121.9197 5.8342 19.7858 0.0000 2.6666 0.0000
# 2 5.8342 114.8853 20.0110 0.0000 9.1419 0.0000
# 3 19.7858 20.0110 95.4963 0.0000 15.5195 0.0000
# 4 0.0000 0.0000 0.0000 34.3173 0.0000 12.6274
# 5 2.6666 9.1419 15.5195 0.0000 44.6245 0.0000
# 6 0.0000 0.0000 0.0000 12.6274 0.0000 23.9575
#
#
#
# Elastic Compliance Matrix: (Units=1/GPa)
#
#
# Indices 1 2 3 4 5 6 
#
# 1 0.008490 -0.000136 -0.001752 0.000000 0.000130 0.000000
# 2 -0.000136 0.009104 -0.001672 0.000000 -0.001275 0.000000
# 3 -0.001752 -0.001672 0.011778 0.000000 -0.003649 0.000000
# 4 0.000000 0.000000 0.000000 0.036151 0.000000 -0.019054
# 5 0.000130 -0.001275 -0.003649 0.000000 0.023932 0.000000
# 6 0.000000 0.000000 0.000000 -0.019054 0.000000 0.051784
#
#
# Mechanical properties :
#
#
# Convention : Reuss Voigt Hill
#
# Bulk Modulus (GPa) = 44.94037 47.06258 46.00147
# Shear Modulus (GPa) = 32.09733 39.69121 35.89427
#
# Velocity S-wave (km/s) = 3.68186 4.09430 3.89354
# Velocity P-wave (km/s) = 6.08728 6.49828 6.29613
#
# Compressibility (1/GPa) = 0.02225171
#
# Stress axis : x y z
#
# Youngs Moduli (GPa) = 117.78483 109.84164 84.90467
#
# Poissons Ratio (x) = 0.01498 0.14872
# Poissons Ratio (y) = 0.01606 0.14198
# Poissons Ratio (z) = 0.20631 0.18368
#
# Static dielectric constant tensor:
#      x y z
#    x 1.900710 0.000000 -0.012090 
#    y 0.000000 1.856540 0.000000 
#    z -0.012090 0.000000 1.919380 
# 
# From -- ./inp_files/68453.got.cif
#   From: 2010.05.17/outbox.cif.g08.bks.cpg/sg12_35_cif.got.tgz:68453.got - 2010.06.03 13:09:07.
