data_PCOD9222639
_publ_section_title
;
Structure prediction by ZEFSAII (Michael W. Deem and Ramdas Pophale) SiO2 
 PCOD9222639
Probable space group: C 2/M
;
_chemical_formula_sum "Si O2"
_cell_formula_units_Z 40
_cell_length_a 9.738224
_cell_length_b 23.939439
_cell_length_c 7.902580
_cell_angle_alpha 90.000000
_cell_angle_beta 93.607093
_cell_angle_gamma 90.000000
_cell_volume 1838.659951
_symmetry_space_group_name_H-M "C 2/M"
_symmetry_group_IT_number 12
_symmetry_cell_setting 'monoclinic'
loop_
_space_group_symop_operation_xyz
x,y,z
-x,y,-z
-x,-y,-z
x,-y,z
1/2+x,1/2+y,z
1/2-x,1/2+y,-z
1/2-x,1/2-y,-z
1/2+x,1/2-y,z
loop_
_atom_site_type_symbol
_atom_site_label
_atom_site_fract_x
_atom_site_fract_y
_atom_site_fract_z
Si Si1 0.292863 0.566441 0.351664
Si Si2 0.653325 0.667196 0.066464
Si Si3 0.608957 0.843159 0.157445
Si Si4 0.103954 0.934352 0.262533
Si Si5 0.384653 0.260397 0.617343
O O1 0.269306 0.500000 0.325807
O O2 0.173355 0.604348 0.263000
O O3 0.316215 0.575875 0.554523
O O4 0.442685 0.580207 0.281314
O O5 0.662754 0.601792 0.114289
O O6 0.665243 0.697505 0.244322
O O7 0.500000 0.680915 0.000000
O O8 0.761892 0.683012 0.934015
O O9 0.560585 0.795860 0.285677
O O10 0.500000 0.856391 0.000000
O O11 0.110540 0.000000 0.227682
O O12 0.500000 0.283540 0.500000
O O13 0.250000 0.250000 0.500000
#
# Coordination Sequence:
#
# PCOD9222639 Si02
#       5
#     8   8   8   8   8
#     4   9  19  38  64  93 126 167 211 255 304 370
#     4  12  23  39  66  95 124 161 210 263 316 366
#     4  12  25  42  60  94 137 164 199 261 323 373
#     4   9  19  37  65  97 124 157 214 268 303 356
#     4  12  26  44  66  88 121 170 219 256 306 376
#
# _framework density 21.754973
#
# number of rings (size 3 to 8) (size 9 to 14) (size 15 to 20)
#    0.000    1.200    2.000    6.000    2.800    1.600 
#    0.000    0.000    0.000    3.000    0.000    0.000 
#    0.000    0.000    0.000    0.000    0.000    0.000 
#
# Total GULP energy -111880.763909 kJ/mol
# GULP energy per Si atom -5594.038195 kJ/mol
# Density = 2.170546 g / cm^3
# Si number density = 21.754973 Si / 1000 Ang^3
#
#
#
# Elastic Constant Matrix: (Units=GPa)
#
#
# Indices 1 2 3 4 5 6 
#
# 1 50.7337 -7.5173 7.2378 0.0000 13.5956 0.0000
# 2 -7.5173 55.0268 15.6278 0.0000 11.4177 0.0000
# 3 7.2378 15.6278 79.1325 0.0000 17.8899 0.0000
# 4 0.0000 0.0000 0.0000 34.0668 0.0000 -27.5660
# 5 13.5956 11.4177 17.8899 0.0000 52.5416 0.0000
# 6 0.0000 0.0000 0.0000 -27.5660 0.0000 -75.7437
#
#
#
# Elastic Compliance Matrix: (Units=1/GPa)
#
#
# Indices 1 2 3 4 5 6 
#
# 1 0.022331 0.004801 -0.001569 0.000000 -0.006287 0.000000
# 2 0.004801 0.020772 -0.003510 0.000000 -0.004561 0.000000
# 3 -0.001569 -0.003510 0.014311 0.000000 -0.003704 0.000000
# 4 0.000000 0.000000 0.000000 0.022676 0.000000 -0.008253
# 5 -0.006287 -0.004561 -0.003704 0.000000 0.022912 0.000000
# 6 0.000000 0.000000 0.000000 -0.008253 0.000000 -0.010199
#
#
# Mechanical properties :
#
#
# Convention : Reuss Voigt Hill
#
# Bulk Modulus (GPa) = 17.58798 23.95440 20.77119
# Shear Modulus (GPa) = 44.51861 13.47593 28.99727
#
# Velocity S-wave (km/s) = 4.52858 2.49156 3.65486
# Velocity P-wave (km/s) = 5.95367 4.39455 5.23251
#
# Compressibility (1/GPa) = 0.05685701
#
# Stress axis : x y z
#
# Youngs Moduli (GPa) = 44.78109 48.14145 69.87549
#
# Poissons Ratio (x) = -0.23112 0.10965
# Poissons Ratio (y) = -0.21499 0.24528
# Poissons Ratio (z) = 0.07027 0.16899
#
# Static dielectric constant tensor:
#      x y z
#    x 1.752970 0.000000 0.015020 
#    y 0.000000 1.834010 0.000000 
#    z 0.015020 0.000000 1.685300 
# 
# From -- ./inp_files/39432.got.cif
#   From: 2010.05.17/outbox.cif.g08.bks.cpg/sg12_20_cif.got.tgz:39432.got - 2010.06.03 13:09:07.
