data_PCOD9222084
_publ_section_title
;
Structure prediction by ZEFSAII (Michael W. Deem and Ramdas Pophale) SiO2 
 PCOD9222084
Probable space group: C 2/M
;
_chemical_formula_sum "Si O2"
_cell_formula_units_Z 44
_cell_length_a 15.439495
_cell_length_b 19.121241
_cell_length_c 6.857340
_cell_angle_alpha 90.000000
_cell_angle_beta 88.614070
_cell_angle_gamma 90.000000
_cell_volume 2023.847489
_symmetry_space_group_name_H-M "C 2/M"
_symmetry_group_IT_number 12
_symmetry_cell_setting 'monoclinic'
loop_
_space_group_symop_operation_xyz
x,y,z
-x,y,-z
-x,-y,-z
x,-y,z
1/2+x,1/2+y,z
1/2-x,1/2+y,-z
1/2-x,1/2-y,-z
1/2+x,1/2-y,z
loop_
_atom_site_type_symbol
_atom_site_label
_atom_site_fract_x
_atom_site_fract_y
_atom_site_fract_z
Si Si1 0.315340 0.918682 0.728449
Si Si2 0.000000 0.845769 0.000000
Si Si3 0.366786 0.320737 0.693303
Si Si4 0.700808 0.818272 0.916473
Si Si5 0.899044 0.689156 0.458297
Si Si6 0.609650 0.580654 0.658977
O O1 0.366518 0.884337 0.545741
O O2 0.212354 0.913347 0.696002
O O3 0.337113 0.000000 0.756756
O O4 0.331821 0.870020 0.915360
O O5 0.934138 0.805589 0.862707
O O6 0.058022 0.891099 0.848484
O O7 0.279392 0.352314 0.787727
O O8 0.348758 0.249392 0.580003
O O9 0.405290 0.373647 0.533059
O O10 0.626135 0.801280 0.765361
O O11 0.750000 0.750000 0.000000
O O12 0.000000 0.698537 0.500000
O O13 0.588587 0.500000 0.626611
#
# Coordination Sequence:
#
# PCOD9222084 Si02
#       6
#     8   4   8   8   8   8
#     4  11  25  46  71 100 135 180 231 282 345 410
#     4  12  25  40  66 102 141 180 228 284 331 410
#     4  12  25  42  70 101 138 178 227 277 344 407
#     4  12  24  45  75  98 135 182 225 278 346 407
#     4  12  27  45  72 103 135 176 232 289 340 400
#     4  11  24  43  65  99 141 184 228 277 340 410
#
# _framework density 21.740769
#
# number of rings (size 3 to 8) (size 9 to 14) (size 15 to 20)
#    0.000    0.364    5.455    3.545    2.545    4.727 
#    0.000    0.909    0.000    0.000    0.000    0.000 
#    0.000    0.000    0.000    0.000    0.000    0.000 
#
# Total GULP energy -123156.401879 kJ/mol
# GULP energy per Si atom -5598.018267 kJ/mol
# Density = 2.169129 g / cm^3
# Si number density = 21.740769 Si / 1000 Ang^3
#
#
#
# Elastic Constant Matrix: (Units=GPa)
#
#
# Indices 1 2 3 4 5 6 
#
# 1 73.7377 -6.5349 29.5545 0.0000 14.8341 0.0000
# 2 -6.5349 105.2557 55.4477 0.0000 5.2218 0.0000
# 3 29.5545 55.4477 157.3714 0.0000 24.9921 0.0000
# 4 0.0000 0.0000 0.0000 31.8094 0.0000 -8.9775
# 5 14.8341 5.2218 24.9921 0.0000 53.4027 0.0000
# 6 0.0000 0.0000 0.0000 -8.9775 0.0000 11.8510
#
#
#
# Elastic Compliance Matrix: (Units=1/GPa)
#
#
# Indices 1 2 3 4 5 6 
#
# 1 0.015865 0.003010 -0.003558 0.000000 -0.003036 0.000000
# 2 0.003010 0.012272 -0.004933 0.000000 0.000272 0.000000
# 3 -0.003558 -0.004933 0.009212 0.000000 -0.002840 0.000000
# 4 0.000000 0.000000 0.000000 0.039986 0.000000 0.030291
# 5 -0.003036 0.000272 -0.002840 0.000000 0.020872 0.000000
# 6 0.000000 0.000000 0.000000 0.030291 0.000000 0.107327
#
#
# Mechanical properties :
#
#
# Convention : Reuss Voigt Hill
#
# Bulk Modulus (GPa) = 37.89578 54.81105 46.35342
# Shear Modulus (GPa) = 22.19357 36.60580 29.39969
#
# Velocity S-wave (km/s) = 3.19850 4.10779 3.68133
# Velocity P-wave (km/s) = 5.57756 6.91119 6.27988
#
# Compressibility (1/GPa) = 0.02638816
#
# Stress axis : x y z
#
# Youngs Moduli (GPa) = 63.03133 81.48343 108.55958
#
# Poissons Ratio (x) = -0.24525 0.38623
# Poissons Ratio (y) = -0.18971 0.53547
# Poissons Ratio (z) = 0.22425 0.40192
#
# Static dielectric constant tensor:
#      x y z
#    x 1.828410 0.000000 0.004730 
#    y 0.000000 1.769160 0.000000 
#    z 0.004730 0.000000 1.801960 
# 
# From -- ./inp_files/16131.got.cif
#   From: 2010.05.17/outbox.cif.g08.bks.cpg/sg12_9_cif.got.tgz:16131.got - 2010.06.03 13:09:07.
