data_PCOD9222151
_publ_section_title
;
Structure prediction by ZEFSAII (Michael W. Deem and Ramdas Pophale) SiO2 
 PCOD9222151
Probable space group: C 2/M
;
_chemical_formula_sum "Si O2"
_cell_formula_units_Z 34
_cell_length_a 24.825888
_cell_length_b 10.107876
_cell_length_c 21.406118
_cell_angle_alpha 90.000000
_cell_angle_beta 163.175297
_cell_angle_gamma 90.000000
_cell_volume 1554.776399
_symmetry_space_group_name_H-M "C 2/M"
_symmetry_group_IT_number 12
_symmetry_cell_setting 'monoclinic'
loop_
_space_group_symop_operation_xyz
x,y,z
-x,y,-z
-x,-y,-z
x,-y,z
1/2+x,1/2+y,z
1/2-x,1/2+y,-z
1/2-x,1/2-y,-z
1/2+x,1/2-y,z
loop_
_atom_site_type_symbol
_atom_site_label
_atom_site_fract_x
_atom_site_fract_y
_atom_site_fract_z
Si Si1 0.653219 0.796261 0.266201
Si Si2 0.956618 0.647763 0.172875
Si Si3 0.554486 0.733826 0.704888
Si Si4 0.468451 0.500000 0.891247
Si Si5 0.110723 0.500000 0.688647
Si Si6 0.500000 0.000000 0.000000
O O1 0.607021 0.825576 0.286761
O O2 0.632327 0.637845 0.236128
O O3 0.516162 0.882945 0.072031
O O4 0.860297 0.835632 0.473530
O O5 0.979899 0.500000 0.222886
O O6 0.962797 0.740707 0.239884
O O7 0.751367 0.662667 0.914673
O O8 0.564530 0.869581 0.677123
O O9 0.500000 0.500000 0.000000
O O10 0.668847 0.500000 0.080296
O O11 0.000000 0.500000 0.500000
#
# Coordination Sequence:
#
# PCOD9222151 Si02
#       6
#     8   8   8   4   4   2
#     4  12  25  47  69 102 142 185 231 285 350 410
#     4  11  24  44  70 101 142 179 235 291 348 414
#     4  11  25  45  69 102 135 185 231 289 346 415
#     4  12  24  44  70 100 140 183 227 288 336 416
#     4  12  24  43  70 102 134 180 240 281 348 411
#     4  12  28  44  70 104 140 180 236 276 342 430
#
# _framework density 21.868096999999999
#
# number of rings (size 3 to 8) (size 9 to 14) (size 15 to 20)
#    0.000    0.471    5.882    2.824    1.647    0.000 
#    0.000    1.176    0.000    0.000    0.000    0.000 
#    0.000    0.000    0.000    0.000    0.000    0.000 
#
# Total GULP energy -94783.792531 kJ/mol
# GULP energy per Si atom -5575.517208 kJ/mol
# Density = 2.181832 g / cm^3
# Si number density = 21.868097 Si / 1000 Ang^3
#
#
#
# Elastic Constant Matrix: (Units=GPa)
#
#
# Indices 1 2 3 4 5 6 
#
# 1 93.0618 0.7834 18.2062 0.0004 7.4113 0.0002
# 2 0.7834 91.6443 2.6830 0.0017 -0.1608 0.0013
# 3 18.2062 2.6830 62.1973 0.0002 25.4991 0.0003
# 4 0.0004 0.0017 0.0002 1.4345 0.0004 -6.8644
# 5 7.4113 -0.1608 25.4991 0.0004 40.5419 0.0003
# 6 0.0002 0.0013 0.0003 -6.8644 0.0003 36.6134
#
#
#
# Elastic Compliance Matrix: (Units=1/GPa)
#
#
# Indices 1 2 3 4 5 6 
#
# 1 0.011398 0.000001 -0.003345 -0.000025 0.000020 -0.000005
# 2 0.000001 0.010932 -0.000660 -0.000141 0.000458 -0.000027
# 3 -0.003345 -0.000660 0.022685 0.000012 -0.013659 0.000002
# 4 -0.000025 -0.000141 0.000012 6.780504 -0.000078 1.271239
# 5 0.000020 0.000458 -0.013659 -0.000078 0.033255 -0.000015
# 6 -0.000005 -0.000027 0.000002 1.271239 -0.000015 0.265650
#
#
# Mechanical properties :
#
#
# Convention : Reuss Voigt Hill
#
# Bulk Modulus (GPa) = 27.02116 32.24983 29.63549
# Shear Modulus (GPa) = 0.69981 30.73333 15.71657
#
# Velocity S-wave (km/s) = 0.56631 3.75293 2.68376
# Velocity P-wave (km/s) = 3.57923 5.79299 4.81506
#
# Compressibility (1/GPa) = 0.03700804
#
# Stress axis : x y z
#
# Youngs Moduli (GPa) = 87.73245 91.47568 44.08150
#
# Poissons Ratio (x) = -0.00005 0.14744
# Poissons Ratio (y) = -0.00005 0.02907
# Poissons Ratio (z) = 0.29344 0.06033
#
# Static dielectric constant tensor:
#      x y z
#    x 1.738990 0.000000 0.004070 
#    y 0.000000 1.837530 0.000000 
#    z 0.004070 0.000000 1.890680 
# 
# From -- ./inp_files/102302.got.cif
#   From: 2010.05.17/outbox.cif.g08.bks.cpg/sg12_52_cif.got.tgz:102302.got - 2010.06.03 13:09:07.
