data_PCOD9222457
_publ_section_title
;
Structure prediction by ZEFSAII (Michael W. Deem and Ramdas Pophale) SiO2 
 PCOD9222457
Probable space group: C 2/M
;
_chemical_formula_sum "Si O2"
_cell_formula_units_Z 44
_cell_length_a 13.891774
_cell_length_b 21.115332
_cell_length_c 8.526558
_cell_angle_alpha 90.000000
_cell_angle_beta 55.491822
_cell_angle_gamma 90.000000
_cell_volume 2061.011806
_symmetry_space_group_name_H-M "C 2/M"
_symmetry_group_IT_number 12
_symmetry_cell_setting 'monoclinic'
loop_
_space_group_symop_operation_xyz
x,y,z
-x,y,-z
-x,-y,-z
x,-y,z
1/2+x,1/2+y,z
1/2-x,1/2+y,-z
1/2-x,1/2-y,-z
1/2+x,1/2-y,z
loop_
_atom_site_type_symbol
_atom_site_label
_atom_site_fract_x
_atom_site_fract_y
_atom_site_fract_z
Si Si1 0.379712 0.628428 0.665329
Si Si2 0.878342 0.743721 0.813171
Si Si3 0.204326 0.681791 0.612323
Si Si4 0.120202 0.925108 0.983793
Si Si5 0.873868 0.383451 0.628263
Si Si6 0.500000 0.769361 0.000000
O O1 0.500000 0.598595 0.500000
O O2 0.389162 0.704856 0.669334
O O3 0.289649 0.627930 0.605305
O O4 0.360386 0.604910 0.860351
O O5 0.892135 0.672944 0.738684
O O6 0.964391 0.764374 0.873124
O O7 0.750000 0.750000 0.000000
O O8 0.250000 0.750000 0.500000
O O9 0.142767 0.650704 0.521757
O O10 0.114445 0.693599 0.838334
O O11 0.246258 0.913507 0.782598
O O12 0.105183 0.000000 0.018331
O O13 0.000000 0.903559 0.000000
O O14 0.000000 0.418889 0.500000
#
# Coordination Sequence:
#
# PCOD9222457 Si02
#       6
#     8   8   8   8   8   4
#     4  12  24  40  65  99 135 175 222 273 341 405
#     4  12  21  37  59  97 138 178 206 266 343 421
#     4  12  23  38  60  99 139 175 211 266 337 420
#     4  11  27  50  72  96 130 183 244 292 335 394
#     4  12  23  43  69 100 139 176 224 280 347 416
#     4  12  22  34  56  86 140 170 206 256 318 412
#
# _framework density 21.348738000000001
#
# number of rings (size 3 to 8) (size 9 to 14) (size 15 to 20)
#    0.000    0.182    7.273    2.727    1.273    0.727 
#    0.000    0.909    0.000    1.091    0.000    0.000 
#    0.000    0.000    0.000    0.000    0.000    0.000 
#
# Total GULP energy -122506.638367 kJ/mol
# GULP energy per Si atom -5568.483562 kJ/mol
# Density = 2.130015 g / cm^3
# Si number density = 21.348738 Si / 1000 Ang^3
#
#
#
# Elastic Constant Matrix: (Units=GPa)
#
#
# Indices 1 2 3 4 5 6 
#
# 1 159.5283 21.1668 34.6214 0.0000 -4.1086 0.0000
# 2 21.1668 50.6567 4.7824 0.0000 -0.3572 0.0000
# 3 34.6214 4.7824 115.4926 0.0000 -20.4860 0.0000
# 4 0.0000 0.0000 0.0000 -2.3646 0.0000 0.7755
# 5 -4.1086 -0.3572 -20.4860 0.0000 44.9585 0.0000
# 6 0.0000 0.0000 0.0000 0.7755 0.0000 18.5524
#
#
#
# Elastic Compliance Matrix: (Units=1/GPa)
#
#
# Indices 1 2 3 4 5 6 
#
# 1 0.007075 -0.002764 -0.002062 0.000000 -0.000315 0.000000
# 2 -0.002764 0.020900 -0.000057 0.000000 -0.000112 0.000000
# 3 -0.002062 -0.000057 0.010059 0.000000 0.004394 0.000000
# 4 0.000000 0.000000 0.000000 -0.417182 0.000000 0.017438
# 5 -0.000315 -0.000112 0.004394 0.000000 0.024215 0.000000
# 6 0.000000 0.000000 0.000000 0.017438 0.000000 0.053172
#
#
# Mechanical properties :
#
#
# Convention : Reuss Voigt Hill
#
# Bulk Modulus (GPa) = 35.37609 49.64654 42.51132
# Shear Modulus (GPa) = -17.69459 29.90305 6.10423
#
# Velocity S-wave (km/s) = -2.88207 3.74665 1.69278
# Velocity P-wave (km/s) = 2.35190 6.48244 4.87614
#
# Compressibility (1/GPa) = 0.02826768
#
# Stress axis : x y z
#
# Youngs Moduli (GPa) = 141.35067 47.84671 99.41747
#
# Poissons Ratio (x) = 0.13223 0.20502
# Poissons Ratio (y) = 0.39064 0.00566
# Poissons Ratio (z) = 0.29150 0.00272
#
# Static dielectric constant tensor:
#      x y z
#    x 2.002320 0.000000 -0.131780 
#    y 0.000000 1.794040 0.000000 
#    z -0.131780 0.000000 1.802220 
# 
# From -- ./inp_files/65174.got.cif
#   From: 2010.05.17/outbox.cif.g08.bks.cpg/sg12_33_cif.got.tgz:65174.got - 2010.06.03 13:09:07.
