data_PCOD9222945
_publ_section_title
;
Structure prediction by ZEFSAII (Michael W. Deem and Ramdas Pophale) SiO2 
 PCOD9222945
Probable space group: C 2/M
;
_chemical_formula_sum "Si O2"
_cell_formula_units_Z 40
_cell_length_a 9.697572
_cell_length_b 24.129826
_cell_length_c 10.992743
_cell_angle_alpha 90.000000
_cell_angle_beta 41.899311
_cell_angle_gamma 90.000000
_cell_volume 1717.849224
_symmetry_space_group_name_H-M "C 2/M"
_symmetry_group_IT_number 12
_symmetry_cell_setting 'monoclinic'
loop_
_space_group_symop_operation_xyz
x,y,z
-x,y,-z
-x,-y,-z
x,-y,z
1/2+x,1/2+y,z
1/2-x,1/2+y,-z
1/2-x,1/2-y,-z
1/2+x,1/2-y,z
loop_
_atom_site_type_symbol
_atom_site_label
_atom_site_fract_x
_atom_site_fract_y
_atom_site_fract_z
Si Si1 0.247844 0.354785 0.670777
Si Si2 0.726358 0.565543 0.127221
Si Si3 0.251343 0.936864 0.842290
Si Si4 0.791423 0.116999 0.372771
Si Si5 0.257925 0.234845 0.635253
O O1 0.500000 0.351176 0.500000
O O2 0.200069 0.399206 0.806045
O O3 0.186593 0.371663 0.572964
O O4 0.184593 0.291681 0.746357
O O5 0.765397 0.500000 0.115087
O O6 0.479839 0.576358 0.281993
O O7 0.800667 0.584977 0.944771
O O8 0.314368 0.906988 0.677939
O O9 0.327300 0.000000 0.788397
O O10 0.000000 0.937768 0.000000
O O11 0.865832 0.177618 0.274899
O O12 0.500000 0.222572 0.500000
O O13 0.250000 0.250000 0.500000
#
# Coordination Sequence:
#
# PCOD9222945 Si02
#       5
#     8   8   8   8   8
#     4   8  15  25  39  60  85 113 146 183 221 263
#     4   9  16  26  42  66  93 118 150 193 232 266
#     4   8  14  24  38  59  88 118 148 184 227 272
#     4   9  15  24  41  62  85 116 147 183 228 271
#     4   9  17  30  46  66  93 124 156 191 233 276
#
# _framework density 23.284931
#
# number of rings (size 3 to 8) (size 9 to 14) (size 15 to 20)
#    0.000    3.400    0.000    3.000    0.000    4.400 
#    0.000    1.000    0.000    2.400    0.000    4.200 
#    0.000   12.800    0.000    0.000    0.000    0.000 
#
# Total GULP energy -111458.705123 kJ/mol
# GULP energy per Si atom -5572.935256 kJ/mol
# Density = 2.323193 g / cm^3
# Si number density = 23.284931 Si / 1000 Ang^3
#
#
#
# Elastic Constant Matrix: (Units=GPa)
#
#
# Indices 1 2 3 4 5 6 
#
# 1 99.4027 25.3554 27.8991 0.0000 33.6627 0.0000
# 2 25.3554 126.9089 79.8325 0.0000 33.6454 0.0000
# 3 27.8991 79.8325 120.8501 0.0000 34.1756 0.0000
# 4 0.0000 0.0000 0.0000 28.4869 0.0000 28.2576
# 5 33.6627 33.6454 34.1756 0.0000 50.4614 0.0000
# 6 0.0000 0.0000 0.0000 28.2576 0.0000 16.9384
#
#
#
# Elastic Compliance Matrix: (Units=1/GPa)
#
#
# Indices 1 2 3 4 5 6 
#
# 1 0.013041 0.000012 -0.000688 0.000000 -0.008242 0.000000
# 2 0.000012 0.014051 -0.008205 0.000000 -0.003820 0.000000
# 3 -0.000688 -0.008205 0.015061 0.000000 -0.004271 0.000000
# 4 0.000000 0.000000 0.000000 -0.053608 0.000000 0.089431
# 5 -0.008242 -0.003820 -0.004271 0.000000 0.030755 0.000000
# 6 0.000000 0.000000 0.000000 0.089431 0.000000 -0.090157
#
#
# Mechanical properties :
#
#
# Convention : Reuss Voigt Hill
#
# Bulk Modulus (GPa) = 40.99527 68.14842 54.57184
# Shear Modulus (GPa) = -111.19874 33.44900 -38.87487
#
# Velocity S-wave (km/s) = -6.91804 3.79424 -4.09042
# Velocity P-wave (km/s) = 6.79473 6.96604 1.08569
#
# Compressibility (1/GPa) = 0.02439306
#
# Stress axis : x y z
#
# Youngs Moduli (GPa) = 76.68007 71.16883 66.39579
#
# Poissons Ratio (x) = -0.00088 0.04568
# Poissons Ratio (y) = -0.00095 0.54475
# Poissons Ratio (z) = 0.05276 0.58391
#
# Static dielectric constant tensor:
#      x y z
#    x 1.935190 0.000000 -0.032990 
#    y 0.000000 1.913480 0.000000 
#    z -0.032990 0.000000 1.853690 
# 
# From -- ./inp_files/120408.got.cif
#   From: 2010.05.17/outbox.cif.g08.bks.cpg/sg12_61_cif.got.tgz:120408.got - 2010.06.03 13:09:07.
