data_PCOD9222940
_publ_section_title
;
Structure prediction by ZEFSAII (Michael W. Deem and Ramdas Pophale) SiO2 
 PCOD9222940
Probable space group: C 2/M
;
_chemical_formula_sum "Si O2"
_cell_formula_units_Z 48
_cell_length_a 11.420886
_cell_length_b 31.261092
_cell_length_c 7.142990
_cell_angle_alpha 90.000000
_cell_angle_beta 127.353382
_cell_angle_gamma 90.000000
_cell_volume 2027.221235
_symmetry_space_group_name_H-M "C 2/M"
_symmetry_group_IT_number 12
_symmetry_cell_setting 'monoclinic'
loop_
_space_group_symop_operation_xyz
x,y,z
-x,y,-z
-x,-y,-z
x,-y,z
1/2+x,1/2+y,z
1/2-x,1/2+y,-z
1/2-x,1/2-y,-z
1/2+x,1/2-y,z
loop_
_atom_site_type_symbol
_atom_site_label
_atom_site_fract_x
_atom_site_fract_y
_atom_site_fract_z
Si Si1 0.473710 0.760597 0.698127
Si Si2 0.354578 0.412590 0.615048
Si Si3 0.805318 0.817335 0.592002
Si Si4 0.689362 0.000000 0.452374
Si Si5 0.363987 0.835224 0.216866
Si Si6 0.849842 0.500000 0.130737
Si Si7 0.193564 0.085784 0.979294
O O1 0.500000 0.759936 0.500000
O O2 0.326348 0.787039 0.609220
O O3 0.451369 0.711359 0.723681
O O4 0.598704 0.794417 0.875300
O O5 0.302714 0.364938 0.505265
O O6 0.273756 0.456354 0.476551
O O7 0.328441 0.413771 0.815608
O O8 0.528512 0.412244 0.743542
O O9 0.767269 0.822626 0.772745
O O10 0.518554 0.000000 0.232486
O O11 0.672200 0.000000 0.663751
O O12 0.500000 0.845713 0.500000
O O13 0.307744 0.876067 0.051783
O O14 0.768260 0.542353 0.989041
#
# Coordination Sequence:
#
# PCOD9222940 Si02
#       7
#     8   8   8   4   8   4   8
#     4   8  14  24  39  57  74  94 129 159 186 217
#     4   9  16  25  35  50  77 101 126 148 186 223
#     4   8  14  24  38  54  74 101 125 152 189 221
#     4   9  17  23  35  53  71 100 127 155 178 219
#     4   8  15  23  38  53  74  99 131 155 180 218
#     4   9  17  21  35  51  73  99 131 151 176 216
#     4   9  16  24  34  51  74 105 126 150 179 221
#
# _framework density 23.677733
#
# number of rings (size 3 to 8) (size 9 to 14) (size 15 to 20)
#    0.000    3.833    0.000    0.500    9.333    2.000 
#    0.000    0.833    0.000    0.000    0.000    0.583 
#    0.000    0.000    0.000    1.500    0.000    1.667 
#
# Total GULP energy -133685.942798 kJ/mol
# GULP energy per Si atom -5570.247617 kJ/mol
# Density = 2.362384 g / cm^3
# Si number density = 23.677733 Si / 1000 Ang^3
#
#
#
# Elastic Constant Matrix: (Units=GPa)
#
#
# Indices 1 2 3 4 5 6 
#
# 1 36.3121 64.5923 63.4627 0.0000 5.6479 0.0000
# 2 64.5923 233.2608 47.1160 0.0000 35.5421 0.0000
# 3 63.4627 47.1160 58.0103 0.0000 8.8925 0.0000
# 4 0.0000 0.0000 0.0000 -35.6574 0.0000 35.9355
# 5 5.6479 35.5421 8.8925 0.0000 39.3540 0.0000
# 6 0.0000 0.0000 0.0000 35.9355 0.0000 25.1968
#
#
#
# Elastic Compliance Matrix: (Units=1/GPa)
#
#
# Indices 1 2 3 4 5 6 
#
# 1 -0.028537 0.002641 0.029846 0.000000 -0.005033 0.000000
# 2 0.002641 0.005507 -0.006775 0.000000 -0.003821 0.000000
# 3 0.029846 -0.006775 -0.010557 0.000000 0.004221 0.000000
# 4 0.000000 0.000000 0.000000 -0.011506 0.000000 0.016410
# 5 -0.005033 -0.003821 0.004221 0.000000 0.028630 0.000000
# 6 0.000000 0.000000 0.000000 0.016410 0.000000 0.016283
#
#
# Mechanical properties :
#
#
# Convention : Reuss Voigt Hill
#
# Bulk Modulus (GPa) = 56.06965 75.32500 65.69733
# Shear Modulus (GPa) = -109.51224 15.93949 -46.78637
#
# Velocity S-wave (km/s) = -6.80820 2.59740 -4.45001
# Velocity P-wave (km/s) = 6.17012 6.39351 1.18461
#
# Compressibility (1/GPa) = 0.01783496
#
# Stress axis : x y z
#
# Youngs Moduli (GPa) = -35.04249 181.59816 -94.72532
#
# Poissons Ratio (x) = -0.47952 2.82716
# Poissons Ratio (y) = 0.09253 -0.64181
# Poissons Ratio (z) = 1.04587 1.23042
#
# Static dielectric constant tensor:
#      x y z
#    x 1.924310 0.000000 -0.040910 
#    y 0.000000 1.930210 0.000000 
#    z -0.040910 0.000000 1.982860 
# 
# From -- ./inp_files/218136.got.cif
#   From: 2010.05.17/outbox.cif.g08.bks.cpg/sg12_110_cif.got.tgz:218136.got - 2010.06.03 13:09:07.
