data_PCOD9222402
_publ_section_title
;
Structure prediction by ZEFSAII (Michael W. Deem and Ramdas Pophale) SiO2 
 PCOD9222402
Probable space group: C 2/M
;
_chemical_formula_sum "Si O2"
_cell_formula_units_Z 46
_cell_length_a 14.571672
_cell_length_b 28.638202
_cell_length_c 14.040646
_cell_angle_alpha 90.000000
_cell_angle_beta 159.142848
_cell_angle_gamma 90.000000
_cell_volume 2086.124008
_symmetry_space_group_name_H-M "C 2/M"
_symmetry_group_IT_number 12
_symmetry_cell_setting 'monoclinic'
loop_
_space_group_symop_operation_xyz
x,y,z
-x,y,-z
-x,-y,-z
x,-y,z
1/2+x,1/2+y,z
1/2-x,1/2+y,-z
1/2-x,1/2-y,-z
1/2+x,1/2-y,z
loop_
_atom_site_type_symbol
_atom_site_label
_atom_site_fract_x
_atom_site_fract_y
_atom_site_fract_z
Si Si1 0.806503 0.425782 0.206135
Si Si2 0.500000 0.500000 0.000000
Si Si3 0.576814 0.702802 0.186481
Si Si4 0.665068 0.554307 0.394247
Si Si5 0.500000 0.161691 0.500000
Si Si6 0.977788 0.692154 0.864605
Si Si7 0.493696 0.352189 0.295992
O O1 0.727019 0.460053 0.213589
O O2 0.066056 0.433404 0.396895
O O3 0.823176 0.375257 0.270893
O O4 0.573884 0.439957 0.909956
O O5 0.881811 0.694722 0.466416
O O6 0.490182 0.753802 0.134945
O O7 0.509889 0.665271 0.202025
O O8 0.500000 0.698356 0.000000
O O9 0.675339 0.500000 0.434309
O O10 0.591698 0.594473 0.398076
O O11 0.698347 0.676971 0.556125
O O12 0.000000 0.691320 0.000000
O O13 0.202932 0.658814 0.044256
#
# Coordination Sequence:
#
# PCOD9222402 Si02
#       7
#     8   2   8   8   4   8   8
#     4  12  25  39  60  93 141 196 237 273 328 402
#     4  12  24  38  60  86 140 198 250 270 308 406
#     4  11  26  41  71 105 152 191 234 276 351 433
#     4  12  24  45  64  97 136 182 238 294 349 419
#     4  12  26  39  62 100 152 194 233 278 326 416
#     4  11  27  48  75 102 135 182 242 306 369 427
#     4  12  25  47  73 102 143 183 240 297 359 424
#
# _framework density 22.050463000000001
#
# number of rings (size 3 to 8) (size 9 to 14) (size 15 to 20)
#    0.000    0.348    3.478    4.696    8.522    1.043 
#    0.000    0.000    0.000    3.130    0.000    0.000 
#    0.000    0.000    0.000    0.000    0.000    0.000 
#
# Total GULP energy -128139.055132 kJ/mol
# GULP energy per Si atom -5571.263267 kJ/mol
# Density = 2.200028 g / cm^3
# Si number density = 22.050463 Si / 1000 Ang^3
#
#
#
# Elastic Constant Matrix: (Units=GPa)
#
#
# Indices 1 2 3 4 5 6 
#
# 1 42.6259 13.8158 0.2445 0.0011 10.7657 0.0005
# 2 13.8158 135.7252 5.1990 0.0004 13.0677 -0.0011
# 3 0.2445 5.1990 88.1389 0.0092 6.9959 -0.0058
# 4 0.0011 0.0004 0.0092 34.0995 0.0033 4.1474
# 5 10.7657 13.0677 6.9959 0.0033 53.2804 -0.0011
# 6 0.0005 -0.0011 -0.0058 4.1474 -0.0011 35.8862
#
#
#
# Elastic Compliance Matrix: (Units=1/GPa)
#
#
# Indices 1 2 3 4 5 6 
#
# 1 0.025327 -0.002147 0.000425 0.000000 -0.004647 0.000000
# 2 -0.002147 0.007736 -0.000338 0.000000 -0.001419 0.000000
# 3 0.000425 -0.000338 0.011484 -0.000003 -0.001511 0.000002
# 4 0.000000 0.000000 -0.000003 0.029744 -0.000001 -0.003438
# 5 -0.004647 -0.001419 -0.001511 -0.000001 0.020254 0.000001
# 6 0.000000 0.000000 0.000002 -0.003438 0.000001 0.028263
#
#
# Mechanical properties :
#
#
# Convention : Reuss Voigt Hill
#
# Bulk Modulus (GPa) = 24.73516 33.88986 29.31251
# Shear Modulus (GPa) = 35.61163 41.13527 38.37345
#
# Velocity S-wave (km/s) = 4.02307 4.32384 4.17616
# Velocity P-wave (km/s) = 5.72905 6.35059 6.04781
#
# Compressibility (1/GPa) = 0.04042828
#
# Stress axis : x y z
#
# Youngs Moduli (GPa) = 39.48367 129.26661 87.07456
#
# Poissons Ratio (x) = 0.27753 -0.03702
# Poissons Ratio (y) = 0.08477 0.02941
# Poissons Ratio (z) = -0.01679 0.04365
#
# Static dielectric constant tensor:
#      x y z
#    x 1.879930 0.000000 -0.035280 
#    y 0.000000 1.841390 0.000000 
#    z -0.035280 0.000000 2.050470 
# 
# From -- ./inp_files/219632.got.cif
#   From: 2010.05.17/outbox.cif.g08.bks.cpg/sg12_110_cif.got.tgz:219632.got - 2010.06.03 13:09:07.
