data_PCOD9222310
_publ_section_title
;
Structure prediction by ZEFSAII (Michael W. Deem and Ramdas Pophale) SiO2 
 PCOD9222310
Probable space group: C 2/M
;
_chemical_formula_sum "Si O2"
_cell_formula_units_Z 38
_cell_length_a 11.284538
_cell_length_b 9.845331
_cell_length_c 20.938952
_cell_angle_alpha 90.000000
_cell_angle_beta 40.617436
_cell_angle_gamma 90.000000
_cell_volume 1514.445099
_symmetry_space_group_name_H-M "C 2/M"
_symmetry_group_IT_number 12
_symmetry_cell_setting 'monoclinic'
loop_
_space_group_symop_operation_xyz
x,y,z
-x,y,-z
-x,-y,-z
x,-y,z
1/2+x,1/2+y,z
1/2-x,1/2+y,-z
1/2-x,1/2-y,-z
1/2+x,1/2-y,z
loop_
_atom_site_type_symbol
_atom_site_label
_atom_site_fract_x
_atom_site_fract_y
_atom_site_fract_z
Si Si1 0.122526 0.228402 0.396978
Si Si2 0.863718 0.500000 0.369113
Si Si3 0.084961 0.204397 0.812133
Si Si4 0.574069 0.000000 0.106643
Si Si5 0.895066 0.000000 0.803186
Si Si6 0.102329 0.000000 0.584109
Si Si7 0.222413 0.000000 0.851513
Si Si8 0.000000 0.500000 0.000000
O O1 0.264786 0.130874 0.376887
O O2 0.230403 0.316628 0.302970
O O3 0.000000 0.299854 0.500000
O O4 0.994664 0.130046 0.407997
O O5 0.802858 0.500000 0.468847
O O6 0.072888 0.500000 0.262321
O O7 0.033687 0.360961 0.835954
O O8 0.116706 0.131145 0.866652
O O9 0.940031 0.131168 0.826919
O O10 0.629179 0.000000 0.010443
O O11 0.743236 0.000000 0.087178
O O12 0.032758 0.000000 0.685721
O O13 0.680846 0.000000 0.878479
#
# Coordination Sequence:
#
# PCOD9222310 Si02
#       8
#     8   4   8   4   4   4   4   2
#     4   9  17  32  60  99 142 193 238 280 344 413
#     4   9  17  35  62 101 145 192 238 284 342 405
#     4  11  25  46  72 106 149 189 232 297 355 423
#     4  12  27  50  77 104 145 185 234 297 362 420
#     4  11  27  47  70 109 142 180 247 298 359 429
#     4   9  19  35  65  98 141 191 237 289 346 417
#     4  11  25  44  72 112 150 187 238 288 346 422
#     4  12  30  50  82 106 130 190 234 296 372 436
#
# _framework density 25.091698000000001
#
# number of rings (size 3 to 8) (size 9 to 14) (size 15 to 20)
#    0.000    1.684    2.105    3.158    5.895    2.526 
#    0.000    7.368    0.000    0.000    0.000    0.000 
#    0.000    0.000    0.000    0.000    0.000    0.000 
#
# Total GULP energy -106049.287755 kJ/mol
# GULP energy per Si atom -5581.541461 kJ/mol
# Density = 2.503459 g / cm^3
# Si number density = 25.091698 Si / 1000 Ang^3
#
#
#
# Elastic Constant Matrix: (Units=GPa)
#
#
# Indices 1 2 3 4 5 6 
#
# 1 99.1274 47.2700 37.9221 0.0000 48.5373 0.0000
# 2 47.2700 104.1657 29.1394 0.0000 15.4135 0.0000
# 3 37.9221 29.1394 134.5628 0.0000 25.4685 0.0000
# 4 0.0000 0.0000 0.0000 11.7127 0.0000 -4.4863
# 5 48.5373 15.4135 25.4685 0.0000 44.4640 0.0000
# 6 0.0000 0.0000 0.0000 -4.4863 0.0000 1.0247
#
#
#
# Elastic Compliance Matrix: (Units=1/GPa)
#
#
# Indices 1 2 3 4 5 6 
#
# 1 0.027296 -0.008222 -0.000911 0.000000 -0.026425 0.000000
# 2 -0.008222 0.012960 -0.001501 0.000000 0.005342 0.000000
# 3 -0.000911 -0.001501 0.008666 0.000000 -0.003450 0.000000
# 4 0.000000 0.000000 0.000000 -0.126106 0.000000 -0.552135
# 5 -0.026425 0.005342 -0.003450 0.000000 0.051460 0.000000
# 6 0.000000 0.000000 0.000000 -0.552135 0.000000 -1.441496
#
#
# Mechanical properties :
#
#
# Convention : Reuss Voigt Hill
#
# Bulk Modulus (GPa) = 36.15841 62.94654 49.55248
# Shear Modulus (GPa) = -3.48011 26.34189 11.43089
#
# Velocity S-wave (km/s) = -1.17897 3.24362 2.13671
# Velocity P-wave (km/s) = 3.54803 6.25852 5.08712
#
# Compressibility (1/GPa) = 0.02765608
#
# Stress axis : x y z
#
# Youngs Moduli (GPa) = 36.63560 77.15754 115.39433
#
# Poissons Ratio (x) = 0.63438 0.10508
# Poissons Ratio (y) = 0.30122 0.17316
# Poissons Ratio (z) = 0.03336 0.11578
#
# Static dielectric constant tensor:
#      x y z
#    x 2.021490 0.000000 0.018820 
#    y 0.000000 1.910320 0.000000 
#    z 0.018820 0.000000 2.015720 
# 
# From -- ./inp_files/303809.got.cif
#   From: 2010.05.17/outbox.cif.g08.bks.cpg/sg12_152_cif.got.tgz:303809.got - 2010.06.03 13:09:07.
