data_PCOD9222211
_publ_section_title
;
Structure prediction by ZEFSAII (Michael W. Deem and Ramdas Pophale) SiO2 
 PCOD9222211
Probable space group: C 2/M
;
_chemical_formula_sum "Si O2"
_cell_formula_units_Z 48
_cell_length_a 9.124105
_cell_length_b 29.624939
_cell_length_c 16.674932
_cell_angle_alpha 90.000000
_cell_angle_beta 150.446819
_cell_angle_gamma 90.000000
_cell_volume 2223.117152
_symmetry_space_group_name_H-M "C 2/M"
_symmetry_group_IT_number 12
_symmetry_cell_setting 'monoclinic'
loop_
_space_group_symop_operation_xyz
x,y,z
-x,y,-z
-x,-y,-z
x,-y,z
1/2+x,1/2+y,z
1/2-x,1/2+y,-z
1/2-x,1/2-y,-z
1/2+x,1/2-y,z
loop_
_atom_site_type_symbol
_atom_site_label
_atom_site_fract_x
_atom_site_fract_y
_atom_site_fract_z
Si Si1 0.761915 0.377562 0.059499
Si Si2 0.840372 0.814263 0.777021
Si Si3 0.862159 0.553140 0.673851
Si Si4 0.622399 0.666975 0.648194
Si Si5 0.381782 0.888713 0.528048
Si Si6 0.307845 0.736378 0.184263
O O1 0.949148 0.424029 0.163709
O O2 0.032211 0.343118 0.198029
O O3 0.500000 0.379070 0.000000
O O4 0.582860 0.354872 0.900246
O O5 0.547616 0.840875 0.614375
O O6 0.769508 0.786675 0.823983
O O7 0.954038 0.776552 0.769457
O O8 0.500000 0.558993 0.500000
O O9 0.919455 0.500000 0.698368
O O10 0.962873 0.579105 0.640989
O O11 0.500000 0.670377 0.500000
O O12 0.459056 0.626358 0.619629
O O13 0.589207 0.710275 0.687627
O O14 0.500000 0.907961 0.500000
O O15 0.000000 0.718336 0.000000
#
# Coordination Sequence:
#
# PCOD9222211 Si02
#       6
#     8   8   8   8   8   8
#     4  12  22  42  72  98 136 180 229 281 345 416
#     4  12  27  42  66  98 135 188 239 284 338 407
#     4  11  24  45  76 107 135 176 225 284 352 424
#     4  12  24  43  68  99 138 185 231 295 340 400
#     4  12  24  45  69 100 139 182 230 285 357 411
#     4  12  27  42  64  99 138 185 242 287 340 398
#
# _framework density 21.591304999999998
#
# number of rings (size 3 to 8) (size 9 to 14) (size 15 to 20)
#    0.000    0.167    8.333    1.000    4.667    2.000 
#    0.000    0.000    0.000    0.000    0.000    4.667 
#    0.000    0.000    0.000    0.000    0.000    0.000 
#
# Total GULP energy -133814.079694 kJ/mol
# GULP energy per Si atom -5575.586654 kJ/mol
# Density = 2.154216 g / cm^3
# Si number density = 21.591305 Si / 1000 Ang^3
#
#
#
# Elastic Constant Matrix: (Units=GPa)
#
#
# Indices 1 2 3 4 5 6 
#
# 1 119.0972 48.5796 30.2715 0.0000 11.3215 0.0000
# 2 48.5796 108.7936 15.8131 0.0000 1.1882 0.0000
# 3 30.2715 15.8131 66.1140 0.0000 20.4297 0.0000
# 4 0.0000 0.0000 0.0000 12.8457 0.0000 -33.1208
# 5 11.3215 1.1882 20.4297 0.0000 33.7907 0.0000
# 6 0.0000 0.0000 0.0000 -33.1208 0.0000 -38.6277
#
#
#
# Elastic Compliance Matrix: (Units=1/GPa)
#
#
# Indices 1 2 3 4 5 6 
#
# 1 0.011295 -0.004496 -0.003659 0.000000 -0.001414 0.000000
# 2 -0.004496 0.011358 -0.001230 0.000000 0.001851 0.000000
# 3 -0.003659 -0.001230 0.020540 0.000000 -0.011149 0.000000
# 4 0.000000 0.000000 0.000000 0.024246 0.000000 -0.020789
# 5 -0.001414 0.001851 -0.011149 0.000000 0.036743 0.000000
# 6 0.000000 0.000000 0.000000 -0.020789 0.000000 -0.008063
#
#
# Mechanical properties :
#
#
# Convention : Reuss Voigt Hill
#
# Bulk Modulus (GPa) = 40.94577 53.70370 47.32473
# Shear Modulus (GPa) = 40.64027 14.89111 27.76569
#
# Velocity S-wave (km/s) = 4.34320 2.62903 3.58993
# Velocity P-wave (km/s) = 6.64502 5.84316 6.25695
#
# Compressibility (1/GPa) = 0.02442255
#
# Stress axis : x y z
#
# Youngs Moduli (GPa) = 88.53455 88.04403 48.68499
#
# Poissons Ratio (x) = 0.39587 0.17815
# Poissons Ratio (y) = 0.39807 0.05987
# Poissons Ratio (z) = 0.32398 0.10827
#
# Static dielectric constant tensor:
#      x y z
#    x 1.846080 0.000000 -0.019930 
#    y 0.000000 1.785120 0.000000 
#    z -0.019930 0.000000 1.826450 
# 
# From -- ./inp_files/260427.got.cif
#   From: 2010.05.17/outbox.cif.g08.bks.cpg/sg12_131_cif.got.tgz:260427.got - 2010.06.03 13:09:07.
