data_PCOD9222853
_publ_section_title
;
Structure prediction by ZEFSAII (Michael W. Deem and Ramdas Pophale) SiO2 
 PCOD9222853
Probable space group: C 2/M
;
_chemical_formula_sum "Si O2"
_cell_formula_units_Z 64
_cell_length_a 23.138411
_cell_length_b 7.344940
_cell_length_c 21.917928
_cell_angle_alpha 90.000000
_cell_angle_beta 127.167662
_cell_angle_gamma 90.000000
_cell_volume 2968.310427
_symmetry_space_group_name_H-M "C 2/M"
_symmetry_group_IT_number 12
_symmetry_cell_setting 'monoclinic'
loop_
_space_group_symop_operation_xyz
x,y,z
-x,y,-z
-x,-y,-z
x,-y,z
1/2+x,1/2+y,z
1/2-x,1/2+y,-z
1/2-x,1/2-y,-z
1/2+x,1/2-y,z
loop_
_atom_site_type_symbol
_atom_site_label
_atom_site_fract_x
_atom_site_fract_y
_atom_site_fract_z
Si Si1 0.401240 0.290527 0.886459
Si Si2 0.976749 0.777552 0.255752
Si Si3 0.813771 0.787222 0.171578
Si Si4 0.016770 0.778489 0.413185
Si Si5 0.616104 0.278650 0.584689
Si Si6 0.665536 0.280945 0.028856
Si Si7 0.752465 0.279410 0.742722
Si Si8 0.976732 0.777439 0.122983
O O1 0.418352 0.500000 0.912157
O O2 0.368709 0.213160 0.928421
O O3 0.335079 0.284387 0.796132
O O4 0.472103 0.212900 0.899349
O O5 0.892782 0.716359 0.206337
O O6 0.015938 0.718257 0.342721
O O7 0.004098 0.719985 0.206845
O O8 0.978321 0.000000 0.256738
O O9 0.749487 0.773667 0.081249
O O10 0.781878 0.713902 0.214813
O O11 0.825710 0.000000 0.190672
O O12 0.942112 0.726199 0.400108
O O13 0.082398 0.719434 0.498811
O O14 0.017241 0.000000 0.413266
O O15 0.616346 0.500000 0.584563
O O16 0.696495 0.220890 0.654828
O O17 0.666902 0.500000 0.030609
O O18 0.606902 0.224756 0.941366
O O19 0.754766 0.500000 0.744622
O O20 0.978659 0.000000 0.122714
#
# Coordination Sequence:
#
# PCOD9222853 Si02
#       8
#     8   8   8   8   8   8   8   8
#     4   9  17  29  44  60  78 105 142 178 203 229
#     4   9  15  24  39  60  86 109 131 165 205 243
#     4   9  16  26  41  63  87 107 128 161 208 251
#     4   8  12  19  34  59  87 109 128 158 198 240
#     4   8  12  19  35  60  87 108 128 157 198 242
#     4   9  17  29  44  60  79 105 138 175 207 236
#     4   9  15  25  42  64  87 107 128 163 208 246
#     4   9  17  28  42  57  75 106 144 174 201 235
#
# _framework density 21.561087000000001
#
# number of rings (size 3 to 8) (size 9 to 14) (size 15 to 20)
#    0.000    3.250    1.250    1.125    0.000    2.000 
#    0.000    0.625    0.000    4.500    0.000    2.625 
#    0.000    0.000    0.000    0.000    0.000    0.000 
#
# Total GULP energy -178456.125928 kJ/mol
# GULP energy per Si atom -5576.753935 kJ/mol
# Density = 2.151201 g / cm^3
# Si number density = 21.561087 Si / 1000 Ang^3
#
#
#
# Elastic Constant Matrix: (Units=GPa)
#
#
# Indices 1 2 3 4 5 6 
#
# 1 14.3297 -2.1960 -0.3274 0.0000 -1.8515 0.0000
# 2 -2.1960 79.4997 -8.8145 0.0001 -1.8419 0.0001
# 3 -0.3274 -8.8145 118.9562 0.0000 -3.7165 0.0000
# 4 0.0000 0.0001 0.0000 9.2151 0.0000 10.0737
# 5 -1.8515 -1.8419 -3.7165 0.0000 31.5615 0.0000
# 6 0.0000 0.0001 0.0000 10.0737 0.0000 -0.6483
#
#
#
# Elastic Compliance Matrix: (Units=1/GPa)
#
#
# Indices 1 2 3 4 5 6 
#
# 1 0.070678 0.002106 0.000486 0.000000 0.004326 0.000000
# 2 0.002106 0.012769 0.000983 0.000000 0.000984 0.000000
# 3 0.000486 0.000983 0.008515 0.000000 0.001088 0.000000
# 4 0.000000 0.000000 0.000000 0.006033 0.000000 0.093750
# 5 0.004326 0.000984 0.001088 0.000000 0.032124 0.000000
# 6 0.000000 0.000000 0.000000 0.093750 0.000000 -0.085760
#
#
# Mechanical properties :
#
#
# Convention : Reuss Voigt Hill
#
# Bulk Modulus (GPa) = 10.08970 21.12332 15.60651
# Shear Modulus (GPa) = 71.17925 22.96725 47.07325
#
# Velocity S-wave (km/s) = 5.75191 3.26731 4.67760
# Velocity P-wave (km/s) = 6.98587 4.90428 6.03549
#
# Compressibility (1/GPa) = 0.09911098
#
# Stress axis : x y z
#
# Youngs Moduli (GPa) = 14.14869 78.31709 117.44517
#
# Poissons Ratio (x) = -0.16497 -0.05705
# Poissons Ratio (y) = -0.02980 -0.11541
# Poissons Ratio (z) = -0.00687 -0.07696
#
# Static dielectric constant tensor:
#      x y z
#    x 1.752940 0.000000 -0.006940 
#    y 0.000000 1.838650 0.000000 
#    z -0.006940 0.000000 1.807740 
# 
# From -- ./inp_files/239620.got.cif
#   From: 2010.05.17/outbox.cif.g08.bks.cpg/sg12_120_cif.got.tgz:239620.got - 2010.06.03 13:09:07.
