data_PCOD9222135
_publ_section_title
;
Structure prediction by ZEFSAII (Michael W. Deem and Ramdas Pophale) SiO2 
 PCOD9222135
Probable space group: C 2/M
;
_chemical_formula_sum "Si O2"
_cell_formula_units_Z 36
_cell_length_a 22.018124
_cell_length_b 15.964523
_cell_length_c 4.926061
_cell_angle_alpha 90.000000
_cell_angle_beta 70.541153
_cell_angle_gamma 90.000000
_cell_volume 1632.649399
_symmetry_space_group_name_H-M "C 2/M"
_symmetry_group_IT_number 12
_symmetry_cell_setting 'monoclinic'
loop_
_space_group_symop_operation_xyz
x,y,z
-x,y,-z
-x,-y,-z
x,-y,z
1/2+x,1/2+y,z
1/2-x,1/2+y,-z
1/2-x,1/2-y,-z
1/2+x,1/2-y,z
loop_
_atom_site_type_symbol
_atom_site_label
_atom_site_fract_x
_atom_site_fract_y
_atom_site_fract_z
Si Si1 0.348139 0.143809 0.901406
Si Si2 0.865253 0.167255 0.048475
Si Si3 0.047880 0.500000 0.178197
Si Si4 0.566212 0.597698 0.546855
Si Si5 0.267141 0.099714 0.520305
O O1 0.366930 0.238425 0.938385
O O2 0.287669 0.120890 0.184362
O O3 0.405239 0.080041 0.884756
O O4 0.325207 0.129849 0.628104
O O5 0.916180 0.148826 0.211431
O O6 0.796714 0.145883 0.284281
O O7 0.880138 0.109766 0.765804
O O8 0.000000 0.500000 0.500000
O O9 0.000000 0.500000 0.000000
O O10 0.500000 0.623771 0.500000
O O11 0.561384 0.500000 0.630421
O O12 0.258893 0.000000 0.560963
#
# Coordination Sequence:
#
# PCOD9222135 Si02
#       5
#     8   8   4   8   8
#     4  12  25  45  65 100 137 174 228 293 337 400
#     4  12  25  41  70 103 133 177 232 277 347 408
#     4  12  26  46  70  94 132 188 233 276 341 400
#     4  11  24  44  66  96 139 178 221 276 339 408
#     4  12  22  42  69  97 138 178 222 278 355 407
#
# _framework density 22.050051
#
# number of rings (size 3 to 8) (size 9 to 14) (size 15 to 20)
#    0.000    0.222    2.222    8.000    0.000    4.444 
#    0.000    0.000    0.000    0.000    0.000    0.000 
#    0.000    0.000    0.000    0.000    0.000    0.000 
#
# Total GULP energy -100901.659951 kJ/mol
# GULP energy per Si atom -5605.647775 kJ/mol
# Density = 2.199986 g / cm^3
# Si number density = 22.050051 Si / 1000 Ang^3
#
#
#
# Elastic Constant Matrix: (Units=GPa)
#
#
# Indices 1 2 3 4 5 6 
#
# 1 78.5212 21.7461 -16.0492 0.0000 6.7160 0.0000
# 2 21.7461 112.4376 -17.3911 0.0000 7.6865 0.0000
# 3 -16.0492 -17.3911 79.7226 0.0000 -1.1867 0.0000
# 4 0.0000 0.0000 0.0000 -32.8125 0.0000 0.8505
# 5 6.7160 7.6865 -1.1867 0.0000 39.9835 0.0000
# 6 0.0000 0.0000 0.0000 0.8505 0.0000 -21.8307
#
#
#
# Elastic Compliance Matrix: (Units=1/GPa)
#
#
# Indices 1 2 3 4 5 6 
#
# 1 0.013980 -0.002221 0.002302 0.000000 -0.001853 0.000000
# 2 -0.002221 0.009676 0.001642 0.000000 -0.001438 0.000000
# 3 0.002302 0.001642 0.013361 0.000000 -0.000306 0.000000
# 4 0.000000 0.000000 0.000000 -0.030507 0.000000 -0.001189
# 5 -0.001853 -0.001438 -0.000306 0.000000 0.025589 0.000000
# 6 0.000000 0.000000 0.000000 -0.001189 0.000000 -0.045853
#
#
# Mechanical properties :
#
#
# Convention : Reuss Voigt Hill
#
# Bulk Modulus (GPa) = 24.71414 27.47700 26.09557
# Shear Modulus (GPa) = -1345.99964 15.89310 -665.05327
#
# Velocity S-wave (km/s) = -24.73367 2.68764 -17.38579
# Velocity P-wave (km/s) = 28.36265 4.70313 19.77777
#
# Compressibility (1/GPa) = 0.04046267
#
# Stress axis : x y z
#
# Youngs Moduli (GPa) = 71.53318 103.35170 74.84674
#
# Poissons Ratio (x) = 0.22954 -0.17231
# Poissons Ratio (y) = 0.15887 -0.12291
# Poissons Ratio (z) = -0.16468 -0.16972
#
# Static dielectric constant tensor:
#      x y z
#    x 1.794430 0.000000 -0.023050 
#    y 0.000000 1.761700 0.000000 
#    z -0.023050 0.000000 1.773700 
# 
# From -- ./inp_files/23988.got.cif
#   From: 2010.05.17/outbox.cif.g08.bks.cpg/sg12_12_cif.got.tgz:23988.got - 2010.06.03 13:09:07.
