data_PCOD9222686
_publ_section_title
;
Structure prediction by ZEFSAII (Michael W. Deem and Ramdas Pophale) SiO2 
 PCOD9222686
Probable space group: C 2/M
;
_chemical_formula_sum "Si O2"
_cell_formula_units_Z 48
_cell_length_a 25.022805
_cell_length_b 8.885034
_cell_length_c 24.609762
_cell_angle_alpha 90.000000
_cell_angle_beta 146.442485
_cell_angle_gamma 90.000000
_cell_volume 3024.474566
_symmetry_space_group_name_H-M "C 2/M"
_symmetry_group_IT_number 12
_symmetry_cell_setting 'monoclinic'
loop_
_space_group_symop_operation_xyz
x,y,z
-x,y,-z
-x,-y,-z
x,-y,z
1/2+x,1/2+y,z
1/2-x,1/2+y,-z
1/2-x,1/2-y,-z
1/2+x,1/2-y,z
loop_
_atom_site_type_symbol
_atom_site_label
_atom_site_fract_x
_atom_site_fract_y
_atom_site_fract_z
Si Si1 0.166701 0.679690 0.967369
Si Si2 0.400935 0.817898 0.485814
Si Si3 0.158151 0.178912 0.451904
Si Si4 0.374791 0.817453 0.342370
Si Si5 0.468874 0.179207 0.240620
Si Si6 0.778248 0.319950 0.153194
O O1 0.176496 0.500000 0.975440
O O2 0.068045 0.715778 0.851589
O O3 0.250000 0.750000 0.000000
O O4 0.190355 0.743106 0.046759
O O5 0.351582 0.742191 0.495259
O O6 0.359086 0.772259 0.391448
O O7 0.515181 0.777377 0.580877
O O8 0.395396 0.000000 0.486015
O O9 0.250000 0.250000 0.500000
O O10 0.061105 0.230381 0.338455
O O11 0.165666 0.000000 0.458919
O O12 0.300644 0.766605 0.233261
O O13 0.372926 0.000000 0.340274
O O14 0.377432 0.207520 0.203130
O O15 0.489186 0.000000 0.261186
O O16 0.763389 0.500000 0.140232
#
# Coordination Sequence:
#
# PCOD9222686 Si02
#       6
#     8   8   8   8   8   8
#     4   9  17  27  41  63  92 125 155 187 230 278
#     4   9  16  31  50  68  93 125 161 192 228 278
#     4  12  24  35  49  68  92 124 162 201 240 279
#     4   8  14  26  49  72  94 128 157 184 228 282
#     4   9  17  31  47  63  91 125 159 195 230 275
#     4   9  15  26  45  70  97 125 155 185 225 277
#
# _framework density 15.870526
#
# number of rings (size 3 to 8) (size 9 to 14) (size 15 to 20)
#    0.000    2.667    1.667    4.000    0.000    3.333 
#    0.000    2.500    0.000    0.000    0.000    1.167 
#    0.000    9.333    0.000    0.000    0.000    0.000 
#
# Total GULP energy -133668.682612 kJ/mol
# GULP energy per Si atom -5569.528442 kJ/mol
# Density = 1.583440 g / cm^3
# Si number density = 15.870526 Si / 1000 Ang^3
#
#
#
# Elastic Constant Matrix: (Units=GPa)
#
#
# Indices 1 2 3 4 5 6 
#
# 1 99.1772 42.6747 61.9997 0.0000 -24.2307 0.0000
# 2 42.6747 54.9492 44.5504 0.0000 -9.1327 0.0000
# 3 61.9997 44.5504 97.3149 0.0000 -41.0891 0.0000
# 4 0.0000 0.0000 0.0000 26.6307 0.0000 -4.2639
# 5 -24.2307 -9.1327 -41.0891 0.0000 31.9368 0.0000
# 6 0.0000 0.0000 0.0000 -4.2639 0.0000 19.8580
#
#
#
# Elastic Compliance Matrix: (Units=1/GPa)
#
#
# Indices 1 2 3 4 5 6 
#
# 1 0.018723 -0.008651 -0.006600 0.000000 0.003240 0.000000
# 2 -0.008651 0.039542 -0.023179 0.000000 -0.025078 0.000000
# 3 -0.006600 -0.023179 0.044177 0.000000 0.045202 0.000000
# 4 0.000000 0.000000 0.000000 0.038888 0.000000 0.008350
# 5 0.003240 -0.025078 0.045202 0.000000 0.084754 0.000000
# 6 0.000000 0.000000 0.000000 0.008350 0.000000 0.052150
#
#
# Mechanical properties :
#
#
# Convention : Reuss Voigt Hill
#
# Bulk Modulus (GPa) = 39.08968 61.09900 50.09434
# Shear Modulus (GPa) = 13.75054 22.49955 18.12505
#
# Velocity S-wave (km/s) = 2.94669 3.76931 3.38310
# Velocity P-wave (km/s) = 6.02173 7.58456 6.84788
#
# Compressibility (1/GPa) = 0.02558220
#
# Stress axis : x y z
#
# Youngs Moduli (GPa) = 53.41038 25.28970 22.63597
#
# Poissons Ratio (x) = 0.21879 0.14940
# Poissons Ratio (y) = 0.46206 0.52468
# Poissons Ratio (z) = 0.35250 0.58619
#
# Static dielectric constant tensor:
#      x y z
#    x 1.521230 0.000000 -0.048410 
#    y 0.000000 1.530780 0.000000 
#    z -0.048410 0.000000 1.558750 
# 
# From -- ./inp_files/348896.got.cif
#   From: 2010.05.17/outbox.cif.g08.bks.cpg/sg12_175_cif.got.tgz:348896.got - 2010.06.03 13:09:07.
