data_PCOD9222058
_publ_section_title
;
Structure prediction by ZEFSAII (Michael W. Deem and Ramdas Pophale) SiO2 
 PCOD9222058
Probable space group: C 2/M
;
_chemical_formula_sum "Si O2"
_cell_formula_units_Z 28
_cell_length_a 14.208742
_cell_length_b 9.767379
_cell_length_c 11.797284
_cell_angle_alpha 90.000000
_cell_angle_beta 138.533763
_cell_angle_gamma 90.000000
_cell_volume 1084.153656
_symmetry_space_group_name_H-M "C 2/M"
_symmetry_group_IT_number 12
_symmetry_cell_setting 'monoclinic'
loop_
_space_group_symop_operation_xyz
x,y,z
-x,y,-z
-x,-y,-z
x,-y,z
1/2+x,1/2+y,z
1/2-x,1/2+y,-z
1/2-x,1/2-y,-z
1/2+x,1/2-y,z
loop_
_atom_site_type_symbol
_atom_site_label
_atom_site_fract_x
_atom_site_fract_y
_atom_site_fract_z
Si Si1 0.788679 0.205995 0.882065
Si Si2 0.195658 0.000000 0.778100
Si Si3 0.636842 0.500000 0.470992
Si Si4 0.413973 0.272873 0.747392
Si Si5 0.445774 0.000000 0.229063
O O1 0.765015 0.365757 0.892899
O O2 0.818790 0.211768 0.774716
O O3 0.652518 0.118484 0.792409
O O4 0.933634 0.162921 0.074470
O O5 0.214788 0.000000 0.660864
O O6 0.030134 0.000000 0.649360
O O7 0.653424 0.365801 0.410639
O O8 0.456895 0.122527 0.742632
#
# Coordination Sequence:
#
# PCOD9222058 Si02
#       5
#     8   4   4   8   4
#     4  11  24  42  68 102 133 172 229 278 328 400
#     4  11  24  44  65  92 138 180 213 270 346 401
#     4  11  24  44  65  92 138 180 213 270 346 401
#     4  11  24  42  68 102 133 172 229 278 328 400
#     4  12  22  38  69  96 131 178 218 274 334 380
#
# _framework density 25.826595999999999
#
# number of rings (size 3 to 8) (size 9 to 14) (size 15 to 20)
#    0.000    0.857    2.857    4.286    4.000    5.714 
#    0.000    2.857    0.000    0.000    0.000    0.000 
#    0.000    0.000    0.000    0.000    0.000    0.000 
#
# Total GULP energy -78012.138248 kJ/mol
# GULP energy per Si atom -5572.295589 kJ/mol
# Density = 2.576781 g / cm^3
# Si number density = 25.826596 Si / 1000 Ang^3
#
#
#
# Elastic Constant Matrix: (Units=GPa)
#
#
# Indices 1 2 3 4 5 6 
#
# 1 244.4598 70.1803 45.8343 0.0000 -33.6413 0.0000
# 2 70.1803 236.3157 48.6599 0.0000 -19.4498 0.0000
# 3 45.8343 48.6599 88.2635 0.0000 -12.3971 0.0000
# 4 0.0000 0.0000 0.0000 699.2902 0.0000 -244.6313
# 5 -33.6413 -19.4498 -12.3971 0.0000 44.7664 0.0000
# 6 0.0000 0.0000 0.0000 -244.6313 0.0000 120.3628
#
#
#
# Elastic Compliance Matrix: (Units=1/GPa)
#
#
# Indices 1 2 3 4 5 6 
#
# 1 0.005081 -0.000912 -0.001722 0.000000 0.002945 0.000000
# 2 -0.000912 0.005023 -0.002170 0.000000 0.000896 0.000000
# 3 -0.001722 -0.002170 0.013636 0.000000 0.001540 0.000000
# 4 0.000000 0.000000 0.000000 0.004948 0.000000 0.010057
# 5 0.002945 0.000896 0.001540 0.000000 0.025367 0.000000
# 6 0.000000 0.000000 0.000000 0.010057 0.000000 0.028749
#
#
# Mechanical properties :
#
#
# Convention : Reuss Voigt Hill
#
# Bulk Modulus (GPa) = 70.75785 99.82089 85.28937
# Shear Modulus (GPa) = 51.48164 199.84154 125.66159
#
# Velocity S-wave (km/s) = 4.46955 8.80603 6.98294
# Velocity P-wave (km/s) = 7.35476 11.92180 9.90509
#
# Compressibility (1/GPa) = 0.01413271
#
# Stress axis : x y z
#
# Youngs Moduli (GPa) = 196.82927 199.08534 73.33352
#
# Poissons Ratio (x) = 0.18154 0.12628
# Poissons Ratio (y) = 0.17948 0.15912
# Poissons Ratio (z) = 0.33893 0.43197
#
# Static dielectric constant tensor:
#      x y z
#    x 2.002840 0.000000 0.004580 
#    y 0.000000 2.643330 0.000000 
#    z 0.004580 0.000000 2.070170 
# 
# From -- ./inp_files/138241.got.cif
#   From: 2010.05.17/outbox.cif.g08.bks.cpg/sg12_70_cif.got.tgz:138241.got - 2010.06.03 13:09:07.
