data_PCOD9222688
_publ_section_title
;
Structure prediction by ZEFSAII (Michael W. Deem and Ramdas Pophale) SiO2 
 PCOD9222688
Probable space group: C 2/M
;
_chemical_formula_sum "Si O2"
_cell_formula_units_Z 56
_cell_length_a 30.419919
_cell_length_b 9.347124
_cell_length_c 20.573407
_cell_angle_alpha 90.000000
_cell_angle_beta 32.794474
_cell_angle_gamma 90.000000
_cell_volume 3168.419601
_symmetry_space_group_name_H-M "C 2/M"
_symmetry_group_IT_number 12
_symmetry_cell_setting 'monoclinic'
loop_
_space_group_symop_operation_xyz
x,y,z
-x,y,-z
-x,-y,-z
x,-y,z
1/2+x,1/2+y,z
1/2-x,1/2+y,-z
1/2-x,1/2-y,-z
1/2+x,1/2-y,z
loop_
_atom_site_type_symbol
_atom_site_label
_atom_site_fract_x
_atom_site_fract_y
_atom_site_fract_z
Si Si1 0.952077 0.162171 0.341974
Si Si2 0.972047 0.826360 0.106893
Si Si3 0.117187 0.666516 0.305592
Si Si4 0.747799 0.170539 0.933601
Si Si5 0.070115 0.663391 0.506189
Si Si6 0.906819 0.826363 0.925168
Si Si7 0.327621 0.335202 0.376478
O O1 0.917329 0.246054 0.445600
O O2 0.890676 0.162232 0.358018
O O3 0.036673 0.215790 0.206619
O O4 0.966140 0.000000 0.345514
O O5 0.883996 0.779568 0.246002
O O6 0.041570 0.792778 0.073964
O O7 0.966804 0.000000 0.111796
O O8 0.000000 0.778602 0.000000
O O9 0.144882 0.500000 0.262512
O O10 0.169591 0.781561 0.203261
O O11 0.117326 0.701388 0.381971
O O12 0.024858 0.670934 0.395196
O O13 0.739434 0.000000 0.950825
O O14 0.750000 0.250000 0.000000
O O15 0.675580 0.240038 0.980791
O O16 0.089754 0.500000 0.496883
O O17 0.894963 0.000000 0.938226
O O18 0.303900 0.500000 0.391521
O O19 0.250000 0.250000 0.500000
#
# Coordination Sequence:
#
# PCOD9222688 Si02
#       7
#     8   8   8   8   8   8   8
#     4   9  18  32  51  74 102 136 170 208 257 310
#     4   8  15  32  58  82 104 138 183 225 265 316
#     4   9  19  36  53  73 103 133 168 214 257 302
#     4  12  24  36  52  76 106 140 176 215 261 309
#     4   9  18  33  54  76  98 130 171 214 256 300
#     4   9  18  34  55  78 105 138 177 219 260 309
#     4   9  18  33  52  77 107 136 172 218 266 315
#
# _framework density 17.674426
#
# number of rings (size 3 to 8) (size 9 to 14) (size 15 to 20)
#    0.000    2.714    0.000    4.714    0.000    4.571 
#    2.571    3.571    0.000    0.857    0.000    0.000 
#    0.000    0.000    0.000    0.000    0.000    0.000 
#
# Total GULP energy -155943.599083 kJ/mol
# GULP energy per Si atom -5569.414253 kJ/mol
# Density = 1.763420 g / cm^3
# Si number density = 17.674426 Si / 1000 Ang^3
#
#
#
# Elastic Constant Matrix: (Units=GPa)
#
#
# Indices 1 2 3 4 5 6 
#
# 1 48.8174 24.5660 24.8365 0.0003 23.1472 0.0003
# 2 24.5660 52.7668 42.4472 -0.0001 12.1019 0.0024
# 3 24.8365 42.4472 83.5005 -0.0034 16.5319 0.0011
# 4 0.0003 -0.0001 -0.0034 29.9324 0.0000 -0.5769
# 5 23.1472 12.1019 16.5319 0.0000 30.5522 -0.0003
# 6 0.0003 0.0024 0.0011 -0.5769 -0.0003 23.4469
#
#
#
# Elastic Compliance Matrix: (Units=1/GPa)
#
#
# Indices 1 2 3 4 5 6 
#
# 1 0.037986 -0.011721 -0.000629 0.000000 -0.023796 0.000001
# 2 -0.011721 0.036203 -0.015497 -0.000002 0.002925 -0.000003
# 3 -0.000629 -0.015497 0.020978 0.000002 -0.004737 0.000001
# 4 0.000000 -0.000002 0.000002 0.033424 0.000000 0.000822
# 5 -0.023796 0.002925 -0.004737 0.000000 0.052164 0.000001
# 6 0.000001 -0.000003 0.000001 0.000822 0.000001 0.042670
#
#
# Mechanical properties :
#
#
# Convention : Reuss Voigt Hill
#
# Bulk Modulus (GPa) = 25.33293 40.97602 33.15448
# Shear Modulus (GPa) = 17.10705 23.00196 20.05450
#
# Velocity S-wave (km/s) = 3.11448 3.61144 3.37213
# Velocity P-wave (km/s) = 5.22471 6.37371 5.82759
#
# Compressibility (1/GPa) = 0.03947431
#
# Stress axis : x y z
#
# Youngs Moduli (GPa) = 26.32552 27.62184 47.66794
#
# Poissons Ratio (x) = 0.32376 0.02998
# Poissons Ratio (y) = 0.30857 0.73869
# Poissons Ratio (z) = 0.01656 0.42804
#
# Static dielectric constant tensor:
#      x y z
#    x 1.622070 0.000000 0.015230 
#    y 0.000000 1.599700 0.000000 
#    z 0.015230 0.000000 1.652290 
# 
# From -- ./inp_files/329544.got.cif
#   From: 2010.05.17/outbox.cif.g08.bks.cpg/sg12_165_cif.got.tgz:329544.got - 2010.06.03 13:09:07.
