data_PCOD9222502
_publ_section_title
;
Structure prediction by ZEFSAII (Michael W. Deem and Ramdas Pophale) SiO2 
 PCOD9222502
Probable space group: C 2/M
;
_chemical_formula_sum "Si O2"
_cell_formula_units_Z 40
_cell_length_a 12.391811
_cell_length_b 26.140421
_cell_length_c 11.284727
_cell_angle_alpha 90.000000
_cell_angle_beta 34.789095
_cell_angle_gamma 90.000000
_cell_volume 2085.631891
_symmetry_space_group_name_H-M "C 2/M"
_symmetry_group_IT_number 12
_symmetry_cell_setting 'monoclinic'
loop_
_space_group_symop_operation_xyz
x,y,z
-x,y,-z
-x,-y,-z
x,-y,z
1/2+x,1/2+y,z
1/2-x,1/2+y,-z
1/2-x,1/2-y,-z
1/2+x,1/2-y,z
loop_
_atom_site_type_symbol
_atom_site_label
_atom_site_fract_x
_atom_site_fract_y
_atom_site_fract_z
Si Si1 0.805771 0.557979 0.518878
Si Si2 0.016614 0.864055 0.766960
Si Si3 0.628627 0.269847 0.217725
Si Si4 0.818811 0.290560 0.605659
Si Si5 0.745468 0.940782 0.150984
O O1 0.763525 0.500000 0.522468
O O2 0.673915 0.598133 0.572485
O O3 0.757968 0.562974 0.702918
O O4 0.029053 0.566208 0.305190
O O5 0.909878 0.829266 0.767878
O O6 0.141697 0.824365 0.732283
O O7 0.875177 0.898385 0.972619
O O8 0.722028 0.251703 0.256541
O O9 0.428542 0.239405 0.402954
O O10 0.750000 0.250000 0.000000
O O11 0.000000 0.321724 0.500000
O O12 0.803033 0.000000 0.071825
#
# Coordination Sequence:
#
# PCOD9222502 Si02
#       5
#     8   8   8   8   8
#     4   9  20  33  48  77 112 136 176 226 264 331
#     4  12  20  32  60  71 104 157 174 207 282 318
#     4   9  22  36  51  78 106 142 191 225 260 317
#     4   8  23  38  47  77 116 133 184 236 251 310
#     4   9  20  33  49  79 109 137 179 220 268 333
#
# _framework density 19.178839
#
# number of rings (size 3 to 8) (size 9 to 14) (size 15 to 20)
#    1.200    1.200    0.000    3.000   11.200    1.600 
#    0.000    0.000    0.000    0.000    0.000   11.200 
#    0.000   12.800    0.000    0.000    0.000    0.000 
#
# Total GULP energy -111447.419735 kJ/mol
# GULP energy per Si atom -5572.370987 kJ/mol
# Density = 1.913519 g / cm^3
# Si number density = 19.178839 Si / 1000 Ang^3
#
#
#
# Elastic Constant Matrix: (Units=GPa)
#
#
# Indices 1 2 3 4 5 6 
#
# 1 32.5657 41.9288 29.6995 0.0000 -6.9481 0.0000
# 2 41.9288 142.7868 64.5984 0.0000 -12.0911 0.0000
# 3 29.6995 64.5984 113.4398 0.0000 -2.7353 0.0000
# 4 0.0000 0.0000 0.0000 31.0691 0.0000 -23.9180
# 5 -6.9481 -12.0911 -2.7353 0.0000 13.1680 0.0000
# 6 0.0000 0.0000 0.0000 -23.9180 0.0000 27.6932
#
#
#
# Elastic Compliance Matrix: (Units=1/GPa)
#
#
# Indices 1 2 3 4 5 6 
#
# 1 0.056427 -0.011574 -0.007759 0.000000 0.017534 0.000000
# 2 -0.011574 0.012627 -0.004048 0.000000 0.004646 0.000000
# 3 -0.007759 -0.004048 0.013029 0.000000 -0.005105 0.000000
# 4 0.000000 0.000000 0.000000 0.096046 0.000000 0.082953
# 5 0.017534 0.004646 -0.005105 0.000000 0.088399 0.000000
# 6 0.000000 0.000000 0.000000 0.082953 0.000000 0.107754
#
#
# Mechanical properties :
#
#
# Convention : Reuss Voigt Hill
#
# Bulk Modulus (GPa) = 28.31333 62.36063 45.33698
# Shear Modulus (GPa) = 11.55219 24.55710 18.05465
#
# Velocity S-wave (km/s) = 2.45693 3.58219 3.07153
# Velocity P-wave (km/s) = 4.77949 7.04949 6.02241
#
# Compressibility (1/GPa) = 0.03531906
#
# Stress axis : x y z
#
# Youngs Moduli (GPa) = 17.72213 79.19460 76.75275
#
# Poissons Ratio (x) = 0.91663 0.59554
# Poissons Ratio (y) = 0.20512 0.31071
# Poissons Ratio (z) = 0.13751 0.32060
#
# Static dielectric constant tensor:
#      x y z
#    x 1.268130 0.000000 0.072860 
#    y 0.000000 1.692610 0.000000 
#    z 0.072860 0.000000 1.653850 
# 
# From -- ./inp_files/149251.got.cif
#   From: 2010.05.17/outbox.cif.g08.bks.cpg/sg12_75_cif.got.tgz:149251.got - 2010.06.03 13:09:07.
