data_PCOD9222026
_publ_section_title
;
Structure prediction by ZEFSAII (Michael W. Deem and Ramdas Pophale) SiO2 
 PCOD9222026
Probable space group: C 2/M
;
_chemical_formula_sum "Si O2"
_cell_formula_units_Z 52
_cell_length_a 20.951972
_cell_length_b 19.190098
_cell_length_c 6.753859
_cell_angle_alpha 90.000000
_cell_angle_beta 82.256918
_cell_angle_gamma 90.000000
_cell_volume 2690.767057
_symmetry_space_group_name_H-M "C 2/M"
_symmetry_group_IT_number 12
_symmetry_cell_setting 'monoclinic'
loop_
_space_group_symop_operation_xyz
x,y,z
-x,y,-z
-x,-y,-z
x,-y,z
1/2+x,1/2+y,z
1/2-x,1/2+y,-z
1/2-x,1/2-y,-z
1/2+x,1/2-y,z
loop_
_atom_site_type_symbol
_atom_site_label
_atom_site_fract_x
_atom_site_fract_y
_atom_site_fract_z
Si Si1 0.000000 0.769131 0.000000
Si Si2 0.448272 0.165346 0.360992
Si Si3 0.370486 0.081664 0.074865
Si Si4 0.851781 0.318681 0.739751
Si Si5 0.223317 0.821874 0.602012
Si Si6 0.780946 0.917691 0.765792
Si Si7 0.860869 0.182482 0.990734
O O1 0.062122 0.813862 0.035061
O O2 0.979196 0.720642 0.195078
O O3 0.500000 0.138844 0.500000
O O4 0.413769 0.108061 0.238695
O O5 0.393766 0.197023 0.528603
O O6 0.294824 0.094740 0.154205
O O7 0.379597 0.000000 0.035530
O O8 0.385873 0.128118 0.876194
O O9 0.784473 0.351045 0.698206
O O10 0.839132 0.248493 0.867437
O O11 0.250000 0.750000 0.500000
O O12 0.204765 0.875507 0.440180
O O13 0.166743 0.807478 0.778719
O O14 0.827465 0.884970 0.911499
O O15 0.789970 0.000000 0.741210
#
# Coordination Sequence:
#
# PCOD9222026 Si02
#       7
#     4   8   8   8   8   8   8
#     4  12  26  42  66 100 128 170 220 274 324 390
#     4  12  23  42  65  93 137 170 220 268 323 389
#     4  11  24  42  63  96 138 175 217 267 321 391
#     4  12  22  39  68  99 125 168 224 272 321 379
#     4  12  22  37  69 103 127 164 220 274 330 380
#     4  11  25  43  65 100 138 169 213 271 332 392
#     4  12  24  41  68  96 131 168 216 277 327 384
#
# _framework density 19.325346
#
# number of rings (size 3 to 8) (size 9 to 14) (size 15 to 20)
#    0.000    0.308    7.692    2.308    0.000    2.154 
#    0.000    3.077    0.000    0.923    0.000    0.000 
#    0.000    0.000    0.000    0.000    0.000    0.000 
#
# Total GULP energy -145376.746393 kJ/mol
# GULP energy per Si atom -5591.413323 kJ/mol
# Density = 1.928136 g / cm^3
# Si number density = 19.325346 Si / 1000 Ang^3
#
#
#
# Elastic Constant Matrix: (Units=GPa)
#
#
# Indices 1 2 3 4 5 6 
#
# 1 114.8991 37.9509 42.5252 0.0000 7.7016 0.0000
# 2 37.9509 97.9413 54.9975 0.0000 2.5002 0.0000
# 3 42.5252 54.9975 135.8954 0.0000 -8.8661 0.0000
# 4 0.0000 0.0000 0.0000 24.5364 0.0000 5.0860
# 5 7.7016 2.5002 -8.8661 0.0000 45.8564 0.0000
# 6 0.0000 0.0000 0.0000 5.0860 0.0000 20.0679
#
#
#
# Elastic Compliance Matrix: (Units=1/GPa)
#
#
# Indices 1 2 3 4 5 6 
#
# 1 0.010618 -0.002742 -0.002349 0.000000 -0.002088 0.000000
# 2 -0.002742 0.014065 -0.004916 0.000000 -0.001257 0.000000
# 3 -0.002349 -0.004916 0.010256 0.000000 0.002646 0.000000
# 4 0.000000 0.000000 0.000000 0.043016 0.000000 -0.010902
# 5 -0.002088 -0.001257 0.002646 0.000000 0.022738 0.000000
# 6 0.000000 0.000000 0.000000 -0.010902 0.000000 0.052594
#
#
# Mechanical properties :
#
#
# Convention : Reuss Voigt Hill
#
# Bulk Modulus (GPa) = 67.00315 68.85368 67.92842
# Shear Modulus (GPa) = 28.04620 32.30961 30.17790
#
# Velocity S-wave (km/s) = 3.81368 4.09330 3.95596
# Velocity P-wave (km/s) = 7.35789 7.61880 7.48948
#
# Compressibility (1/GPa) = 0.01492467
#
# Stress axis : x y z
#
# Youngs Moduli (GPa) = 94.17597 71.09615 97.50356
#
# Poissons Ratio (x) = 0.19494 0.22907
# Poissons Ratio (y) = 0.25823 0.47936
# Poissons Ratio (z) = 0.22125 0.34953
#
# Static dielectric constant tensor:
#      x y z
#    x 1.737150 0.000000 0.009120 
#    y 0.000000 1.634220 0.000000 
#    z 0.009120 0.000000 1.690200 
# 
# From -- ./inp_files/21170.got.cif
#   From: 2010.05.17/outbox.cif.g08.bks.cpg/sg12_11_cif.got.tgz:21170.got - 2010.06.03 13:09:07.
