data_PCOD9222364
_publ_section_title
;
Structure prediction by ZEFSAII (Michael W. Deem and Ramdas Pophale) SiO2 
 PCOD9222364
Probable space group: C 2/M
;
_chemical_formula_sum "Si O2"
_cell_formula_units_Z 40
_cell_length_a 13.045871
_cell_length_b 23.255200
_cell_length_c 10.827356
_cell_angle_alpha 90.000000
_cell_angle_beta 146.452781
_cell_angle_gamma 90.000000
_cell_volume 1815.287167
_symmetry_space_group_name_H-M "C 2/M"
_symmetry_group_IT_number 12
_symmetry_cell_setting 'monoclinic'
loop_
_space_group_symop_operation_xyz
x,y,z
-x,y,-z
-x,-y,-z
x,-y,z
1/2+x,1/2+y,z
1/2-x,1/2+y,-z
1/2-x,1/2-y,-z
1/2+x,1/2-y,z
loop_
_atom_site_type_symbol
_atom_site_label
_atom_site_fract_x
_atom_site_fract_y
_atom_site_fract_z
Si Si1 0.633387 0.301952 0.515117
Si Si2 0.479232 0.888780 0.844372
Si Si3 0.783463 0.183143 0.018847
Si Si4 0.351058 0.937249 0.462734
Si Si5 0.707207 0.318213 0.246380
O O1 0.500000 0.310702 0.500000
O O2 0.501252 0.320250 0.268908
O O3 0.694617 0.234738 0.584996
O O4 0.814495 0.341673 0.693749
O O5 0.438958 0.929340 0.687224
O O6 0.500000 0.916815 0.000000
O O7 0.664218 0.854070 0.993290
O O8 0.750000 0.250000 0.000000
O O9 0.710179 0.171129 0.808219
O O10 0.500000 0.936244 0.500000
O O11 0.223836 0.881315 0.319724
O O12 0.257757 0.000000 0.362833
O O13 0.500000 0.299601 0.000000
#
# Coordination Sequence:
#
# PCOD9222364 Si02
#       5
#     8   8   8   8   8
#     4  12  23  39  62 103 143 175 212 271 334 423
#     4  12  24  42  69  99 136 178 218 274 346 400
#     4  12  22  37  61  95 139 172 217 262 328 404
#     4  11  25  47  71  95 128 176 237 286 326 391
#     4  12  24  42  66 100 138 183 218 277 338 401
#
# _framework density 22.035081000000002
#
# number of rings (size 3 to 8) (size 9 to 14) (size 15 to 20)
#    0.000    0.200    6.000    4.800    0.000    3.200 
#    0.000    0.000    0.000    0.600    0.000    0.000 
#    0.000    0.000    0.000    0.000    0.000    0.000 
#
# Total GULP energy -111767.117060 kJ/mol
# GULP energy per Si atom -5588.355853 kJ/mol
# Density = 2.198493 g / cm^3
# Si number density = 22.035081 Si / 1000 Ang^3
#
#
#
# Elastic Constant Matrix: (Units=GPa)
#
#
# Indices 1 2 3 4 5 6 
#
# 1 104.9995 43.3884 28.4760 0.0000 -20.1937 0.0000
# 2 43.3884 119.0166 44.7119 0.0000 -4.7562 0.0000
# 3 28.4760 44.7119 105.3639 0.0000 -7.6961 0.0000
# 4 0.0000 0.0000 0.0000 11.1860 0.0000 4.8858
# 5 -20.1937 -4.7562 -7.6961 0.0000 56.4110 0.0000
# 6 0.0000 0.0000 0.0000 4.8858 0.0000 15.0909
#
#
#
# Elastic Compliance Matrix: (Units=1/GPa)
#
#
# Indices 1 2 3 4 5 6 
#
# 1 0.012206 -0.003762 -0.001421 0.000000 0.003858 0.000000
# 2 -0.003762 0.011159 -0.003786 0.000000 -0.000922 0.000000
# 3 -0.001421 -0.003786 0.011536 0.000000 0.000746 0.000000
# 4 0.000000 0.000000 0.000000 0.104121 0.000000 -0.033710
# 5 0.003858 -0.000922 0.000746 0.000000 0.019132 0.000000
# 6 0.000000 0.000000 0.000000 -0.033710 0.000000 0.077179
#
#
# Mechanical properties :
#
#
# Convention : Reuss Voigt Hill
#
# Bulk Modulus (GPa) = 58.94924 62.50362 60.72643
# Shear Modulus (GPa) = 19.31059 30.72448 25.01753
#
# Velocity S-wave (km/s) = 2.96354 3.73814 3.37315
# Velocity P-wave (km/s) = 6.20650 6.85993 6.54138
#
# Compressibility (1/GPa) = 0.01696375
#
# Stress axis : x y z
#
# Youngs Moduli (GPa) = 81.92944 89.61308 86.68506
#
# Poissons Ratio (x) = 0.33711 0.12314
# Poissons Ratio (y) = 0.30820 0.32820
# Poissons Ratio (z) = 0.11639 0.33929
#
# Static dielectric constant tensor:
#      x y z
#    x 1.945430 0.000000 -0.020710 
#    y 0.000000 1.778750 0.000000 
#    z -0.020710 0.000000 1.878530 
# 
# From -- ./inp_files/148999.got.cif
#   From: 2010.05.17/outbox.cif.g08.bks.cpg/sg12_75_cif.got.tgz:148999.got - 2010.06.03 13:09:07.
