data_PCOD9222056
_publ_section_title
;
Structure prediction by ZEFSAII (Michael W. Deem and Ramdas Pophale) SiO2 
 PCOD9222056
Probable space group: C 2/M
;
_chemical_formula_sum "Si O2"
_cell_formula_units_Z 36
_cell_length_a 16.564537
_cell_length_b 20.079030
_cell_length_c 15.820342
_cell_angle_alpha 90.000000
_cell_angle_beta 162.740092
_cell_angle_gamma 90.000000
_cell_volume 1561.224218
_symmetry_space_group_name_H-M "C 2/M"
_symmetry_group_IT_number 12
_symmetry_cell_setting 'monoclinic'
loop_
_space_group_symop_operation_xyz
x,y,z
-x,y,-z
-x,-y,-z
x,-y,z
1/2+x,1/2+y,z
1/2-x,1/2+y,-z
1/2-x,1/2-y,-z
1/2+x,1/2-y,z
loop_
_atom_site_type_symbol
_atom_site_label
_atom_site_fract_x
_atom_site_fract_y
_atom_site_fract_z
Si Si1 0.349650 0.420942 0.263735
Si Si2 0.382961 0.283755 0.789590
Si Si3 0.109835 0.637069 0.760467
Si Si4 0.252122 0.000000 0.188320
Si Si5 0.836575 0.358425 0.670131
O O1 0.500000 0.398904 0.500000
O O2 0.311499 0.500000 0.228970
O O3 0.561171 0.400392 0.402307
O O4 0.062467 0.387198 0.960081
O O5 0.279877 0.217014 0.641338
O O6 0.134809 0.335804 0.543369
O O7 0.500000 0.270821 0.000000
O O8 0.635550 0.313117 0.989520
O O9 0.222164 0.565940 0.842793
O O10 0.972100 0.636076 0.714343
O O11 0.500000 0.000000 0.500000
O O12 0.000000 0.000000 0.000000
#
# Coordination Sequence:
#
# PCOD9222056 Si02
#       5
#     8   8   8   4   8
#     4  11  24  42  67  99 140 184 232 278 340 418
#     4  12  24  44  71  99 139 183 231 284 350 417
#     4  12  26  44  69 103 138 180 234 292 344 405
#     4  12  26  46  70  98 137 184 235 280 340 408
#     4  12  25  44  70 102 140 177 232 285 356 404
#
# _framework density 23.058827999999998
#
# number of rings (size 3 to 8) (size 9 to 14) (size 15 to 20)
#    0.000    0.222    0.000   10.667    3.111    1.778 
#    0.000    0.000    0.000    0.000    0.000    0.000 
#    0.000    0.000    0.000    0.000    0.000    0.000 
#
# Total GULP energy -100946.869789 kJ/mol
# GULP energy per Si atom -5608.159433 kJ/mol
# Density = 2.300635 g / cm^3
# Si number density = 23.058828 Si / 1000 Ang^3
#
#
#
# Elastic Constant Matrix: (Units=GPa)
#
#
# Indices 1 2 3 4 5 6 
#
# 1 115.6471 30.4284 -2.0783 -0.0005 12.1064 0.0008
# 2 30.4284 90.3644 8.4763 -0.0017 3.3151 -0.0039
# 3 -2.0783 8.4763 98.9495 -0.0141 19.9264 -0.0411
# 4 -0.0005 -0.0017 -0.0141 12.9929 -0.0013 23.3305
# 5 12.1064 3.3151 19.9264 -0.0013 42.1659 -0.0075
# 6 0.0008 -0.0039 -0.0411 23.3305 -0.0075 83.7114
#
#
#
# Elastic Compliance Matrix: (Units=1/GPa)
#
#
# Indices 1 2 3 4 5 6 
#
# 1 0.009863 -0.003312 0.001115 0.000002 -0.003098 0.000000
# 2 -0.003312 0.012277 -0.001236 0.000000 0.000570 0.000000
# 3 0.001115 -0.001236 0.011362 0.000005 -0.005592 0.000004
# 4 0.000002 0.000000 0.000005 0.154068 -0.000006 -0.042939
# 5 -0.003098 0.000570 -0.005592 -0.000006 0.027203 0.000001
# 6 0.000000 0.000000 0.000004 -0.042939 0.000001 0.023913
#
#
# Mechanical properties :
#
#
# Convention : Reuss Voigt Hill
#
# Bulk Modulus (GPa) = 37.54517 42.06822 39.80670
# Shear Modulus (GPa) = 19.65177 45.64966 32.65071
#
# Velocity S-wave (km/s) = 2.92249 4.45421 3.76703
# Velocity P-wave (km/s) = 5.26361 6.68856 6.01841
#
# Compressibility (1/GPa) = 0.02663458
#
# Stress axis : x y z
#
# Youngs Moduli (GPa) = 101.39115 81.45587 88.01586
#
# Poissons Ratio (x) = 0.26978 -0.09812
# Poissons Ratio (y) = 0.33581 0.10878
# Poissons Ratio (z) = -0.11303 0.10068
#
# Static dielectric constant tensor:
#      x y z
#    x 1.881660 0.000000 -0.040340 
#    y 0.000000 1.908180 0.000000 
#    z -0.040340 0.000000 1.821290 
# 
# From -- ./inp_files/218604.got.cif
#   From: 2010.05.17/outbox.cif.g08.bks.cpg/sg12_110_cif.got.tgz:218604.got - 2010.06.03 13:09:07.
