data_PCOD9222426
_publ_section_title
;
Structure prediction by ZEFSAII (Michael W. Deem and Ramdas Pophale) SiO2 
 PCOD9222426
Probable space group: C 2/M
;
_chemical_formula_sum "Si O2"
_cell_formula_units_Z 36
_cell_length_a 10.630739
_cell_length_b 7.648156
_cell_length_c 18.344598
_cell_angle_alpha 90.000000
_cell_angle_beta 92.554050
_cell_angle_gamma 90.000000
_cell_volume 1490.036004
_symmetry_space_group_name_H-M "C 2/M"
_symmetry_group_IT_number 12
_symmetry_cell_setting 'monoclinic'
loop_
_space_group_symop_operation_xyz
x,y,z
-x,y,-z
-x,-y,-z
x,-y,z
1/2+x,1/2+y,z
1/2-x,1/2+y,-z
1/2-x,1/2-y,-z
1/2+x,1/2-y,z
loop_
_atom_site_type_symbol
_atom_site_label
_atom_site_fract_x
_atom_site_fract_y
_atom_site_fract_z
Si Si1 0.621812 0.793400 0.455578
Si Si2 0.298451 0.000000 0.301280
Si Si3 0.626656 0.291104 0.044041
Si Si4 0.146403 0.299553 0.211595
Si Si5 0.466491 0.696020 0.325351
O O1 0.500000 0.741571 0.500000
O O2 0.750000 0.750000 0.500000
O O3 0.593831 0.699968 0.377908
O O4 0.620553 0.000000 0.442528
O O5 0.239210 0.154896 0.246614
O O6 0.374398 0.153964 0.349256
O O7 0.616968 0.500000 0.052355
O O8 0.638283 0.213110 0.124809
O O9 0.500000 0.229698 0.000000
O O10 0.750000 0.250000 0.000000
O O11 0.175855 0.500000 0.232733
O O12 0.013405 0.251816 0.246415
O O13 0.417666 0.500000 0.327042
#
# Coordination Sequence:
#
# PCOD9222426 Si02
#       5
#     8   4   8   8   8
#     4  11  26  47  72 107 149 192 244 303 368 441
#     4  12  26  48  74 105 148 190 250 300 370 434
#     4  11  26  47  72 108 149 193 246 303 369 440
#     4  12  26  47  75 107 146 195 243 308 364 438
#     4  12  26  47  75 108 145 194 245 305 363 443
#
# _framework density 24.160489999999999
#
# number of rings (size 3 to 8) (size 9 to 14) (size 15 to 20)
#    0.000    0.444    4.444    2.000    6.222    3.556 
#    0.000    0.000    0.000    0.000    0.000    0.000 
#    0.000    0.000    0.000    0.000    0.000    0.000 
#
# Total GULP energy -100365.535286 kJ/mol
# GULP energy per Si atom -5575.863071 kJ/mol
# Density = 2.410550 g / cm^3
# Si number density = 24.160490 Si / 1000 Ang^3
#
#
#
# Elastic Constant Matrix: (Units=GPa)
#
#
# Indices 1 2 3 4 5 6 
#
# 1 123.5336 24.7075 42.3992 0.0000 15.1932 0.0000
# 2 24.7075 232.0503 18.0708 0.0000 16.5709 0.0000
# 3 42.3992 18.0708 112.7535 0.0000 -2.8475 0.0000
# 4 0.0000 0.0000 0.0000 52.2948 0.0000 -10.7413
# 5 15.1932 16.5709 -2.8475 0.0000 49.1281 0.0000
# 6 0.0000 0.0000 0.0000 -10.7413 0.0000 33.3490
#
#
#
# Elastic Compliance Matrix: (Units=1/GPa)
#
#
# Indices 1 2 3 4 5 6 
#
# 1 0.009850 -0.000541 -0.003695 0.000000 -0.003078 0.000000
# 2 -0.000541 0.004509 -0.000554 0.000000 -0.001386 0.000000
# 3 -0.003695 -0.000554 0.010396 0.000000 0.001932 0.000000
# 4 0.000000 0.000000 0.000000 0.020477 0.000000 0.006595
# 5 -0.003078 -0.001386 0.001932 0.000000 0.021886 0.000000
# 6 0.000000 0.000000 0.000000 0.006595 0.000000 0.032110
#
#
# Mechanical properties :
#
#
# Convention : Reuss Voigt Hill
#
# Bulk Modulus (GPa) = 65.90037 70.96583 68.43310
# Shear Modulus (GPa) = 43.91086 52.49837 48.20462
#
# Velocity S-wave (km/s) = 4.26780 4.66650 4.47159
# Velocity P-wave (km/s) = 7.18476 7.64666 7.41930
#
# Compressibility (1/GPa) = 0.01517442
#
# Stress axis : x y z
#
# Youngs Moduli (GPa) = 101.52388 221.77161 96.19160
#
# Poissons Ratio (x) = 0.12003 0.35542
# Poissons Ratio (y) = 0.05495 0.05330
# Poissons Ratio (z) = 0.37512 0.12289
#
# Static dielectric constant tensor:
#      x y z
#    x 2.079950 0.000000 -0.006450 
#    y 0.000000 1.873480 0.000000 
#    z -0.006450 0.000000 1.918010 
# 
# From -- ./inp_files/261121.got.cif
#   From: 2010.05.17/outbox.cif.g08.bks.cpg/sg12_131_cif.got.tgz:261121.got - 2010.06.03 13:09:07.
