data_PCOD9222627
_publ_section_title
;
Structure prediction by ZEFSAII (Michael W. Deem and Ramdas Pophale) SiO2 
 PCOD9222627
Probable space group: C 2/M
;
_chemical_formula_sum "Si O2"
_cell_formula_units_Z 48
_cell_length_a 17.097097
_cell_length_b 17.685978
_cell_length_c 14.253563
_cell_angle_alpha 90.000000
_cell_angle_beta 146.478961
_cell_angle_gamma 90.000000
_cell_volume 2380.154967
_symmetry_space_group_name_H-M "C 2/M"
_symmetry_group_IT_number 12
_symmetry_cell_setting 'monoclinic'
loop_
_space_group_symop_operation_xyz
x,y,z
-x,y,-z
-x,-y,-z
x,-y,z
1/2+x,1/2+y,z
1/2-x,1/2+y,-z
1/2-x,1/2-y,-z
1/2+x,1/2-y,z
loop_
_atom_site_type_symbol
_atom_site_label
_atom_site_fract_x
_atom_site_fract_y
_atom_site_fract_z
Si Si1 0.365838 0.699875 0.672278
Si Si2 0.725199 0.912805 0.675157
Si Si3 0.725199 0.587195 0.775241
Si Si4 0.134162 0.699875 0.940603
Si Si5 0.912660 0.085349 0.553950
Si Si6 0.412659 0.085349 0.271370
O O1 0.250000 0.750000 0.500000
O O2 0.307950 0.651240 0.701580
O O3 0.500000 0.750000 0.833972
O O4 0.413128 0.639778 0.641525
O O5 0.698235 0.893580 0.757423
O O6 0.568274 0.914623 0.472683
O O7 0.780411 0.000000 0.723919
O O8 0.780411 0.500000 0.836903
O O9 0.568274 0.585377 0.663864
O O10 0.698235 0.606420 0.639047
O O11 0.807949 0.651240 0.914319
O O12 0.086873 0.639778 0.815271
O O13 0.250000 0.750000 0.000000
O O14 0.878389 0.000000 0.549385
O O15 0.378389 0.000000 0.207394
#
# Coordination Sequence:
#
# PCOD9222627 Si02
#       6
#     8   8   8   8   8   8
#     4  12  23  38  59  94 132 162 200 254 323 377
#     4   9  19  39  65  90 117 164 217 254 300 370
#     4   9  19  39  65  90 117 164 217 254 300 370
#     4  12  23  38  59  94 132 162 200 254 323 377
#     4   9  19  39  65  88 118 164 215 257 301 369
#     4   9  19  39  65  88 118 164 215 257 301 369
#
# _framework density 20.166754999999998
#
# number of rings (size 3 to 8) (size 9 to 14) (size 15 to 20)
#    0.000    2.000    3.333    3.000    0.000    1.333 
#    0.000    3.333    0.000    4.000    0.000    0.000 
#    0.000    0.000    0.000    0.000    0.000    0.000 
#
# Total GULP energy -133989.093766 kJ/mol
# GULP energy per Si atom -5582.878907 kJ/mol
# Density = 2.012085 g / cm^3
# Si number density = 20.166755 Si / 1000 Ang^3
#
#
#
# Elastic Constant Matrix: (Units=GPa)
#
#
# Indices 1 2 3 4 5 6 
#
# 1 75.6994 66.8898 17.9777 0.0000 3.3363 0.0000
# 2 66.8898 118.0346 61.1878 0.0000 -5.7333 0.0000
# 3 17.9777 61.1878 76.1593 0.0000 -2.8738 0.0000
# 4 0.0000 0.0000 0.0000 36.9617 0.0000 4.9643
# 5 3.3363 -5.7333 -2.8738 0.0000 24.2757 0.0000
# 6 0.0000 0.0000 0.0000 4.9643 0.0000 32.0243
#
#
#
# Elastic Compliance Matrix: (Units=1/GPa)
#
#
# Indices 1 2 3 4 5 6 
#
# 1 0.033679 -0.026108 0.012675 0.000000 -0.009294 0.000000
# 2 -0.026108 0.034860 -0.021495 0.000000 0.009277 0.000000
# 3 0.012675 -0.021495 0.027272 0.000000 -0.003590 0.000000
# 4 0.000000 0.000000 0.000000 0.027630 0.000000 -0.004283
# 5 -0.009294 0.009277 -0.003590 0.000000 0.044237 0.000000
# 6 0.000000 0.000000 0.000000 -0.004283 0.000000 0.031890
#
#
# Mechanical properties :
#
#
# Convention : Reuss Voigt Hill
#
# Bulk Modulus (GPa) = 38.52635 62.44488 50.48561
# Shear Modulus (GPa) = 17.98071 26.90822 22.44446
#
# Velocity S-wave (km/s) = 2.98921 3.65675 3.33970
# Velocity P-wave (km/s) = 5.57308 6.99004 6.32138
#
# Compressibility (1/GPa) = 0.02595626
#
# Stress axis : x y z
#
# Youngs Moduli (GPa) = 29.69215 28.68593 36.66735
#
# Poissons Ratio (x) = 0.74892 -0.46474
# Poissons Ratio (y) = 0.77519 0.78815
# Poissons Ratio (z) = -0.37633 0.61659
#
# Static dielectric constant tensor:
#      x y z
#    x 1.706970 0.000000 0.012160 
#    y 0.000000 1.721720 0.000000 
#    z 0.012160 0.000000 1.719070 
# 
# From -- ./inp_files/226918.got.cif
#   From: 2010.05.17/outbox.cif.g08.bks.cpg/sg12_114_cif.got.tgz:226918.got - 2010.06.03 13:09:07.
