data_PCOD9222831
_publ_section_title
;
Structure prediction by ZEFSAII (Michael W. Deem and Ramdas Pophale) SiO2 
 PCOD9222831
Probable space group: C 2/M
;
_chemical_formula_sum "Si O2"
_cell_formula_units_Z 48
_cell_length_a 6.639462
_cell_length_b 14.335359
_cell_length_c 17.263697
_cell_angle_alpha 90.000000
_cell_angle_beta 98.680335
_cell_angle_gamma 90.000000
_cell_volume 1624.321672
_symmetry_space_group_name_H-M "C 2/M"
_symmetry_group_IT_number 12
_symmetry_cell_setting 'monoclinic'
loop_
_space_group_symop_operation_xyz
x,y,z
-x,y,-z
-x,-y,-z
x,-y,z
1/2+x,1/2+y,z
1/2-x,1/2+y,-z
1/2-x,1/2-y,-z
1/2+x,1/2-y,z
loop_
_atom_site_type_symbol
_atom_site_label
_atom_site_fract_x
_atom_site_fract_y
_atom_site_fract_z
Si Si1 0.523645 0.113778 0.768263
Si Si2 0.846659 0.111304 0.103921
Si Si3 0.869982 0.646858 0.596157
Si Si4 0.537147 0.392463 0.263301
Si Si5 0.694465 0.111890 0.936417
Si Si6 0.322259 0.633682 0.565729
O O1 0.372586 0.139110 0.689010
O O2 0.742328 0.147656 0.746709
O O3 0.540351 0.143867 0.859527
O O4 0.514062 0.000000 0.769395
O O5 0.868771 0.146531 0.193908
O O6 0.078538 0.122057 0.085903
O O7 0.800255 0.000000 0.103428
O O8 0.710010 0.149359 0.025183
O O9 0.701609 0.606918 0.526323
O O10 0.861664 0.755723 0.574338
O O11 0.092735 0.611158 0.582975
O O12 0.547374 0.500000 0.239598
O O13 0.533943 0.397293 0.355603
O O14 0.664224 0.000000 0.940818
#
# Coordination Sequence:
#
# PCOD9222831 Si02
#       6
#     8   8   8   8   8   8
#     4   8  13  21  35  56  77  95 121 158 192 218
#     4   7   9  14  26  46  72  97 117 142 181 223
#     4   9  17  28  41  56  75 101 129 154 184 224
#     4   8  13  21  35  56  77  95 121 158 192 218
#     4   7   9  14  26  46  72  97 117 142 181 223
#     4   9  17  28  41  56  75 101 129 154 184 224
#
# _framework density 29.550795999999998
#
# number of rings (size 3 to 8) (size 9 to 14) (size 15 to 20)
#    0.000    4.000    0.000    3.000    0.000    0.667 
#    0.000    3.333    0.000    2.000    0.000    4.667 
#    0.000    0.000    0.000    8.333    0.000    6.667 
#
# Total GULP energy -134038.579028 kJ/mol
# GULP energy per Si atom -5584.940793 kJ/mol
# Density = 2.948354 g / cm^3
# Si number density = 29.550796 Si / 1000 Ang^3
#
#
#
# Elastic Constant Matrix: (Units=GPa)
#
#
# Indices 1 2 3 4 5 6 
#
# 1 114.9839 -9.6999 128.2472 0.0000 36.0146 0.0000
# 2 -9.6999 105.1419 22.0515 0.0000 3.2412 0.0000
# 3 128.2472 22.0515 489.9407 0.0000 23.9643 0.0000
# 4 0.0000 0.0000 0.0000 53.2763 0.0000 -2.4726
# 5 36.0146 3.2412 23.9643 0.0000 102.1504 0.0000
# 6 0.0000 0.0000 0.0000 -2.4726 0.0000 0.3506
#
#
#
# Elastic Compliance Matrix: (Units=1/GPa)
#
#
# Indices 1 2 3 4 5 6 
#
# 1 0.014253 0.002206 -0.003622 0.000000 -0.004245 0.000000
# 2 0.002206 0.009947 -0.000983 0.000000 -0.000863 0.000000
# 3 -0.003622 -0.000983 0.003004 0.000000 0.000604 0.000000
# 4 0.000000 0.000000 0.000000 0.027904 0.000000 0.196816
# 5 -0.004245 -0.000863 0.000604 0.000000 0.011172 0.000000
# 6 0.000000 0.000000 0.000000 0.196816 0.000000 4.240809
#
#
# Mechanical properties :
#
#
# Convention : Reuss Voigt Hill
#
# Bulk Modulus (GPa) = 44.63392 110.14046 77.38719
# Shear Modulus (GPa) = 1.15758 69.11996 35.13877
#
# Velocity S-wave (km/s) = 0.62656 4.84159 3.45207
# Velocity P-wave (km/s) = 3.95732 8.28294 6.49105
#
# Compressibility (1/GPa) = 0.02240448
#
# Stress axis : x y z
#
# Youngs Moduli (GPa) = 70.16112 100.53131 332.89005
#
# Poissons Ratio (x) = -0.22172 1.20588
# Poissons Ratio (y) = -0.15474 0.32717
# Poissons Ratio (z) = 0.25416 0.09881
#
# Static dielectric constant tensor:
#      x y z
#    x 2.419240 0.000000 -0.057870 
#    y 0.000000 2.280200 0.000000 
#    z -0.057870 0.000000 2.291250 
# 
# From -- ./inp_files/222042.got.cif
#   From: 2010.05.17/outbox.cif.g08.bks.cpg/sg12_112_cif.got.tgz:222042.got - 2010.06.03 13:09:07.
