data_PCOD9222436
_publ_section_title
;
Structure prediction by ZEFSAII (Michael W. Deem and Ramdas Pophale) SiO2 
 PCOD9222436
Probable space group: C 2/M
;
_chemical_formula_sum "Si O2"
_cell_formula_units_Z 28
_cell_length_a 16.182435
_cell_length_b 10.185759
_cell_length_c 11.436612
_cell_angle_alpha 90.000000
_cell_angle_beta 146.310194
_cell_angle_gamma 90.000000
_cell_volume 1045.658810
_symmetry_space_group_name_H-M "C 2/M"
_symmetry_group_IT_number 12
_symmetry_cell_setting 'monoclinic'
loop_
_space_group_symop_operation_xyz
x,y,z
-x,y,-z
-x,-y,-z
x,-y,z
1/2+x,1/2+y,z
1/2-x,1/2+y,-z
1/2-x,1/2-y,-z
1/2+x,1/2-y,z
loop_
_atom_site_type_symbol
_atom_site_label
_atom_site_fract_x
_atom_site_fract_y
_atom_site_fract_z
Si Si1 0.126075 0.000000 0.046122
Si Si2 0.303006 0.000000 0.921499
Si Si3 0.000000 0.306068 0.000000
Si Si4 0.007502 0.500000 0.368554
Si Si5 0.530479 0.500000 0.389131
Si Si6 0.784773 0.727212 0.368034
O O1 0.226006 0.867360 0.187330
O O2 0.035438 0.000000 0.819893
O O3 0.000000 0.000000 0.000000
O O4 0.383610 0.116932 0.945484
O O5 0.357602 0.000000 0.118963
O O6 0.124964 0.000000 0.720695
O O7 0.878867 0.243805 0.770462
O O8 0.101806 0.625637 0.442826
O O9 0.000000 0.500000 0.500000
O O10 0.625807 0.365643 0.521789
#
# Coordination Sequence:
#
# PCOD9222436 Si02
#       6
#     4   4   4   4   4   8
#     4  11  26  53  83 122 169 209 277 336 405 505
#     4  11  27  49  75 117 164 207 277 334 406 497
#     4  11  26  49  78 116 156 218 274 332 406 492
#     4  11  28  49  81 116 162 209 267 346 415 481
#     4  12  29  51  86 122 159 222 268 341 420 471
#     4  11  27  51  82 118 161 210 271 335 411 491
#
# _framework density 26.777377000000001
#
# number of rings (size 3 to 8) (size 9 to 14) (size 15 to 20)
#    0.000    0.857    1.429    3.429    8.000    9.143 
#    0.000    0.000    0.000    0.000    0.000    0.000 
#    0.000    0.000    0.000    0.000    0.000    0.000 
#
# Total GULP energy -77967.784090 kJ/mol
# GULP energy per Si atom -5569.127435 kJ/mol
# Density = 2.671643 g / cm^3
# Si number density = 26.777377 Si / 1000 Ang^3
#
#
#
# Elastic Constant Matrix: (Units=GPa)
#
#
# Indices 1 2 3 4 5 6 
#
# 1 148.7268 67.2999 85.2661 0.0000 24.7487 0.0000
# 2 67.2999 273.9042 107.6991 0.0000 26.5490 0.0000
# 3 85.2661 107.6991 232.0994 0.0000 48.3988 0.0000
# 4 0.0000 0.0000 0.0000 65.7471 0.0000 -2.8398
# 5 24.7487 26.5490 48.3988 0.0000 87.6533 0.0000
# 6 0.0000 0.0000 0.0000 -2.8398 0.0000 62.3683
#
#
#
# Elastic Compliance Matrix: (Units=1/GPa)
#
#
# Indices 1 2 3 4 5 6 
#
# 1 0.008816 -0.001078 -0.002585 0.000000 -0.000735 0.000000
# 2 -0.001078 0.004602 -0.001709 0.000000 -0.000146 0.000000
# 3 -0.002585 -0.001709 0.006544 0.000000 -0.002366 0.000000
# 4 0.000000 0.000000 0.000000 0.015240 0.000000 0.000694
# 5 -0.000735 -0.000146 -0.002366 0.000000 0.012967 0.000000
# 6 0.000000 0.000000 0.000000 0.000694 0.000000 0.016065
#
#
# Mechanical properties :
#
#
# Convention : Reuss Voigt Hill
#
# Bulk Modulus (GPa) = 108.48402 130.58452 119.53427
# Shear Modulus (GPa) = 64.06007 69.45141 66.75574
#
# Velocity S-wave (km/s) = 4.89644 5.09832 4.99840
# Velocity P-wave (km/s) = 8.51869 9.13946 8.83453
#
# Compressibility (1/GPa) = 0.00921795
#
# Stress axis : x y z
#
# Youngs Moduli (GPa) = 113.42871 217.30018 152.80057
#
# Poissons Ratio (x) = 0.23435 0.39499
# Poissons Ratio (y) = 0.12233 0.26110
# Poissons Ratio (z) = 0.29322 0.37132
#
# Static dielectric constant tensor:
#      x y z
#    x 2.162840 0.000000 -0.067360 
#    y 0.000000 2.354140 0.000000 
#    z -0.067360 0.000000 2.191350 
# 
# From -- ./inp_files/165323.got.cif
#   From: 2010.05.17/outbox.cif.g08.bks.cpg/sg12_83_cif.got.tgz:165323.got - 2010.06.03 13:09:07.
