data_PCOD9222375
_publ_section_title
;
Structure prediction by ZEFSAII (Michael W. Deem and Ramdas Pophale) SiO2 
 PCOD9222375
Probable space group: C 2/M
;
_chemical_formula_sum "Si O2"
_cell_formula_units_Z 32
_cell_length_a 8.231277
_cell_length_b 22.843586
_cell_length_c 12.563653
_cell_angle_alpha 90.000000
_cell_angle_beta 35.494324
_cell_angle_gamma 90.000000
_cell_volume 1371.643167
_symmetry_space_group_name_H-M "C 2/M"
_symmetry_group_IT_number 12
_symmetry_cell_setting 'monoclinic'
loop_
_space_group_symop_operation_xyz
x,y,z
-x,y,-z
-x,-y,-z
x,-y,z
1/2+x,1/2+y,z
1/2-x,1/2+y,-z
1/2-x,1/2-y,-z
1/2+x,1/2-y,z
loop_
_atom_site_type_symbol
_atom_site_label
_atom_site_fract_x
_atom_site_fract_y
_atom_site_fract_z
Si Si1 0.317929 0.872430 0.370061
Si Si2 0.307540 0.066495 0.996757
Si Si3 0.874406 0.157367 0.310811
Si Si4 0.808089 0.267279 0.786118
O O1 0.503426 0.918294 0.206081
O O2 0.295433 0.878694 0.509905
O O3 0.478404 0.810635 0.266176
O O4 0.000000 0.875108 0.500000
O O5 0.204427 0.000000 0.045977
O O6 0.500000 0.072069 0.000000
O O7 0.061631 0.113313 0.142280
O O8 0.724920 0.201219 0.309094
O O9 0.066062 0.202630 0.276761
O O10 0.500000 0.266141 0.000000
#
# Coordination Sequence:
#
# PCOD9222375 Si02
#       4
#     8   8   8   8
#     4  12  25  44  72 106 146 187 236 291 356 428
#     4  11  25  47  75 105 142 190 243 298 352 419
#     4  12  25  46  71 110 146 188 236 292 358 429
#     4  12  25  44  74 106 153 189 229 290 367 431
#
# _framework density 23.329681999999998
#
# number of rings (size 3 to 8) (size 9 to 14) (size 15 to 20)
#    0.000    0.250    5.000    4.500    0.000    1.500 
#    0.000    2.500    0.000    3.000    0.000    0.000 
#    0.000    0.000    0.000    0.000    0.000    0.000 
#
# Total GULP energy -89554.350380 kJ/mol
# GULP energy per Si atom -5597.146899 kJ/mol
# Density = 2.327658 g / cm^3
# Si number density = 23.329682 Si / 1000 Ang^3
#
#
#
# Elastic Constant Matrix: (Units=GPa)
#
#
# Indices 1 2 3 4 5 6 
#
# 1 100.7565 32.2850 30.6645 0.0000 22.2682 0.0000
# 2 32.2850 132.0020 36.7709 0.0000 2.1407 0.0000
# 3 30.6645 36.7709 129.1472 0.0000 24.9989 0.0000
# 4 0.0000 0.0000 0.0000 16.1354 0.0000 14.7301
# 5 22.2682 2.1407 24.9989 0.0000 39.8019 0.0000
# 6 0.0000 0.0000 0.0000 14.7301 0.0000 5.8491
#
#
#
# Elastic Compliance Matrix: (Units=1/GPa)
#
#
# Indices 1 2 3 4 5 6 
#
# 1 0.012453 -0.002667 -0.000998 0.000000 -0.006197 0.000000
# 2 -0.002667 0.008848 -0.002371 0.000000 0.002505 0.000000
# 3 -0.000998 -0.002371 0.009702 0.000000 -0.005408 0.000000
# 4 0.000000 0.000000 0.000000 -0.047709 0.000000 0.120149
# 5 -0.006197 0.002505 -0.005408 0.000000 0.031853 0.000000
# 6 0.000000 0.000000 0.000000 0.120149 0.000000 -0.131612
#
#
# Mechanical properties :
#
#
# Convention : Reuss Voigt Hill
#
# Bulk Modulus (GPa) = 52.82445 62.37185 57.59815
# Shear Modulus (GPa) = -50.97713 29.83628 -10.57042
#
# Velocity S-wave (km/s) = -4.67955 3.58005 -2.13090
# Velocity P-wave (km/s) = 2.55066 6.62435 4.32297
#
# Compressibility (1/GPa) = 0.01893063
#
# Stress axis : x y z
#
# Youngs Moduli (GPa) = 80.30300 113.02250 103.07332
#
# Poissons Ratio (x) = 0.30146 0.10285
# Poissons Ratio (y) = 0.21419 0.24437
# Poissons Ratio (z) = 0.08013 0.26796
#
# Static dielectric constant tensor:
#      x y z
#    x 2.075250 0.000000 -0.024620 
#    y 0.000000 1.811440 0.000000 
#    z -0.024620 0.000000 1.926360 
# 
# From -- ./inp_files/160562.got.cif
#   From: 2010.05.17/outbox.cif.g08.bks.cpg/sg12_81_cif.got.tgz:160562.got - 2010.06.03 13:09:07.
