data_PCOD9222611
_publ_section_title
;
Structure prediction by ZEFSAII (Michael W. Deem and Ramdas Pophale) SiO2 
 PCOD9222611
Probable space group: C 2/M
;
_chemical_formula_sum "Si O2"
_cell_formula_units_Z 40
_cell_length_a 13.894937
_cell_length_b 17.760335
_cell_length_c 9.004999
_cell_angle_alpha 90.000000
_cell_angle_beta 53.401879
_cell_angle_gamma 90.000000
_cell_volume 1784.098379
_symmetry_space_group_name_H-M "C 2/M"
_symmetry_group_IT_number 12
_symmetry_cell_setting 'monoclinic'
loop_
_space_group_symop_operation_xyz
x,y,z
-x,y,-z
-x,-y,-z
x,-y,z
1/2+x,1/2+y,z
1/2-x,1/2+y,-z
1/2-x,1/2-y,-z
1/2+x,1/2-y,z
loop_
_atom_site_type_symbol
_atom_site_label
_atom_site_fract_x
_atom_site_fract_y
_atom_site_fract_z
Si Si1 0.190072 0.141301 0.252934
Si Si2 0.554260 0.163123 0.146819
Si Si3 0.181585 0.416046 0.600453
Si Si4 0.930489 0.165338 0.926496
Si Si5 0.320935 0.188336 0.679141
O O1 0.215851 0.088973 0.369050
O O2 0.094901 0.125735 0.208453
O O3 0.157536 0.222679 0.351702
O O4 0.320542 0.148289 0.051918
O O5 0.445797 0.107947 0.210638
O O6 0.517438 0.250521 0.152222
O O7 0.580931 0.155892 0.297615
O O8 0.175447 0.500000 0.544655
O O9 0.197490 0.355084 0.456157
O O10 0.800785 0.181132 0.115076
O O11 0.000000 0.127742 0.000000
#
# Coordination Sequence:
#
# PCOD9222611 Si02
#       5
#     8   8   8   8   8
#     4   9  19  35  55  80 110 148 193 231 267 326
#     4   9  18  33  54  82 112 143 181 224 280 341
#     4  12  23  34  53  86 126 153 173 220 290 350
#     4   9  17  35  61  80  99 139 197 245 270 306
#     4   9  19  35  55  80 112 149 188 229 273 330
#
# _framework density 22.420290000000001
#
# number of rings (size 3 to 8) (size 9 to 14) (size 15 to 20)
#    0.000    2.400    0.000    6.600    0.000    3.200 
#    0.000    6.000    0.000    3.600    0.000    0.000 
#    0.000    0.000    0.000    0.000    0.000    0.000 
#
# Total GULP energy -111576.182404 kJ/mol
# GULP energy per Si atom -5578.809120 kJ/mol
# Density = 2.236926 g / cm^3
# Si number density = 22.420290 Si / 1000 Ang^3
#
#
#
# Elastic Constant Matrix: (Units=GPa)
#
#
# Indices 1 2 3 4 5 6 
#
# 1 129.5513 29.3529 14.1911 0.0000 50.1549 0.0000
# 2 29.3529 47.5586 25.7456 0.0000 13.2445 0.0000
# 3 14.1911 25.7456 72.6193 0.0000 31.2846 0.0000
# 4 0.0000 0.0000 0.0000 -9.8455 0.0000 -0.6626
# 5 50.1549 13.2445 31.2846 0.0000 43.0010 0.0000
# 6 0.0000 0.0000 0.0000 -0.6626 0.0000 10.4753
#
#
#
# Elastic Compliance Matrix: (Units=1/GPa)
#
#
# Indices 1 2 3 4 5 6 
#
# 1 0.020228 -0.011156 0.012651 0.000000 -0.029361 0.000000
# 2 -0.011156 0.032281 -0.015420 0.000000 0.014288 0.000000
# 3 0.012651 -0.015420 0.030697 0.000000 -0.032340 0.000000
# 4 0.000000 0.000000 0.000000 -0.101139 0.000000 -0.006398
# 5 -0.029361 0.014288 -0.032340 0.000000 0.076628 0.000000
# 6 0.000000 0.000000 0.000000 -0.006398 0.000000 0.095058
#
#
# Mechanical properties :
#
#
# Convention : Reuss Voigt Hill
#
# Bulk Modulus (GPa) = 18.06511 43.14538 30.60525
# Shear Modulus (GPa) = 24.99324 20.75546 22.87435
#
# Velocity S-wave (km/s) = 3.34242 3.04591 3.19760
# Velocity P-wave (km/s) = 4.79278 5.62634 5.22621
#
# Compressibility (1/GPa) = 0.05535531
#
# Stress axis : x y z
#
# Youngs Moduli (GPa) = 49.43713 30.97827 32.57660
#
# Poissons Ratio (x) = 0.34561 -0.41213
# Poissons Ratio (y) = 0.55154 0.50232
# Poissons Ratio (z) = -0.62544 0.47767
#
# Static dielectric constant tensor:
#      x y z
#    x 1.914570 0.000000 0.020440 
#    y 0.000000 1.752010 0.000000 
#    z 0.020440 0.000000 1.893090 
# 
# From -- ./inp_files/60826.got.cif
#   From: 2010.05.17/outbox.cif.g08.bks.cpg/sg12_31_cif.got.tgz:60826.got - 2010.06.03 13:09:07.
