data_PCOD9222813
_publ_section_title
;
Structure prediction by ZEFSAII (Michael W. Deem and Ramdas Pophale) SiO2 
 PCOD9222813
Probable space group: C 2/M
;
_chemical_formula_sum "Si O2"
_cell_formula_units_Z 40
_cell_length_a 12.010698
_cell_length_b 27.243475
_cell_length_c 7.774690
_cell_angle_alpha 90.000000
_cell_angle_beta 143.316452
_cell_angle_gamma 90.000000
_cell_volume 1519.761160
_symmetry_space_group_name_H-M "C 2/M"
_symmetry_group_IT_number 12
_symmetry_cell_setting 'monoclinic'
loop_
_space_group_symop_operation_xyz
x,y,z
-x,y,-z
-x,-y,-z
x,-y,z
1/2+x,1/2+y,z
1/2-x,1/2+y,-z
1/2-x,1/2-y,-z
1/2+x,1/2-y,z
loop_
_atom_site_type_symbol
_atom_site_label
_atom_site_fract_x
_atom_site_fract_y
_atom_site_fract_z
Si Si1 0.245343 0.000000 0.119302
Si Si2 0.760734 0.894897 0.883180
Si Si3 0.223191 0.211245 0.118428
Si Si4 0.132025 0.202851 0.500751
Si Si5 0.699253 0.604665 0.480541
Si Si6 0.299345 0.500000 0.522108
O O1 0.325918 0.946879 0.165022
O O2 0.244103 0.000000 0.326690
O O3 0.026381 0.000000 0.796019
O O4 0.683768 0.840388 0.820023
O O5 0.767923 0.895071 0.683860
O O6 0.972880 0.896125 0.216470
O O7 0.297278 0.242361 0.371054
O O8 0.250000 0.250000 0.000000
O O9 0.003475 0.201915 0.830837
O O10 0.265865 0.155952 0.644007
O O11 0.000000 0.190680 0.500000
O O12 0.766603 0.552088 0.633910
#
# Coordination Sequence:
#
# PCOD9222813 Si02
#       6
#     4   8   8   8   8   4
#     4   7  10  18  34  56  78  97 125 162 197 225
#     4   8  13  22  38  59  79 101 129 164 197 228
#     4   9  17  28  41  57  79 106 132 159 195 233
#     4   9  17  28  40  56  79 107 133 160 192 231
#     4   8  13  22  37  57  81 103 128 160 197 234
#     4   7  10  18  33  54  79 103 121 154 201 233
#
# _framework density 26.319924
#
# number of rings (size 3 to 8) (size 9 to 14) (size 15 to 20)
#    0.000    3.800    0.000    2.400    0.000    0.800 
#    0.000    0.500    0.000    3.600    0.000    7.700 
#    0.000    4.800    0.000    0.000    0.000    1.800 
#
# Total GULP energy -111436.737542 kJ/mol
# GULP energy per Si atom -5571.836877 kJ/mol
# Density = 2.626002 g / cm^3
# Si number density = 26.319924 Si / 1000 Ang^3
#
#
#
# Elastic Constant Matrix: (Units=GPa)
#
#
# Indices 1 2 3 4 5 6 
#
# 1 28.3916 11.7040 9.1085 0.0000 -3.6020 0.0000
# 2 11.7040 340.6791 21.2278 0.0000 -4.0741 0.0000
# 3 9.1085 21.2278 73.4183 0.0000 -2.2907 0.0000
# 4 0.0000 0.0000 0.0000 -4.9871 0.0000 -1.3627
# 5 -3.6020 -4.0741 -2.2907 0.0000 22.3044 0.0000
# 6 0.0000 0.0000 0.0000 -1.3627 0.0000 19.5720
#
#
#
# Elastic Compliance Matrix: (Units=1/GPa)
#
#
# Indices 1 2 3 4 5 6 
#
# 1 0.037669 -0.000966 -0.004223 0.000000 0.005473 0.000000
# 2 -0.000966 0.003019 -0.000743 0.000000 0.000319 0.000000
# 3 -0.004223 -0.000743 0.014380 0.000000 0.000659 0.000000
# 4 0.000000 0.000000 0.000000 -0.196772 0.000000 -0.013700
# 5 0.005473 0.000319 0.000659 0.000000 0.045844 0.000000
# 6 0.000000 0.000000 0.000000 -0.013700 0.000000 0.050139
#
#
# Mechanical properties :
#
#
# Convention : Reuss Voigt Hill
#
# Bulk Modulus (GPa) = 23.14615 58.50772 40.82693
# Shear Modulus (GPa) = -256.98937 34.07444 -111.45746
#
# Velocity S-wave (km/s) = -9.89205 3.60199 -6.51453
# Velocity P-wave (km/s) = 11.02982 6.29101 6.40625
#
# Compressibility (1/GPa) = 0.04320374
#
# Stress axis : x y z
#
# Youngs Moduli (GPa) = 26.54697 331.27944 69.54124
#
# Poissons Ratio (x) = 0.31985 0.29370
# Poissons Ratio (y) = 0.02563 0.05167
# Poissons Ratio (z) = 0.11212 0.24615
#
# Static dielectric constant tensor:
#      x y z
#    x 2.257970 0.000000 0.081940 
#    y 0.000000 2.261180 0.000000 
#    z 0.081940 0.000000 2.147560 
# 
# From -- ./inp_files/49925.got.cif
#   From: 2010.05.17/outbox.cif.g08.bks.cpg/sg12_25_cif.got.tgz:49925.got - 2010.06.03 13:09:07.
