data_PCOD9222185
_publ_section_title
;
Structure prediction by ZEFSAII (Michael W. Deem and Ramdas Pophale) SiO2 
 PCOD9222185
Probable space group: C 2/M
;
_chemical_formula_sum "Si O2"
_cell_formula_units_Z 58
_cell_length_a 14.629603
_cell_length_b 7.461831
_cell_length_c 25.888167
_cell_angle_alpha 90.000000
_cell_angle_beta 98.659040
_cell_angle_gamma 90.000000
_cell_volume 2793.834231
_symmetry_space_group_name_H-M "C 2/M"
_symmetry_group_IT_number 12
_symmetry_cell_setting 'monoclinic'
loop_
_space_group_symop_operation_xyz
x,y,z
-x,y,-z
-x,-y,-z
x,-y,z
1/2+x,1/2+y,z
1/2-x,1/2+y,-z
1/2-x,1/2-y,-z
1/2+x,1/2-y,z
loop_
_atom_site_type_symbol
_atom_site_label
_atom_site_fract_x
_atom_site_fract_y
_atom_site_fract_z
Si Si1 0.728548 0.715585 0.415877
Si Si2 0.653580 0.215264 0.131025
Si Si3 0.500000 0.500000 0.000000
Si Si4 0.201634 0.783647 0.297261
Si Si5 0.146299 0.713453 0.011362
Si Si6 0.470029 0.712050 0.784534
Si Si7 0.397982 0.286345 0.501896
Si Si8 0.174769 0.787373 0.787754
O O1 0.720613 0.500000 0.413775
O O2 0.714047 0.781874 0.356600
O O3 0.653635 0.783830 0.451215
O O4 0.828538 0.756853 0.448393
O O5 0.644222 0.273850 0.071511
O O6 0.569540 0.265091 0.161322
O O7 0.746821 0.284543 0.166685
O O8 0.658257 0.000000 0.130292
O O9 0.568394 0.341077 0.981009
O O10 0.285839 0.737471 0.266418
O O11 0.108564 0.716151 0.261049
O O12 0.196913 0.000000 0.298402
O O13 0.127396 0.500000 0.005206
O O14 0.250000 0.750000 0.000000
O O15 0.475408 0.500000 0.774415
O O16 0.572369 0.787340 0.786270
O O17 0.500000 0.213957 0.500000
O O18 0.406600 0.500000 0.509846
O O19 0.170031 0.000000 0.797389
#
# Coordination Sequence:
#
# PCOD9222185 Si02
#       8
#     8   8   2   8   8   8   8   8
#     4   9  18  32  48  68 100 134 169 215 270 322
#     4   9  20  37  57  84 120 150 192 247 293 353
#     4  12  26  44  72  96 132 180 222 276 328 396
#     4   9  18  32  48  72 104 139 173 218 269 329
#     4  11  24  45  68  99 137 176 222 276 333 393
#     4   9  18  32  54  80 109 143 186 226 279 346
#     4   9  18  32  50  71  94 126 171 219 263 322
#     4   9  18  34  54  79 107 142 181 228 279 333
#
# _framework density 20.760000000000002
#
# number of rings (size 3 to 8) (size 9 to 14) (size 15 to 20)
#    0.000    2.621    0.690    0.207    0.966    3.586 
#    2.483    2.759    0.000    0.000    0.000    0.000 
#    0.000    0.000    0.000    0.000    0.000    0.000 
#
# Total GULP energy -161577.212454 kJ/mol
# GULP energy per Si atom -5571.628016 kJ/mol
# Density = 2.071275 g / cm^3
# Si number density = 20.760000 Si / 1000 Ang^3
#
#
#
# Elastic Constant Matrix: (Units=GPa)
#
#
# Indices 1 2 3 4 5 6 
#
# 1 154.0097 17.7370 57.7521 0.0000 -9.6503 0.0000
# 2 17.7370 87.5550 -9.3513 0.0000 1.7250 0.0000
# 3 57.7521 -9.3513 98.8553 0.0000 -4.0173 0.0000
# 4 0.0000 0.0000 0.0000 -45.6733 0.0000 -154.4035
# 5 -9.6503 1.7250 -4.0173 0.0000 5.2276 0.0000
# 6 0.0000 0.0000 0.0000 -154.4035 0.0000 -373.4888
#
#
#
# Elastic Compliance Matrix: (Units=1/GPa)
#
#
# Indices 1 2 3 4 5 6 
#
# 1 0.009764 -0.002844 -0.005370 0.000000 0.014836 0.000000
# 2 -0.002844 0.012414 0.002535 0.000000 -0.007398 0.000000
# 3 -0.005370 0.002535 0.013477 0.000000 -0.000394 0.000000
# 4 0.000000 0.000000 0.000000 0.055071 0.000000 -0.022767
# 5 0.014836 -0.007398 -0.000394 0.000000 0.220821 0.000000
# 6 0.000000 0.000000 0.000000 -0.022767 0.000000 0.006735
#
#
# Mechanical properties :
#
#
# Convention : Reuss Voigt Hill
#
# Bulk Modulus (GPa) = 41.15766 52.52173 46.83969
# Shear Modulus (GPa) = 14.80430 -64.50145 -24.84857
#
# Velocity S-wave (km/s) = 2.67332 -5.58010 -3.46344
# Velocity P-wave (km/s) = 5.42193 4.02023 2.57246
#
# Compressibility (1/GPa) = 0.02429682
#
# Stress axis : x y z
#
# Youngs Moduli (GPa) = 102.41565 80.55389 74.20025
#
# Poissons Ratio (x) = 0.22909 0.39848
# Poissons Ratio (y) = 0.29126 -0.18811
# Poissons Ratio (z) = 0.55001 -0.20421
#
# Static dielectric constant tensor:
#      x y z
#    x 1.749360 0.000000 0.027610 
#    y 0.000000 1.776400 0.000000 
#    z 0.027610 0.000000 1.769480 
# 
# From -- ./inp_files/338087.got.cif
#   From: 2010.05.17/outbox.cif.g08.bks.cpg/sg12_170_cif.got.tgz:338087.got - 2010.06.03 13:09:07.
