data_PCOD9222243
_publ_section_title
;
Structure prediction by ZEFSAII (Michael W. Deem and Ramdas Pophale) SiO2 
 PCOD9222243
Probable space group: C 2/M
;
_chemical_formula_sum "Si O2"
_cell_formula_units_Z 34
_cell_length_a 13.706213
_cell_length_b 21.565822
_cell_length_c 5.097432
_cell_angle_alpha 90.000000
_cell_angle_beta 83.719436
_cell_angle_gamma 90.000000
_cell_volume 1497.685062
_symmetry_space_group_name_H-M "C 2/M"
_symmetry_group_IT_number 12
_symmetry_cell_setting 'monoclinic'
loop_
_space_group_symop_operation_xyz
x,y,z
-x,y,-z
-x,-y,-z
x,-y,z
1/2+x,1/2+y,z
1/2-x,1/2+y,-z
1/2-x,1/2-y,-z
1/2+x,1/2-y,z
loop_
_atom_site_type_symbol
_atom_site_label
_atom_site_fract_x
_atom_site_fract_y
_atom_site_fract_z
Si Si1 0.902405 0.603035 0.647924
Si Si2 0.767972 0.933853 0.651805
Si Si3 0.229970 0.820836 0.947465
Si Si4 0.000000 0.500000 0.000000
Si Si5 0.933941 0.114322 0.265714
O O1 0.840378 0.568271 0.439807
O O2 0.825213 0.652748 0.772666
O O3 0.000000 0.632392 0.500000
O O4 0.939161 0.554144 0.851262
O O5 0.782481 0.871685 0.816231
O O6 0.848211 0.930914 0.395458
O O7 0.780190 0.000000 0.790639
O O8 0.129576 0.827327 0.813209
O O9 0.250000 0.750000 0.000000
O O10 0.000000 0.126414 0.500000
O O11 0.000000 0.092547 0.000000
#
# Coordination Sequence:
#
# PCOD9222243 Si02
#       5
#     8   8   8   2   8
#     4  11  25  43  72 111 151 201 250 322 393 471
#     4  11  25  47  75 109 153 203 254 326 391 462
#     4  11  27  51  75 110 156 205 261 322 393 469
#     4  12  22  44  72 114 160 188 264 310 414 456
#     4  11  24  51  76 111 150 202 256 324 384 463
#
# _framework density 22.701702999999998
#
# number of rings (size 3 to 8) (size 9 to 14) (size 15 to 20)
#    0.000    0.941    3.529    1.765    4.941    5.647 
#   10.588    0.000    0.000    0.000    0.000    0.000 
#    0.000    0.000    0.000    0.000    0.000    0.000 
#
# Total GULP energy -94745.579102 kJ/mol
# GULP energy per Si atom -5573.269359 kJ/mol
# Density = 2.265003 g / cm^3
# Si number density = 22.701703 Si / 1000 Ang^3
#
#
#
# Elastic Constant Matrix: (Units=GPa)
#
#
# Indices 1 2 3 4 5 6 
#
# 1 159.3511 17.4034 59.1094 0.0000 -3.5777 0.0000
# 2 17.4034 142.3806 38.3749 0.0000 -0.1868 0.0000
# 3 59.1094 38.3749 118.8615 0.0000 1.8613 0.0000
# 4 0.0000 0.0000 0.0000 11.1188 0.0000 26.4557
# 5 -3.5777 -0.1868 1.8613 0.0000 74.5420 0.0000
# 6 0.0000 0.0000 0.0000 26.4557 0.0000 -50.1870
#
#
#
# Elastic Compliance Matrix: (Units=1/GPa)
#
#
# Indices 1 2 3 4 5 6 
#
# 1 0.007712 0.000103 -0.003876 0.000000 0.000467 0.000000
# 2 0.000103 0.007695 -0.002537 0.000000 0.000088 0.000000
# 3 -0.003876 -0.002537 0.011167 0.000000 -0.000471 0.000000
# 4 0.000000 0.000000 0.000000 0.039897 0.000000 0.021031
# 5 0.000467 0.000088 -0.000471 0.000000 0.013450 0.000000
# 6 0.000000 0.000000 0.000000 0.021031 0.000000 -0.008839
#
#
# Mechanical properties :
#
#
# Convention : Reuss Voigt Hill
#
# Bulk Modulus (GPa) = 71.66263 72.26316 71.96289
# Shear Modulus (GPa) = 56.59149 27.47513 42.03331
#
# Velocity S-wave (km/s) = 4.99824 3.48266 4.30763
# Velocity P-wave (km/s) = 8.05888 6.93344 7.51725
#
# Compressibility (1/GPa) = 0.01395427
#
# Stress axis : x y z
#
# Youngs Moduli (GPa) = 129.66108 129.95982 89.55040
#
# Poissons Ratio (x) = -0.01332 0.34708
# Poissons Ratio (y) = -0.01329 0.22715
# Poissons Ratio (z) = 0.50254 0.32966
#
# Static dielectric constant tensor:
#      x y z
#    x 1.862860 0.000000 -0.039130 
#    y 0.000000 1.820200 0.000000 
#    z -0.039130 0.000000 1.973280 
# 
# From -- ./inp_files/11136.got.cif
#   From: 2010.05.17/outbox.cif.g08.bks.cpg/sg12_6_cif.got.tgz:11136.got - 2010.06.03 13:09:07.
