data_PCOD9222861
_publ_section_title
;
Structure prediction by ZEFSAII (Michael W. Deem and Ramdas Pophale) SiO2 
 PCOD9222861
Probable space group: C 2/M
;
_chemical_formula_sum "Si O2"
_cell_formula_units_Z 64
_cell_length_a 29.510225
_cell_length_b 7.307718
_cell_length_c 14.725085
_cell_angle_alpha 90.000000
_cell_angle_beta 74.113574
_cell_angle_gamma 90.000000
_cell_volume 3054.215503
_symmetry_space_group_name_H-M "C 2/M"
_symmetry_group_IT_number 12
_symmetry_cell_setting 'monoclinic'
loop_
_space_group_symop_operation_xyz
x,y,z
-x,y,-z
-x,-y,-z
x,-y,z
1/2+x,1/2+y,z
1/2-x,1/2+y,-z
1/2-x,1/2-y,-z
1/2+x,1/2-y,z
loop_
_atom_site_type_symbol
_atom_site_label
_atom_site_fract_x
_atom_site_fract_y
_atom_site_fract_z
Si Si1 0.111051 0.222646 0.249103
Si Si2 0.011761 0.222718 0.392051
Si Si3 0.306192 0.717432 0.467785
Si Si4 0.392638 0.276558 0.128268
Si Si5 0.802073 0.219879 0.271774
Si Si6 0.808876 0.216995 0.664247
Si Si7 0.530195 0.722479 0.771655
Si Si8 0.931060 0.777239 0.913592
O O1 0.064298 0.274298 0.331180
O O2 0.157662 0.287412 0.274721
O O3 0.103236 0.280164 0.149587
O O4 0.111628 0.000000 0.246787
O O5 0.000000 0.285176 0.500000
O O6 0.977081 0.280507 0.328884
O O7 0.010445 0.000000 0.394410
O O8 0.315680 0.500000 0.462481
O O9 0.250000 0.750000 0.500000
O O10 0.319888 0.787600 0.361037
O O11 0.322524 0.790178 0.556408
O O12 0.393577 0.500000 0.125869
O O13 0.338922 0.219341 0.175761
O O14 0.424627 0.219472 0.196088
O O15 0.414734 0.214978 0.021187
O O16 0.747000 0.261842 0.289439
O O17 0.804227 0.000000 0.274193
O O18 0.817075 0.000000 0.655119
O O19 0.530896 0.500000 0.769277
O O20 0.483497 0.776421 0.853729
O O21 0.931448 0.000000 0.915571
#
# Coordination Sequence:
#
# PCOD9222861 Si02
#       8
#     8   8   8   8   8   8   8   8
#     4   8  14  23  35  51  71  98 130 158 186 226
#     4   8  13  20  30  48  75 100 121 152 192 230
#     4   8  14  24  37  52  71  96 124 154 186 220
#     4   9  15  22  34  51  73 100 124 153 196 235
#     4   9  17  27  38  57  82 101 125 164 200 225
#     4   9  16  27  42  56  74 105 137 158 184 229
#     4   8  13  20  31  48  70  97 125 150 185 236
#     4   8  13  22  34  49  71  97 125 156 190 231
#
# _framework density 20.954644999999999
#
# number of rings (size 3 to 8) (size 9 to 14) (size 15 to 20)
#    0.000    3.625    0.000    1.875    0.000    2.500 
#    0.000    5.625    0.000    0.000    0.000    0.000 
#    0.000    6.500    0.000    0.000    0.000    5.375 
#
# Total GULP energy -178331.885258 kJ/mol
# GULP energy per Si atom -5572.871414 kJ/mol
# Density = 2.090695 g / cm^3
# Si number density = 20.954645 Si / 1000 Ang^3
#
#
#
# Elastic Constant Matrix: (Units=GPa)
#
#
# Indices 1 2 3 4 5 6 
#
# 1 114.9183 -2.4093 62.0208 0.0000 27.4374 0.0000
# 2 -2.4093 84.8108 -0.5178 0.0000 2.4093 0.0000
# 3 62.0208 -0.5178 145.9120 0.0000 14.3684 0.0000
# 4 0.0000 0.0000 0.0000 -11.7708 0.0000 -3.8357
# 5 27.4374 2.4093 14.3684 0.0000 20.3502 0.0000
# 6 0.0000 0.0000 0.0000 -3.8357 0.0000 -1.9396
#
#
#
# Elastic Compliance Matrix: (Units=1/GPa)
#
#
# Indices 1 2 3 4 5 6 
#
# 1 0.015567 0.000914 -0.004875 0.000000 -0.017655 0.000000
# 2 0.000914 0.011889 -0.000093 0.000000 -0.002574 0.000000
# 3 -0.004875 -0.000093 0.008895 0.000000 0.000303 0.000000
# 4 0.000000 0.000000 0.000000 -0.238919 0.000000 0.472474
# 5 -0.017655 -0.002574 0.000303 0.000000 0.073033 0.000000
# 6 0.000000 0.000000 0.000000 0.472474 0.000000 -1.449905
#
#
# Mechanical properties :
#
#
# Convention : Reuss Voigt Hill
#
# Bulk Modulus (GPa) = 35.40540 51.53647 43.47094
# Shear Modulus (GPa) = -3.20120 20.43114 8.61497
#
# Velocity S-wave (km/s) = -1.23733 3.12591 2.02982
# Velocity P-wave (km/s) = 3.85896 6.13809 5.12678
#
# Compressibility (1/GPa) = 0.02824428
#
# Stress axis : x y z
#
# Youngs Moduli (GPa) = 64.23711 84.10800 112.41656
#
# Poissons Ratio (x) = -0.07688 0.54805
# Poissons Ratio (y) = -0.05871 0.01043
# Poissons Ratio (z) = 0.31317 0.00781
#
# Static dielectric constant tensor:
#      x y z
#    x 1.725740 0.000000 0.020130 
#    y 0.000000 1.805710 0.000000 
#    z 0.020130 0.000000 1.750480 
# 
# From -- ./inp_files/243794.got.cif
#   From: 2010.05.17/outbox.cif.g08.bks.cpg/sg12_122_cif.got.tgz:243794.got - 2010.06.03 13:09:07.
