data_PCOD9222878
_publ_section_title
;
Structure prediction by ZEFSAII (Michael W. Deem and Ramdas Pophale) SiO2 
 PCOD9222878
Probable space group: C 2/M
;
_chemical_formula_sum "Si O2"
_cell_formula_units_Z 56
_cell_length_a 13.910357
_cell_length_b 7.346241
_cell_length_c 21.541073
_cell_angle_alpha 90.000000
_cell_angle_beta 66.259310
_cell_angle_gamma 90.000000
_cell_volume 2014.979969
_symmetry_space_group_name_H-M "C 2/M"
_symmetry_group_IT_number 12
_symmetry_cell_setting 'monoclinic'
loop_
_space_group_symop_operation_xyz
x,y,z
-x,y,-z
-x,-y,-z
x,-y,z
1/2+x,1/2+y,z
1/2-x,1/2+y,-z
1/2-x,1/2-y,-z
1/2+x,1/2-y,z
loop_
_atom_site_type_symbol
_atom_site_label
_atom_site_fract_x
_atom_site_fract_y
_atom_site_fract_z
Si Si1 0.172853 0.285070 0.448645
Si Si2 0.971767 0.283568 0.412475
Si Si3 0.879879 0.781055 0.017342
Si Si4 0.692766 0.277379 0.701369
Si Si5 0.819174 0.209678 0.161505
Si Si6 0.061504 0.715163 0.129920
Si Si7 0.456378 0.206436 0.735209
O O1 0.191933 0.500000 0.451185
O O2 0.134755 0.213250 0.526248
O O3 0.255391 0.213863 0.376660
O O4 0.066758 0.268025 0.435641
O O5 0.953556 0.500000 0.406986
O O6 0.020532 0.203361 0.337082
O O7 0.863788 0.736552 0.949239
O O8 0.876712 0.000000 0.021485
O O9 0.815712 0.708967 0.093282
O O10 0.000000 0.721248 0.000000
O O11 0.694377 0.500000 0.700385
O O12 0.732872 0.222089 0.760057
O O13 0.576028 0.204241 0.728491
O O14 0.946268 0.206885 0.142490
O O15 0.786576 0.000000 0.164040
O O16 0.048242 0.500000 0.141368
O O17 0.098333 0.782881 0.188497
O O18 0.419922 0.000000 0.731794
#
# Coordination Sequence:
#
# PCOD9222878 Si02
#       7
#     8   8   8   8   8   8   8
#     4   8  14  25  43  63  79 101 135 170 197 225
#     4   8  14  26  42  60  82 105 132 165 198 233
#     4   8  13  21  32  46  68 100 129 153 189 229
#     4   9  16  26  41  62  84 103 130 167 200 232
#     4   8  14  23  33  48  74 102 124 153 194 232
#     4   9  15  21  31  50  74  99 128 158 187 224
#     4   9  17  27  39  58  85 111 130 156 200 244
#
# _framework density 27.791839
#
# number of rings (size 3 to 8) (size 9 to 14) (size 15 to 20)
#    0.000    3.571    0.000    2.143    0.000    3.714 
#    0.000    0.000    0.000    0.857    0.000    3.000 
#    0.000    0.000    0.000    0.000    0.000    0.000 
#
# Total GULP energy -156195.046215 kJ/mol
# GULP energy per Si atom -5578.394508 kJ/mol
# Density = 2.772858 g / cm^3
# Si number density = 27.791839 Si / 1000 Ang^3
#
#
#
# Elastic Constant Matrix: (Units=GPa)
#
#
# Indices 1 2 3 4 5 6 
#
# 1 52.6419 6.4004 46.6381 0.0000 -7.3555 0.0000
# 2 6.4004 113.3075 23.2204 0.0000 -2.8024 0.0000
# 3 46.6381 23.2204 364.3233 0.0000 -5.9121 0.0000
# 4 0.0000 0.0000 0.0000 4.0591 0.0000 9.2723
# 5 -7.3555 -2.8024 -5.9121 0.0000 66.4026 0.0000
# 6 0.0000 0.0000 0.0000 9.2723 0.0000 -7.2846
#
#
#
# Elastic Compliance Matrix: (Units=1/GPa)
#
#
# Indices 1 2 3 4 5 6 
#
# 1 0.021775 -0.000621 -0.002713 0.000000 0.002144 0.000000
# 2 -0.000621 0.008967 -0.000488 0.000000 0.000266 0.000000
# 3 -0.002713 -0.000488 0.003123 0.000000 -0.000043 0.000000
# 4 0.000000 0.000000 0.000000 0.063046 0.000000 0.080248
# 5 0.002144 0.000266 -0.000043 0.000000 0.015305 0.000000
# 6 0.000000 0.000000 0.000000 0.080248 0.000000 -0.035130
#
#
# Mechanical properties :
#
#
# Convention : Reuss Voigt Hill
#
# Bulk Modulus (GPa) = 38.13717 75.86562 57.00139
# Shear Modulus (GPa) = 53.49389 42.90301 48.19845
#
# Velocity S-wave (km/s) = 4.39202 3.93329 4.16897
# Velocity P-wave (km/s) = 6.28268 6.92710 6.61274
#
# Compressibility (1/GPa) = 0.02622114
#
# Stress axis : x y z
#
# Youngs Moduli (GPa) = 45.92407 111.51814 320.25479
#
# Poissons Ratio (x) = 0.06925 0.86889
# Poissons Ratio (y) = 0.02852 0.15619
# Poissons Ratio (z) = 0.12460 0.05439
#
# Static dielectric constant tensor:
#      x y z
#    x 2.222060 0.000000 -0.062680 
#    y 0.000000 4.958490 0.000000 
#    z -0.062680 0.000000 2.780720 
# 
# From -- ./inp_files/319039.got.cif
#   From: 2010.05.17/outbox.cif.g08.bks.cpg/sg12_160_cif.got.tgz:319039.got - 2010.06.03 13:09:07.
