data_PCOD9222121
_publ_section_title
;
Structure prediction by ZEFSAII (Michael W. Deem and Ramdas Pophale) SiO2 
 PCOD9222121
Probable space group: C 2/M
;
_chemical_formula_sum "Si O2"
_cell_formula_units_Z 36
_cell_length_a 12.643129
_cell_length_b 11.177613
_cell_length_c 24.683587
_cell_angle_alpha 90.000000
_cell_angle_beta 24.981465
_cell_angle_gamma 90.000000
_cell_volume 1473.189971
_symmetry_space_group_name_H-M "C 2/M"
_symmetry_group_IT_number 12
_symmetry_cell_setting 'monoclinic'
loop_
_space_group_symop_operation_xyz
x,y,z
-x,y,-z
-x,-y,-z
x,-y,z
1/2+x,1/2+y,z
1/2-x,1/2+y,-z
1/2-x,1/2-y,-z
1/2+x,1/2-y,z
loop_
_atom_site_type_symbol
_atom_site_label
_atom_site_fract_x
_atom_site_fract_y
_atom_site_fract_z
Si Si1 0.396427 0.766596 0.341369
Si Si2 0.519949 0.784887 0.164307
Si Si3 0.737006 0.000000 0.776250
Si Si4 0.633586 0.500000 0.495887
Si Si5 0.278009 0.500000 0.399648
Si Si6 0.562113 0.361017 0.893499
O O1 0.359141 0.782547 0.293728
O O2 0.282081 0.641701 0.413788
O O3 0.693455 0.782965 0.208934
O O4 0.290607 0.879042 0.422633
O O5 0.428115 0.886712 0.164935
O O6 0.495385 0.661064 0.143615
O O7 0.809502 0.817391 0.040101
O O8 0.955969 0.000000 0.629458
O O9 0.902669 0.000000 0.754670
O O10 0.500000 0.500000 0.500000
O O11 0.000000 0.500000 0.500000
O O12 0.610122 0.500000 0.883092
#
# Coordination Sequence:
#
# PCOD9222121 Si02
#       6
#     8   8   4   4   4   8
#     4  12  25  46  71 102 139 180 235 288 341 414
#     4  11  24  43  71 103 142 179 223 290 347 415
#     4  12  24  47  73  98 141 181 230 286 343 415
#     4  12  24  41  73 101 130 181 236 278 334 403
#     4  12  30  48  65  99 144 183 229 290 356 403
#     4  11  24  43  70 107 139 183 229 284 350 416
#
# _framework density 24.436765999999999
#
# number of rings (size 3 to 8) (size 9 to 14) (size 15 to 20)
#    0.000    0.444    6.667    1.333    1.556    3.556 
#    0.000    1.111    0.000    0.000    0.000    0.000 
#    0.000    0.000    0.000    0.000    0.000    0.000 
#
# Total GULP energy -100289.427708 kJ/mol
# GULP energy per Si atom -5571.634873 kJ/mol
# Density = 2.438115 g / cm^3
# Si number density = 24.436766 Si / 1000 Ang^3
#
#
#
# Elastic Constant Matrix: (Units=GPa)
#
#
# Indices 1 2 3 4 5 6 
#
# 1 71.0881 30.4833 29.7543 -0.0033 -19.4403 -0.0007
# 2 30.4833 183.5412 45.1547 0.0013 -15.8707 -0.0007
# 3 29.7543 45.1547 108.2081 0.0066 -19.6901 0.0001
# 4 -0.0033 0.0013 0.0066 24.5724 -0.0045 -18.6225
# 5 -19.4403 -15.8707 -19.6901 -0.0045 48.7856 -0.0003
# 6 -0.0007 -0.0007 0.0001 -18.6225 -0.0003 31.9188
#
#
#
# Elastic Compliance Matrix: (Units=1/GPa)
#
#
# Indices 1 2 3 4 5 6 
#
# 1 0.017529 -0.001683 -0.003180 0.000008 0.005154 0.000005
# 2 -0.001683 0.006282 -0.002060 0.000000 0.000541 0.000000
# 3 -0.003180 -0.002060 0.011465 -0.000005 0.002690 -0.000003
# 4 0.000008 0.000000 -0.000005 0.072953 0.000008 0.042563
# 5 0.005154 0.000541 0.002690 0.000008 0.023814 0.000005
# 6 0.000005 0.000000 -0.000003 0.042563 0.000005 0.056162
#
#
# Mechanical properties :
#
#
# Convention : Reuss Voigt Hill
#
# Bulk Modulus (GPa) = 46.66418 63.73578 55.19998
# Shear Modulus (GPa) = 23.90127 38.21835 31.05981
#
# Velocity S-wave (km/s) = 3.13083 3.95900 3.56902
# Velocity P-wave (km/s) = 5.67510 6.85833 6.29458
#
# Compressibility (1/GPa) = 0.02142971
#
# Stress axis : x y z
#
# Youngs Moduli (GPa) = 57.04739 159.19700 87.22301
#
# Poissons Ratio (x) = 0.26799 0.27735
# Poissons Ratio (y) = 0.09603 0.17967
# Poissons Ratio (z) = 0.18140 0.32792
#
# Static dielectric constant tensor:
#      x y z
#    x 2.328010 0.000020 -0.065980 
#    y 0.000020 1.984790 0.000010 
#    z -0.065980 0.000010 1.940210 
# 
# From -- ./inp_files/375999.got.cif
#   From: 2010.05.17/outbox.cif.g08.bks.cpg/sg12_188_cif.got.tgz:375999.got - 2010.06.03 13:09:07.
