data_PCOD9222344
_publ_section_title
;
Structure prediction by ZEFSAII (Michael W. Deem and Ramdas Pophale) SiO2 
 PCOD9222344
Probable space group: C 2/M
;
_chemical_formula_sum "Si O2"
_cell_formula_units_Z 36
_cell_length_a 20.004140
_cell_length_b 13.350412
_cell_length_c 9.386837
_cell_angle_alpha 90.000000
_cell_angle_beta 36.899058
_cell_angle_gamma 90.000000
_cell_volume 1505.149482
_symmetry_space_group_name_H-M "C 2/M"
_symmetry_group_IT_number 12
_symmetry_cell_setting 'monoclinic'
loop_
_space_group_symop_operation_xyz
x,y,z
-x,y,-z
-x,-y,-z
x,-y,z
1/2+x,1/2+y,z
1/2-x,1/2+y,-z
1/2-x,1/2-y,-z
1/2+x,1/2-y,z
loop_
_atom_site_type_symbol
_atom_site_label
_atom_site_fract_x
_atom_site_fract_y
_atom_site_fract_z
Si Si1 0.970907 0.000000 0.299933
Si Si2 0.465145 0.279934 0.759931
Si Si3 0.678987 0.789348 0.756877
Si Si4 0.332175 0.205665 0.720623
Si Si5 0.272539 0.500000 0.183679
Si Si6 0.282047 0.000000 0.397582
O O1 0.984223 0.890896 0.352003
O O2 0.094256 0.000000 0.016072
O O3 0.849554 0.000000 0.430093
O O4 0.371748 0.253111 0.801275
O O5 0.556614 0.196629 0.565745
O O6 0.423254 0.269611 0.994677
O O7 0.750000 0.750000 0.500000
O O8 0.763939 0.783679 0.742766
O O9 0.655149 0.902800 0.764147
O O10 0.268525 0.099614 0.827228
O O11 0.220874 0.500000 0.427754
#
# Coordination Sequence:
#
# PCOD9222344 Si02
#       6
#     4   8   8   8   4   4
#     4  12  23  42  75 104 139 177 241 286 362 402
#     4  11  26  45  71 105 140 189 226 300 344 418
#     4  12  24  44  69 105 144 181 233 290 352 412
#     4  11  25  46  69 102 145 179 240 283 355 414
#     4  12  25  45  72 101 141 197 225 288 359 418
#     4  12  25  43  70 109 137 180 241 291 349 419
#
# _framework density 23.917891000000001
#
# number of rings (size 3 to 8) (size 9 to 14) (size 15 to 20)
#    0.000    0.444    6.667    1.000    0.000    7.111 
#    0.000    1.111    0.000    0.000    0.000    0.000 
#    0.000    0.000    0.000    0.000    0.000    0.000 
#
# Total GULP energy -100370.093501 kJ/mol
# GULP energy per Si atom -5576.116306 kJ/mol
# Density = 2.386345 g / cm^3
# Si number density = 23.917891 Si / 1000 Ang^3
#
#
#
# Elastic Constant Matrix: (Units=GPa)
#
#
# Indices 1 2 3 4 5 6 
#
# 1 92.0938 19.8943 16.3988 0.0000 14.7881 0.0000
# 2 19.8943 163.7697 31.9272 0.0000 14.8644 0.0000
# 3 16.3988 31.9272 124.0150 0.0000 28.4269 0.0000
# 4 0.0000 0.0000 0.0000 12.0045 0.0000 6.5118
# 5 14.7881 14.8644 28.4269 0.0000 26.9998 0.0000
# 6 0.0000 0.0000 0.0000 6.5118 0.0000 28.3294
#
#
#
# Elastic Compliance Matrix: (Units=1/GPa)
#
#
# Indices 1 2 3 4 5 6 
#
# 1 0.012033 -0.000914 0.000052 0.000000 -0.006142 0.000000
# 2 -0.000914 0.006615 -0.001136 0.000000 -0.001945 0.000000
# 3 0.000052 -0.001136 0.010825 0.000000 -0.010800 0.000000
# 4 0.000000 0.000000 0.000000 0.095169 0.000000 -0.021876
# 5 -0.006142 -0.001945 -0.010800 0.000000 0.052843 0.000000
# 6 0.000000 0.000000 0.000000 -0.021876 0.000000 0.040327
#
#
# Mechanical properties :
#
#
# Convention : Reuss Voigt Hill
#
# Bulk Modulus (GPa) = 39.25311 57.36881 48.31096
# Shear Modulus (GPa) = 21.71071 34.24394 27.97732
#
# Velocity S-wave (km/s) = 3.01610 3.78792 3.42383
# Velocity P-wave (km/s) = 5.34569 6.57031 5.98938
#
# Compressibility (1/GPa) = 0.02547569
#
# Stress axis : x y z
#
# Youngs Moduli (GPa) = 83.10464 151.16557 92.38081
#
# Poissons Ratio (x) = 0.13823 -0.00482
# Poissons Ratio (y) = 0.07599 0.10498
# Poissons Ratio (z) = -0.00433 0.17179
#
# Static dielectric constant tensor:
#      x y z
#    x 1.930780 0.000000 -0.106420 
#    y 0.000000 2.699330 0.000000 
#    z -0.106420 0.000000 2.179690 
# 
# From -- ./inp_files/86276.got.cif
#   From: 2010.05.17/outbox.cif.g08.bks.cpg/sg12_44_cif.got.tgz:86276.got - 2010.06.03 13:09:07.
