data_PCOD9222384
_publ_section_title
;
Structure prediction by ZEFSAII (Michael W. Deem and Ramdas Pophale) SiO2 
 PCOD9222384
Probable space group: C 2/M
;
_chemical_formula_sum "Si O2"
_cell_formula_units_Z 28
_cell_length_a 17.391663
_cell_length_b 14.031565
_cell_length_c 7.860947
_cell_angle_alpha 90.000000
_cell_angle_beta 144.028402
_cell_angle_gamma 90.000000
_cell_volume 1126.793442
_symmetry_space_group_name_H-M "C 2/M"
_symmetry_group_IT_number 12
_symmetry_cell_setting 'monoclinic'
loop_
_space_group_symop_operation_xyz
x,y,z
-x,y,-z
-x,-y,-z
x,-y,z
1/2+x,1/2+y,z
1/2-x,1/2+y,-z
1/2-x,1/2-y,-z
1/2+x,1/2-y,z
loop_
_atom_site_type_symbol
_atom_site_label
_atom_site_fract_x
_atom_site_fract_y
_atom_site_fract_z
Si Si1 0.019183 0.205614 0.838227
Si Si2 0.434434 0.500000 0.571330
Si Si3 0.193140 0.664496 0.696054
Si Si4 0.165325 0.500000 0.920584
Si Si5 0.593771 0.000000 0.327315
O O1 0.982916 0.094881 0.750515
O O2 0.925813 0.264538 0.546673
O O3 0.170107 0.218275 0.060708
O O4 0.000000 0.234771 0.000000
O O5 0.500000 0.500000 0.500000
O O6 0.277821 0.500000 0.265202
O O7 0.187412 0.593772 0.845587
O O8 0.182379 0.592342 0.515113
O O9 0.018273 0.500000 0.726363
O O10 0.500000 0.000000 0.000000
#
# Coordination Sequence:
#
# PCOD9222384 Si02
#       5
#     8   4   8   4   4
#     4  12  27  46  73 105 146 188 241 291 351 413
#     4  12  25  46  71 105 142 186 237 296 352 420
#     4  11  25  48  70 106 143 187 238 290 352 422
#     4  11  26  49  71 105 143 187 236 289 360 422
#     4  11  26  47  75 103 143 186 235 293 357 422
#
# _framework density 24.849276
#
# number of rings (size 3 to 8) (size 9 to 14) (size 15 to 20)
#    0.000    0.571    2.857    4.714    8.000    3.429 
#    0.000    0.000    0.000    0.000    0.000    0.000 
#    0.000    0.000    0.000    0.000    0.000    0.000 
#
# Total GULP energy -78576.420079 kJ/mol
# GULP energy per Si atom -5612.601434 kJ/mol
# Density = 2.479272 g / cm^3
# Si number density = 24.849276 Si / 1000 Ang^3
#
#
#
# Elastic Constant Matrix: (Units=GPa)
#
#
# Indices 1 2 3 4 5 6 
#
# 1 98.8351 15.6816 41.7629 0.0000 12.2754 0.0000
# 2 15.6816 114.8451 48.4182 0.0000 6.3375 0.0000
# 3 41.7629 48.4182 182.8809 0.0000 33.6089 0.0000
# 4 0.0000 0.0000 0.0000 66.4472 0.0000 1.4793
# 5 12.2754 6.3375 33.6089 0.0000 53.0273 0.0000
# 6 0.0000 0.0000 0.0000 1.4793 0.0000 10.6740
#
#
#
# Elastic Compliance Matrix: (Units=1/GPa)
#
#
# Indices 1 2 3 4 5 6 
#
# 1 0.011285 -0.000540 -0.002225 0.000000 -0.001138 0.000000
# 2 -0.000540 0.009841 -0.002591 0.000000 0.000591 0.000000
# 3 -0.002225 -0.002591 0.007369 0.000000 -0.003846 0.000000
# 4 0.000000 0.000000 0.000000 0.015096 0.000000 -0.002092
# 5 -0.001138 0.000591 -0.003846 0.000000 0.021488 0.000000
# 6 0.000000 0.000000 0.000000 -0.002092 0.000000 0.093976
#
#
# Mechanical properties :
#
#
# Convention : Reuss Voigt Hill
#
# Bulk Modulus (GPa) = 56.23320 67.58739 61.91030
# Shear Modulus (GPa) = 28.45860 45.40960 36.93410
#
# Velocity S-wave (km/s) = 3.38782 4.27945 3.85947
# Velocity P-wave (km/s) = 6.16295 7.18862 6.69545
#
# Compressibility (1/GPa) = 0.01778309
#
# Stress axis : x y z
#
# Youngs Moduli (GPa) = 88.61300 101.61871 135.70827
#
# Poissons Ratio (x) = 0.05488 0.30195
# Poissons Ratio (y) = 0.04786 0.35157
# Poissons Ratio (z) = 0.19716 0.26325
#
# Static dielectric constant tensor:
#      x y z
#    x 2.019570 0.000000 -0.036540 
#    y 0.000000 1.937310 0.000000 
#    z -0.036540 0.000000 1.928240 
# 
# From -- ./inp_files/86218.got.cif
#   From: 2010.05.17/outbox.cif.g08.bks.cpg/sg12_44_cif.got.tgz:86218.got - 2010.06.03 13:09:07.
