data_PCOD9222057
_publ_section_title
;
Structure prediction by ZEFSAII (Michael W. Deem and Ramdas Pophale) SiO2 
 PCOD9222057
Probable space group: C 2/M
;
_chemical_formula_sum "Si O2"
_cell_formula_units_Z 64
_cell_length_a 17.615484
_cell_length_b 15.060726
_cell_length_c 19.800249
_cell_angle_alpha 90.000000
_cell_angle_beta 142.858192
_cell_angle_gamma 90.000000
_cell_volume 3171.735197
_symmetry_space_group_name_H-M "C 2/M"
_symmetry_group_IT_number 12
_symmetry_cell_setting 'monoclinic'
loop_
_space_group_symop_operation_xyz
x,y,z
-x,y,-z
-x,-y,-z
x,-y,z
1/2+x,1/2+y,z
1/2-x,1/2+y,-z
1/2-x,1/2-y,-z
1/2+x,1/2-y,z
loop_
_atom_site_type_symbol
_atom_site_label
_atom_site_fract_x
_atom_site_fract_y
_atom_site_fract_z
Si Si1 0.333939 0.759131 0.243194
Si Si2 0.084750 0.778537 0.126819
Si Si3 0.475865 0.100948 0.843231
Si Si4 0.790478 0.147884 0.534729
Si Si5 0.476210 0.900603 0.686628
Si Si6 0.749359 0.668208 0.947252
Si Si7 0.978260 0.102720 0.789921
Si Si8 0.502368 0.400549 0.582606
O O1 0.229970 0.803016 0.216954
O O2 0.430032 0.828987 0.278524
O O3 0.252597 0.713428 0.126875
O O4 0.410444 0.679911 0.331898
O O5 0.034539 0.836543 0.153256
O O6 0.079867 0.675780 0.147522
O O7 0.000000 0.791696 0.000000
O O8 0.447149 0.121960 0.744365
O O9 0.435870 0.000000 0.829655
O O10 0.626692 0.110413 0.955462
O O11 0.750000 0.250000 0.500000
O O12 0.657188 0.099377 0.445564
O O13 0.882210 0.132969 0.663189
O O14 0.868566 0.116217 0.524383
O O15 0.531268 0.000000 0.724961
O O16 0.619967 0.615651 0.863882
O O17 0.750000 0.750000 0.000000
O O18 0.955015 0.000000 0.789001
O O19 0.500000 0.399129 0.500000
O O20 0.544807 0.500000 0.633743
#
# Coordination Sequence:
#
# PCOD9222057 Si02
#       8
#     8   8   8   8   8   8   8   8
#     4  12  24  42  68  93 135 181 218 274 339 398
#     4  12  26  45  64  94 141 181 223 278 340 406
#     4  11  24  42  68 100 134 177 224 280 344 407
#     4  12  23  45  73 100 136 177 223 279 336 399
#     4  11  24  43  69 101 132 173 228 279 330 399
#     4  12  20  43  69  97 133 173 227 282 332 395
#     4  12  26  44  72 104 134 178 234 283 333 403
#     4  11  26  44  67 101 136 173 218 274 341 406
#
# _framework density 20.178229999999999
#
# number of rings (size 3 to 8) (size 9 to 14) (size 15 to 20)
#    0.000    0.375    6.250    2.250    3.500    2.000 
#    0.000    0.000    0.000    1.875    0.000    0.000 
#    0.000    0.000    0.000    0.000    0.000    0.000 
#
# Total GULP energy -178956.290469 kJ/mol
# GULP energy per Si atom -5592.384077 kJ/mol
# Density = 2.013230 g / cm^3
# Si number density = 20.178230 Si / 1000 Ang^3
#
#
#
# Elastic Constant Matrix: (Units=GPa)
#
#
# Indices 1 2 3 4 5 6 
#
# 1 74.4919 11.3406 23.0851 0.0000 -3.1585 0.0000
# 2 11.3406 97.4088 22.8027 0.0000 -13.9836 0.0000
# 3 23.0851 22.8027 91.4358 0.0000 0.0274 0.0000
# 4 0.0000 0.0000 0.0000 21.7103 0.0000 1.3049
# 5 -3.1585 -13.9836 0.0274 0.0000 31.5395 0.0000
# 6 0.0000 0.0000 0.0000 1.3049 0.0000 3.0282
#
#
#
# Elastic Compliance Matrix: (Units=1/GPa)
#
#
# Indices 1 2 3 4 5 6 
#
# 1 0.014675 -0.000717 -0.003527 0.000000 0.001155 0.000000
# 2 -0.000717 0.011729 -0.002745 0.000000 0.005131 0.000000
# 3 -0.003527 -0.002745 0.012512 0.000000 -0.001581 0.000000
# 4 0.000000 0.000000 0.000000 0.047286 0.000000 -0.020376
# 5 0.001155 0.005131 -0.001581 0.000000 0.034098 0.000000
# 6 0.000000 0.000000 0.000000 -0.020376 0.000000 0.339007
#
#
# Mechanical properties :
#
#
# Convention : Reuss Voigt Hill
#
# Bulk Modulus (GPa) = 40.09990 41.97701 41.03845
# Shear Modulus (GPa) = 10.38211 24.99615 17.68913
#
# Velocity S-wave (km/s) = 2.27076 3.52343 2.96403
# Velocity P-wave (km/s) = 5.17602 6.11564 5.66534
#
# Compressibility (1/GPa) = 0.02493772
#
# Stress axis : x y z
#
# Youngs Moduli (GPa) = 68.14156 85.26064 79.92235
#
# Poissons Ratio (x) = 0.06115 0.28185
# Poissons Ratio (y) = 0.04887 0.21942
# Poissons Ratio (z) = 0.24031 0.23408
#
# Static dielectric constant tensor:
#      x y z
#    x 1.723000 0.000000 -0.004610 
#    y 0.000000 1.674950 0.000000 
#    z -0.004610 0.000000 1.742190 
# 
# From -- ./inp_files/278211.got.cif
#   From: 2010.05.17/outbox.cif.g08.bks.cpg/sg12_140_cif.got.tgz:278211.got - 2010.06.03 13:09:07.
