data_PCOD9222437
_publ_section_title
;
Structure prediction by ZEFSAII (Michael W. Deem and Ramdas Pophale) SiO2 
 PCOD9222437
Probable space group: C 2/M
;
_chemical_formula_sum "Si O2"
_cell_formula_units_Z 44
_cell_length_a 12.174260
_cell_length_b 24.191671
_cell_length_c 12.191281
_cell_angle_alpha 90.000000
_cell_angle_beta 141.968912
_cell_angle_gamma 90.000000
_cell_volume 2212.081894
_symmetry_space_group_name_H-M "C 2/M"
_symmetry_group_IT_number 12
_symmetry_cell_setting 'monoclinic'
loop_
_space_group_symop_operation_xyz
x,y,z
-x,y,-z
-x,-y,-z
x,-y,z
1/2+x,1/2+y,z
1/2-x,1/2+y,-z
1/2-x,1/2-y,-z
1/2+x,1/2-y,z
loop_
_atom_site_type_symbol
_atom_site_label
_atom_site_fract_x
_atom_site_fract_y
_atom_site_fract_z
Si Si1 0.756943 0.226442 0.883012
Si Si2 0.500000 0.412909 0.500000
Si Si3 0.171794 0.337469 0.195993
Si Si4 0.820430 0.000000 0.529359
Si Si5 0.138701 0.694260 0.420641
Si Si6 0.500000 0.370190 0.000000
Si Si7 0.200795 0.591977 0.611241
O O1 0.804914 0.276737 0.839436
O O2 0.560632 0.206606 0.698031
O O3 0.886620 0.173708 0.982860
O O4 0.750000 0.250000 0.000000
O O5 0.350228 0.373665 0.326487
O O6 0.404077 0.451519 0.513705
O O7 0.132374 0.331047 0.293681
O O8 0.000000 0.363144 0.000000
O O9 0.740193 0.952445 0.549437
O O10 0.250000 0.750000 0.500000
O O11 0.219949 0.651899 0.570078
O O12 0.644652 0.407655 0.175729
O O13 0.000000 0.585767 0.500000
#
# Coordination Sequence:
#
# PCOD9222437 Si02
#       7
#     8   4   8   4   8   4   8
#     4  12  22  39  66 107 152 182 222 281 343 439
#     4  11  26  50  72 102 138 180 242 303 354 411
#     4  12  24  42  70 106 141 186 229 279 357 429
#     4  11  27  51  76  97 134 186 246 310 350 407
#     4  12  24  41  68 105 145 189 229 281 356 429
#     4  12  26  43  68 110 142 181 234 286 354 426
#     4  12  26  49  73 100 140 189 242 297 355 416
#
# _framework density 19.890764999999998
#
# number of rings (size 3 to 8) (size 9 to 14) (size 15 to 20)
#    0.000    0.182    6.364    3.545    2.545    0.364 
#    0.000    3.636    0.000    0.000    0.000    0.000 
#    0.000    0.000    0.000    0.000    0.000    0.000 
#
# Total GULP energy -122490.763981 kJ/mol
# GULP energy per Si atom -5567.761999 kJ/mol
# Density = 1.984549 g / cm^3
# Si number density = 19.890765 Si / 1000 Ang^3
#
#
#
# Elastic Constant Matrix: (Units=GPa)
#
#
# Indices 1 2 3 4 5 6 
#
# 1 123.5120 37.4542 31.6272 0.0000 -1.0326 0.0000
# 2 37.4542 85.4637 21.6061 0.0000 13.9496 0.0000
# 3 31.6272 21.6061 121.1489 0.0000 16.4931 0.0000
# 4 0.0000 0.0000 0.0000 -1.4250 0.0000 -12.3877
# 5 -1.0326 13.9496 16.4931 0.0000 29.4952 0.0000
# 6 0.0000 0.0000 0.0000 -12.3877 0.0000 54.0975
#
#
#
# Elastic Compliance Matrix: (Units=1/GPa)
#
#
# Indices 1 2 3 4 5 6 
#
# 1 0.010075 -0.004435 -0.002352 0.000000 0.003766 0.000000
# 2 -0.004435 0.014912 -0.000563 0.000000 -0.006893 0.000000
# 3 -0.002352 -0.000563 0.009681 0.000000 -0.005229 0.000000
# 4 0.000000 0.000000 0.000000 -0.234650 0.000000 -0.053732
# 5 0.003766 -0.006893 -0.005229 0.000000 0.040220 0.000000
# 6 0.000000 0.000000 0.000000 -0.053732 0.000000 0.006181
#
#
# Mechanical properties :
#
#
# Convention : Reuss Voigt Hill
#
# Bulk Modulus (GPa) = 50.08255 56.83328 53.45791
# Shear Modulus (GPa) = -37.81446 32.39599 -2.70923
#
# Velocity S-wave (km/s) = -4.36490 4.04009 -1.16834
# Velocity P-wave (km/s) = 0.41190 7.09914 5.01139
#
# Compressibility (1/GPa) = 0.01996704
#
# Stress axis : x y z
#
# Youngs Moduli (GPa) = 99.25468 67.05941 103.29930
#
# Poissons Ratio (x) = 0.29744 0.24294
# Poissons Ratio (y) = 0.44024 0.05817
# Poissons Ratio (z) = 0.23343 0.03777
#
# Static dielectric constant tensor:
#      x y z
#    x 1.695870 0.000000 0.023790 
#    y 0.000000 1.799620 0.000000 
#    z 0.023790 0.000000 1.698490 
# 
# From -- ./inp_files/136128.got.cif
#   From: 2010.05.17/outbox.cif.g08.bks.cpg/sg12_69_cif.got.tgz:136128.got - 2010.06.03 13:09:07.
