data_PCOD9222850
_publ_section_title
;
Structure prediction by ZEFSAII (Michael W. Deem and Ramdas Pophale) SiO2 
 PCOD9222850
Probable space group: C 2/M
;
_chemical_formula_sum "Si O2"
_cell_formula_units_Z 48
_cell_length_a 34.766293
_cell_length_b 7.400026
_cell_length_c 10.624806
_cell_angle_alpha 90.000000
_cell_angle_beta 114.648489
_cell_angle_gamma 90.000000
_cell_volume 2484.396187
_symmetry_space_group_name_H-M "C 2/M"
_symmetry_group_IT_number 12
_symmetry_cell_setting 'monoclinic'
loop_
_space_group_symop_operation_xyz
x,y,z
-x,y,-z
-x,-y,-z
x,-y,z
1/2+x,1/2+y,z
1/2-x,1/2+y,-z
1/2-x,1/2-y,-z
1/2+x,1/2-y,z
loop_
_atom_site_type_symbol
_atom_site_label
_atom_site_fract_x
_atom_site_fract_y
_atom_site_fract_z
Si Si1 0.882992 0.778501 0.356762
Si Si2 0.708455 0.704559 0.767528
Si Si3 0.796693 0.714289 0.946751
Si Si4 0.889809 0.783666 0.075401
Si Si5 0.528272 0.279757 0.419189
Si Si6 0.020601 0.778953 0.897881
O O1 0.836410 0.714589 0.335719
O O2 0.890645 0.720707 0.222223
O O3 0.923308 0.723596 0.493198
O O4 0.881558 0.000000 0.353888
O O5 0.709667 0.500000 0.719932
O O6 0.755545 0.783345 0.815213
O O7 0.703660 0.701639 0.913850
O O8 0.790505 0.500000 0.955943
O O9 0.843568 0.740806 0.957463
O O10 0.931008 0.719505 0.057710
O O11 0.892748 0.000000 0.085111
O O12 0.500000 0.223366 0.500000
O O13 0.527959 0.500000 0.419311
O O14 0.506866 0.222452 0.260306
O O15 0.020660 0.000000 0.898879
O O16 0.000000 0.719425 0.000000
#
# Coordination Sequence:
#
# PCOD9222850 Si02
#       6
#     8   8   8   8   8   8
#     4   8  12  19  33  52  73  96 123 153 187 227
#     4   8  14  23  34  52  78 103 126 158 196 230
#     4   9  15  22  34  53  77 102 129 159 193 232
#     4   9  15  24  37  53  76 104 130 157 193 232
#     4   9  13  19  33  54  76  99 127 156 192 236
#     4   9  16  24  35  55  81 103 126 162 202 233
#
# _framework density 19.320589999999999
#
# number of rings (size 3 to 8) (size 9 to 14) (size 15 to 20)
#    0.000    3.333    1.667    1.500    0.000    0.667 
#    0.000    0.000    0.000    0.500    0.000   10.500 
#    0.000    0.000    0.000    0.000    0.000    0.000 
#
# Total GULP energy -133642.468338 kJ/mol
# GULP energy per Si atom -5568.436181 kJ/mol
# Density = 1.927662 g / cm^3
# Si number density = 19.320590 Si / 1000 Ang^3
#
#
#
# Elastic Constant Matrix: (Units=GPa)
#
#
# Indices 1 2 3 4 5 6 
#
# 1 190.0137 2.6231 96.2992 0.0000 50.6987 0.0000
# 2 2.6231 68.0834 1.3581 0.0000 -0.6263 0.0000
# 3 96.2992 1.3581 93.4347 0.0000 24.0427 0.0000
# 4 0.0000 0.0000 0.0000 -1.3517 0.0000 5.5559
# 5 50.6987 -0.6263 24.0427 0.0000 39.5537 0.0000
# 6 0.0000 0.0000 0.0000 5.5559 0.0000 8.8646
#
#
#
# Elastic Compliance Matrix: (Units=1/GPa)
#
#
# Indices 1 2 3 4 5 6 
#
# 1 0.014170 -0.000413 -0.011763 0.000000 -0.011019 0.000000
# 2 -0.000413 0.014710 0.000018 0.000000 0.000751 0.000000
# 3 -0.011763 0.000018 0.022459 0.000000 0.001426 0.000000
# 4 0.000000 0.000000 0.000000 -0.206873 0.000000 0.129658
# 5 -0.011019 0.000751 0.001426 0.000000 0.038551 0.000000
# 6 0.000000 0.000000 0.000000 0.129658 0.000000 0.031545
#
#
# Mechanical properties :
#
#
# Convention : Reuss Voigt Hill
#
# Bulk Modulus (GPa) = 37.00315 61.34362 49.17339
# Shear Modulus (GPa) = -95.94381 26.16340 -34.89021
#
# Velocity S-wave (km/s) = -7.05455 3.68390 -4.25415
# Velocity P-wave (km/s) = 6.86744 7.06499 1.17311
#
# Compressibility (1/GPa) = 0.02702473
#
# Stress axis : x y z
#
# Youngs Moduli (GPa) = 70.57112 67.97952 44.52534
#
# Poissons Ratio (x) = 0.02805 0.52375
# Poissons Ratio (y) = 0.02912 -0.00082
# Poissons Ratio (z) = 0.83013 -0.00124
#
# Static dielectric constant tensor:
#      x y z
#    x 1.717090 0.000000 0.066120 
#    y 0.000000 1.775670 0.000000 
#    z 0.066120 0.000000 1.640390 
# 
# From -- ./inp_files/185945.got.cif
#   From: 2010.05.17/outbox.cif.g08.bks.cpg/sg12_93_cif.got.tgz:185945.got - 2010.06.03 13:09:07.
