data_PCOD9222315
_publ_section_title
;
Structure prediction by ZEFSAII (Michael W. Deem and Ramdas Pophale) SiO2 
 PCOD9222315
Probable space group: C 2/M
;
_chemical_formula_sum "Si O2"
_cell_formula_units_Z 48
_cell_length_a 13.803216
_cell_length_b 31.656869
_cell_length_c 14.380219
_cell_angle_alpha 90.000000
_cell_angle_beta 158.833461
_cell_angle_gamma 90.000000
_cell_volume 2268.909688
_symmetry_space_group_name_H-M "C 2/M"
_symmetry_group_IT_number 12
_symmetry_cell_setting 'monoclinic'
loop_
_space_group_symop_operation_xyz
x,y,z
-x,y,-z
-x,-y,-z
x,-y,z
1/2+x,1/2+y,z
1/2-x,1/2+y,-z
1/2-x,1/2-y,-z
1/2+x,1/2-y,z
loop_
_atom_site_type_symbol
_atom_site_label
_atom_site_fract_x
_atom_site_fract_y
_atom_site_fract_z
Si Si1 0.145228 0.049160 0.350338
Si Si2 0.500000 0.635161 0.000000
Si Si3 0.737001 0.681563 0.050527
Si Si4 0.000000 0.619995 0.000000
Si Si5 0.991561 0.235223 0.321606
Si Si6 0.423059 0.094985 0.139905
Si Si7 0.000000 0.822199 0.500000
Si Si8 0.500000 0.920235 0.500000
O O1 0.327781 0.069943 0.593762
O O2 0.327409 0.054114 0.420809
O O3 0.093108 0.000000 0.321100
O O4 0.862467 0.073638 0.089583
O O5 0.508486 0.661311 0.911321
O O6 0.773212 0.608105 0.246871
O O7 0.921828 0.642407 0.182622
O O8 0.842672 0.720654 0.207219
O O9 0.660815 0.704416 0.886134
O O10 0.744036 0.649110 0.750796
O O11 0.054158 0.595943 0.951689
O O12 0.250000 0.250000 0.500000
O O13 0.076416 0.208523 0.485269
#
# Coordination Sequence:
#
# PCOD9222315 Si02
#       8
#     8   4   8   4   8   8   4   4
#     4  12  26  47  75 108 142 179 225 289 354 433
#     4  12  26  39  75 102 136 186 228 280 345 415
#     4  11  25  45  64 100 142 182 237 283 345 409
#     4  12  26  47  75 102 134 190 242 292 341 425
#     4  11  27  42  66  99 140 190 236 299 341 402
#     4  12  25  48  74 102 140 186 234 286 356 415
#     4  12  26  45  70  99 141 192 243 287 354 401
#     4  12  23  45  70 109 138 184 222 273 352 425
#
# _framework density 21.155536999999999
#
# number of rings (size 3 to 8) (size 9 to 14) (size 15 to 20)
#    0.000    0.333    5.000    2.750    9.333    0.000 
#    0.000    5.000    0.000    0.000    0.000    0.000 
#    0.000    0.000    0.000    0.000    0.000    0.000 
#
# Total GULP energy -134167.942882 kJ/mol
# GULP energy per Si atom -5590.330953 kJ/mol
# Density = 2.110739 g / cm^3
# Si number density = 21.155537 Si / 1000 Ang^3
#
#
#
# Elastic Constant Matrix: (Units=GPa)
#
#
# Indices 1 2 3 4 5 6 
#
# 1 85.8888 17.7202 -5.2604 -0.0008 -10.0476 -0.0003
# 2 17.7202 115.4190 36.9814 -0.0005 -5.5171 -0.0001
# 3 -5.2604 36.9814 103.2547 0.0005 -0.5114 0.0012
# 4 -0.0008 -0.0005 0.0005 60.5548 0.0006 6.9124
# 5 -10.0476 -5.5171 -0.5114 0.0006 32.5141 0.0003
# 6 -0.0003 -0.0001 0.0012 6.9124 0.0003 22.2100
#
#
#
# Elastic Compliance Matrix: (Units=1/GPa)
#
#
# Indices 1 2 3 4 5 6 
#
# 1 0.012607 -0.002234 0.001460 0.000000 0.003540 0.000000
# 2 -0.002234 0.010268 -0.003786 0.000000 0.000992 0.000000
# 3 0.001460 -0.003786 0.011115 0.000000 -0.000016 -0.000001
# 4 0.000000 0.000000 0.000000 0.017122 0.000000 -0.005329
# 5 0.003540 0.000992 -0.000016 0.000000 0.032018 0.000000
# 6 0.000000 0.000000 -0.000001 -0.005329 0.000000 0.046683
#
#
# Mechanical properties :
#
#
# Convention : Reuss Voigt Hill
#
# Bulk Modulus (GPa) = 40.21028 44.82721 42.51874
# Shear Modulus (GPa) = 33.96168 40.06386 37.01277
#
# Velocity S-wave (km/s) = 4.01101 4.35648 4.18731
# Velocity P-wave (km/s) = 6.36389 6.82206 6.59696
#
# Compressibility (1/GPa) = 0.02486926
#
# Stress axis : x y z
#
# Youngs Moduli (GPa) = 79.31825 97.39260 89.96687
#
# Poissons Ratio (x) = 0.21759 -0.13135
# Poissons Ratio (y) = 0.17721 0.34065
# Poissons Ratio (z) = -0.11581 0.36876
#
# Static dielectric constant tensor:
#      x y z
#    x 1.752670 0.000000 -0.020470 
#    y 0.000000 1.994460 0.000000 
#    z -0.020470 0.000000 1.719230 
# 
# From -- ./inp_files/219655.got.cif
#   From: 2010.05.17/outbox.cif.g08.bks.cpg/sg12_110_cif.got.tgz:219655.got - 2010.06.03 13:09:07.
