data_PCOD9222352
_publ_section_title
;
Structure prediction by ZEFSAII (Michael W. Deem and Ramdas Pophale) SiO2 
 PCOD9222352
Probable space group: C 2/M
;
_chemical_formula_sum "Si O2"
_cell_formula_units_Z 42
_cell_length_a 28.527379
_cell_length_b 14.587029
_cell_length_c 6.026743
_cell_angle_alpha 90.000000
_cell_angle_beta 55.251745
_cell_angle_gamma 90.000000
_cell_volume 2060.657467
_symmetry_space_group_name_H-M "C 2/M"
_symmetry_group_IT_number 12
_symmetry_cell_setting 'monoclinic'
loop_
_space_group_symop_operation_xyz
x,y,z
-x,y,-z
-x,-y,-z
x,-y,z
1/2+x,1/2+y,z
1/2-x,1/2+y,-z
1/2-x,1/2-y,-z
1/2+x,1/2-y,z
loop_
_atom_site_type_symbol
_atom_site_label
_atom_site_fract_x
_atom_site_fract_y
_atom_site_fract_z
Si Si1 0.916525 0.145707 0.353981
Si Si2 0.709337 0.606492 0.152409
Si Si3 0.292980 0.229990 0.187389
Si Si4 0.500000 0.500000 0.000000
Si Si5 0.918769 0.301928 0.026913
Si Si6 0.000000 0.818033 0.500000
Si Si7 0.530082 0.000000 0.165358
O O1 0.850569 0.118776 0.554434
O O2 0.952524 0.128509 0.483560
O O3 0.920628 0.251310 0.262272
O O4 0.950742 0.079991 0.096442
O O5 0.715614 0.500000 0.075722
O O6 0.764370 0.645268 0.133838
O O7 0.703812 0.678308 0.967642
O O8 0.250000 0.250000 0.500000
O O9 0.355481 0.210743 0.106733
O O10 0.934492 0.406920 0.953310
O O11 0.963889 0.245763 0.760073
O O12 0.500000 0.000000 0.500000
O O13 0.500000 0.000000 0.000000
#
# Coordination Sequence:
#
# PCOD9222352 Si02
#       7
#     8   8   8   2   8   4   4
#     4  12  24  43  67 105 143 179 233 290 364 438
#     4  11  25  46  72 103 139 186 240 299 365 443
#     4  11  25  47  70 103 140 185 241 299 364 433
#     4  12  24  38  66 108 138 184 224 280 360 446
#     4  12  25  46  70 102 143 186 238 308 357 433
#     4  12  22  42  70  94 140 184 222 296 358 418
#     4  12  28  48  75 109 148 202 256 303 378 449
#
# _framework density 20.381845999999999
#
# number of rings (size 3 to 8) (size 9 to 14) (size 15 to 20)
#    0.000    0.381    7.619    1.143    1.333    1.143 
#    5.143    0.000    0.000    0.000    0.000    0.000 
#    0.000    0.000    0.000    0.000    0.000    0.000 
#
# Total GULP energy -116901.404341 kJ/mol
# GULP energy per Si atom -5566.733540 kJ/mol
# Density = 2.033546 g / cm^3
# Si number density = 20.381846 Si / 1000 Ang^3
#
#
#
# Elastic Constant Matrix: (Units=GPa)
#
#
# Indices 1 2 3 4 5 6 
#
# 1 149.5437 41.7255 34.2904 0.0000 -11.8341 0.0000
# 2 41.7255 145.1097 26.6497 0.0000 -9.6972 0.0000
# 3 34.2904 26.6497 63.5412 0.0000 -17.6926 0.0000
# 4 0.0000 0.0000 0.0000 1570.3396 0.0000 357.0865
# 5 -11.8341 -9.6972 -17.6926 0.0000 34.2044 0.0000
# 6 0.0000 0.0000 0.0000 357.0865 0.0000 99.7696
#
#
#
# Elastic Compliance Matrix: (Units=1/GPa)
#
#
# Indices 1 2 3 4 5 6 
#
# 1 0.007978 -0.001620 -0.003487 0.000000 0.000497 0.000000
# 2 -0.001620 0.007805 -0.002265 0.000000 0.000480 0.000000
# 3 -0.003487 -0.002265 0.021093 0.000000 0.009062 0.000000
# 4 0.000000 0.000000 0.000000 0.003421 0.000000 -0.012245
# 5 0.000497 0.000480 0.009062 0.000000 0.034231 0.000000
# 6 0.000000 0.000000 0.000000 -0.012245 0.000000 0.053850
#
#
# Mechanical properties :
#
#
# Convention : Reuss Voigt Hill
#
# Bulk Modulus (GPa) = 45.18718 62.61398 53.90058
# Shear Modulus (GPa) = 33.22202 357.89799 195.56000
#
# Velocity S-wave (km/s) = 4.04168 13.26566 9.80594
# Velocity P-wave (km/s) = 6.63315 16.29184 12.43830
#
# Compressibility (1/GPa) = 0.02213017
#
# Stress axis : x y z
#
# Youngs Moduli (GPa) = 125.34267 128.11597 47.40874
#
# Poissons Ratio (x) = 0.20760 0.16534
# Poissons Ratio (y) = 0.20310 0.10740
# Poissons Ratio (z) = 0.43713 0.29024
#
# Static dielectric constant tensor:
#      x y z
#    x 1.778270 0.000000 0.052050 
#    y 0.000000 1.722630 0.000000 
#    z 0.052050 0.000000 1.786830 
# 
# From -- ./inp_files/28119.got.cif
#   From: 2010.05.17/outbox.cif.g08.bks.cpg/sg12_15_cif.got.tgz:28119.got - 2010.06.03 13:09:07.
