data_PCOD9222596
_publ_section_title
;
Structure prediction by ZEFSAII (Michael W. Deem and Ramdas Pophale) SiO2 
 PCOD9222596
Probable space group: C 2/M
;
_chemical_formula_sum "Si O2"
_cell_formula_units_Z 34
_cell_length_a 8.709088
_cell_length_b 30.836823
_cell_length_c 8.504198
_cell_angle_alpha 90.000000
_cell_angle_beta 50.104619
_cell_angle_gamma 90.000000
_cell_volume 1752.240881
_symmetry_space_group_name_H-M "C 2/M"
_symmetry_group_IT_number 12
_symmetry_cell_setting 'monoclinic'
loop_
_space_group_symop_operation_xyz
x,y,z
-x,y,-z
-x,-y,-z
x,-y,z
1/2+x,1/2+y,z
1/2-x,1/2+y,-z
1/2-x,1/2-y,-z
1/2+x,1/2-y,z
loop_
_atom_site_type_symbol
_atom_site_label
_atom_site_fract_x
_atom_site_fract_y
_atom_site_fract_z
Si Si1 0.381556 0.293295 0.414984
Si Si2 0.361393 0.649539 0.947568
Si Si3 0.442774 0.131309 0.365776
Si Si4 0.000000 0.500000 0.000000
Si Si5 0.701996 0.423504 0.276276
O O1 0.500000 0.295124 0.500000
O O2 0.250000 0.250000 0.500000
O O3 0.545223 0.305158 0.174605
O O4 0.224872 0.332357 0.503000
O O5 0.354645 0.614692 0.809945
O O6 0.500000 0.633661 0.000000
O O7 0.137541 0.652697 0.159502
O O8 0.500000 0.113624 0.500000
O O9 0.351178 0.096244 0.309145
O O10 0.176525 0.462114 0.882954
O O11 0.500000 0.437006 0.500000
#
# Coordination Sequence:
#
# PCOD9222596 Si02
#       5
#     8   8   8   2   8
#     4  12  26  44  64 100 135 177 235 285 329 404
#     4  12  23  43  73  96 131 187 224 275 346 407
#     4  12  22  43  72  96 135 185 224 274 347 404
#     4  12  26  40  76 106 136 174 234 280 332 418
#     4  12  23  46  71 103 138 178 227 277 350 402
#
# _framework density 19.403727
#
# number of rings (size 3 to 8) (size 9 to 14) (size 15 to 20)
#    0.000    0.000    9.412    1.059    0.000    0.941 
#    0.000    1.176    0.000    0.000    0.000    0.000 
#    0.000    0.000    0.000    0.000    0.000    0.000 
#
# Total GULP energy -94706.590230 kJ/mol
# GULP energy per Si atom -5570.975896 kJ/mol
# Density = 1.935956 g / cm^3
# Si number density = 19.403727 Si / 1000 Ang^3
#
#
#
# Elastic Constant Matrix: (Units=GPa)
#
#
# Indices 1 2 3 4 5 6 
#
# 1 147.0341 33.4665 36.2785 0.0000 11.5058 0.0000
# 2 33.4665 81.1741 10.9913 0.0000 10.5267 0.0000
# 3 36.2785 10.9913 112.7793 0.0000 -21.1859 0.0000
# 4 0.0000 0.0000 0.0000 17.4481 0.0000 -24.8588
# 5 11.5058 10.5267 -21.1859 0.0000 47.1983 0.0000
# 6 0.0000 0.0000 0.0000 -24.8588 0.0000 15.8253
#
#
#
# Elastic Compliance Matrix: (Units=1/GPa)
#
#
# Indices 1 2 3 4 5 6 
#
# 1 0.008355 -0.002688 -0.002944 0.000000 -0.002759 0.000000
# 2 -0.002688 0.013948 -0.001044 0.000000 -0.002924 0.000000
# 3 -0.002944 -0.001044 0.011024 0.000000 0.005899 0.000000
# 4 0.000000 0.000000 0.000000 -0.046295 0.000000 -0.072721
# 5 -0.002759 -0.002924 0.005899 0.000000 0.025160 0.000000
# 6 0.000000 0.000000 0.000000 -0.072721 0.000000 -0.051042
#
#
# Mechanical properties :
#
#
# Convention : Reuss Voigt Hill
#
# Bulk Modulus (GPa) = 50.06320 55.82891 52.94606
# Shear Modulus (GPa) = -265.39862 33.44443 -115.97710
#
# Velocity S-wave (km/s) = -11.70786 4.15614 -7.73953
# Velocity P-wave (km/s) = 12.52632 7.20181 7.24716
#
# Compressibility (1/GPa) = 0.01997475
#
# Stress axis : x y z
#
# Youngs Moduli (GPa) = 119.68473 71.69440 90.71383
#
# Poissons Ratio (x) = 0.19274 0.26705
# Poissons Ratio (y) = 0.32176 0.09469
# Poissons Ratio (z) = 0.35234 0.07484
#
# Static dielectric constant tensor:
#      x y z
#    x 1.645770 0.000000 -0.011400 
#    y 0.000000 1.613720 0.000000 
#    z -0.011400 0.000000 1.735750 
# 
# From -- ./inp_files/41293.got.cif
#   From: 2010.05.17/outbox.cif.g08.bks.cpg/sg12_21_cif.got.tgz:41293.got - 2010.06.03 13:09:07.
