data_PCOD9222463
_publ_section_title
;
Structure prediction by ZEFSAII (Michael W. Deem and Ramdas Pophale) SiO2 
 PCOD9222463
Probable space group: C 2/M
;
_chemical_formula_sum "Si O2"
_cell_formula_units_Z 40
_cell_length_a 8.980242
_cell_length_b 26.363800
_cell_length_c 15.515310
_cell_angle_alpha 90.000000
_cell_angle_beta 30.991516
_cell_angle_gamma 90.000000
_cell_volume 1891.423576
_symmetry_space_group_name_H-M "C 2/M"
_symmetry_group_IT_number 12
_symmetry_cell_setting 'monoclinic'
loop_
_space_group_symop_operation_xyz
x,y,z
-x,y,-z
-x,-y,-z
x,-y,z
1/2+x,1/2+y,z
1/2-x,1/2+y,-z
1/2-x,1/2-y,-z
1/2+x,1/2-y,z
loop_
_atom_site_type_symbol
_atom_site_label
_atom_site_fract_x
_atom_site_fract_y
_atom_site_fract_z
Si Si1 0.922309 0.710075 0.358588
Si Si2 0.068538 0.273389 0.842281
Si Si3 0.836280 0.610399 0.166239
Si Si4 0.337098 0.059167 0.836799
Si Si5 0.845933 0.399211 0.483162
O O1 0.750000 0.750000 0.500000
O O2 0.834703 0.715772 0.303607
O O3 0.884654 0.655879 0.420191
O O4 0.247461 0.729513 0.204987
O O5 0.130440 0.328307 0.852843
O O6 0.750000 0.250000 0.000000
O O7 0.499763 0.594203 0.335045
O O8 0.993775 0.590857 0.174476
O O9 0.000000 0.590382 0.000000
O O10 0.496548 0.065369 0.665510
O O11 0.339823 0.000000 0.860050
O O12 0.000000 0.075783 0.000000
O O13 0.000000 0.401712 0.500000
#
# Coordination Sequence:
#
# PCOD9222463 Si02
#       5
#     8   8   8   8   8
#     4  12  24  41  64  97 144 185 237 287 348 419
#     4  12  26  41  62 101 140 191 237 289 350 424
#     4  12  26  46  71 106 147 188 241 295 355 426
#     4  11  27  51  79 108 140 183 238 302 368 428
#     4  12  26  45  73 106 144 191 238 297 355 424
#
# _framework density 21.148091000000001
#
# number of rings (size 3 to 8) (size 9 to 14) (size 15 to 20)
#    0.000    0.200    4.000    5.400    5.600    2.400 
#    0.000    0.000    0.000    0.000    0.000    0.000 
#    0.000    0.000    0.000    0.000    0.000    0.000 
#
# Total GULP energy -111847.109519 kJ/mol
# GULP energy per Si atom -5592.355476 kJ/mol
# Density = 2.109996 g / cm^3
# Si number density = 21.148091 Si / 1000 Ang^3
#
#
#
# Elastic Constant Matrix: (Units=GPa)
#
#
# Indices 1 2 3 4 5 6 
#
# 1 138.0066 0.1263 77.3883 0.0000 10.1868 0.0000
# 2 0.1263 36.2830 18.3865 0.0000 -9.5717 0.0000
# 3 77.3883 18.3865 168.4589 0.0000 -6.9396 0.0000
# 4 0.0000 0.0000 0.0000 26.6624 0.0000 -4.3565
# 5 10.1868 -9.5717 -6.9396 0.0000 57.9405 0.0000
# 6 0.0000 0.0000 0.0000 -4.3565 0.0000 8.7198
#
#
#
# Elastic Compliance Matrix: (Units=1/GPa)
#
#
# Indices 1 2 3 4 5 6 
#
# 1 0.010188 0.001942 -0.004977 0.000000 -0.002067 0.000000
# 2 0.001942 0.030739 -0.004072 0.000000 0.004249 0.000000
# 3 -0.004977 -0.004072 0.008718 0.000000 0.001247 0.000000
# 4 0.000000 0.000000 0.000000 0.040840 0.000000 0.020404
# 5 -0.002067 0.004249 0.001247 0.000000 0.018474 0.000000
# 6 0.000000 0.000000 0.000000 0.020404 0.000000 0.124876
#
#
# Mechanical properties :
#
#
# Convention : Reuss Voigt Hill
#
# Bulk Modulus (GPa) = 28.22477 59.39454 43.80965
# Shear Modulus (GPa) = 19.24113 35.12101 27.18107
#
# Velocity S-wave (km/s) = 3.01961 4.07961 3.58896
# Velocity P-wave (km/s) = 5.05298 7.09486 6.15912
#
# Compressibility (1/GPa) = 0.03542987
#
# Stress axis : x y z
#
# Youngs Moduli (GPa) = 98.15655 32.53228 114.69950
#
# Poissons Ratio (x) = -0.06316 0.57088
# Poissons Ratio (y) = -0.19058 0.46704
# Poissons Ratio (z) = 0.48855 0.13247
#
# Static dielectric constant tensor:
#      x y z
#    x 1.732310 0.000000 0.036160 
#    y 0.000000 2.076100 0.000000 
#    z 0.036160 0.000000 1.806820 
# 
# From -- ./inp_files/41405.got.cif
#   From: 2010.05.17/outbox.cif.g08.bks.cpg/sg12_21_cif.got.tgz:41405.got - 2010.06.03 13:09:07.
