data_PCOD9222129
_publ_section_title
;
Structure prediction by ZEFSAII (Michael W. Deem and Ramdas Pophale) SiO2 
 PCOD9222129
Probable space group: C 2/M
;
_chemical_formula_sum "Si O2"
_cell_formula_units_Z 44
_cell_length_a 11.524515
_cell_length_b 25.338974
_cell_length_c 14.876097
_cell_angle_alpha 90.000000
_cell_angle_beta 153.775581
_cell_angle_gamma 90.000000
_cell_volume 1919.610453
_symmetry_space_group_name_H-M "C 2/M"
_symmetry_group_IT_number 12
_symmetry_cell_setting 'monoclinic'
loop_
_space_group_symop_operation_xyz
x,y,z
-x,y,-z
-x,-y,-z
x,-y,z
1/2+x,1/2+y,z
1/2-x,1/2+y,-z
1/2-x,1/2-y,-z
1/2+x,1/2-y,z
loop_
_atom_site_type_symbol
_atom_site_label
_atom_site_fract_x
_atom_site_fract_y
_atom_site_fract_z
Si Si1 0.016786 0.208882 0.364127
Si Si2 0.326952 0.000000 0.735464
Si Si3 0.149044 0.611524 0.343224
Si Si4 0.377653 0.337827 0.076413
Si Si5 0.792935 0.584124 0.421885
Si Si6 0.612702 0.500000 0.789732
Si Si7 0.000000 0.763104 0.000000
O O1 0.250000 0.250000 0.500000
O O2 0.135979 0.158577 0.500306
O O3 0.905916 0.189432 0.191711
O O4 0.749455 0.233312 0.219255
O O5 0.272090 0.054616 0.643636
O O6 0.802595 0.000000 0.255412
O O7 0.633984 0.000000 0.971560
O O8 0.068410 0.605381 0.392129
O O9 0.891987 0.630051 0.112014
O O10 0.641038 0.372932 0.256674
O O11 0.375612 0.298468 0.991862
O O12 0.564416 0.549217 0.305894
O O13 0.000000 0.557691 0.500000
#
# Coordination Sequence:
#
# PCOD9222129 Si02
#       7
#     8   4   8   8   8   4   4
#     4  11  26  47  71 111 149 197 254 312 380 458
#     4  11  25  50  79 104 152 201 258 319 377 458
#     4  11  24  49  76 109 150 202 252 315 387 451
#     4  11  24  46  69 108 148 189 254 309 376 466
#     4  11  24  43  72 109 148 193 248 309 386 459
#     4  11  24  48  72 106 148 199 256 321 375 448
#     4  12  24  46  76 102 156 200 242 322 378 448
#
# _framework density 22.921316999999998
#
# number of rings (size 3 to 8) (size 9 to 14) (size 15 to 20)
#    0.000    0.909    3.636    2.455    2.545    1.455 
#    9.818    0.909    0.000    0.545    0.000    0.000 
#    0.000    0.000    0.000    0.000    0.000    0.000 
#
# Total GULP energy -122944.345956 kJ/mol
# GULP energy per Si atom -5588.379362 kJ/mol
# Density = 2.286915 g / cm^3
# Si number density = 22.921317 Si / 1000 Ang^3
#
#
#
# Elastic Constant Matrix: (Units=GPa)
#
#
# Indices 1 2 3 4 5 6 
#
# 1 88.5576 31.7050 19.8156 0.0116 1.3512 0.0086
# 2 31.7050 131.7012 50.7036 0.0021 -4.2670 0.0019
# 3 19.8156 50.7036 128.2005 0.0184 -14.4496 0.0155
# 4 0.0116 0.0021 0.0184 65.9831 0.0081 9.6772
# 5 1.3512 -4.2670 -14.4496 0.0081 33.6253 0.0056
# 6 0.0086 0.0019 0.0155 9.6772 0.0056 37.9131
#
#
#
# Elastic Compliance Matrix: (Units=1/GPa)
#
#
# Indices 1 2 3 4 5 6 
#
# 1 0.012491 -0.002654 -0.001025 -0.000001 -0.001279 -0.000002
# 2 -0.002654 0.009526 -0.003372 0.000001 -0.000134 0.000001
# 3 -0.001025 -0.003372 0.009720 -0.000002 0.003790 -0.000004
# 4 -0.000001 0.000001 -0.000002 0.015745 -0.000004 -0.004019
# 5 -0.001279 -0.000134 0.003790 -0.000004 0.031403 -0.000005
# 6 -0.000002 0.000001 -0.000004 -0.004019 -0.000005 0.027402
#
#
# Mechanical properties :
#
#
# Convention : Reuss Voigt Hill
#
# Bulk Modulus (GPa) = 56.70954 61.43420 59.07187
# Shear Modulus (GPa) = 39.59868 43.91997 41.75933
#
# Velocity S-wave (km/s) = 4.16094 4.38210 4.27295
# Velocity P-wave (km/s) = 6.91948 7.24321 7.08320
#
# Compressibility (1/GPa) = 0.01763372
#
# Stress axis : x y z
#
# Youngs Moduli (GPa) = 80.05689 104.97820 102.88351
#
# Poissons Ratio (x) = 0.27859 0.10549
# Poissons Ratio (y) = 0.21245 0.34696
# Poissons Ratio (z) = 0.08209 0.35402
#
# Static dielectric constant tensor:
#      x y z
#    x 1.863250 0.000000 0.077580 
#    y 0.000000 1.978730 -0.000010 
#    z 0.077580 -0.000010 1.911170 
# 
# From -- ./inp_files/17826.got.cif
#   From: 2010.05.17/outbox.cif.g08.bks.cpg/sg12_9_cif.got.tgz:17826.got - 2010.06.03 13:09:07.
