data_PCOD9222812
_publ_section_title
;
Structure prediction by ZEFSAII (Michael W. Deem and Ramdas Pophale) SiO2 
 PCOD9222812
Probable space group: C 2/M
;
_chemical_formula_sum "Si O2"
_cell_formula_units_Z 40
_cell_length_a 27.178432
_cell_length_b 7.178477
_cell_length_c 12.197132
_cell_angle_alpha 90.000000
_cell_angle_beta 35.226652
_cell_angle_gamma 90.000000
_cell_volume 1372.615799
_symmetry_space_group_name_H-M "C 2/M"
_symmetry_group_IT_number 12
_symmetry_cell_setting 'monoclinic'
loop_
_space_group_symop_operation_xyz
x,y,z
-x,y,-z
-x,-y,-z
x,-y,z
1/2+x,1/2+y,z
1/2-x,1/2+y,-z
1/2-x,1/2-y,-z
1/2+x,1/2-y,z
loop_
_atom_site_type_symbol
_atom_site_label
_atom_site_fract_x
_atom_site_fract_y
_atom_site_fract_z
Si Si1 0.592794 0.723653 0.386615
Si Si2 0.248034 0.226398 0.672555
Si Si3 0.106500 0.788019 0.768405
Si Si4 0.325574 0.725014 0.976063
Si Si5 0.493206 0.273401 0.244735
O O1 0.500000 0.759498 0.500000
O O2 0.600458 0.500000 0.376821
O O3 0.662261 0.792592 0.171267
O O4 0.576955 0.792787 0.538563
O O5 0.161457 0.290570 0.768036
O O6 0.323392 0.293942 0.458093
O O7 0.249000 0.000000 0.668082
O O8 0.243571 0.286365 0.807771
O O9 0.027346 0.710882 0.841442
O O10 0.088382 0.000000 0.834039
O O11 0.322937 0.500000 0.976945
O O12 0.415268 0.774140 0.872366
O O13 0.490183 0.500000 0.248285
#
# Coordination Sequence:
#
# PCOD9222812 Si02
#       5
#     8   8   8   8   8
#     4   7  10  18  33  54  79 101 120 151 196 234
#     4   9  17  28  41  57  79 106 131 157 192 231
#     4   9  17  28  41  57  79 106 131 157 192 231
#     4   8  13  22  38  59  79  99 127 162 195 226
#     4   8  13  22  38  59  79  99 127 162 195 226
#
# _framework density 29.141437
#
# number of rings (size 3 to 8) (size 9 to 14) (size 15 to 20)
#    0.000    3.800    0.000    2.400    0.000    0.800 
#    0.000    5.000    0.000    1.200    0.000    5.600 
#    0.000    4.800    0.000    0.000    0.000    0.000 
#
# Total GULP energy -111894.990640 kJ/mol
# GULP energy per Si atom -5594.749532 kJ/mol
# Density = 2.907511 g / cm^3
# Si number density = 29.141437 Si / 1000 Ang^3
#
#
#
# Elastic Constant Matrix: (Units=GPa)
#
#
# Indices 1 2 3 4 5 6 
#
# 1 157.0447 3.3348 11.6395 0.0000 43.4784 0.0000
# 2 3.3348 161.8950 2.7334 -0.0001 0.9535 -0.0001
# 3 11.6395 2.7334 170.3327 -0.0001 38.6036 0.0000
# 4 0.0000 -0.0001 -0.0001 7.0884 0.0000 3.9483
# 5 43.4784 0.9535 38.6036 0.0000 81.3211 0.0000
# 6 0.0000 -0.0001 0.0000 3.9483 0.0000 -16.7402
#
#
#
# Elastic Compliance Matrix: (Units=1/GPa)
#
#
# Indices 1 2 3 4 5 6 
#
# 1 0.007507 -0.000137 0.000447 0.000000 -0.004224 0.000000
# 2 -0.000137 0.006181 -0.000101 0.000000 0.000049 0.000000
# 3 0.000447 -0.000101 0.006607 0.000000 -0.003374 0.000000
# 4 0.000000 0.000000 0.000000 0.124694 0.000000 0.029410
# 5 -0.004224 0.000049 -0.003374 0.000000 0.016156 0.000000
# 6 0.000000 0.000000 0.000000 0.029410 0.000000 -0.052800
#
#
# Mechanical properties :
#
#
# Convention : Reuss Voigt Hill
#
# Bulk Modulus (GPa) = 48.28303 58.29864 53.29084
# Shear Modulus (GPa) = 43.54196 45.77152 44.65674
#
# Velocity S-wave (km/s) = 3.86963 3.96746 3.91885
# Velocity P-wave (km/s) = 6.04730 6.40598 6.22922
#
# Compressibility (1/GPa) = 0.02071121
#
# Stress axis : x y z
#
# Youngs Moduli (GPa) = 133.21198 161.78380 151.36433
#
# Poissons Ratio (x) = 0.02221 -0.06759
# Poissons Ratio (y) = 0.01829 0.01527
# Poissons Ratio (z) = -0.05948 0.01632
#
# Static dielectric constant tensor:
#      x y z
#    x 2.278460 0.000000 -0.082200 
#    y 0.000000 1.761550 0.000000 
#    z -0.082200 0.000000 2.335650 
# 
# From -- ./inp_files/120235.got.cif
#   From: 2010.05.17/outbox.cif.g08.bks.cpg/sg12_61_cif.got.tgz:120235.got - 2010.06.03 13:09:07.
