data_PCOD9222876
_publ_section_title
;
Structure prediction by ZEFSAII (Michael W. Deem and Ramdas Pophale) SiO2 
 PCOD9222876
Probable space group: C 2/M
;
_chemical_formula_sum "Si O2"
_cell_formula_units_Z 64
_cell_length_a 14.270408
_cell_length_b 11.731406
_cell_length_c 15.880436
_cell_angle_alpha 90.000000
_cell_angle_beta 115.026459
_cell_angle_gamma 90.000000
_cell_volume 2408.967892
_symmetry_space_group_name_H-M "C 2/M"
_symmetry_group_IT_number 12
_symmetry_cell_setting 'monoclinic'
loop_
_space_group_symop_operation_xyz
x,y,z
-x,y,-z
-x,-y,-z
x,-y,z
1/2+x,1/2+y,z
1/2-x,1/2+y,-z
1/2-x,1/2-y,-z
1/2+x,1/2-y,z
loop_
_atom_site_type_symbol
_atom_site_label
_atom_site_fract_x
_atom_site_fract_y
_atom_site_fract_z
Si Si1 0.993740 0.373903 0.136952
Si Si2 0.675159 0.875053 0.076195
Si Si3 0.555887 0.373931 0.611387
Si Si4 0.803764 0.147793 0.615201
Si Si5 0.389973 0.874173 0.339751
Si Si6 0.466227 0.621594 0.820678
Si Si7 0.222609 0.873756 0.126042
Si Si8 0.260001 0.112892 0.594139
O O1 0.983712 0.500000 0.176094
O O2 0.107010 0.372529 0.136287
O O3 0.981788 0.245804 0.169766
O O4 0.908373 0.376856 0.030685
O O5 0.731601 0.752757 0.089881
O O6 0.728990 0.000000 0.097040
O O7 0.500000 0.374417 0.500000
O O8 0.531518 0.500000 0.641496
O O9 0.545803 0.243834 0.640212
O O10 0.678013 0.379726 0.637499
O O11 0.688496 0.132181 0.609005
O O12 0.886678 0.108795 0.713171
O O13 0.801417 0.111609 0.517770
O O14 0.828242 0.279528 0.619887
O O15 0.310082 0.874632 0.231439
O O16 0.440605 0.000000 0.364068
O O17 0.525300 0.500000 0.849042
O O18 0.391200 0.626640 0.874057
O O19 0.231029 0.000000 0.086165
O O20 0.323474 0.000000 0.625865
#
# Coordination Sequence:
#
# PCOD9222876 Si02
#       8
#     8   8   8   8   8   8   8   8
#     4   8  14  22  30  42  62  90 122 151 174 201
#     4   8  13  21  31  43  62  89 121 151 175 202
#     4   9  18  30  41  55  75  98 126 157 186 220
#     4   9  16  25  38  56  76  96 122 157 191 224
#     4   9  16  26  40  57  76  97 123 155 189 224
#     4   9  15  22  32  46  66  91 117 146 180 214
#     4   8  14  22  32  48  68  89 114 147 182 212
#     4   9  16  26  40  55  72  97 125 154 191 226
#
# _framework density 26.567395000000001
#
# number of rings (size 3 to 8) (size 9 to 14) (size 15 to 20)
#    0.000    3.375    0.000    2.625    0.000    1.750 
#    0.000    7.500    0.000    0.000    0.000    0.000 
#    0.000    0.000    0.000    1.125    0.000   11.500 
#
# Total GULP energy -178298.745570 kJ/mol
# GULP energy per Si atom -5571.835799 kJ/mol
# Density = 2.650693 g / cm^3
# Si number density = 26.567395 Si / 1000 Ang^3
#
#
#
# Elastic Constant Matrix: (Units=GPa)
#
#
# Indices 1 2 3 4 5 6 
#
# 1 101.4739 24.1787 10.2534 0.0000 -13.1747 0.0000
# 2 24.1787 384.7595 27.3242 0.0000 4.7995 0.0000
# 3 10.2534 27.3242 31.9559 0.0000 -3.7385 0.0000
# 4 0.0000 0.0000 0.0000 33.8025 0.0000 9.8038
# 5 -13.1747 4.7995 -3.7385 0.0000 24.9243 0.0000
# 6 0.0000 0.0000 0.0000 9.8038 0.0000 -46.4750
#
#
#
# Elastic Compliance Matrix: (Units=1/GPa)
#
#
# Indices 1 2 3 4 5 6 
#
# 1 0.010954 -0.000590 -0.002361 0.000000 0.005550 0.000000
# 2 -0.000590 0.002819 -0.002363 0.000000 -0.001209 0.000000
# 3 -0.002361 -0.002363 0.034585 0.000000 0.004394 0.000000
# 4 0.000000 0.000000 0.000000 0.027878 0.000000 0.005881
# 5 0.005550 -0.001209 0.004394 0.000000 0.043947 0.000000
# 6 0.000000 0.000000 0.000000 0.005881 0.000000 -0.020276
#
#
# Mechanical properties :
#
#
# Convention : Reuss Voigt Hill
#
# Bulk Modulus (GPa) = 26.50333 71.30022 48.90177
# Shear Modulus (GPa) = 40.61363 32.87922 36.74642
#
# Velocity S-wave (km/s) = 3.91410 3.52174 3.72309
# Velocity P-wave (km/s) = 5.51584 6.59034 6.07689
#
# Compressibility (1/GPa) = 0.03773110
#
# Stress axis : x y z
#
# Youngs Moduli (GPa) = 91.28707 354.74091 28.91428
#
# Poissons Ratio (x) = 0.20927 0.06827
# Poissons Ratio (y) = 0.05385 0.06831
# Poissons Ratio (z) = 0.21554 0.83809
#
# Static dielectric constant tensor:
#      x y z
#    x 2.064860 0.000000 -0.039960 
#    y 0.000000 2.217780 0.000000 
#    z -0.039960 0.000000 2.053490 
# 
# From -- ./inp_files/282922.got.cif
#   From: 2010.05.17/outbox.cif.g08.bks.cpg/sg12_142_cif.got.tgz:282922.got - 2010.06.03 13:09:07.
