data_PCOD9222101
_publ_section_title
;
Structure prediction by ZEFSAII (Michael W. Deem and Ramdas Pophale) SiO2 
 PCOD9222101
Probable space group: C 2/M
;
_chemical_formula_sum "Si O2"
_cell_formula_units_Z 60
_cell_length_a 18.448799
_cell_length_b 25.581025
_cell_length_c 7.031483
_cell_angle_alpha 90.000000
_cell_angle_beta 112.532936
_cell_angle_gamma 90.000000
_cell_volume 3065.101253
_symmetry_space_group_name_H-M "C 2/M"
_symmetry_group_IT_number 12
_symmetry_cell_setting 'monoclinic'
loop_
_space_group_symop_operation_xyz
x,y,z
-x,y,-z
-x,-y,-z
x,-y,z
1/2+x,1/2+y,z
1/2-x,1/2+y,-z
1/2-x,1/2-y,-z
1/2+x,1/2-y,z
loop_
_atom_site_type_symbol
_atom_site_label
_atom_site_fract_x
_atom_site_fract_y
_atom_site_fract_z
Si Si1 0.055827 0.323355 0.375689
Si Si2 0.781731 0.062382 0.397608
Si Si3 0.349559 0.058824 0.058281
Si Si4 0.684828 0.708131 0.992950
Si Si5 0.209462 0.370304 0.669874
Si Si6 0.069381 0.216690 0.190933
Si Si7 0.000000 0.597314 0.000000
Si Si8 0.094064 0.147474 0.566200
O O1 0.147423 0.329342 0.519524
O O2 0.038370 0.266336 0.274689
O O3 0.000000 0.331896 0.500000
O O4 0.038084 0.365950 0.197972
O O5 0.747025 0.092100 0.548070
O O6 0.859928 0.092785 0.407931
O O7 0.792608 0.000000 0.440922
O O8 0.717998 0.068971 0.165335
O O9 0.340038 0.096747 0.226485
O O10 0.431943 0.065256 0.034358
O O11 0.340407 0.000000 0.119559
O O12 0.634128 0.683284 0.770252
O O13 0.750000 0.750000 0.000000
O O14 0.725612 0.660497 0.145350
O O15 0.629990 0.735575 0.093570
O O16 0.105477 0.177642 0.378900
O O17 0.000000 0.190457 0.000000
O O18 0.000000 0.142511 0.500000
#
# Coordination Sequence:
#
# PCOD9222101 Si02
#       8
#     8   8   8   8   8   8   4   8
#     4  12  26  40  64  99 138 182 221 268 327 399
#     4  11  25  45  70  99 132 176 228 285 348 405
#     4  11  24  43  67  97 136 182 227 279 339 397
#     4  12  28  42  68 103 136 175 224 273 338 412
#     4  12  24  44  68  97 136 175 227 278 336 405
#     4  12  26  43  67  97 136 177 214 269 330 404
#     4  12  23  42  64  98 142 174 229 278 320 398
#     4  12  25  47  72  99 135 173 225 283 344 402
#
# _framework density 19.575210999999999
#
# number of rings (size 3 to 8) (size 9 to 14) (size 15 to 20)
#    0.000    0.267    7.333    1.800    5.600    1.333 
#    0.000    0.667    0.000    1.200    0.000    0.000 
#    0.000    0.000    0.000    0.000    0.000    0.000 
#
# Total GULP energy -167713.367574 kJ/mol
# GULP energy per Si atom -5590.445586 kJ/mol
# Density = 1.953066 g / cm^3
# Si number density = 19.575211 Si / 1000 Ang^3
#
#
#
# Elastic Constant Matrix: (Units=GPa)
#
#
# Indices 1 2 3 4 5 6 
#
# 1 103.6319 12.4167 24.2124 0.0000 -2.4248 0.0000
# 2 12.4167 63.8784 21.9087 0.0000 4.2330 0.0000
# 3 24.2124 21.9087 97.0354 0.0000 10.2119 0.0000
# 4 0.0000 0.0000 0.0000 21.1311 0.0000 6.7652
# 5 -2.4248 4.2330 10.2119 0.0000 40.8926 0.0000
# 6 0.0000 0.0000 0.0000 6.7652 0.0000 13.0906
#
#
#
# Elastic Compliance Matrix: (Units=1/GPa)
#
#
# Indices 1 2 3 4 5 6 
#
# 1 0.010407 -0.001272 -0.002453 0.000000 0.001361 0.000000
# 2 -0.001272 0.017151 -0.003451 0.000000 -0.000989 0.000000
# 3 -0.002453 -0.003451 0.011990 0.000000 -0.002782 0.000000
# 4 0.000000 0.000000 0.000000 0.056706 0.000000 -0.029305
# 5 0.001361 -0.000989 -0.002782 0.000000 0.025332 0.000000
# 6 0.000000 0.000000 0.000000 -0.029305 0.000000 0.091535
#
#
# Mechanical properties :
#
#
# Convention : Reuss Voigt Hill
#
# Bulk Modulus (GPa) = 39.68850 42.40238 41.04544
# Shear Modulus (GPa) = 21.19807 28.75672 24.97739
#
# Velocity S-wave (km/s) = 3.29432 3.83696 3.57595
# Velocity P-wave (km/s) = 5.89822 6.42946 6.16956
#
# Compressibility (1/GPa) = 0.02519621
#
# Stress axis : x y z
#
# Youngs Moduli (GPa) = 96.09048 58.30528 83.40622
#
# Poissons Ratio (x) = 0.07415 0.20458
# Poissons Ratio (y) = 0.12221 0.28783
# Poissons Ratio (z) = 0.23569 0.20121
#
# Static dielectric constant tensor:
#      x y z
#    x 1.706190 0.000000 0.008940 
#    y 0.000000 1.650630 0.000000 
#    z 0.008940 0.000000 1.666770 
# 
# From -- ./inp_files/18345.got.cif
#   From: 2010.05.17/outbox.cif.g08.bks.cpg/sg12_10_cif.got.tgz:18345.got - 2010.06.03 13:09:07.
