data_PCOD9222756
_publ_section_title
;
Structure prediction by ZEFSAII (Michael W. Deem and Ramdas Pophale) SiO2 
 PCOD9222756
Probable space group: C 2/M
;
_chemical_formula_sum "Si O2"
_cell_formula_units_Z 24
_cell_length_a 19.216505
_cell_length_b 14.308654
_cell_length_c 8.977268
_cell_angle_alpha 90.000000
_cell_angle_beta 24.978616
_cell_angle_gamma 90.000000
_cell_volume 1042.360312
_symmetry_space_group_name_H-M "C 2/M"
_symmetry_group_IT_number 12
_symmetry_cell_setting 'monoclinic'
loop_
_space_group_symop_operation_xyz
x,y,z
-x,y,-z
-x,-y,-z
x,-y,z
1/2+x,1/2+y,z
1/2-x,1/2+y,-z
1/2-x,1/2-y,-z
1/2+x,1/2-y,z
loop_
_atom_site_type_symbol
_atom_site_label
_atom_site_fract_x
_atom_site_fract_y
_atom_site_fract_z
Si Si1 0.596747 0.675825 0.665063
Si Si2 0.219228 0.189482 0.904031
Si Si3 0.824583 0.500000 0.254577
Si Si4 0.928222 0.500000 0.480623
O O1 0.722122 0.745782 0.344996
O O2 0.704998 0.587666 0.507086
O O3 0.500000 0.708879 0.000000
O O4 0.467024 0.661148 0.779914
O O5 0.323091 0.094827 0.678517
O O6 0.250000 0.250000 0.000000
O O7 0.000000 0.500000 0.000000
O O8 0.904633 0.500000 0.938166
O O9 0.000000 0.500000 0.500000
#
# Coordination Sequence:
#
# PCOD9222756 Si02
#       4
#     8   8   4   4
#     4  12  25  45  71 105 144 189 241 299 359 428
#     4  12  26  46  73 107 144 190 241 296 362 431
#     4  12  26  47  73 105 144 189 240 300 360 423
#     4  12  25  45  69 101 142 187 238 296 354 425
#
# _framework density 23.024667000000001
#
# number of rings (size 3 to 8) (size 9 to 14) (size 15 to 20)
#    0.000    0.000    0.000   11.500    0.000    2.667 
#    0.000    5.000    0.000    0.000    0.000    0.000 
#    0.000    0.000    0.000    0.000    0.000    0.000 
#
# Total GULP energy -66955.860907 kJ/mol
# GULP energy per Si atom -5579.655076 kJ/mol
# Density = 2.297226 g / cm^3
# Si number density = 23.024667 Si / 1000 Ang^3
#
#
#
# Elastic Constant Matrix: (Units=GPa)
#
#
# Indices 1 2 3 4 5 6 
#
# 1 120.7302 8.1465 31.4411 -0.0001 0.7927 0.0003
# 2 8.1465 124.5897 13.9715 0.0000 -1.2802 0.0003
# 3 31.4411 13.9715 95.1305 -0.0001 3.9719 -0.0001
# 4 -0.0001 0.0000 -0.0001 40.1819 0.0001 -47.9373
# 5 0.7927 -1.2802 3.9719 0.0001 68.3065 -0.0002
# 6 0.0003 0.0003 -0.0001 -47.9373 -0.0002 -159.6389
#
#
#
# Elastic Compliance Matrix: (Units=1/GPa)
#
#
# Indices 1 2 3 4 5 6 
#
# 1 0.009072 -0.000260 -0.002963 0.000000 0.000062 0.000000
# 2 -0.000260 0.008172 -0.001123 0.000000 0.000221 0.000000
# 3 -0.002963 -0.001123 0.011684 0.000000 -0.000666 0.000000
# 4 0.000000 0.000000 0.000000 0.018323 0.000000 -0.005502
# 5 0.000062 0.000221 -0.000666 0.000000 0.014682 0.000000
# 6 0.000000 0.000000 0.000000 -0.005502 0.000000 -0.004612
#
#
# Mechanical properties :
#
#
# Convention : Reuss Voigt Hill
#
# Bulk Modulus (GPa) = 49.42035 49.72985 49.57510
# Shear Modulus (GPa) = 68.72164 8.89599 38.80881
#
# Velocity S-wave (km/s) = 5.46916 1.96776 4.10998
# Velocity P-wave (km/s) = 7.83537 5.17766 6.64083
#
# Compressibility (1/GPa) = 0.02023458
#
# Stress axis : x y z
#
# Youngs Moduli (GPa) = 110.23398 122.37488 85.58845
#
# Poissons Ratio (x) = 0.03185 0.25356
# Poissons Ratio (y) = 0.02869 0.09615
# Poissons Ratio (z) = 0.32658 0.13747
#
# Static dielectric constant tensor:
#      x y z
#    x 1.961520 0.000000 -0.087400 
#    y 0.000000 1.921970 0.000000 
#    z -0.087400 0.000000 1.862170 
# 
# From -- ./inp_files/72704.got.cif
#   From: 2010.05.17/outbox.cif.g08.bks.cpg/sg12_37_cif.got.tgz:72704.got - 2010.06.03 13:09:07.
