data_PCOD9222727
_publ_section_title
;
Structure prediction by ZEFSAII (Michael W. Deem and Ramdas Pophale) SiO2 
 PCOD9222727
Probable space group: C 2/M
;
_chemical_formula_sum "Si O2"
_cell_formula_units_Z 38
_cell_length_a 13.496196
_cell_length_b 15.521955
_cell_length_c 8.126207
_cell_angle_alpha 90.000000
_cell_angle_beta 107.518837
_cell_angle_gamma 90.000000
_cell_volume 1623.379788
_symmetry_space_group_name_H-M "C 2/M"
_symmetry_group_IT_number 12
_symmetry_cell_setting 'monoclinic'
loop_
_space_group_symop_operation_xyz
x,y,z
-x,y,-z
-x,-y,-z
x,-y,z
1/2+x,1/2+y,z
1/2-x,1/2+y,-z
1/2-x,1/2-y,-z
1/2+x,1/2-y,z
loop_
_atom_site_type_symbol
_atom_site_label
_atom_site_fract_x
_atom_site_fract_y
_atom_site_fract_z
Si Si1 0.509610 0.836208 0.705112
Si Si2 0.774056 0.662635 0.608180
Si Si3 0.657335 0.310554 0.882670
Si Si4 0.347190 0.000000 0.142252
Si Si5 0.844075 0.000000 0.120289
Si Si6 0.198759 0.000000 0.374650
Si Si7 0.500000 0.500000 0.500000
O O1 0.500000 0.831518 0.500000
O O2 0.394049 0.844190 0.715782
O O3 0.559134 0.750041 0.804250
O O4 0.582380 0.916426 0.790754
O O5 0.750000 0.750000 0.500000
O O6 0.700193 0.664435 0.726073
O O7 0.747886 0.584813 0.477356
O O8 0.631061 0.404473 0.944693
O O9 0.750000 0.250000 0.000000
O O10 0.249555 0.000000 0.218937
O O11 0.283522 0.000000 0.939536
O O12 0.900017 0.000000 0.325924
O O13 0.078791 0.000000 0.371817
#
# Coordination Sequence:
#
# PCOD9222727 Si02
#       7
#     8   8   8   4   4   4   2
#     4  12  24  44  78 107 142 193 248 302 371 432
#     4  12  25  43  74 109 141 193 250 297 364 438
#     4  12  26  49  69 106 150 187 245 310 367 440
#     4  12  24  50  74 112 150 188 247 317 358 436
#     4  12  28  48  72 104 152 192 240 308 368 437
#     4  12  25  45  73 109 146 190 242 302 360 440
#     4  12  28  48  76 100 152 202 240 288 374 450
#
# _framework density 23.407955999999999
#
# number of rings (size 3 to 8) (size 9 to 14) (size 15 to 20)
#    0.000    0.000    8.421    0.947    4.421    1.263 
#    0.000    3.158    0.000    0.000    0.000    0.000 
#    0.000    0.000    0.000    0.000    0.000    0.000 
#
# Total GULP energy -105961.736038 kJ/mol
# GULP energy per Si atom -5576.933476 kJ/mol
# Density = 2.335468 g / cm^3
# Si number density = 23.407956 Si / 1000 Ang^3
#
#
#
# Elastic Constant Matrix: (Units=GPa)
#
#
# Indices 1 2 3 4 5 6 
#
# 1 134.5648 37.7924 8.1861 0.0000 9.3122 0.0000
# 2 37.7924 224.6782 50.2439 0.0000 25.9130 0.0000
# 3 8.1861 50.2439 62.8284 0.0000 36.7773 0.0000
# 4 0.0000 0.0000 0.0000 40.1186 0.0000 -1.1528
# 5 9.3122 25.9130 36.7773 0.0000 38.2186 0.0000
# 6 0.0000 0.0000 0.0000 -1.1528 0.0000 -0.7667
#
#
#
# Elastic Compliance Matrix: (Units=1/GPa)
#
#
# Indices 1 2 3 4 5 6 
#
# 1 0.007897 -0.001383 0.001499 0.000000 -0.002429 0.000000
# 2 -0.001383 0.005684 -0.005282 0.000000 0.001566 0.000000
# 3 0.001499 -0.005282 0.041360 0.000000 -0.036584 0.000000
# 4 0.000000 0.000000 0.000000 0.023894 0.000000 -0.035929
# 5 -0.002429 0.001566 -0.036584 0.000000 0.060900 0.000000
# 6 0.000000 0.000000 0.000000 -0.035929 0.000000 -1.250328
#
#
# Mechanical properties :
#
#
# Convention : Reuss Voigt Hill
#
# Bulk Modulus (GPa) = 22.41738 68.27957 45.34848
# Shear Modulus (GPa) = -4.60663 37.23736 16.31536
#
# Velocity S-wave (km/s) = -1.40437 3.99281 2.64294
# Velocity P-wave (km/s) = 2.63969 7.10559 5.35991
#
# Compressibility (1/GPa) = 0.04460825
#
# Stress axis : x y z
#
# Youngs Moduli (GPa) = 126.63408 175.92977 24.17794
#
# Poissons Ratio (x) = 0.24338 -0.03624
# Poissons Ratio (y) = 0.17519 0.12771
# Poissons Ratio (z) = -0.18983 0.92925
#
# Static dielectric constant tensor:
#      x y z
#    x 1.834300 0.000000 0.006350 
#    y 0.000000 1.929960 0.000000 
#    z 0.006350 0.000000 1.844830 
# 
# From -- ./inp_files/59303.got.cif
#   From: 2010.05.17/outbox.cif.g08.bks.cpg/sg12_30_cif.got.tgz:59303.got - 2010.06.03 13:09:07.
