data_PCOD9222692
_publ_section_title
;
Structure prediction by ZEFSAII (Michael W. Deem and Ramdas Pophale) SiO2 
 PCOD9222692
Probable space group: C 2/M
;
_chemical_formula_sum "Si O2"
_cell_formula_units_Z 52
_cell_length_a 22.723980
_cell_length_b 17.192270
_cell_length_c 8.632135
_cell_angle_alpha 90.000000
_cell_angle_beta 51.186338
_cell_angle_gamma 90.000000
_cell_volume 2627.715826
_symmetry_space_group_name_H-M "C 2/M"
_symmetry_group_IT_number 12
_symmetry_cell_setting 'monoclinic'
loop_
_space_group_symop_operation_xyz
x,y,z
-x,y,-z
-x,-y,-z
x,-y,z
1/2+x,1/2+y,z
1/2-x,1/2+y,-z
1/2-x,1/2-y,-z
1/2+x,1/2-y,z
loop_
_atom_site_type_symbol
_atom_site_label
_atom_site_fract_x
_atom_site_fract_y
_atom_site_fract_z
Si Si1 0.500000 0.691785 0.000000
Si Si2 0.974601 0.282687 0.715593
Si Si3 0.145954 0.090183 0.782862
Si Si4 0.240159 0.590861 0.172749
Si Si5 0.404877 0.908122 0.402992
Si Si6 0.797473 0.312455 0.021841
Si Si7 0.292342 0.909480 0.318347
O O1 0.490367 0.735659 0.850068
O O2 0.575018 0.640472 0.854228
O O3 0.000000 0.253335 0.500000
O O4 0.021567 0.361528 0.670690
O O5 0.885502 0.297035 0.854519
O O6 0.182534 0.122021 0.882564
O O7 0.218165 0.092390 0.549900
O O8 0.122473 0.000000 0.837460
O O9 0.241191 0.500000 0.207943
O O10 0.165155 0.622846 0.378098
O O11 0.229466 0.607270 0.013024
O O12 0.370030 0.899292 0.288467
O O13 0.415629 0.000000 0.412447
O O14 0.784836 0.334552 0.220434
O O15 0.750000 0.250000 0.000000
O O16 0.295515 0.000000 0.253940
#
# Coordination Sequence:
#
# PCOD9222692 Si02
#       7
#     4   8   8   8   8   8   8
#     4  12  25  42  65  86 128 170 206 270 317 360
#     4  12  26  42  59  95 131 168 212 251 309 378
#     4   9  20  41  68  91 113 157 213 263 320 370
#     4   9  18  36  60  86 116 153 198 247 302 366
#     4   9  19  39  64  87 119 160 202 254 306 362
#     4  12  24  37  57  89 125 168 203 243 308 375
#     4   9  20  39  65  93 120 156 208 262 312 372
#
# _framework density 19.789048999999999
#
# number of rings (size 3 to 8) (size 9 to 14) (size 15 to 20)
#    0.000    1.846    1.538    4.385    2.154    1.538 
#    0.000    5.769    0.000    0.923    0.000    0.000 
#    0.000    0.000    0.000    0.000    0.000    0.000 
#
# Total GULP energy -144737.134491 kJ/mol
# GULP energy per Si atom -5566.812865 kJ/mol
# Density = 1.974401 g / cm^3
# Si number density = 19.789049 Si / 1000 Ang^3
#
#
#
# Elastic Constant Matrix: (Units=GPa)
#
#
# Indices 1 2 3 4 5 6 
#
# 1 153.1681 56.7835 41.2544 0.0000 -14.9475 0.0000
# 2 56.7835 50.7433 20.7334 0.0000 -0.4731 0.0000
# 3 41.2544 20.7334 46.3022 0.0000 5.4275 0.0000
# 4 0.0000 0.0000 0.0000 21.8136 0.0000 0.0897
# 5 -14.9475 -0.4731 5.4275 0.0000 38.1356 0.0000
# 6 0.0000 0.0000 0.0000 0.0897 0.0000 36.4768
#
#
#
# Elastic Compliance Matrix: (Units=1/GPa)
#
#
# Indices 1 2 3 4 5 6 
#
# 1 0.013667 -0.012190 -0.007453 0.000000 0.006266 0.000000
# 2 -0.012190 0.035124 -0.004432 0.000000 -0.003711 0.000000
# 3 -0.007453 -0.004432 0.031090 0.000000 -0.007401 0.000000
# 4 0.000000 0.000000 0.000000 0.045843 0.000000 -0.000113
# 5 0.006266 -0.003711 -0.007401 0.000000 0.029686 0.000000
# 6 0.000000 0.000000 0.000000 -0.000113 0.000000 0.027415
#
#
# Mechanical properties :
#
#
# Convention : Reuss Voigt Hill
#
# Bulk Modulus (GPa) = 31.51484 54.19514 42.85499
# Shear Modulus (GPa) = 20.69947 28.04800 24.37374
#
# Velocity S-wave (km/s) = 3.23771 3.76885 3.51333
# Velocity P-wave (km/s) = 5.47147 6.81065 6.17746
#
# Compressibility (1/GPa) = 0.03173108
#
# Stress axis : x y z
#
# Youngs Moduli (GPa) = 73.16971 28.47025 32.16493
#
# Poissons Ratio (x) = 0.34705 0.23972
# Poissons Ratio (y) = 0.89194 0.14255
# Poissons Ratio (z) = 0.54533 0.12618
#
# Static dielectric constant tensor:
#      x y z
#    x 1.703160 0.000000 0.048710 
#    y 0.000000 1.747580 0.000000 
#    z 0.048710 0.000000 1.710440 
# 
# From -- ./inp_files/88367.got.cif
#   From: 2010.05.17/outbox.cif.g08.bks.cpg/sg12_45_cif.got.tgz:88367.got - 2010.06.03 13:09:07.
