data_PCOD9222882
_publ_section_title
;
Structure prediction by ZEFSAII (Michael W. Deem and Ramdas Pophale) SiO2 
 PCOD9222882
Probable space group: C 2/M
;
_chemical_formula_sum "Si O2"
_cell_formula_units_Z 64
_cell_length_a 14.229268
_cell_length_b 9.588309
_cell_length_c 21.557092
_cell_angle_alpha 90.000000
_cell_angle_beta 95.404405
_cell_angle_gamma 90.000000
_cell_volume 2928.059478
_symmetry_space_group_name_H-M "C 2/M"
_symmetry_group_IT_number 12
_symmetry_cell_setting 'monoclinic'
loop_
_space_group_symop_operation_xyz
x,y,z
-x,y,-z
-x,-y,-z
x,-y,z
1/2+x,1/2+y,z
1/2-x,1/2+y,-z
1/2-x,1/2-y,-z
1/2+x,1/2-y,z
loop_
_atom_site_type_symbol
_atom_site_label
_atom_site_fract_x
_atom_site_fract_y
_atom_site_fract_z
Si Si1 0.101589 0.161462 0.083220
Si Si2 0.814800 0.167849 0.419632
Si Si3 0.127031 0.838186 0.947441
Si Si4 0.355350 0.159956 0.169216
Si Si5 0.436059 0.345021 0.688705
Si Si6 0.414987 0.159839 0.799652
Si Si7 0.342596 0.341956 0.282427
Si Si8 0.129982 0.166319 0.448507
O O1 0.122834 0.253509 0.144269
O O2 0.987208 0.162564 0.068451
O O3 0.127339 0.000000 0.094294
O O4 0.142566 0.208638 0.019355
O O5 0.828719 0.217881 0.350497
O O6 0.889694 0.197114 0.479932
O O7 0.718992 0.238773 0.436387
O O8 0.808379 0.000000 0.415041
O O9 0.165253 0.739125 0.896144
O O10 0.157291 0.000000 0.942275
O O11 0.470076 0.159906 0.185268
O O12 0.313350 0.243626 0.224662
O O13 0.325575 0.000000 0.166286
O O14 0.392885 0.500000 0.693956
O O15 0.391808 0.231926 0.732092
O O16 0.544243 0.354857 0.715584
O O17 0.436621 0.312218 0.615169
O O18 0.385241 0.000000 0.799844
O O19 0.304988 0.500000 0.275667
O O20 0.152223 0.000000 0.449155
#
# Coordination Sequence:
#
# PCOD9222882 Si02
#       8
#     8   8   8   8   8   8   8   8
#     4   8  13  21  33  49  72 106 145 179 212 254
#     4   9  18  32  49  68  89 114 144 179 220 263
#     4   8  13  21  33  49  72 106 145 179 212 254
#     4   9  16  24  35  54  81 111 142 178 219 259
#     4   9  17  29  45  64  87 116 148 181 217 259
#     4   9  16  24  35  54  81 111 142 178 219 259
#     4   9  17  29  45  64  87 116 148 181 217 259
#     4   9  18  32  49  68  89 114 144 179 220 263
#
# _framework density 21.857479000000001
#
# number of rings (size 3 to 8) (size 9 to 14) (size 15 to 20)
#    0.000    3.250    0.000    1.500    0.000    5.000 
#    0.000    5.000    0.000    0.000    0.000    7.000 
#    0.000    1.000    0.000    3.250    0.000    6.500 
#
# Total GULP energy -178465.769661 kJ/mol
# GULP energy per Si atom -5577.055302 kJ/mol
# Density = 2.180773 g / cm^3
# Si number density = 21.857479 Si / 1000 Ang^3
#
#
#
# Elastic Constant Matrix: (Units=GPa)
#
#
# Indices 1 2 3 4 5 6 
#
# 1 43.2925 0.0409 23.7914 0.0000 14.4719 0.0000
# 2 0.0409 85.4481 114.4251 0.0000 -10.1815 0.0000
# 3 23.7914 114.4251 234.6049 0.0000 -12.4900 0.0000
# 4 0.0000 0.0000 0.0000 26.7762 0.0000 -2.7632
# 5 14.4719 -10.1815 -12.4900 0.0000 34.7257 0.0000
# 6 0.0000 0.0000 0.0000 -2.7632 0.0000 -1.1588
#
#
#
# Elastic Compliance Matrix: (Units=1/GPa)
#
#
# Indices 1 2 3 4 5 6 
#
# 1 0.032898 0.010918 -0.009401 0.000000 -0.013890 0.000000
# 2 0.010918 0.037931 -0.019634 0.000000 -0.000490 0.000000
# 3 -0.009401 -0.019634 0.014981 0.000000 0.003549 0.000000
# 4 0.000000 0.000000 0.000000 0.029971 0.000000 -0.071469
# 5 -0.013890 -0.000490 0.003549 0.000000 0.035719 0.000000
# 6 0.000000 0.000000 0.000000 -0.071469 0.000000 -0.692548
#
#
# Mechanical properties :
#
#
# Convention : Reuss Voigt Hill
#
# Bulk Modulus (GPa) = 20.17077 71.09557 45.63317
# Shear Modulus (GPa) = -10.23983 27.07449 8.41733
#
# Velocity S-wave (km/s) = -2.16679 3.52331 1.96453
# Velocity P-wave (km/s) = 1.72869 7.01064 5.10576
#
# Compressibility (1/GPa) = 0.04957670
#
# Stress axis : x y z
#
# Youngs Moduli (GPa) = 30.39718 26.36354 66.75205
#
# Poissons Ratio (x) = -0.28783 0.62751
# Poissons Ratio (y) = -0.33187 1.31059
# Poissons Ratio (z) = 0.28575 0.51761
#
# Static dielectric constant tensor:
#      x y z
#    x 1.866190 0.000000 0.029190 
#    y 0.000000 1.746850 0.000000 
#    z 0.029190 0.000000 1.815940 
# 
# From -- ./inp_files/287700.got.cif
#   From: 2010.05.17/outbox.cif.g08.bks.cpg/sg12_144_cif.got.tgz:287700.got - 2010.06.03 13:09:07.
