data_PCOD9222782
_publ_section_title
;
Structure prediction by ZEFSAII (Michael W. Deem and Ramdas Pophale) SiO2 
 PCOD9222782
Probable space group: C 2/M
;
_chemical_formula_sum "Si O2"
_cell_formula_units_Z 22
_cell_length_a 5.049417
_cell_length_b 36.758015
_cell_length_c 5.261999
_cell_angle_alpha 90.000000
_cell_angle_beta 85.085100
_cell_angle_gamma 90.000000
_cell_volume 973.070323
_symmetry_space_group_name_H-M "C 2/M"
_symmetry_group_IT_number 12
_symmetry_cell_setting 'monoclinic'
loop_
_space_group_symop_operation_xyz
x,y,z
-x,y,-z
-x,-y,-z
x,-y,z
1/2+x,1/2+y,z
1/2-x,1/2+y,-z
1/2-x,1/2-y,-z
1/2+x,1/2-y,z
loop_
_atom_site_type_symbol
_atom_site_label
_atom_site_fract_x
_atom_site_fract_y
_atom_site_fract_z
Si Si1 0.276036 0.941656 0.329323
Si Si2 0.000000 0.223562 0.500000
Si Si3 0.500000 0.876234 0.000000
Si Si4 0.500000 0.500000 0.000000
Si Si5 0.500000 0.325785 0.000000
O O1 0.500000 0.957527 0.500000
O O2 0.389043 0.903657 0.221292
O O3 0.000000 0.936600 0.500000
O O4 0.193478 0.968354 0.109625
O O5 0.250000 0.250000 0.500000
O O6 0.031866 0.198835 0.247301
O O7 0.743223 0.851051 0.062578
#
# Coordination Sequence:
#
# PCOD9222782 Si02
#       5
#     8   4   4   2   4
#     4  12  27  47  75 102 152 194 262 323 392 461
#     4  12  26  50  78 118 154 199 252 307 372 462
#     4  12  28  48  70 114 145 199 256 309 383 462
#     4  12  26  50  68 114 134 210 252 330 394 454
#     4  12  27  47  82 111 160 203 248 315 382 457
#
# _framework density 22.60885
#
# number of rings (size 3 to 8) (size 9 to 14) (size 15 to 20)
#    0.000    0.000    0.000    9.818    7.636    5.091 
#    0.000    0.000    0.000    0.000    0.000    0.000 
#    0.000    0.000    0.000    0.000    0.000    0.000 
#
# Total GULP energy -61416.717093 kJ/mol
# GULP energy per Si atom -5583.337918 kJ/mol
# Density = 2.255739 g / cm^3
# Si number density = 22.608850 Si / 1000 Ang^3
#
#
#
# Elastic Constant Matrix: (Units=GPa)
#
#
# Indices 1 2 3 4 5 6 
#
# 1 235.9201 99.6652 68.3239 0.0000 23.9400 0.0000
# 2 99.6652 188.0985 77.6474 0.0000 20.1786 0.0000
# 3 68.3239 77.6474 131.7489 0.0000 25.2241 0.0000
# 4 0.0000 0.0000 0.0000 -14.1227 0.0000 14.0757
# 5 23.9400 20.1786 25.2241 0.0000 58.4447 0.0000
# 6 0.0000 0.0000 0.0000 14.0757 0.0000 48.3902
#
#
#
# Elastic Compliance Matrix: (Units=1/GPa)
#
#
# Indices 1 2 3 4 5 6 
#
# 1 0.005737 -0.002360 -0.001407 0.000000 -0.000928 0.000000
# 2 -0.002360 0.008022 -0.003444 0.000000 -0.000317 0.000000
# 3 -0.001407 -0.003444 0.010913 0.000000 -0.002945 0.000000
# 4 0.000000 0.000000 0.000000 -0.054894 0.000000 0.015967
# 5 -0.000928 -0.000317 -0.002945 0.000000 0.018871 0.000000
# 6 0.000000 0.000000 0.000000 0.015967 0.000000 0.016021
#
#
# Mechanical properties :
#
#
# Convention : Reuss Voigt Hill
#
# Bulk Modulus (GPa) = 97.53899 116.33781 106.93840
# Shear Modulus (GPa) = 222.14724 39.21784 130.68254
#
# Velocity S-wave (km/s) = 9.92321 4.16940 7.61098
# Velocity P-wave (km/s) = 13.21094 8.64563 11.16414
#
# Compressibility (1/GPa) = 0.01025231
#
# Stress axis : x y z
#
# Youngs Moduli (GPa) = 174.30264 124.65590 91.63289
#
# Poissons Ratio (x) = 0.29413 0.12892
# Poissons Ratio (y) = 0.41127 0.31554
# Poissons Ratio (z) = 0.24523 0.42926
#
# Static dielectric constant tensor:
#      x y z
#    x 1.785230 0.000000 -0.017690 
#    y 0.000000 1.715170 0.000000 
#    z -0.017690 0.000000 1.900390 
# 
# From -- ./inp_files/1143.got.cif
#   From: 2010.05.17/outbox.cif.g08.bks.cpg/sg12_1_cif.got.tgz:1143.got - 2010.06.03 13:09:07.
