data_PCOD9222803
_publ_section_title
;
Structure prediction by ZEFSAII (Michael W. Deem and Ramdas Pophale) SiO2 
 PCOD9222803
Probable space group: C 2/M
;
_chemical_formula_sum "Si O2"
_cell_formula_units_Z 64
_cell_length_a 13.731110
_cell_length_b 7.535993
_cell_length_c 23.741030
_cell_angle_alpha 90.000000
_cell_angle_beta 73.575830
_cell_angle_gamma 90.000000
_cell_volume 2356.418904
_symmetry_space_group_name_H-M "C 2/M"
_symmetry_group_IT_number 12
_symmetry_cell_setting 'monoclinic'
loop_
_space_group_symop_operation_xyz
x,y,z
-x,y,-z
-x,-y,-z
x,-y,z
1/2+x,1/2+y,z
1/2-x,1/2+y,-z
1/2-x,1/2-y,-z
1/2+x,1/2-y,z
loop_
_atom_site_type_symbol
_atom_site_label
_atom_site_fract_x
_atom_site_fract_y
_atom_site_fract_z
Si Si1 0.541085 0.701230 0.432204
Si Si2 0.153094 0.284358 0.683554
Si Si3 0.122647 0.213709 0.302333
Si Si4 0.729446 0.192318 0.564927
Si Si5 0.554274 0.711161 0.072119
Si Si6 0.839011 0.213535 0.050825
Si Si7 0.228780 0.211060 0.177164
Si Si8 0.056591 0.712642 0.804528
O O1 0.500000 0.778562 0.500000
O O2 0.496924 0.500000 0.436946
O O3 0.549316 0.780476 0.366200
O O4 0.660404 0.682883 0.425555
O O5 0.144504 0.500000 0.681391
O O6 0.262157 0.253802 0.694178
O O7 0.161012 0.205630 0.620295
O O8 0.066611 0.218407 0.739249
O O9 0.141308 0.282029 0.234332
O O10 0.106748 0.000000 0.304790
O O11 0.750000 0.250000 0.500000
O O12 0.681372 0.000000 0.566009
O O13 0.558033 0.500000 0.065708
O O14 0.445736 0.770613 0.063167
O O15 0.537893 0.744240 0.140770
O O16 0.642451 0.781368 0.016263
O O17 0.747613 0.268020 0.106865
O O18 0.836525 0.000000 0.051126
O O19 0.338643 0.277418 0.183003
O O20 0.224502 0.000000 0.186531
O O21 0.062419 0.500000 0.802227
#
# Coordination Sequence:
#
# PCOD9222803 Si02
#       8
#     8   8   8   8   8   8   8   8
#     4   8  13  22  38  58  76  96 125 158 189 223
#     4   7  11  20  32  45  62  84 108 137 174 211
#     4   7  10  17  29  45  63  81 105 141 179 208
#     4   9  16  26  40  57  77  99 124 155 189 225
#     4   8  13  19  24  32  49  72  97 128 165 197
#     4   8  13  19  24  31  48  74 100 126 159 199
#     4   8  12  17  26  39  53  70  96 132 168 197
#     4   8  12  18  28  39  50  69 100 133 163 197
#
# _framework density 27.159856000000001
#
# number of rings (size 3 to 8) (size 9 to 14) (size 15 to 20)
#    0.000    4.125    0.000    3.750    0.000    0.500 
#    0.000    3.125    0.000    4.875    0.000    0.000 
#    0.000    0.000    0.000    0.000    0.000    1.250 
#
# Total GULP energy -178181.550960 kJ/mol
# GULP energy per Si atom -5568.173468 kJ/mol
# Density = 2.709804 g / cm^3
# Si number density = 27.159856 Si / 1000 Ang^3
#
#
#
# Elastic Constant Matrix: (Units=GPa)
#
#
# Indices 1 2 3 4 5 6 
#
# 1 85.3250 -2.2947 47.7938 0.0000 -31.1949 0.0000
# 2 -2.2947 64.2864 16.8724 -0.0001 2.2332 0.0000
# 3 47.7938 16.8724 398.4203 0.0000 -17.2334 0.0000
# 4 0.0000 -0.0001 0.0000 -41.4241 0.0000 3.7596
# 5 -31.1949 2.2332 -17.2334 0.0000 41.4384 0.0000
# 6 0.0000 0.0000 0.0000 3.7596 0.0000 0.0561
#
#
#
# Elastic Compliance Matrix: (Units=1/GPa)
#
#
# Indices 1 2 3 4 5 6 
#
# 1 0.017046 0.000591 -0.001544 0.000000 0.012158 0.000001
# 2 0.000591 0.015804 -0.000772 0.000000 -0.000728 0.000001
# 3 -0.001544 -0.000772 0.002728 0.000000 0.000014 0.000000
# 4 0.000000 0.000000 0.000000 -0.003410 0.000000 0.228409
# 5 0.012158 -0.000728 0.000014 0.000000 0.033330 0.000001
# 6 0.000001 0.000001 0.000000 0.228409 0.000001 2.516637
#
#
# Mechanical properties :
#
#
# Convention : Reuss Voigt Hill
#
# Bulk Modulus (GPa) = 31.12386 74.75273 52.93830
# Shear Modulus (GPa) = 1.92582 32.39144 17.15863
#
# Velocity S-wave (km/s) = 0.84298 3.45718 2.51622
# Velocity P-wave (km/s) = 3.52588 6.59690 5.28919
#
# Compressibility (1/GPa) = 0.03212969
#
# Stress axis : x y z
#
# Youngs Moduli (GPa) = 58.66627 63.27395 366.51483
#
# Poissons Ratio (x) = -0.03741 0.56587
# Poissons Ratio (y) = -0.03469 0.28283
# Poissons Ratio (z) = 0.09058 0.04883
#
# Static dielectric constant tensor:
#      x y z
#    x 2.523640 0.000000 0.186940 
#    y 0.000000 2.040030 0.000000 
#    z 0.186940 0.000000 2.363960 
# 
# From -- ./inp_files/367047.got.cif
#   From: 2010.05.17/outbox.cif.g08.bks.cpg/sg12_184_cif.got.tgz:367047.got - 2010.06.03 13:09:07.
