data_PCOD9222957
_publ_section_title
;
Structure prediction by ZEFSAII (Michael W. Deem and Ramdas Pophale) SiO2 
 PCOD9222957
Probable space group: C 2/M
;
_chemical_formula_sum "Si O2"
_cell_formula_units_Z 40
_cell_length_a 25.202814
_cell_length_b 16.153589
_cell_length_c 14.277287
_cell_angle_alpha 90.000000
_cell_angle_beta 164.838338
_cell_angle_gamma 90.000000
_cell_volume 1520.223790
_symmetry_space_group_name_H-M "C 2/M"
_symmetry_group_IT_number 12
_symmetry_cell_setting 'monoclinic'
loop_
_space_group_symop_operation_xyz
x,y,z
-x,y,-z
-x,-y,-z
x,-y,z
1/2+x,1/2+y,z
1/2-x,1/2+y,-z
1/2-x,1/2-y,-z
1/2+x,1/2-y,z
loop_
_atom_site_type_symbol
_atom_site_label
_atom_site_fract_x
_atom_site_fract_y
_atom_site_fract_z
Si Si1 0.744334 0.649346 0.008931
Si Si2 0.731970 0.671272 0.191160
Si Si3 0.211932 0.904348 0.552090
Si Si4 0.745983 0.597132 0.409994
Si Si5 0.232474 0.134567 0.786174
O O1 0.815905 0.613037 0.031181
O O2 0.509786 0.620484 0.617755
O O3 0.750000 0.750000 0.000000
O O4 0.822418 0.634413 0.247948
O O5 0.811678 0.646951 0.429673
O O6 0.748086 0.768222 0.201745
O O7 0.496455 0.645477 0.792122
O O8 0.316239 0.875126 0.633509
O O9 0.310279 0.905146 0.822678
O O10 0.160587 0.000000 0.444134
O O11 0.785345 0.500000 0.460487
O O12 0.500000 0.606426 0.000000
#
# Coordination Sequence:
#
# PCOD9222957 Si02
#       5
#     8   8   8   8   8
#     4   8  15  27  40  59  88 114 135 172 221 255
#     4   9  15  25  42  62  84 110 142 176 207 247
#     4   9  17  29  43  63  91 116 139 174 218 253
#     4   8  14  25  40  59  86 115 138 169 216 255
#     4   9  16  26  42  64  83 110 147 177 207 252
#
# _framework density 26.311916
#
# number of rings (size 3 to 8) (size 9 to 14) (size 15 to 20)
#    0.000    3.400    0.000    1.800    0.000    0.800 
#    0.000    9.000    0.000    0.000    0.000   96.600 
#    0.000   36.000    0.000    0.000    0.000    0.000 
#
# Total GULP energy -111679.102353 kJ/mol
# GULP energy per Si atom -5583.955118 kJ/mol
# Density = 2.625203 g / cm^3
# Si number density = 26.311916 Si / 1000 Ang^3
#
#
#
# Elastic Constant Matrix: (Units=GPa)
#
#
# Indices 1 2 3 4 5 6 
#
# 1 341.9741 44.8754 79.2147 0.0000 -45.6828 0.0000
# 2 44.8754 34.5435 7.6733 0.0000 -12.4133 0.0000
# 3 79.2147 7.6733 96.3887 0.0000 -34.5626 0.0000
# 4 0.0000 0.0000 0.0000 20.6475 0.0000 -5.9295
# 5 -45.6828 -12.4133 -34.5626 0.0000 80.1667 0.0000
# 6 0.0000 0.0000 0.0000 -5.9295 0.0000 47.7551
#
#
#
# Elastic Compliance Matrix: (Units=1/GPa)
#
#
# Indices 1 2 3 4 5 6 
#
# 1 0.004302 -0.004772 -0.003007 0.000000 0.000417 0.000000
# 2 -0.004772 0.036009 0.002459 0.000000 0.003917 0.000000
# 3 -0.003007 0.002459 0.014398 0.000000 0.004875 0.000000
# 4 0.000000 0.000000 0.000000 0.050223 0.000000 0.006236
# 5 0.000417 0.003917 0.004875 0.000000 0.015420 0.000000
# 6 0.000000 0.000000 0.000000 0.006236 0.000000 0.021714
#
#
# Mechanical properties :
#
#
# Convention : Reuss Voigt Hill
#
# Bulk Modulus (GPa) = 22.69029 81.82590 52.25810
# Shear Modulus (GPa) = 29.86945 52.45671 41.16308
#
# Velocity S-wave (km/s) = 3.37294 4.46987 3.95958
# Velocity P-wave (km/s) = 4.87968 7.60300 6.38815
#
# Compressibility (1/GPa) = 0.04407171
#
# Stress axis : x y z
#
# Youngs Moduli (GPa) = 232.42427 27.77063 69.45498
#
# Poissons Ratio (x) = 0.13251 0.20883
# Poissons Ratio (y) = 1.10907 -0.17082
# Poissons Ratio (z) = 0.69881 -0.06830
#
# Static dielectric constant tensor:
#      x y z
#    x 2.110470 0.000000 -0.111050 
#    y 0.000000 1.939140 0.000000 
#    z -0.111050 0.000000 2.262450 
# 
# From -- ./inp_files/132071.got.cif
#   From: 2010.05.17/outbox.cif.g08.bks.cpg/sg12_67_cif.got.tgz:132071.got - 2010.06.03 13:09:07.
