data_PCOD9222955
_publ_section_title
;
Structure prediction by ZEFSAII (Michael W. Deem and Ramdas Pophale) SiO2 
 PCOD9222955
Probable space group: C 2/M
;
_chemical_formula_sum "Si O2"
_cell_formula_units_Z 40
_cell_length_a 14.828680
_cell_length_b 14.158677
_cell_length_c 11.202127
_cell_angle_alpha 90.000000
_cell_angle_beta 40.181476
_cell_angle_gamma 90.000000
_cell_volume 1517.494867
_symmetry_space_group_name_H-M "C 2/M"
_symmetry_group_IT_number 12
_symmetry_cell_setting 'monoclinic'
loop_
_space_group_symop_operation_xyz
x,y,z
-x,y,-z
-x,-y,-z
x,-y,z
1/2+x,1/2+y,z
1/2-x,1/2+y,-z
1/2-x,1/2-y,-z
1/2+x,1/2-y,z
loop_
_atom_site_type_symbol
_atom_site_label
_atom_site_fract_x
_atom_site_fract_y
_atom_site_fract_z
Si Si1 0.839199 0.643549 0.158118
Si Si2 0.574245 0.682378 0.293223
Si Si3 0.580241 0.100779 0.290527
Si Si4 0.658435 0.628316 0.836230
Si Si5 0.199683 0.859114 0.540091
O O1 0.724405 0.633678 0.167275
O O2 0.841987 0.757730 0.161430
O O3 0.772968 0.605606 0.347282
O O4 0.000000 0.612324 0.000000
O O5 0.500000 0.684887 0.500000
O O6 0.568184 0.792108 0.253017
O O7 0.465789 0.632206 0.315921
O O8 0.500000 0.103389 0.500000
O O9 0.743596 0.097327 0.157187
O O10 0.542151 0.000000 0.268986
O O11 0.729034 0.600533 0.639612
O O12 0.500000 0.598204 0.000000
O O13 0.250000 0.750000 0.500000
#
# Coordination Sequence:
#
# PCOD9222955 Si02
#       5
#     8   8   8   8   8
#     4   8  14  25  39  58  83 107 138 175 214 259
#     4   8  14  25  40  59  83 111 141 174 215 257
#     4   9  16  27  42  58  82 115 146 177 211 248
#     4   9  17  28  39  58  85 115 147 172 205 253
#     4   9  15  25  41  57  83 117 142 174 214 257
#
# _framework density 26.359233
#
# number of rings (size 3 to 8) (size 9 to 14) (size 15 to 20)
#    0.000    3.400    0.000    3.600    0.000    0.400 
#    0.000   18.000    0.000    0.000    0.000    0.000 
#    0.000    8.800    0.000   95.200    0.000   48.600 
#
# Total GULP energy -111607.024125 kJ/mol
# GULP energy per Si atom -5580.351206 kJ/mol
# Density = 2.629924 g / cm^3
# Si number density = 26.359233 Si / 1000 Ang^3
#
#
#
# Elastic Constant Matrix: (Units=GPa)
#
#
# Indices 1 2 3 4 5 6 
#
# 1 129.5564 5.1529 53.9987 0.0000 -30.9821 0.0000
# 2 5.1529 87.5745 0.6304 0.0000 -0.7413 0.0000
# 3 53.9987 0.6304 115.4997 0.0000 -35.4555 0.0000
# 4 0.0000 0.0000 0.0000 -43.1730 0.0000 -19.9734
# 5 -30.9821 -0.7413 -35.4555 0.0000 52.9725 0.0000
# 6 0.0000 0.0000 0.0000 -19.9734 0.0000 -29.0784
#
#
#
# Elastic Compliance Matrix: (Units=1/GPa)
#
#
# Indices 1 2 3 4 5 6 
#
# 1 0.010088 -0.000538 -0.003656 0.000000 0.003446 0.000000
# 2 -0.000538 0.011449 0.000178 0.000000 -0.000035 0.000000
# 3 -0.003656 0.000178 0.012222 0.000000 0.006045 0.000000
# 4 0.000000 0.000000 0.000000 -0.033952 0.000000 0.023321
# 5 0.003446 -0.000035 0.006045 0.000000 0.024938 0.000000
# 6 0.000000 0.000000 0.000000 0.023321 0.000000 -0.050408
#
#
# Mechanical properties :
#
#
# Convention : Reuss Voigt Hill
#
# Bulk Modulus (GPa) = 38.86873 50.24384 44.55628
# Shear Modulus (GPa) = -552.06362 14.33415 -268.86474
#
# Velocity S-wave (km/s) = -14.48769 2.33448 -10.11047
# Velocity P-wave (km/s) = 16.28127 5.13507 10.92499
#
# Compressibility (1/GPa) = 0.02572762
#
# Stress axis : x y z
#
# Youngs Moduli (GPa) = 99.13095 87.34447 81.82202
#
# Poissons Ratio (x) = 0.04700 0.29910
# Poissons Ratio (y) = 0.05334 -0.01459
# Poissons Ratio (z) = 0.36237 -0.01557
#
# Static dielectric constant tensor:
#      x y z
#    x 2.039380 0.000000 0.000090 
#    y 0.000000 2.108020 0.000000 
#    z 0.000090 0.000000 2.098900 
# 
# From -- ./inp_files/145261.got.cif
#   From: 2010.05.17/outbox.cif.g08.bks.cpg/sg12_73_cif.got.tgz:145261.got - 2010.06.03 13:09:07.
