data_PCOD9222577
_publ_section_title
;
Structure prediction by ZEFSAII (Michael W. Deem and Ramdas Pophale) SiO2 
 PCOD9222577
Probable space group: C 2/M
;
_chemical_formula_sum "Si O2"
_cell_formula_units_Z 32
_cell_length_a 8.444802
_cell_length_b 22.552217
_cell_length_c 15.614964
_cell_angle_alpha 90.000000
_cell_angle_beta 34.314054
_cell_angle_gamma 90.000000
_cell_volume 1676.446964
_symmetry_space_group_name_H-M "C 2/M"
_symmetry_group_IT_number 12
_symmetry_cell_setting 'monoclinic'
loop_
_space_group_symop_operation_xyz
x,y,z
-x,y,-z
-x,-y,-z
x,-y,z
1/2+x,1/2+y,z
1/2-x,1/2+y,-z
1/2-x,1/2-y,-z
1/2+x,1/2-y,z
loop_
_atom_site_type_symbol
_atom_site_label
_atom_site_fract_x
_atom_site_fract_y
_atom_site_fract_z
Si Si1 0.989327 0.066240 0.775308
Si Si2 0.217336 0.311576 0.330738
Si Si3 0.991233 0.616103 0.911062
Si Si4 0.163387 0.711384 0.160611
O O1 0.780574 0.079558 0.787987
O O2 0.202676 0.120210 0.687681
O O3 0.102410 0.000000 0.721312
O O4 0.776078 0.073833 0.951976
O O5 0.103532 0.304190 0.285941
O O6 0.494369 0.270760 0.213284
O O7 0.000000 0.291432 0.500000
O O8 0.948087 0.660110 0.853079
O O9 0.000000 0.649464 0.000000
O O10 0.500000 0.714737 0.000000
#
# Coordination Sequence:
#
# PCOD9222577 Si02
#       4
#     8   8   8   8
#     4   9  19  39  62  84 120 158 195 241 295 349
#     4  12  26  38  58  91 126 158 193 246 302 351
#     4   8  18  36  62  92 110 146 198 248 293 336
#     4  12  22  40  63  89 119 157 200 247 295 355
#
# _framework density 19.087987999999999
#
# number of rings (size 3 to 8) (size 9 to 14) (size 15 to 20)
#    1.500    0.000    2.500    4.500    3.500    0.500 
#    0.000    3.750    0.000    1.500    0.000    0.000 
#    0.000    0.000    0.000    0.000    0.000    0.000 
#
# Total GULP energy -89129.970324 kJ/mol
# GULP energy per Si atom -5570.623145 kJ/mol
# Density = 1.904454 g / cm^3
# Si number density = 19.087988 Si / 1000 Ang^3
#
#
#
# Elastic Constant Matrix: (Units=GPa)
#
#
# Indices 1 2 3 4 5 6 
#
# 1 89.2729 45.9500 35.9437 0.0001 23.6325 0.0000
# 2 45.9500 124.6777 13.6245 -0.0001 1.6779 0.0001
# 3 35.9437 13.6245 47.2779 0.0004 29.8904 -0.0001
# 4 0.0001 -0.0001 0.0004 -3.9657 -0.0002 1.8770
# 5 23.6325 1.6779 29.8904 -0.0002 20.7952 0.0001
# 6 0.0000 0.0001 -0.0001 1.8770 0.0001 22.8752
#
#
#
# Elastic Compliance Matrix: (Units=1/GPa)
#
#
# Indices 1 2 3 4 5 6 
#
# 1 0.021910 -0.008936 0.013194 0.000004 -0.043142 0.000000
# 2 -0.008936 0.014127 -0.032623 -0.000007 0.055907 0.000000
# 3 0.013194 -0.032623 0.310529 0.000056 -0.458706 -0.000001
# 4 0.000004 -0.000007 0.000056 -0.242736 -0.000087 0.019917
# 5 -0.043142 0.055907 -0.458706 -0.000087 0.751934 0.000001
# 6 0.000000 0.000000 -0.000001 0.019917 0.000001 0.042081
#
#
# Mechanical properties :
#
#
# Convention : Reuss Voigt Hill
#
# Bulk Modulus (GPa) = 3.45025 50.25165 26.85095
# Shear Modulus (GPa) = 4.75653 18.98831 11.87242
#
# Velocity S-wave (km/s) = 1.58029 3.15743 2.49667
# Velocity P-wave (km/s) = 2.26742 6.29889 4.73377
#
# Compressibility (1/GPa) = 0.28983423
#
# Stress axis : x y z
#
# Youngs Moduli (GPa) = 45.64212 70.78821 3.22031
#
# Poissons Ratio (x) = 0.63256 -0.04249
# Poissons Ratio (y) = 0.40786 0.10506
# Poissons Ratio (z) = -0.60219 2.30934
#
# Static dielectric constant tensor:
#      x y z
#    x 1.681200 0.000000 -0.010480 
#    y 0.000000 1.668410 0.000000 
#    z -0.010480 0.000000 1.686740 
# 
# From -- ./inp_files/121121.got.cif
#   From: 2010.05.17/outbox.cif.g08.bks.cpg/sg12_61_cif.got.tgz:121121.got - 2010.06.03 13:09:07.
