data_PCOD9222474
_publ_section_title
;
Structure prediction by ZEFSAII (Michael W. Deem and Ramdas Pophale) SiO2 
 PCOD9222474
Probable space group: C 2/M
;
_chemical_formula_sum "Si O2"
_cell_formula_units_Z 32
_cell_length_a 7.093283
_cell_length_b 13.558959
_cell_length_c 15.741382
_cell_angle_alpha 90.000000
_cell_angle_beta 55.805804
_cell_angle_gamma 90.000000
_cell_volume 1252.259134
_symmetry_space_group_name_H-M "C 2/M"
_symmetry_group_IT_number 12
_symmetry_cell_setting 'monoclinic'
loop_
_space_group_symop_operation_xyz
x,y,z
-x,y,-z
-x,-y,-z
x,-y,z
1/2+x,1/2+y,z
1/2-x,1/2+y,-z
1/2-x,1/2-y,-z
1/2+x,1/2-y,z
loop_
_atom_site_type_symbol
_atom_site_label
_atom_site_fract_x
_atom_site_fract_y
_atom_site_fract_z
Si Si1 0.308704 0.610687 0.620575
Si Si2 0.150619 0.116726 0.136414
Si Si3 0.333372 0.805592 0.725887
Si Si4 0.150714 0.382364 0.090120
O O1 0.500000 0.613543 0.500000
O O2 0.309852 0.500000 0.659004
O O3 0.351894 0.701287 0.673357
O O4 0.056819 0.630978 0.646345
O O5 0.393066 0.131712 0.121372
O O6 0.913201 0.151988 0.235823
O O7 0.129040 0.000000 0.136926
O O8 0.185375 0.146568 0.028854
O O9 0.825888 0.680972 0.830741
O O10 0.182003 0.500000 0.100693
#
# Coordination Sequence:
#
# PCOD9222474 Si02
#       4
#     8   8   8   8
#     4  11  28  54  81 112 150 194 256 327 389 461
#     4   9  19  39  73 118 165 211 256 307 369 448
#     4  12  24  45  82 113 146 204 254 313 385 454
#     4   9  19  39  72 118 166 209 258 307 365 453
#
# _framework density 25.553816999999999
#
# number of rings (size 3 to 8) (size 9 to 14) (size 15 to 20)
#    0.000    1.750    0.000    5.250    3.500    2.000 
#    0.000    7.500    0.000   12.000    0.000    1.750 
#    0.000    0.000    0.000    0.000    0.000    0.000 
#
# Total GULP energy -89644.156750 kJ/mol
# GULP energy per Si atom -5602.759797 kJ/mol
# Density = 2.549566 g / cm^3
# Si number density = 25.553817 Si / 1000 Ang^3
#
#
#
# Elastic Constant Matrix: (Units=GPa)
#
#
# Indices 1 2 3 4 5 6 
#
# 1 148.3674 51.3795 52.7521 0.0001 -30.1953 -0.0001
# 2 51.3795 187.8293 55.6936 0.0000 -5.9408 0.0000
# 3 52.7521 55.6936 142.9326 0.0001 -44.5355 -0.0001
# 4 0.0001 0.0000 0.0001 -2.1563 -0.0001 83.9087
# 5 -30.1953 -5.9408 -44.5355 -0.0001 51.5798 0.0001
# 6 -0.0001 0.0000 -0.0001 83.9087 0.0001 -57.6155
#
#
#
# Elastic Compliance Matrix: (Units=1/GPa)
#
#
# Indices 1 2 3 4 5 6 
#
# 1 0.008595 -0.001849 -0.001300 0.000000 0.003696 0.000000
# 2 -0.001849 0.006545 -0.002695 0.000000 -0.002656 0.000000
# 3 -0.001300 -0.002695 0.011208 0.000000 0.008606 0.000000
# 4 0.000000 0.000000 0.000000 0.008330 0.000000 0.012132
# 5 0.003696 -0.002656 0.008606 0.000000 0.028675 0.000000
# 6 0.000000 0.000000 0.000000 0.012132 0.000000 0.000312
#
#
# Mechanical properties :
#
#
# Convention : Reuss Voigt Hill
#
# Bulk Modulus (GPa) = 68.21753 88.75331 78.48542
# Shear Modulus (GPa) = 62.31356 19.64853 40.98105
#
# Velocity S-wave (km/s) = 4.94350 2.77593 4.00899
# Velocity P-wave (km/s) = 7.70310 6.71429 7.22563
#
# Compressibility (1/GPa) = 0.01465899
#
# Stress axis : x y z
#
# Youngs Moduli (GPa) = 116.35160 152.79114 89.22395
#
# Poissons Ratio (x) = 0.28245 0.11600
# Poissons Ratio (y) = 0.21509 0.24049
# Poissons Ratio (z) = 0.15127 0.41183
#
# Static dielectric constant tensor:
#      x y z
#    x 2.044700 0.000000 0.088590 
#    y 0.000000 2.094950 0.000000 
#    z 0.088590 0.000000 2.038310 
# 
# From -- ./inp_files/262308.got.cif
#   From: 2010.05.17/outbox.cif.g08.bks.cpg/sg12_132_cif.got.tgz:262308.got - 2010.06.03 13:09:07.
