data_PCOD9222998
_publ_section_title
;
Structure prediction by ZEFSAII (Michael W. Deem and Ramdas Pophale) SiO2 
 PCOD9222998
Probable space group: C 2/M
;
_chemical_formula_sum "Si O2"
_cell_formula_units_Z 64
_cell_length_a 19.453546
_cell_length_b 7.496183
_cell_length_c 23.331086
_cell_angle_alpha 90.000000
_cell_angle_beta 69.278779
_cell_angle_gamma 90.000000
_cell_volume 3182.225151
_symmetry_space_group_name_H-M "C 2/M"
_symmetry_group_IT_number 12
_symmetry_cell_setting 'monoclinic'
loop_
_space_group_symop_operation_xyz
x,y,z
-x,y,-z
-x,-y,-z
x,-y,z
1/2+x,1/2+y,z
1/2-x,1/2+y,-z
1/2-x,1/2-y,-z
1/2+x,1/2-y,z
loop_
_atom_site_type_symbol
_atom_site_label
_atom_site_fract_x
_atom_site_fract_y
_atom_site_fract_z
Si Si1 0.223209 0.216641 0.619974
Si Si2 0.118637 0.207552 0.463116
Si Si3 0.258695 0.790828 0.736694
Si Si4 0.817822 0.789001 0.937152
Si Si5 0.076759 0.781714 0.599695
Si Si6 0.581922 0.281228 0.993622
Si Si7 0.211802 0.209103 0.871496
Si Si8 0.583759 0.715895 0.346093
O O1 0.293130 0.278630 0.562589
O O2 0.234003 0.281893 0.682113
O O3 0.146765 0.275349 0.615451
O O4 0.225515 0.000000 0.619370
O O5 0.085566 0.281109 0.531388
O O6 0.095471 0.282027 0.408190
O O7 0.096899 0.000000 0.468078
O O8 0.223905 0.713516 0.804716
O O9 0.347045 0.776291 0.711158
O O10 0.239948 0.000000 0.740887
O O11 0.787350 0.720381 0.885788
O O12 0.825748 0.000000 0.928102
O O13 0.750000 0.750000 0.000000
O O14 0.888854 0.724137 0.951899
O O15 0.997767 0.729508 0.647624
O O16 0.078518 0.000000 0.597855
O O17 0.582852 0.500000 0.993778
O O18 0.643899 0.219911 0.929534
O O19 0.500000 0.226150 0.000000
O O20 0.195709 0.000000 0.869607
O O21 0.586916 0.500000 0.345962
#
# Coordination Sequence:
#
# PCOD9222998 Si02
#       8
#     8   8   8   8   8   8   8   8
#     4   9  17  29  44  62  86 114 146 184 221 263
#     4   9  16  27  44  64  86 113 143 177 223 277
#     4   9  18  32  46  61  84 117 152 181 217 262
#     4   9  16  27  46  71  95 118 145 177 210 247
#     4   9  16  27  44  65  87 111 142 183 229 271
#     4   8  14  26  45  70  95 114 137 173 213 249
#     4   9  17  30  48  65  86 120 153 180 214 258
#     4   9  17  29  45  64  85 111 145 184 223 264
#
# _framework density 20.111713999999999
#
# number of rings (size 3 to 8) (size 9 to 14) (size 15 to 20)
#    0.000    3.125    0.000    1.875    0.000    2.000 
#    0.000    2.500    0.000   16.875    0.000    0.000 
#    0.000    0.000    0.000    0.000    0.000    0.000 
#
# Total GULP energy -178313.486805 kJ/mol
# GULP energy per Si atom -5572.296463 kJ/mol
# Density = 2.006594 g / cm^3
# Si number density = 20.111714 Si / 1000 Ang^3
#
#
#
# Elastic Constant Matrix: (Units=GPa)
#
#
# Indices 1 2 3 4 5 6 
#
# 1 106.8089 -8.5229 11.9271 -0.0001 -10.4566 0.0000
# 2 -8.5229 53.5351 0.5473 -0.0005 -1.1915 -0.0005
# 3 11.9271 0.5473 76.7655 0.0000 -11.4366 0.0001
# 4 -0.0001 -0.0005 0.0000 10.4333 -0.0002 2.7827
# 5 -10.4566 -1.1915 -11.4366 -0.0002 10.7895 -0.0003
# 6 0.0000 -0.0005 0.0001 2.7827 -0.0003 24.6621
#
#
#
# Elastic Compliance Matrix: (Units=1/GPa)
#
#
# Indices 1 2 3 4 5 6 
#
# 1 0.010536 0.001908 -0.000116 0.000000 0.010298 0.000000
# 2 0.001908 0.019074 0.000186 0.000001 0.004153 0.000000
# 3 -0.000116 0.000186 0.015473 0.000000 0.016309 0.000000
# 4 0.000000 0.000001 0.000000 0.098821 0.000002 -0.011150
# 5 0.010298 0.004153 0.016309 0.000002 0.120409 0.000001
# 6 0.000000 0.000000 0.000000 -0.011150 0.000001 0.041806
#
#
# Mechanical properties :
#
#
# Convention : Reuss Voigt Hill
#
# Bulk Modulus (GPa) = 20.39235 27.22362 23.80799
# Shear Modulus (GPa) = 15.69812 24.72085 20.20948
#
# Velocity S-wave (km/s) = 2.79686 3.50977 3.17339
# Velocity P-wave (km/s) = 4.53778 5.47633 5.02900
#
# Compressibility (1/GPa) = 0.04903799
#
# Stress axis : x y z
#
# Youngs Moduli (GPa) = 94.91328 52.42861 64.62804
#
# Poissons Ratio (x) = -0.10002 0.00752
# Poissons Ratio (y) = -0.18107 -0.01204
# Poissons Ratio (z) = 0.01104 -0.00977
#
# Static dielectric constant tensor:
#      x y z
#    x 1.717780 0.000000 0.021930 
#    y 0.000000 1.807670 0.000000 
#    z 0.021930 0.000000 1.712020 
# 
# From -- ./inp_files/341968.got.cif
#   From: 2010.05.17/outbox.cif.g08.bks.cpg/sg12_171_cif.got.tgz:341968.got - 2010.06.03 13:09:07.
