data_PCOD9222614
_publ_section_title
;
Structure prediction by ZEFSAII (Michael W. Deem and Ramdas Pophale) SiO2 
 PCOD9222614
Probable space group: C 2/M
;
_chemical_formula_sum "Si O2"
_cell_formula_units_Z 40
_cell_length_a 26.282680
_cell_length_b 8.613034
_cell_length_c 10.449742
_cell_angle_alpha 90.000000
_cell_angle_beta 77.058254
_cell_angle_gamma 90.000000
_cell_volume 2305.456940
_symmetry_space_group_name_H-M "C 2/M"
_symmetry_group_IT_number 12
_symmetry_cell_setting 'monoclinic'
loop_
_space_group_symop_operation_xyz
x,y,z
-x,y,-z
-x,-y,-z
x,-y,z
1/2+x,1/2+y,z
1/2-x,1/2+y,-z
1/2-x,1/2-y,-z
1/2+x,1/2-y,z
loop_
_atom_site_type_symbol
_atom_site_label
_atom_site_fract_x
_atom_site_fract_y
_atom_site_fract_z
Si Si1 0.997550 0.318646 0.156610
Si Si2 0.111928 0.688291 0.099533
Si Si3 0.724894 0.684964 0.643142
Si Si4 0.616532 0.811861 0.794365
Si Si5 0.217901 0.814927 0.139108
O O1 0.996965 0.500000 0.194539
O O2 0.053532 0.255347 0.169026
O O3 0.940401 0.254633 0.221622
O O4 0.000000 0.315819 0.000000
O O5 0.113350 0.500000 0.108959
O O6 0.158325 0.761398 0.153960
O O7 0.120749 0.725008 0.943833
O O8 0.726508 0.500000 0.641948
O O9 0.750000 0.750000 0.500000
O O10 0.665452 0.741905 0.694055
O O11 0.756875 0.748365 0.746671
O O12 0.617589 0.000000 0.784642
O O13 0.221818 0.000000 0.137553
O O14 0.250000 0.750000 0.000000
#
# Coordination Sequence:
#
# PCOD9222614 Si02
#       5
#     8   8   8   8   8
#     4   7  12  24  46  77 108 141 176 214 262 319
#     4   9  16  29  52  81 112 143 179 220 266 319
#     4  12  25  40  57  79 109 146 186 227 276 329
#     4   9  16  30  53  79 110 144 181 221 265 319
#     4  12  23  36  55  81 112 146 183 227 276 322
#
# _framework density 17.350138999999999
#
# number of rings (size 3 to 8) (size 9 to 14) (size 15 to 20)
#    0.000    2.200    2.000    6.000    0.000    0.000 
#    0.000    1.000    0.000    4.800    0.000    8.400 
#    0.000    0.000    0.000    0.000    0.000    0.000 
#
# Total GULP energy -111509.254264 kJ/mol
# GULP energy per Si atom -5575.462713 kJ/mol
# Density = 1.731065 g / cm^3
# Si number density = 17.350139 Si / 1000 Ang^3
#
#
#
# Elastic Constant Matrix: (Units=GPa)
#
#
# Indices 1 2 3 4 5 6 
#
# 1 202.4289 51.3989 73.0434 0.0000 -21.7688 0.0000
# 2 51.3989 68.8077 38.3396 0.0000 -9.9138 0.0000
# 3 73.0434 38.3396 93.2205 0.0000 -10.3544 0.0000
# 4 0.0000 0.0000 0.0000 20.2172 0.0000 -1.5741
# 5 -21.7688 -9.9138 -10.3544 0.0000 19.5001 0.0000
# 6 0.0000 0.0000 0.0000 -1.5741 0.0000 27.7797
#
#
#
# Elastic Compliance Matrix: (Units=1/GPa)
#
#
# Indices 1 2 3 4 5 6 
#
# 1 0.007734 -0.002586 -0.004446 0.000000 0.004959 0.000000
# 2 -0.002586 0.020359 -0.005864 0.000000 0.004350 0.000000
# 3 -0.004446 -0.005864 0.016727 0.000000 0.000937 0.000000
# 4 0.000000 0.000000 0.000000 0.049682 0.000000 0.002815
# 5 0.004959 0.004350 0.000937 0.000000 0.059527 0.000000
# 6 0.000000 0.000000 0.000000 0.002815 0.000000 0.036157
#
#
# Mechanical properties :
#
#
# Convention : Reuss Voigt Hill
#
# Bulk Modulus (GPa) = 52.55234 76.66899 64.61067
# Shear Modulus (GPa) = 22.49020 26.94440 24.71730
#
# Velocity S-wave (km/s) = 3.60426 3.94506 3.77850
# Velocity P-wave (km/s) = 6.90478 8.06452 7.50708
#
# Compressibility (1/GPa) = 0.01902865
#
# Stress axis : x y z
#
# Youngs Moduli (GPa) = 129.30008 49.11856 59.78469
#
# Poissons Ratio (x) = 0.12700 0.26579
# Poissons Ratio (y) = 0.33432 0.35058
# Poissons Ratio (z) = 0.57484 0.28803
#
# Static dielectric constant tensor:
#      x y z
#    x 1.636340 0.000000 -0.012770 
#    y 0.000000 1.588200 0.000000 
#    z -0.012770 0.000000 1.549880 
# 
# From -- ./inp_files/101025.got.cif
#   From: 2010.05.17/outbox.cif.g08.bks.cpg/sg12_51_cif.got.tgz:101025.got - 2010.06.03 13:09:07.
