data_PCOD9222192
_publ_section_title
;
Structure prediction by ZEFSAII (Michael W. Deem and Ramdas Pophale) SiO2 
 PCOD9222192
Probable space group: C 2/M
;
_chemical_formula_sum "Si O2"
_cell_formula_units_Z 48
_cell_length_a 8.745272
_cell_length_b 24.250354
_cell_length_c 12.282874
_cell_angle_alpha 90.000000
_cell_angle_beta 74.377161
_cell_angle_gamma 90.000000
_cell_volume 2508.664732
_symmetry_space_group_name_H-M "C 2/M"
_symmetry_group_IT_number 12
_symmetry_cell_setting 'monoclinic'
loop_
_space_group_symop_operation_xyz
x,y,z
-x,y,-z
-x,-y,-z
x,-y,z
1/2+x,1/2+y,z
1/2-x,1/2+y,-z
1/2-x,1/2-y,-z
1/2+x,1/2-y,z
loop_
_atom_site_type_symbol
_atom_site_label
_atom_site_fract_x
_atom_site_fract_y
_atom_site_fract_z
Si Si1 0.515653 0.722521 0.626820
Si Si2 0.070962 0.662265 0.236396
Si Si3 0.816198 0.188072 0.003645
Si Si4 0.823218 0.352277 0.566295
Si Si5 0.679538 0.561664 0.422486
Si Si6 0.725687 0.635432 0.221583
O O1 0.500000 0.724989 0.500000
O O2 0.481976 0.778444 0.700627
O O3 0.691276 0.695621 0.608363
O O4 0.382824 0.680579 0.695998
O O5 0.142175 0.625016 0.319898
O O6 0.911142 0.641711 0.211788
O O7 0.208980 0.667078 0.122603
O O8 0.799325 0.149465 0.900284
O O9 0.750000 0.250000 0.000000
O O10 0.000000 0.191524 0.000000
O O11 0.766521 0.393880 0.483561
O O12 0.000000 0.334187 0.500000
O O13 0.500000 0.561920 0.500000
O O14 0.745435 0.500000 0.422035
O O15 0.679581 0.580136 0.296079
#
# Coordination Sequence:
#
# PCOD9222192 Si02
#       6
#     8   8   8   8   8   8
#     4  12  22  36  58  89 137 174 207 247 317 389
#     4  12  25  37  61  94 132 176 206 256 311 388
#     4  12  26  42  61  90 131 178 216 256 305 379
#     4  12  22  40  60  96 132 166 215 262 323 383
#     4  11  24  45  70  94 124 166 214 275 335 379
#     4  12  22  43  63  89 130 167 220 258 314 380
#
# _framework density 19.133683999999999
#
# number of rings (size 3 to 8) (size 9 to 14) (size 15 to 20)
#    0.000    0.167    6.667    4.000    0.000    2.333 
#    0.000    0.000    0.000    3.500    0.000    0.000 
#    0.000    0.000    0.000    0.000    0.000    0.000 
#
# Total GULP energy -133934.486338 kJ/mol
# GULP energy per Si atom -5580.603597 kJ/mol
# Density = 1.909014 g / cm^3
# Si number density = 19.133684 Si / 1000 Ang^3
#
#
#
# Elastic Constant Matrix: (Units=GPa)
#
#
# Indices 1 2 3 4 5 6 
#
# 1 135.0811 19.7404 51.1858 0.0000 -3.2815 0.0000
# 2 19.7404 60.8907 27.8442 0.0000 1.3523 0.0000
# 3 51.1858 27.8442 165.6512 0.0000 -5.0450 0.0000
# 4 0.0000 0.0000 0.0000 14.9402 0.0000 1.5535
# 5 -3.2815 1.3523 -5.0450 0.0000 43.5304 0.0000
# 6 0.0000 0.0000 0.0000 1.5535 0.0000 1.9704
#
#
#
# Elastic Compliance Matrix: (Units=1/GPa)
#
#
# Indices 1 2 3 4 5 6 
#
# 1 0.008551 -0.001711 -0.002342 0.000000 0.000426 0.000000
# 2 -0.001711 0.018168 -0.002555 0.000000 -0.000990 0.000000
# 3 -0.002342 -0.002555 0.007212 0.000000 0.000739 0.000000
# 4 0.000000 0.000000 0.000000 0.072911 0.000000 -0.057487
# 5 0.000426 -0.000990 0.000739 0.000000 0.023121 0.000000
# 6 0.000000 0.000000 0.000000 -0.057487 0.000000 0.552847
#
#
# Mechanical properties :
#
#
# Convention : Reuss Voigt Hill
#
# Bulk Modulus (GPa) = 48.27294 62.12932 55.20113
# Shear Modulus (GPa) = 7.11308 29.61169 18.36239
#
# Velocity S-wave (km/s) = 1.93019 3.93825 3.10125
# Velocity P-wave (km/s) = 5.50014 7.29530 6.46038
#
# Compressibility (1/GPa) = 0.02071554
#
# Stress axis : x y z
#
# Youngs Moduli (GPa) = 116.95072 55.04188 138.65108
#
# Poissons Ratio (x) = 0.09416 0.32466
# Poissons Ratio (y) = 0.20008 0.35430
# Poissons Ratio (z) = 0.27385 0.14065
#
# Static dielectric constant tensor:
#      x y z
#    x 1.709670 0.000000 0.018220 
#    y 0.000000 1.700610 0.000000 
#    z 0.018220 0.000000 1.733520 
# 
# From -- ./inp_files/122423.got.cif
#   From: 2010.05.17/outbox.cif.g08.bks.cpg/sg12_62_cif.got.tgz:122423.got - 2010.06.03 13:09:07.
