data_PCOD9222590
_publ_section_title
;
Structure prediction by ZEFSAII (Michael W. Deem and Ramdas Pophale) SiO2 
 PCOD9222590
Probable space group: C 2/M
;
_chemical_formula_sum "Si O2"
_cell_formula_units_Z 36
_cell_length_a 5.066254
_cell_length_b 31.160127
_cell_length_c 11.648582
_cell_angle_alpha 90.000000
_cell_angle_beta 67.901795
_cell_angle_gamma 90.000000
_cell_volume 1703.819595
_symmetry_space_group_name_H-M "C 2/M"
_symmetry_group_IT_number 12
_symmetry_cell_setting 'monoclinic'
loop_
_space_group_symop_operation_xyz
x,y,z
-x,y,-z
-x,-y,-z
x,-y,z
1/2+x,1/2+y,z
1/2-x,1/2+y,-z
1/2-x,1/2-y,-z
1/2+x,1/2-y,z
loop_
_atom_site_type_symbol
_atom_site_label
_atom_site_fract_x
_atom_site_fract_y
_atom_site_fract_z
Si Si1 0.673511 0.500000 0.590513
Si Si2 0.247954 0.131971 0.368904
Si Si3 0.000000 0.679187 0.000000
Si Si4 0.225049 0.276979 0.733425
Si Si5 0.500000 0.383759 0.000000
Si Si6 0.353171 0.587300 0.265741
O O1 0.500000 0.500000 0.500000
O O2 0.618640 0.541957 0.676033
O O3 0.000000 0.500000 0.500000
O O4 0.289675 0.182644 0.349137
O O5 0.545885 0.108520 0.343832
O O6 0.000000 0.121647 0.500000
O O7 0.109686 0.116183 0.272672
O O8 0.086924 0.708016 0.876687
O O9 0.253431 0.648188 0.998288
O O10 0.541939 0.261549 0.710188
O O11 0.612891 0.412270 0.876453
#
# Coordination Sequence:
#
# PCOD9222590 Si02
#       6
#     4   8   4   8   4   8
#     4  12  26  45  72 105 138 172 219 272 317 398
#     4  12  25  44  68  94 135 183 224 272 333 401
#     4  12  22  43  64  97 131 176 227 275 334 395
#     4  12  24  40  64  97 129 176 229 281 333 385
#     4  12  22  42  72  96 133 174 219 276 330 402
#     4  12  24  45  70 101 134 173 224 269 336 396
#
# _framework density 21.128997999999999
#
# number of rings (size 3 to 8) (size 9 to 14) (size 15 to 20)
#    0.000    0.000    4.444    7.333    0.000    1.333 
#    0.000    0.000    0.000    5.333    0.000    0.000 
#    0.000    0.000    0.000    0.000    0.000    0.000 
#
# Total GULP energy -100797.945300 kJ/mol
# GULP energy per Si atom -5599.885850 kJ/mol
# Density = 2.108091 g / cm^3
# Si number density = 21.128998 Si / 1000 Ang^3
#
#
#
# Elastic Constant Matrix: (Units=GPa)
#
#
# Indices 1 2 3 4 5 6 
#
# 1 135.2208 30.5566 4.2466 0.0000 12.7068 0.0000
# 2 30.5566 102.3387 29.7928 0.0000 9.9203 0.0000
# 3 4.2466 29.7928 63.7313 0.0000 13.7945 0.0000
# 4 0.0000 0.0000 0.0000 18.5033 0.0000 1.0584
# 5 12.7068 9.9203 13.7945 0.0000 23.6833 0.0000
# 6 0.0000 0.0000 0.0000 1.0584 0.0000 27.9173
#
#
#
# Elastic Compliance Matrix: (Units=1/GPa)
#
#
# Indices 1 2 3 4 5 6 
#
# 1 0.008321 -0.002520 0.001558 0.000000 -0.004317 0.000000
# 2 -0.002520 0.012149 -0.005381 0.000000 -0.000603 0.000000
# 3 0.001558 -0.005381 0.020363 0.000000 -0.010442 0.000000
# 4 0.000000 0.000000 0.000000 0.054162 0.000000 -0.002053
# 5 -0.004317 -0.000603 -0.010442 0.000000 0.050874 0.000000
# 6 0.000000 0.000000 0.000000 -0.002053 0.000000 0.035898
#
#
# Mechanical properties :
#
#
# Convention : Reuss Voigt Hill
#
# Bulk Modulus (GPa) = 35.52754 47.83142 41.67948
# Shear Modulus (GPa) = 24.52964 29.80043 27.16504
#
# Velocity S-wave (km/s) = 3.41096 3.75961 3.58952
# Velocity P-wave (km/s) = 5.68894 6.44462 6.07853
#
# Compressibility (1/GPa) = 0.02814718
#
# Stress axis : x y z
#
# Youngs Moduli (GPa) = 120.17188 82.31320 49.10938
#
# Poissons Ratio (x) = 0.20740 -0.07650
# Poissons Ratio (y) = 0.30280 0.26425
# Poissons Ratio (z) = -0.18719 0.44292
#
# Static dielectric constant tensor:
#      x y z
#    x 1.704670 0.000000 0.010550 
#    y 0.000000 1.775210 0.000000 
#    z 0.010550 0.000000 1.793720 
# 
# From -- ./inp_files/115404.got.cif
#   From: 2010.05.17/outbox.cif.g08.bks.cpg/sg12_58_cif.got.tgz:115404.got - 2010.06.03 13:09:07.
