data_PCOD9222294
_publ_section_title
;
Structure prediction by ZEFSAII (Michael W. Deem and Ramdas Pophale) SiO2 
 PCOD9222294
Probable space group: C 2/M
;
_chemical_formula_sum "Si O2"
_cell_formula_units_Z 28
_cell_length_a 17.048179
_cell_length_b 14.541361
_cell_length_c 4.866514
_cell_angle_alpha 90.000000
_cell_angle_beta 115.521302
_cell_angle_gamma 90.000000
_cell_volume 1088.710036
_symmetry_space_group_name_H-M "C 2/M"
_symmetry_group_IT_number 12
_symmetry_cell_setting 'monoclinic'
loop_
_space_group_symop_operation_xyz
x,y,z
-x,y,-z
-x,-y,-z
x,-y,z
1/2+x,1/2+y,z
1/2-x,1/2+y,-z
1/2-x,1/2-y,-z
1/2+x,1/2-y,z
loop_
_atom_site_type_symbol
_atom_site_label
_atom_site_fract_x
_atom_site_fract_y
_atom_site_fract_z
Si Si1 0.235228 0.651766 0.621079
Si Si2 0.000000 0.257363 0.500000
Si Si3 0.084474 0.901276 0.321055
Si Si4 0.376866 0.105149 0.041549
O O1 0.250000 0.750000 0.500000
O O2 0.328401 0.605112 0.723595
O O3 0.200883 0.641255 0.877269
O O4 0.159917 0.607537 0.320405
O O5 0.072475 0.187874 0.492090
O O6 0.045459 0.324071 0.786704
O O7 0.086697 0.000000 0.474290
O O8 0.000000 0.899438 0.000000
O O9 0.399465 0.000000 0.146135
#
# Coordination Sequence:
#
# PCOD9222294 Si02
#       4
#     8   4   8   8
#     4  12  25  49  74 104 142 189 237 292 351 423
#     4  12  26  44  70 100 144 184 236 290 358 416
#     4  11  25  44  69 102 139 184 236 295 355 420
#     4  12  27  47  74 106 143 188 238 291 351 420
#
# _framework density 25.718510999999999
#
# number of rings (size 3 to 8) (size 9 to 14) (size 15 to 20)
#    0.000    0.286    2.857    6.000    4.000    0.000 
#    0.000    2.857    0.000    0.000    0.000    0.000 
#    0.000    0.000    0.000    0.000    0.000    0.000 
#
# Total GULP energy -78517.145763 kJ/mol
# GULP energy per Si atom -5608.367555 kJ/mol
# Density = 2.565997 g / cm^3
# Si number density = 25.718511 Si / 1000 Ang^3
#
#
#
# Elastic Constant Matrix: (Units=GPa)
#
#
# Indices 1 2 3 4 5 6 
#
# 1 118.2735 11.6376 12.7768 0.0000 10.5594 0.0000
# 2 11.6376 197.6147 10.3645 0.0000 10.9916 0.0000
# 3 12.7768 10.3645 88.2928 0.0000 15.2575 0.0000
# 4 0.0000 0.0000 0.0000 37.9090 0.0000 12.1802
# 5 10.5594 10.9916 15.2575 0.0000 42.5394 0.0000
# 6 0.0000 0.0000 0.0000 12.1802 0.0000 36.0175
#
#
#
# Elastic Compliance Matrix: (Units=1/GPa)
#
#
# Indices 1 2 3 4 5 6 
#
# 1 0.008747 -0.000370 -0.000921 0.000000 -0.001745 0.000000
# 2 -0.000370 0.005163 -0.000360 0.000000 -0.001113 0.000000
# 3 -0.000921 -0.000360 0.012202 0.000000 -0.004055 0.000000
# 4 0.000000 0.000000 0.000000 0.029595 0.000000 -0.010008
# 5 -0.001745 -0.001113 -0.004055 0.000000 0.025683 0.000000
# 6 0.000000 0.000000 0.000000 -0.010008 0.000000 0.031149
#
#
# Mechanical properties :
#
#
# Convention : Reuss Voigt Hill
#
# Bulk Modulus (GPa) = 43.83953 52.63765 48.23859
# Shear Modulus (GPa) = 40.50462 47.91999 44.21231
#
# Velocity S-wave (km/s) = 3.97283 4.32122 4.15068
# Velocity P-wave (km/s) = 6.17474 6.73858 6.46282
#
# Compressibility (1/GPa) = 0.02281046
#
# Stress axis : x y z
#
# Youngs Moduli (GPa) = 114.32951 193.68859 81.95257
#
# Poissons Ratio (x) = 0.07161 0.07545
# Poissons Ratio (y) = 0.04227 0.02952
# Poissons Ratio (z) = 0.10526 0.06977
#
# Static dielectric constant tensor:
#      x y z
#    x 2.020290 0.000000 -0.001430 
#    y 0.000000 2.055040 0.000000 
#    z -0.001430 0.000000 1.943990 
# 
# From -- ./inp_files/14246.got.cif
#   From: 2010.05.17/outbox.cif.g08.bks.cpg/sg12_8_cif.got.tgz:14246.got - 2010.06.03 13:09:07.
