data_PCOD9222334
_publ_section_title
;
Structure prediction by ZEFSAII (Michael W. Deem and Ramdas Pophale) SiO2 
 PCOD9222334
Probable space group: C 2/M
;
_chemical_formula_sum "Si O2"
_cell_formula_units_Z 48
_cell_length_a 9.496306
_cell_length_b 14.892952
_cell_length_c 29.469907
_cell_angle_alpha 90.000000
_cell_angle_beta 35.639379
_cell_angle_gamma 90.000000
_cell_volume 2428.541967
_symmetry_space_group_name_H-M "C 2/M"
_symmetry_group_IT_number 12
_symmetry_cell_setting 'monoclinic'
loop_
_space_group_symop_operation_xyz
x,y,z
-x,y,-z
-x,-y,-z
x,-y,z
1/2+x,1/2+y,z
1/2-x,1/2+y,-z
1/2-x,1/2-y,-z
1/2+x,1/2-y,z
loop_
_atom_site_type_symbol
_atom_site_label
_atom_site_fract_x
_atom_site_fract_y
_atom_site_fract_z
Si Si1 0.088890 0.153721 0.339627
Si Si2 0.786697 0.500000 0.422966
Si Si3 0.762214 0.500000 0.532492
Si Si4 0.980469 0.107129 0.829296
Si Si5 0.528199 0.830633 0.681166
Si Si6 0.238742 0.262249 0.056321
Si Si7 0.693421 0.101307 0.812903
O O1 0.304602 0.177380 0.318100
O O2 0.194939 0.108175 0.266409
O O3 0.904227 0.086471 0.412817
O O4 0.965264 0.242983 0.352150
O O5 0.500000 0.500000 0.500000
O O6 0.859959 0.500000 0.455860
O O7 0.877523 0.413900 0.372530
O O8 0.000000 0.500000 0.500000
O O9 0.807220 0.167782 0.905945
O O10 0.891393 0.119397 0.800515
O O11 0.249756 0.146207 0.765554
O O12 0.975717 0.000000 0.840240
O O13 0.021905 0.328119 0.126326
O O14 0.500000 0.300475 0.000000
O O15 0.250000 0.250000 0.000000
O O16 0.604672 0.000000 0.843902
#
# Coordination Sequence:
#
# PCOD9222334 Si02
#       7
#     8   4   4   8   8   8   8
#     4  12  26  46  71 107 139 187 237 284 345 426
#     4  12  26  52  70 104 148 182 228 294 353 410
#     4  12  30  48  74 106 148 184 230 299 353 406
#     4  11  25  45  73 103 136 190 234 284 349 424
#     4  12  26  44  75 102 141 187 237 283 349 421
#     4  12  26  46  69 103 144 180 230 296 354 406
#     4  11  25  45  72 102 141 182 239 285 347 424
#
# _framework density 19.764945999999998
#
# number of rings (size 3 to 8) (size 9 to 14) (size 15 to 20)
#    0.000    0.333    6.667    1.000    7.000    2.667 
#    0.000    0.000    0.000    0.000    0.000    0.000 
#    0.000    0.000    0.000    0.000    0.000    0.000 
#
# Total GULP energy -134211.569087 kJ/mol
# GULP energy per Si atom -5592.148712 kJ/mol
# Density = 1.971996 g / cm^3
# Si number density = 19.764946 Si / 1000 Ang^3
#
#
#
# Elastic Constant Matrix: (Units=GPa)
#
#
# Indices 1 2 3 4 5 6 
#
# 1 163.5257 35.3154 23.0039 0.0155 9.4414 -0.0080
# 2 35.3154 128.7204 20.9405 -0.0001 1.5593 -0.0036
# 3 23.0039 20.9405 67.9014 -0.0025 7.8292 -0.0088
# 4 0.0155 -0.0001 -0.0025 4.7526 -0.0098 1.4296
# 5 9.4414 1.5593 7.8292 -0.0098 46.9838 0.0059
# 6 -0.0080 -0.0036 -0.0088 1.4296 0.0059 24.5868
#
#
#
# Elastic Compliance Matrix: (Units=1/GPa)
#
#
# Indices 1 2 3 4 5 6 
#
# 1 0.006750 -0.001565 -0.001686 -0.000026 -0.001023 0.000003
# 2 -0.001565 0.008543 -0.002149 0.000005 0.000389 0.000000
# 3 -0.001686 -0.002149 0.016226 0.000008 -0.002294 0.000005
# 4 -0.000026 0.000005 0.000008 0.214158 0.000050 -0.012452
# 5 -0.001023 0.000389 -0.002294 0.000050 0.021859 -0.000009
# 6 0.000003 0.000000 0.000005 -0.012452 -0.000009 0.041396
#
#
# Mechanical properties :
#
#
# Convention : Reuss Voigt Hill
#
# Bulk Modulus (GPa) = 48.26807 57.62967 52.94887
# Shear Modulus (GPa) = 15.30745 33.99046 24.64896
#
# Velocity S-wave (km/s) = 2.78596 4.15147 3.53527
# Velocity P-wave (km/s) = 5.90109 7.22498 6.59633
#
# Compressibility (1/GPa) = 0.02071763
#
# Stress axis : x y z
#
# Youngs Moduli (GPa) = 148.15878 117.05337 61.63062
#
# Poissons Ratio (x) = 0.18320 0.10391
# Poissons Ratio (y) = 0.23188 0.13246
# Poissons Ratio (z) = 0.24979 0.25158
#
# Static dielectric constant tensor:
#      x y z
#    x 1.595240 -0.000060 -0.065910 
#    y -0.000060 1.769600 -0.000030 
#    z -0.065910 -0.000030 1.624990 
# 
# From -- ./inp_files/356330.got.cif
#   From: 2010.05.17/outbox.cif.g08.bks.cpg/sg12_179_cif.got.tgz:356330.got - 2010.06.03 13:09:07.
