data_PCOD9222789
_publ_section_title
;
Structure prediction by ZEFSAII (Michael W. Deem and Ramdas Pophale) SiO2 
 PCOD9222789
Probable space group: C 2/M
;
_chemical_formula_sum "Si O2"
_cell_formula_units_Z 18
_cell_length_a 9.016850
_cell_length_b 18.269180
_cell_length_c 5.175796
_cell_angle_alpha 90.000000
_cell_angle_beta 124.329294
_cell_angle_gamma 90.000000
_cell_volume 704.094941
_symmetry_space_group_name_H-M "C 2/M"
_symmetry_group_IT_number 12
_symmetry_cell_setting 'monoclinic'
loop_
_space_group_symop_operation_xyz
x,y,z
-x,y,-z
-x,-y,-z
x,-y,z
1/2+x,1/2+y,z
1/2-x,1/2+y,-z
1/2-x,1/2-y,-z
1/2+x,1/2-y,z
loop_
_atom_site_type_symbol
_atom_site_label
_atom_site_fract_x
_atom_site_fract_y
_atom_site_fract_z
Si Si1 0.353339 0.580980 0.162858
Si Si2 0.292733 0.798165 0.293178
Si Si3 0.500000 0.000000 0.000000
O O1 0.500000 0.616039 0.500000
O O2 0.424172 0.500000 0.173541
O O3 0.158789 0.563283 0.103882
O O4 0.313265 0.627471 0.868963
O O5 0.500000 0.817577 0.500000
O O6 0.250000 0.750000 0.500000
O O7 0.250000 0.750000 0.000000
#
# Coordination Sequence:
#
# PCOD9222789 Si02
#       3
#     8   8   2
#     4   9  21  45  80 121 159 205 270 334 406 474
#     4  12  28  49  77 113 163 213 267 328 399 483
#     4   8  18  40  86 120 160 206 260 350 398 482
#
# _framework density 25.564736
#
# number of rings (size 3 to 8) (size 9 to 14) (size 15 to 20)
#    1.333    0.444    0.000    2.667    6.222    0.889 
#    0.000    2.222    0.000   14.667    0.000    0.000 
#    0.000    0.000    0.000    0.000    0.000    0.000 
#
# Total GULP energy -50113.167471 kJ/mol
# GULP energy per Si atom -5568.129719 kJ/mol
# Density = 2.550655 g / cm^3
# Si number density = 25.564736 Si / 1000 Ang^3
#
#
#
# Elastic Constant Matrix: (Units=GPa)
#
#
# Indices 1 2 3 4 5 6 
#
# 1 151.3586 17.1758 99.9576 0.0000 17.9799 0.0000
# 2 17.1758 125.7427 82.1279 0.0000 -15.6525 0.0000
# 3 99.9576 82.1279 215.3956 0.0000 1.1789 0.0000
# 4 0.0000 0.0000 0.0000 56.3482 0.0000 8.9363
# 5 17.9799 -15.6525 1.1789 0.0000 62.0370 0.0000
# 6 0.0000 0.0000 0.0000 8.9363 0.0000 21.3853
#
#
#
# Elastic Compliance Matrix: (Units=1/GPa)
#
#
# Indices 1 2 3 4 5 6 
#
# 1 0.010300 0.001873 -0.005481 0.000000 -0.002408 0.000000
# 2 0.001873 0.011421 -0.005237 0.000000 0.002438 0.000000
# 3 -0.005481 -0.005237 0.009182 0.000000 0.000093 0.000000
# 4 0.000000 0.000000 0.000000 0.019006 0.000000 -0.007942
# 5 -0.002408 0.002438 0.000093 0.000000 0.017431 0.000000
# 6 0.000000 0.000000 0.000000 -0.007942 0.000000 0.050080
#
#
# Mechanical properties :
#
#
# Convention : Reuss Voigt Hill
#
# Bulk Modulus (GPa) = 75.68088 99.00216 87.34152
# Shear Modulus (GPa) = 35.83835 47.50314 41.67074
#
# Velocity S-wave (km/s) = 3.74821 4.31530 4.04172
# Velocity P-wave (km/s) = 6.95701 7.97742 7.48463
#
# Compressibility (1/GPa) = 0.01321338
#
# Stress axis : x y z
#
# Youngs Moduli (GPa) = 97.08805 87.55702 108.90289
#
# Poissons Ratio (x) = -0.16400 0.59688
# Poissons Ratio (y) = -0.18185 0.57036
# Poissons Ratio (z) = 0.53212 0.45856
#
# Static dielectric constant tensor:
#      x y z
#    x 2.070170 0.000000 -0.015400 
#    y 0.000000 5.446460 0.000000 
#    z -0.015400 0.000000 1.982040 
# 
# From -- ./inp_files/2559.got.cif
#   From: 2010.05.17/outbox.cif.g08.bks.cpg/sg12_2_cif.got.tgz:2559.got - 2010.06.03 13:09:07.
