data_PCOD9222572
_publ_section_title
;
Structure prediction by ZEFSAII (Michael W. Deem and Ramdas Pophale) SiO2 
 PCOD9222572
Probable space group: C 2/M
;
_chemical_formula_sum "Si O2"
_cell_formula_units_Z 48
_cell_length_a 7.930069
_cell_length_b 28.518695
_cell_length_c 9.373079
_cell_angle_alpha 90.000000
_cell_angle_beta 81.030034
_cell_angle_gamma 90.000000
_cell_volume 2093.846377
_symmetry_space_group_name_H-M "C 2/M"
_symmetry_group_IT_number 12
_symmetry_cell_setting 'monoclinic'
loop_
_space_group_symop_operation_xyz
x,y,z
-x,y,-z
-x,-y,-z
x,-y,z
1/2+x,1/2+y,z
1/2-x,1/2+y,-z
1/2-x,1/2-y,-z
1/2+x,1/2-y,z
loop_
_atom_site_type_symbol
_atom_site_label
_atom_site_fract_x
_atom_site_fract_y
_atom_site_fract_z
Si Si1 0.312528 0.622082 0.537248
Si Si2 0.840078 0.687597 0.677964
Si Si3 0.324750 0.090628 0.986104
Si Si4 0.313513 0.683014 0.992424
Si Si5 0.068893 0.552677 0.745029
Si Si6 0.721205 0.209864 0.697423
O O1 0.500000 0.599038 0.500000
O O2 0.235820 0.644890 0.402991
O O3 0.171389 0.588340 0.629786
O O4 0.345970 0.668369 0.630891
O O5 0.790441 0.683454 0.848937
O O6 0.763190 0.737829 0.644773
O O7 0.043062 0.693350 0.653838
O O8 0.176348 0.126838 0.034372
O O9 0.379788 0.069314 0.826248
O O10 0.500000 0.119619 0.000000
O O11 0.331628 0.053747 0.114603
O O12 0.500000 0.702677 0.000000
O O13 0.230791 0.707723 0.867561
O O14 0.062181 0.500000 0.689417
#
# Coordination Sequence:
#
# PCOD9222572 Si02
#       6
#     8   8   8   8   8   8
#     4  12  24  41  64  98 137 178 218 270 340 396
#     4  12  26  39  67  93 137 176 225 273 326 391
#     4   8  17  36  66  98 124 166 220 268 328 387
#     4  12  22  38  65  99 134 175 220 274 326 390
#     4   9  19  39  72  99 127 172 223 276 336 399
#     4  12  24  46  61  95 131 181 227 266 321 398
#
# _framework density 22.924316999999999
#
# number of rings (size 3 to 8) (size 9 to 14) (size 15 to 20)
#    1.000    0.000    1.667    8.000    0.000    0.333 
#    0.000    0.000    0.000   11.000    0.000    0.000 
#    0.000    0.000    0.000    0.000    0.000    0.000 
#
# Total GULP energy -133845.598187 kJ/mol
# GULP energy per Si atom -5576.899924 kJ/mol
# Density = 2.287214 g / cm^3
# Si number density = 22.924317 Si / 1000 Ang^3
#
#
#
# Elastic Constant Matrix: (Units=GPa)
#
#
# Indices 1 2 3 4 5 6 
#
# 1 94.5561 17.7529 31.8591 0.0000 10.8172 0.0000
# 2 17.7529 124.0647 42.2389 0.0000 1.5580 0.0000
# 3 31.8591 42.2389 135.3479 0.0000 6.1847 0.0000
# 4 0.0000 0.0000 0.0000 10.2544 0.0000 -12.5911
# 5 10.8172 1.5580 6.1847 0.0000 27.5515 0.0000
# 6 0.0000 0.0000 0.0000 -12.5911 0.0000 4.8789
#
#
#
# Elastic Compliance Matrix: (Units=1/GPa)
#
#
# Indices 1 2 3 4 5 6 
#
# 1 0.012008 -0.000860 -0.002369 0.000000 -0.004134 0.000000
# 2 -0.000860 0.009080 -0.002651 0.000000 0.000419 0.000000
# 3 -0.002369 -0.002651 0.008814 0.000000 -0.000898 0.000000
# 4 0.000000 0.000000 0.000000 -0.044965 0.000000 -0.116042
# 5 -0.004134 0.000419 -0.000898 0.000000 0.038097 0.000000
# 6 0.000000 0.000000 0.000000 -0.116042 0.000000 -0.094507
#
#
# Mechanical properties :
#
#
# Convention : Reuss Voigt Hill
#
# Bulk Modulus (GPa) = 55.11524 59.74115 57.42819
# Shear Modulus (GPa) = -93.17096 26.01150 -33.57973
#
# Velocity S-wave (km/s) = -6.38209 3.37214 -3.83143
# Velocity P-wave (km/s) = 5.49670 6.42483 2.35211
#
# Compressibility (1/GPa) = 0.01814380
#
# Stress axis : x y z
#
# Youngs Moduli (GPa) = 83.27478 110.12626 113.45159
#
# Poissons Ratio (x) = 0.09468 0.26881
# Poissons Ratio (y) = 0.07159 0.30071
# Poissons Ratio (z) = 0.19731 0.29190
#
# Static dielectric constant tensor:
#      x y z
#    x 1.871260 0.000000 -0.021150 
#    y 0.000000 1.877330 0.000000 
#    z -0.021150 0.000000 1.959780 
# 
# From -- ./inp_files/42194.got.cif
#   From: 2010.05.17/outbox.cif.g08.bks.cpg/sg12_22_cif.got.tgz:42194.got - 2010.06.03 13:09:07.
