data_PCOD9222620
_publ_section_title
;
Structure prediction by ZEFSAII (Michael W. Deem and Ramdas Pophale) SiO2 
 PCOD9222620
Probable space group: C 2/M
;
_chemical_formula_sum "Si O2"
_cell_formula_units_Z 56
_cell_length_a 10.064866
_cell_length_b 15.064343
_cell_length_c 26.258836
_cell_angle_alpha 90.000000
_cell_angle_beta 128.407233
_cell_angle_gamma 90.000000
_cell_volume 3119.869476
_symmetry_space_group_name_H-M "C 2/M"
_symmetry_group_IT_number 12
_symmetry_cell_setting 'monoclinic'
loop_
_space_group_symop_operation_xyz
x,y,z
-x,y,-z
-x,-y,-z
x,-y,z
1/2+x,1/2+y,z
1/2-x,1/2+y,-z
1/2-x,1/2-y,-z
1/2+x,1/2-y,z
loop_
_atom_site_type_symbol
_atom_site_label
_atom_site_fract_x
_atom_site_fract_y
_atom_site_fract_z
Si Si1 0.128828 0.896552 0.350305
Si Si2 0.881810 0.257122 0.259026
Si Si3 0.335986 0.107993 0.492691
Si Si4 0.976276 0.396066 0.366547
Si Si5 0.067848 0.603997 0.933816
Si Si6 0.723799 0.396389 0.917506
Si Si7 0.484579 0.235597 0.170422
O O1 0.175621 0.868988 0.419658
O O2 0.302834 0.891384 0.358845
O O3 0.991116 0.831512 0.294375
O O4 0.076566 0.000000 0.337517
O O5 0.953289 0.333173 0.313077
O O6 0.686422 0.237919 0.224386
O O7 0.901162 0.283649 0.204892
O O8 0.500000 0.139220 0.500000
O O9 0.370482 0.133390 0.559179
O O10 0.341681 0.000000 0.493811
O O11 0.000029 0.500000 0.358805
O O12 0.084322 0.500000 0.924820
O O13 0.887682 0.614765 0.919922
O O14 0.069756 0.665114 0.885150
O O15 0.210847 0.625284 0.010014
O O16 0.675635 0.500000 0.904524
O O17 0.579609 0.331218 0.864174
#
# Coordination Sequence:
#
# PCOD9222620 Si02
#       7
#     8   8   8   8   8   8   8
#     4   9  18  35  57  79 107 146 192 232 270 328
#     4  12  24  35  54  83 116 154 185 218 271 338
#     4   7  12  27  54  80 100 135 187 237 276 313
#     4   9  18  35  56  79 110 145 186 234 279 325
#     4   9  19  38  63  87 109 141 186 230 272 321
#     4   9  19  38  64  86 107 144 188 226 270 325
#     4  12  23  38  55  84 119 148 183 222 273 327
#
# _framework density 17.949469000000001
#
# number of rings (size 3 to 8) (size 9 to 14) (size 15 to 20)
#    0.000    2.429    2.857    3.000    0.000    2.857 
#    0.000    0.000    0.000    1.714    0.000    3.000 
#    0.000    0.000    0.000    0.000    0.000    0.000 
#
# Total GULP energy -156108.317124 kJ/mol
# GULP energy per Si atom -5575.297040 kJ/mol
# Density = 1.790862 g / cm^3
# Si number density = 17.949469 Si / 1000 Ang^3
#
#
#
# Elastic Constant Matrix: (Units=GPa)
#
#
# Indices 1 2 3 4 5 6 
#
# 1 10.8439 6.7600 -1.6883 0.0000 -0.7890 0.0000
# 2 6.7600 68.7547 47.3725 0.0000 -10.8164 0.0000
# 3 -1.6883 47.3725 79.7458 0.0000 -14.4133 0.0000
# 4 0.0000 0.0000 0.0000 40.7821 0.0000 -17.9336
# 5 -0.7890 -10.8164 -14.4133 0.0000 21.4735 0.0000
# 6 0.0000 0.0000 0.0000 -17.9336 0.0000 42.7238
#
#
#
# Elastic Compliance Matrix: (Units=1/GPa)
#
#
# Indices 1 2 3 4 5 6 
#
# 1 0.107517 -0.020340 0.015047 0.000000 0.003804 0.000000
# 2 -0.020340 0.028635 -0.017036 0.000000 0.002242 0.000000
# 3 0.015047 -0.017036 0.024499 0.000000 0.008416 0.000000
# 4 0.000000 0.000000 0.000000 0.030071 0.000000 0.012623
# 5 0.003804 0.002242 0.008416 0.000000 0.053487 0.000000
# 6 0.000000 0.000000 0.000000 0.012623 0.000000 0.028705
#
#
# Mechanical properties :
#
#
# Convention : Reuss Voigt Hill
#
# Bulk Modulus (GPa) = 8.62119 29.35920 18.99020
# Shear Modulus (GPa) = 14.03564 28.12256 21.07910
#
# Velocity S-wave (km/s) = 2.79938 3.96253 3.43061
# Velocity P-wave (km/s) = 3.90668 6.10963 5.12785
#
# Compressibility (1/GPa) = 0.11599323
#
# Stress axis : x y z
#
# Youngs Moduli (GPa) = 9.30086 34.92280 40.81724
#
# Poissons Ratio (x) = 0.71032 -0.61416
# Poissons Ratio (y) = 0.18918 0.69535
# Poissons Ratio (z) = -0.13995 0.59493
#
# Static dielectric constant tensor:
#      x y z
#    x 1.590980 0.000000 -0.006930 
#    y 0.000000 1.595990 0.000000 
#    z -0.006930 0.000000 1.639360 
# 
# From -- ./inp_files/333010.got.cif
#   From: 2010.05.17/outbox.cif.g08.bks.cpg/sg12_167_cif.got.tgz:333010.got - 2010.06.03 13:09:07.
