data_PCOD9222205
_publ_section_title
;
Structure prediction by ZEFSAII (Michael W. Deem and Ramdas Pophale) SiO2 
 PCOD9222205
Probable space group: C 2/M
;
_chemical_formula_sum "Si O2"
_cell_formula_units_Z 32
_cell_length_a 15.905926
_cell_length_b 13.071233
_cell_length_c 22.096811
_cell_angle_alpha 90.000000
_cell_angle_beta 19.458048
_cell_angle_gamma 90.000000
_cell_volume 1530.387280
_symmetry_space_group_name_H-M "C 2/M"
_symmetry_group_IT_number 12
_symmetry_cell_setting 'monoclinic'
loop_
_space_group_symop_operation_xyz
x,y,z
-x,y,-z
-x,-y,-z
x,-y,z
1/2+x,1/2+y,z
1/2-x,1/2+y,-z
1/2-x,1/2-y,-z
1/2+x,1/2-y,z
loop_
_atom_site_type_symbol
_atom_site_label
_atom_site_fract_x
_atom_site_fract_y
_atom_site_fract_z
Si Si1 0.705758 0.500000 0.941407
Si Si2 0.132608 0.500000 0.307334
Si Si3 0.026501 0.674095 0.165790
Si Si4 0.115594 0.721933 0.527362
Si Si5 0.687685 0.888456 0.815626
O O1 0.766628 0.500000 0.829525
O O2 0.851193 0.595874 0.870434
O O3 0.402551 0.500000 0.160063
O O4 0.967694 0.603892 0.426289
O O5 0.796020 0.735761 0.352029
O O6 0.948312 0.619283 0.156706
O O7 0.250000 0.750000 0.000000
O O8 0.250000 0.750000 0.500000
O O9 0.868561 0.792062 0.695482
O O10 0.820273 0.000000 0.728887
O O11 0.500000 0.883694 0.000000
#
# Coordination Sequence:
#
# PCOD9222205 Si02
#       5
#     4   4   8   8   8
#     4  11  24  45  74 104 147 191 231 298 360 429
#     4  11  26  47  72 109 147 190 238 291 366 434
#     4  12  25  46  71 108 143 186 240 293 360 425
#     4  12  26  44  74 105 145 190 239 292 358 430
#     4  11  26  46  72 105 142 185 238 298 353 422
#
# _framework density 20.909738999999998
#
# number of rings (size 3 to 8) (size 9 to 14) (size 15 to 20)
#    0.000    0.500    3.750    3.750    7.000    2.000 
#    0.000    3.750    0.000    0.000    0.000    0.000 
#    0.000    0.000    0.000    0.000    0.000    0.000 
#
# Total GULP energy -89439.353744 kJ/mol
# GULP energy per Si atom -5589.959609 kJ/mol
# Density = 2.086215 g / cm^3
# Si number density = 20.909739 Si / 1000 Ang^3
#
#
#
# Elastic Constant Matrix: (Units=GPa)
#
#
# Indices 1 2 3 4 5 6 
#
# 1 105.2530 30.4799 34.8246 -0.0064 -0.6377 -0.0110
# 2 30.4799 204.1670 77.6589 -0.0068 -6.6849 -0.0034
# 3 34.8246 77.6589 106.4041 -0.0547 9.0667 -0.0083
# 4 -0.0064 -0.0068 -0.0547 34.9096 0.0060 -1.6479
# 5 -0.6377 -6.6849 9.0667 0.0060 39.5514 0.0018
# 6 -0.0110 -0.0034 -0.0083 -1.6479 0.0018 34.0283
#
#
#
# Elastic Compliance Matrix: (Units=1/GPa)
#
#
# Indices 1 2 3 4 5 6 
#
# 1 0.010705 -0.000287 -0.003371 -0.000003 0.000897 0.000002
# 2 -0.000287 0.007004 -0.005221 -0.000007 0.002376 -0.000001
# 3 -0.003371 -0.005221 0.014678 0.000022 -0.004302 0.000003
# 4 -0.000003 -0.000007 0.000022 0.028711 -0.000011 0.001390
# 5 0.000897 0.002376 -0.004302 -0.000011 0.026686 -0.000002
# 6 0.000002 -0.000001 0.000003 0.001390 -0.000002 0.029455
#
#
# Mechanical properties :
#
#
# Convention : Reuss Voigt Hill
#
# Bulk Modulus (GPa) = 68.34797 77.97232 73.16015
# Shear Modulus (GPa) = 35.74699 39.88857 37.81778
#
# Velocity S-wave (km/s) = 4.13920 4.37241 4.25740
# Velocity P-wave (km/s) = 7.45668 7.92853 7.69622
#
# Compressibility (1/GPa) = 0.01463101
#
# Stress axis : x y z
#
# Youngs Moduli (GPa) = 93.41777 142.76803 68.12788
#
# Poissons Ratio (x) = 0.04092 0.22964
# Poissons Ratio (y) = 0.02677 0.35568
# Poissons Ratio (z) = 0.31489 0.74536
#
# Static dielectric constant tensor:
#      x y z
#    x 2.154630 -0.000240 -0.058410 
#    y -0.000240 1.743790 0.000040 
#    z -0.058410 0.000040 1.707370 
# 
# From -- ./inp_files/223680.got.cif
#   From: 2010.05.17/outbox.cif.g08.bks.cpg/sg12_112_cif.got.tgz:223680.got - 2010.06.03 13:09:07.
