data_PCOD9222241
_publ_section_title
;
Structure prediction by ZEFSAII (Michael W. Deem and Ramdas Pophale) SiO2 
 PCOD9222241
Probable space group: C 2/M
;
_chemical_formula_sum "Si O2"
_cell_formula_units_Z 20
_cell_length_a 11.355179
_cell_length_b 9.781311
_cell_length_c 9.678544
_cell_angle_alpha 90.000000
_cell_angle_beta 47.457712
_cell_angle_gamma 90.000000
_cell_volume 792.023430
_symmetry_space_group_name_H-M "C 2/M"
_symmetry_group_IT_number 12
_symmetry_cell_setting 'monoclinic'
loop_
_space_group_symop_operation_xyz
x,y,z
-x,y,-z
-x,-y,-z
x,-y,z
1/2+x,1/2+y,z
1/2-x,1/2+y,-z
1/2-x,1/2-y,-z
1/2+x,1/2-y,z
loop_
_atom_site_type_symbol
_atom_site_label
_atom_site_fract_x
_atom_site_fract_y
_atom_site_fract_z
Si Si1 0.902066 0.000000 0.720348
Si Si2 0.686216 0.000000 0.331846
Si Si3 0.061159 0.791908 0.796729
Si Si4 0.081574 0.500000 0.112904
O O1 0.000000 0.000000 0.500000
O O2 0.960201 0.868931 0.760455
O O3 0.709243 0.000000 0.884954
O O4 0.500000 0.000000 0.500000
O O5 0.766848 0.865473 0.335149
O O6 0.695554 0.000000 0.157909
O O7 0.028018 0.633562 0.799673
O O8 0.000000 0.823134 0.000000
#
# Coordination Sequence:
#
# PCOD9222241 Si02
#       4
#     4   4   8   4
#     4  11  24  48  84 119 160 208 265 324 394 468
#     4  11  26  50  79 114 161 209 262 329 386 461
#     4  11  24  52  80 112 157 209 265 315 393 473
#     4  12  25  49  84 115 159 212 256 329 393 462
#
# _framework density 25.251778999999999
#
# number of rings (size 3 to 8) (size 9 to 14) (size 15 to 20)
#    0.000    0.800    4.000    3.000    0.000    3.200 
#   14.400    1.000    0.000    0.000    0.000    0.000 
#    0.000    0.000    0.000    0.000    0.000    0.000 
#
# Total GULP energy -56030.093758 kJ/mol
# GULP energy per Si atom -5603.009376 kJ/mol
# Density = 2.519431 g / cm^3
# Si number density = 25.251779 Si / 1000 Ang^3
#
#
#
# Elastic Constant Matrix: (Units=GPa)
#
#
# Indices 1 2 3 4 5 6 
#
# 1 135.6058 129.7317 30.7743 0.0000 -17.0377 0.0000
# 2 129.7317 273.1286 76.9022 0.0000 -22.5262 0.0000
# 3 30.7743 76.9022 147.3067 0.0000 -7.1417 0.0000
# 4 0.0000 0.0000 0.0000 1.9323 0.0000 7.7863
# 5 -17.0377 -22.5262 -7.1417 0.0000 65.0950 0.0000
# 6 0.0000 0.0000 0.0000 7.7863 0.0000 12.9424
#
#
#
# Elastic Compliance Matrix: (Units=1/GPa)
#
#
# Indices 1 2 3 4 5 6 
#
# 1 0.013684 -0.006565 0.000635 0.000000 0.001380 0.000000
# 2 -0.006565 0.007544 -0.002537 0.000000 0.000614 0.000000
# 3 0.000635 -0.002537 0.007988 0.000000 0.000165 0.000000
# 4 0.000000 0.000000 0.000000 -0.363372 0.000000 0.218608
# 5 0.001380 0.000614 0.000165 0.000000 0.015954 0.000000
# 6 0.000000 0.000000 0.000000 0.218608 0.000000 -0.054251
#
#
# Mechanical properties :
#
#
# Convention : Reuss Voigt Hill
#
# Bulk Modulus (GPa) = 81.41236 114.53970 97.97603
# Shear Modulus (GPa) = -14.22779 37.23614 11.50417
#
# Velocity S-wave (km/s) = -2.37626 3.84421 2.13674
# Velocity P-wave (km/s) = 4.97810 8.07227 6.70608
#
# Compressibility (1/GPa) = 0.01228315
#
# Stress axis : x y z
#
# Youngs Moduli (GPa) = 73.07933 132.54730 125.18008
#
# Poissons Ratio (x) = 0.87013 -0.07952
# Poissons Ratio (y) = 0.47974 0.31763
# Poissons Ratio (z) = -0.04643 0.33633
#
# Static dielectric constant tensor:
#      x y z
#    x 1.959900 0.000000 0.049710 
#    y 0.000000 1.960530 0.000000 
#    z 0.049710 0.000000 2.108240 
# 
# From -- ./inp_files/42934.got.cif
#   From: 2010.05.17/outbox.cif.g08.bks.cpg/sg12_22_cif.got.tgz:42934.got - 2010.06.03 13:09:07.
