data_PCOD9222751
_publ_section_title
;
Structure prediction by ZEFSAII (Michael W. Deem and Ramdas Pophale) SiO2 
 PCOD9222751
Probable space group: C 2/M
;
_chemical_formula_sum "Si O2"
_cell_formula_units_Z 42
_cell_length_a 29.260020
_cell_length_b 7.906858
_cell_length_c 12.126888
_cell_angle_alpha 90.000000
_cell_angle_beta 138.632825
_cell_angle_gamma 90.000000
_cell_volume 1854.179853
_symmetry_space_group_name_H-M "C 2/M"
_symmetry_group_IT_number 12
_symmetry_cell_setting 'monoclinic'
loop_
_space_group_symop_operation_xyz
x,y,z
-x,y,-z
-x,-y,-z
x,-y,z
1/2+x,1/2+y,z
1/2-x,1/2+y,-z
1/2-x,1/2-y,-z
1/2+x,1/2-y,z
loop_
_atom_site_type_symbol
_atom_site_label
_atom_site_fract_x
_atom_site_fract_y
_atom_site_fract_z
Si Si1 0.680210 0.806265 0.118050
Si Si2 0.906572 0.203555 0.232536
Si Si3 0.000000 0.500000 0.000000
Si Si4 0.940214 0.204978 0.542875
Si Si5 0.893763 0.186097 0.810063
Si Si6 0.318462 0.195503 0.476974
O O1 0.759131 0.770509 0.291554
O O2 0.664522 0.000000 0.115886
O O3 0.657617 0.771760 0.952279
O O4 0.632890 0.695338 0.113087
O O5 0.912483 0.253405 0.371064
O O6 0.979231 0.256442 0.306969
O O7 0.904749 0.000000 0.227495
O O8 0.058165 0.347993 0.122036
O O9 0.891452 0.282840 0.546142
O O10 0.937517 0.000000 0.546500
O O11 0.923646 0.000000 0.840984
O O12 0.828660 0.209705 0.610588
O O13 0.303040 0.000000 0.467648
#
# Coordination Sequence:
#
# PCOD9222751 Si02
#       6
#     8   8   2   8   8   8
#     4  12  25  43  65  95 132 175 227 274 333 405
#     4   9  20  40  65  94 128 169 218 274 338 400
#     4  12  26  48  68 110 130 180 224 264 328 404
#     4   9  20  40  65  94 128 169 218 274 338 400
#     4  12  26  46  70 101 141 174 218 278 330 387
#     4  12  25  43  65  95 132 175 227 274 333 405
#
# _framework density 22.651523000000001
#
# number of rings (size 3 to 8) (size 9 to 14) (size 15 to 20)
#    0.000    1.143    1.905    5.429    2.667    2.286 
#    0.000    1.905    0.000    0.000    0.000    0.000 
#    0.000    0.000    0.000    0.000    0.000    0.000 
#
# Total GULP energy -117234.559798 kJ/mol
# GULP energy per Si atom -5582.598086 kJ/mol
# Density = 2.259997 g / cm^3
# Si number density = 22.651523 Si / 1000 Ang^3
#
#
#
# Elastic Constant Matrix: (Units=GPa)
#
#
# Indices 1 2 3 4 5 6 
#
# 1 36.5047 3.8200 3.9860 0.0000 -5.1964 0.0000
# 2 3.8200 142.5459 46.7576 0.0000 -4.5798 0.0000
# 3 3.9860 46.7576 327.1794 0.0000 -78.2883 0.0000
# 4 0.0000 0.0000 0.0000 -73.5323 0.0000 -16.2742
# 5 -5.1964 -4.5798 -78.2883 0.0000 39.6928 0.0000
# 6 0.0000 0.0000 0.0000 -16.2742 0.0000 22.9402
#
#
#
# Elastic Compliance Matrix: (Units=1/GPa)
#
#
# Indices 1 2 3 4 5 6 
#
# 1 0.028217 -0.000968 0.001234 0.000000 0.006017 0.000000
# 2 -0.000968 0.007508 -0.001675 0.000000 -0.002563 0.000000
# 3 0.001234 -0.001675 0.006199 0.000000 0.012194 0.000000
# 4 0.000000 0.000000 0.000000 -0.011754 0.000000 -0.008338
# 5 0.006017 -0.002563 0.012194 0.000000 0.049736 0.000000
# 6 0.000000 0.000000 0.000000 -0.008338 0.000000 0.037676
#
#
# Mechanical properties :
#
#
# Convention : Reuss Voigt Hill
#
# Bulk Modulus (GPa) = 25.57065 68.37301 46.97183
# Shear Modulus (GPa) = 37.47177 27.93122 32.70150
#
# Velocity S-wave (km/s) = 4.07169 3.51534 3.80370
# Velocity P-wave (km/s) = 5.78084 6.83572 6.33029
#
# Compressibility (1/GPa) = 0.03910734
#
# Stress axis : x y z
#
# Youngs Moduli (GPa) = 35.44001 133.18874 161.32870
#
# Poissons Ratio (x) = 0.12889 -0.19911
# Poissons Ratio (y) = 0.03429 0.27015
# Poissons Ratio (z) = -0.04374 0.22303
#
# Static dielectric constant tensor:
#      x y z
#    x 1.828200 0.000000 0.003460 
#    y 0.000000 1.804470 0.000000 
#    z 0.003460 0.000000 1.833290 
# 
# From -- ./inp_files/244462.got.cif
#   From: 2010.05.17/outbox.cif.g08.bks.cpg/sg12_123_cif.got.tgz:244462.got - 2010.06.03 13:09:07.
