data_PCOD9222893
_publ_section_title
;
Structure prediction by ZEFSAII (Michael W. Deem and Ramdas Pophale) SiO2 
 PCOD9222893
Probable space group: C 2/M
;
_chemical_formula_sum "Si O2"
_cell_formula_units_Z 48
_cell_length_a 28.607530
_cell_length_b 7.410611
_cell_length_c 14.311757
_cell_angle_alpha 90.000000
_cell_angle_beta 120.018333
_cell_angle_gamma 90.000000
_cell_volume 2627.106657
_symmetry_space_group_name_H-M "C 2/M"
_symmetry_group_IT_number 12
_symmetry_cell_setting 'monoclinic'
loop_
_space_group_symop_operation_xyz
x,y,z
-x,y,-z
-x,-y,-z
x,-y,z
1/2+x,1/2+y,z
1/2-x,1/2+y,-z
1/2-x,1/2-y,-z
1/2+x,1/2-y,z
loop_
_atom_site_type_symbol
_atom_site_label
_atom_site_fract_x
_atom_site_fract_y
_atom_site_fract_z
Si Si1 0.270661 0.782156 0.665159
Si Si2 0.438840 0.779760 0.331439
Si Si3 0.938840 0.720240 0.546242
Si Si4 0.770662 0.282156 0.876164
Si Si5 0.336828 0.786517 0.117301
Si Si6 0.663172 0.786517 0.443646
O O1 0.278394 0.717258 0.778394
O O2 0.313583 0.714498 0.631147
O O3 0.211467 0.736514 0.566471
O O4 0.273951 0.000000 0.669652
O O5 0.500000 0.725133 0.368679
O O6 0.427771 0.725934 0.427771
O O7 0.392265 0.714409 0.215638
O O8 0.437963 0.000000 0.329898
O O9 0.937964 0.500000 0.546029
O O10 0.892266 0.785591 0.568894
O O11 0.773952 0.500000 0.878250
O O12 0.711467 0.236514 0.856463
O O13 0.813583 0.214498 0.996019
O O14 0.344834 0.000000 0.111821
O O15 0.655166 0.000000 0.422153
#
# Coordination Sequence:
#
# PCOD9222893 Si02
#       6
#     8   8   8   8   8   8
#     4   9  17  27  38  55  80 104 123 151 192 227
#     4   8  13  21  35  56  77  94 118 156 193 218
#     4   8  13  21  35  56  77  94 118 156 193 218
#     4   9  17  27  38  55  80 104 123 151 192 227
#     4   9  16  26  41  58  75  99 130 157 182 221
#     4   9  16  26  41  58  75  99 130 157 182 221
#
# _framework density 18.271051
#
# number of rings (size 3 to 8) (size 9 to 14) (size 15 to 20)
#    0.000    3.333    0.000    2.000    0.000    2.000 
#    0.000    0.000    0.000    2.000    0.000   11.667 
#    0.000    0.000    0.000   16.667    0.000   18.000 
#
# Total GULP energy -133778.602798 kJ/mol
# GULP energy per Si atom -5574.108450 kJ/mol
# Density = 1.822946 g / cm^3
# Si number density = 18.271051 Si / 1000 Ang^3
#
#
#
# Elastic Constant Matrix: (Units=GPa)
#
#
# Indices 1 2 3 4 5 6 
#
# 1 142.5130 -10.0019 91.0830 0.0000 -0.4918 0.0000
# 2 -10.0019 53.6902 -9.2839 0.0000 -0.5352 0.0000
# 3 91.0830 -9.2839 145.2015 0.0000 -1.5082 0.0000
# 4 0.0000 0.0000 0.0000 4.9347 0.0000 2.7034
# 5 -0.4918 -0.5352 -1.5082 0.0000 26.8013 0.0000
# 6 0.0000 0.0000 0.0000 2.7034 0.0000 8.5665
#
#
#
# Elastic Compliance Matrix: (Units=1/GPa)
#
#
# Indices 1 2 3 4 5 6 
#
# 1 0.011759 0.000923 -0.007319 0.000000 -0.000178 0.000000
# 2 0.000923 0.018911 0.000635 0.000000 0.000430 0.000000
# 3 -0.007319 0.000635 0.011524 0.000000 0.000527 0.000000
# 4 0.000000 0.000000 0.000000 0.245003 0.000000 -0.077317
# 5 -0.000178 0.000430 0.000527 0.000000 0.037347 0.000000
# 6 0.000000 0.000000 0.000000 -0.077317 0.000000 0.141133
#
#
# Mechanical properties :
#
#
# Convention : Reuss Voigt Hill
#
# Bulk Modulus (GPa) = 32.60329 53.88878 43.24604
# Shear Modulus (GPa) = 10.25804 26.03435 18.14619
#
# Velocity S-wave (km/s) = 2.37204 3.77887 3.15487
# Velocity P-wave (km/s) = 5.03836 6.97122 6.08206
#
# Compressibility (1/GPa) = 0.03067175
#
# Stress axis : x y z
#
# Youngs Moduli (GPa) = 85.04292 52.87830 86.77470
#
# Poissons Ratio (x) = -0.04882 0.63510
# Poissons Ratio (y) = -0.07851 -0.05506
# Poissons Ratio (z) = 0.62242 -0.03355
#
# Static dielectric constant tensor:
#      x y z
#    x 1.614990 0.000000 -0.006960 
#    y 0.000000 1.717680 0.000000 
#    z -0.006960 0.000000 1.624340 
# 
# From -- ./inp_files/79467.got.cif
#   From: 2010.05.17/outbox.cif.g08.bks.cpg/sg12_40_cif.got.tgz:79467.got - 2010.06.03 13:09:07.
