data_PCOD9222316
_publ_section_title
;
Structure prediction by ZEFSAII (Michael W. Deem and Ramdas Pophale) SiO2 
 PCOD9222316
Probable space group: C 2/M
;
_chemical_formula_sum "Si O2"
_cell_formula_units_Z 56
_cell_length_a 23.336951
_cell_length_b 14.917291
_cell_length_c 8.152736
_cell_angle_alpha 90.000000
_cell_angle_beta 55.947467
_cell_angle_gamma 90.000000
_cell_volume 2351.488280
_symmetry_space_group_name_H-M "C 2/M"
_symmetry_group_IT_number 12
_symmetry_cell_setting 'monoclinic'
loop_
_space_group_symop_operation_xyz
x,y,z
-x,y,-z
-x,-y,-z
x,-y,z
1/2+x,1/2+y,z
1/2-x,1/2+y,-z
1/2-x,1/2-y,-z
1/2+x,1/2-y,z
loop_
_atom_site_type_symbol
_atom_site_label
_atom_site_fract_x
_atom_site_fract_y
_atom_site_fract_z
Si Si1 0.419017 0.287705 0.454586
Si Si2 0.261333 0.098895 0.778265
Si Si3 0.339378 0.099504 0.126506
Si Si4 0.909239 0.600225 0.372542
Si Si5 0.151244 0.778676 0.080109
Si Si6 0.307813 0.599660 0.467878
Si Si7 0.965650 0.104226 0.876838
O O1 0.449223 0.190429 0.356074
O O2 0.381792 0.286429 0.688311
O O3 0.359690 0.320510 0.423605
O O4 0.478710 0.360466 0.342571
O O5 0.341421 0.105502 0.598768
O O6 0.223479 0.103479 0.662844
O O7 0.248893 0.000000 0.870591
O O8 0.226539 0.175403 0.941595
O O9 0.382623 0.107927 0.227238
O O10 0.258916 0.104774 0.308147
O O11 0.353272 0.000000 0.037713
O O12 0.352859 0.178370 0.979847
O O13 0.939956 0.500000 0.342195
O O14 0.102340 0.838196 0.040847
O O15 0.340640 0.500000 0.436206
O O16 0.949777 0.000000 0.883097
O O17 0.000000 0.118033 0.000000
#
# Coordination Sequence:
#
# PCOD9222316 Si02
#       7
#     8   8   8   8   8   8   8
#     4  12  24  36  55  85 119 150 181 228 289 342
#     4   9  18  34  57  84 114 151 194 234 272 323
#     4   9  19  37  60  84 112 150 195 236 271 319
#     4   9  19  37  60  84 112 150 195 236 271 319
#     4  12  24  36  55  85 119 150 181 228 289 342
#     4   9  18  34  57  84 114 151 194 234 272 323
#     4  11  25  45  66  83 104 143 193 236 272 323
#
# _framework density 23.814706000000001
#
# number of rings (size 3 to 8) (size 9 to 14) (size 15 to 20)
#    0.000    1.857    0.000    6.429    0.000   10.286 
#    0.000    3.571    0.000    4.286    0.000    0.000 
#    0.000    0.000    0.000    0.000    0.000    0.000 
#
# Total GULP energy -156800.015080 kJ/mol
# GULP energy per Si atom -5600.000539 kJ/mol
# Density = 2.376050 g / cm^3
# Si number density = 23.814706 Si / 1000 Ang^3
#
#
#
# Elastic Constant Matrix: (Units=GPa)
#
#
# Indices 1 2 3 4 5 6 
#
# 1 32.7975 26.9672 -0.4048 0.0000 11.3233 0.0000
# 2 26.9672 148.5252 41.4285 0.0000 23.4845 0.0000
# 3 -0.4048 41.4285 93.9093 0.0000 13.9896 0.0000
# 4 0.0000 0.0000 0.0000 37.8492 0.0000 19.0973
# 5 11.3233 23.4845 13.9896 0.0000 16.5613 0.0000
# 6 0.0000 0.0000 0.0000 19.0973 0.0000 -219.1270
#
#
#
# Elastic Compliance Matrix: (Units=1/GPa)
#
#
# Indices 1 2 3 4 5 6 
#
# 1 0.045100 -0.005571 0.006943 0.000000 -0.028800 0.000000
# 2 -0.005571 0.009817 -0.003259 0.000000 -0.007359 0.000000
# 3 0.006943 -0.003259 0.013882 0.000000 -0.011852 0.000000
# 4 0.000000 0.000000 0.000000 0.025308 0.000000 0.002206
# 5 -0.028800 -0.007359 -0.011852 0.000000 0.100519 0.000000
# 6 0.000000 0.000000 0.000000 0.002206 0.000000 -0.004371
#
#
# Mechanical properties :
#
#
# Convention : Reuss Voigt Hill
#
# Bulk Modulus (GPa) = 15.37900 45.69041 30.53470
# Shear Modulus (GPa) = 23.17996 -19.12721 2.02638
#
# Velocity S-wave (km/s) = 3.12323 -2.83710 0.92344
# Velocity P-wave (km/s) = 4.41338 2.91467 3.73987
#
# Compressibility (1/GPa) = 0.06502374
#
# Stress axis : x y z
#
# Youngs Moduli (GPa) = 22.17300 101.86492 72.03776
#
# Poissons Ratio (x) = 0.56752 -0.50012
# Poissons Ratio (y) = 0.12353 0.23474
# Poissons Ratio (z) = -0.15394 0.33193
#
# Static dielectric constant tensor:
#      x y z
#    x 1.935000 0.000000 -0.017270 
#    y 0.000000 1.919780 0.000000 
#    z -0.017270 0.000000 1.883450 
# 
# From -- ./inp_files/111566.got.cif
#   From: 2010.05.17/outbox.cif.g08.bks.cpg/sg12_56_cif.got.tgz:111566.got - 2010.06.03 13:09:07.
