data_PCOD9222447
_publ_section_title
;
Structure prediction by ZEFSAII (Michael W. Deem and Ramdas Pophale) SiO2 
 PCOD9222447
Probable space group: C 2/M
;
_chemical_formula_sum "Si O2"
_cell_formula_units_Z 40
_cell_length_a 9.606647
_cell_length_b 20.228005
_cell_length_c 10.778233
_cell_angle_alpha 90.000000
_cell_angle_beta 76.723280
_cell_angle_gamma 90.000000
_cell_volume 2038.481621
_symmetry_space_group_name_H-M "C 2/M"
_symmetry_group_IT_number 12
_symmetry_cell_setting 'monoclinic'
loop_
_space_group_symop_operation_xyz
x,y,z
-x,y,-z
-x,-y,-z
x,-y,z
1/2+x,1/2+y,z
1/2-x,1/2+y,-z
1/2-x,1/2-y,-z
1/2+x,1/2-y,z
loop_
_atom_site_type_symbol
_atom_site_label
_atom_site_fract_x
_atom_site_fract_y
_atom_site_fract_z
Si Si1 0.871573 0.500000 0.122379
Si Si2 0.102540 0.366981 0.729767
Si Si3 0.330574 0.500000 0.053123
Si Si4 0.667259 0.421711 0.496305
Si Si5 0.854173 0.757794 0.096487
Si Si6 0.727732 0.116930 0.253601
O O1 0.883838 0.434617 0.198292
O O2 0.728481 0.500000 0.073246
O O3 0.000000 0.500000 0.000000
O O4 0.229010 0.373607 0.603385
O O5 0.121874 0.307247 0.823609
O O6 0.942900 0.369806 0.705054
O O7 0.268396 0.563082 0.140124
O O8 0.500000 0.500000 0.000000
O O9 0.500000 0.409683 0.500000
O O10 0.695157 0.500000 0.463055
O O11 0.706682 0.409035 0.631402
O O12 0.798128 0.814767 0.197381
O O13 0.750000 0.750000 0.000000
O O14 0.000000 0.777657 0.000000
#
# Coordination Sequence:
#
# PCOD9222447 Si02
#       6
#     4   8   4   8   8   8
#     4  12  22  41  70 101 135 174 235 288 340 416
#     4  12  25  45  72 101 138 186 232 285 347 412
#     4  12  26  39  68 105 137 176 233 288 352 408
#     4  11  27  46  71 105 140 180 234 294 347 404
#     4  12  26  46  70 104 147 182 227 284 348 417
#     4  12  25  46  71 100 140 186 231 285 348 412
#
# _framework density 19.622447999999999
#
# number of rings (size 3 to 8) (size 9 to 14) (size 15 to 20)
#    0.000    0.200    6.000    3.000    5.600    1.600 
#    0.000    0.000    0.000    0.000    0.000    0.000 
#    0.000    0.000    0.000    0.000    0.000    0.000 
#
# Total GULP energy -111797.408927 kJ/mol
# GULP energy per Si atom -5589.870446 kJ/mol
# Density = 1.957779 g / cm^3
# Si number density = 19.622448 Si / 1000 Ang^3
#
#
#
# Elastic Constant Matrix: (Units=GPa)
#
#
# Indices 1 2 3 4 5 6 
#
# 1 183.6557 30.3380 44.0322 0.0000 0.1308 0.0000
# 2 30.3380 106.2298 20.9523 0.0000 0.6140 0.0000
# 3 44.0322 20.9523 72.5579 0.0000 -1.2613 0.0000
# 4 0.0000 0.0000 0.0000 74.5361 0.0000 -16.7725
# 5 0.1308 0.6140 -1.2613 0.0000 42.0203 0.0000
# 6 0.0000 0.0000 0.0000 -16.7725 0.0000 27.3593
#
#
#
# Elastic Compliance Matrix: (Units=1/GPa)
#
#
# Indices 1 2 3 4 5 6 
#
# 1 0.006501 -0.001143 -0.003617 0.000000 -0.000112 0.000000
# 2 -0.001143 0.010185 -0.002251 0.000000 -0.000213 0.000000
# 3 -0.003617 -0.002251 0.016637 0.000000 0.000544 0.000000
# 4 0.000000 0.000000 0.000000 0.015563 0.000000 0.009541
# 5 -0.000112 -0.000213 0.000544 0.000000 0.023818 0.000000
# 6 0.000000 0.000000 0.000000 0.009541 0.000000 0.042400
#
#
# Mechanical properties :
#
#
# Convention : Reuss Voigt Hill
#
# Bulk Modulus (GPa) = 51.81199 61.45428 56.63313
# Shear Modulus (GPa) = 36.88412 46.59120 41.73766
#
# Velocity S-wave (km/s) = 4.34024 4.87805 4.61698
# Velocity P-wave (km/s) = 7.18183 7.94440 7.57272
#
# Compressibility (1/GPa) = 0.01930055
#
# Stress axis : x y z
#
# Youngs Moduli (GPa) = 153.82186 98.18215 60.10763
#
# Poissons Ratio (x) = 0.11218 0.21742
# Poissons Ratio (y) = 0.17575 0.13533
# Poissons Ratio (z) = 0.55641 0.22106
#
# Static dielectric constant tensor:
#      x y z
#    x 2.021760 0.000000 0.158250 
#    y 0.000000 1.663400 0.000000 
#    z 0.158250 0.000000 1.816330 
# 
# From -- ./inp_files/118990.got.cif
#   From: 2010.05.17/outbox.cif.g08.bks.cpg/sg12_60_cif.got.tgz:118990.got - 2010.06.03 13:09:07.
