data_PCOD9222270
_publ_section_title
;
Structure prediction by ZEFSAII (Michael W. Deem and Ramdas Pophale) SiO2 
 PCOD9222270
Probable space group: C 2/M
;
_chemical_formula_sum "Si O2"
_cell_formula_units_Z 32
_cell_length_a 14.034270
_cell_length_b 11.607699
_cell_length_c 8.884606
_cell_angle_alpha 90.000000
_cell_angle_beta 112.597987
_cell_angle_gamma 90.000000
_cell_volume 1336.229612
_symmetry_space_group_name_H-M "C 2/M"
_symmetry_group_IT_number 12
_symmetry_cell_setting 'monoclinic'
loop_
_space_group_symop_operation_xyz
x,y,z
-x,y,-z
-x,-y,-z
x,-y,z
1/2+x,1/2+y,z
1/2-x,1/2+y,-z
1/2-x,1/2-y,-z
1/2+x,1/2-y,z
loop_
_atom_site_type_symbol
_atom_site_label
_atom_site_fract_x
_atom_site_fract_y
_atom_site_fract_z
Si Si1 0.337094 0.131526 0.909561
Si Si2 0.722961 0.870682 0.569603
Si Si3 0.439681 0.675302 0.814948
Si Si4 0.879349 0.238197 0.249418
O O1 0.409249 0.191945 0.830247
O O2 0.217680 0.152293 0.792732
O O3 0.360034 0.000000 0.941150
O O4 0.357689 0.197338 0.078164
O O5 0.750000 0.750000 0.500000
O O6 0.829088 0.881886 0.729571
O O7 0.630986 0.831263 0.624522
O O8 0.705343 0.000000 0.491569
O O9 0.513561 0.672650 0.715327
O O10 0.500000 0.633362 0.000000
#
# Coordination Sequence:
#
# PCOD9222270 Si02
#       4
#     8   8   8   8
#     4   9  17  31  55  88 122 150 185 241 303 359
#     4  11  25  43  61  86 124 165 205 249 298 356
#     4   9  20  38  62  93 119 148 196 250 302 358
#     4   9  19  35  56  85 117 155 198 242 297 355
#
# _framework density 23.947979
#
# number of rings (size 3 to 8) (size 9 to 14) (size 15 to 20)
#    0.000    2.500    0.000    2.250    0.000   12.000 
#    0.000    2.500    0.000    0.000    0.000    0.000 
#    0.000    0.000    0.000    0.000    0.000    0.000 
#
# Total GULP energy -89243.193421 kJ/mol
# GULP energy per Si atom -5577.699589 kJ/mol
# Density = 2.389347 g / cm^3
# Si number density = 23.947979 Si / 1000 Ang^3
#
#
#
# Elastic Constant Matrix: (Units=GPa)
#
#
# Indices 1 2 3 4 5 6 
#
# 1 128.7055 -4.4985 4.8379 0.0000 -14.8127 0.0000
# 2 -4.4985 110.5444 8.5559 0.0000 -6.0373 0.0000
# 3 4.8379 8.5559 43.4786 0.0000 -4.4360 0.0000
# 4 0.0000 0.0000 0.0000 16.2451 0.0000 -5.2221
# 5 -14.8127 -6.0373 -4.4360 0.0000 36.2462 0.0000
# 6 0.0000 0.0000 0.0000 -5.2221 0.0000 -6.9810
#
#
#
# Elastic Compliance Matrix: (Units=1/GPa)
#
#
# Indices 1 2 3 4 5 6 
#
# 1 0.008202 0.000570 -0.000682 0.000000 0.003364 0.000000
# 2 0.000570 0.009289 -0.001731 0.000000 0.001568 0.000000
# 3 -0.000682 -0.001731 0.023654 0.000000 0.002328 0.000000
# 4 0.000000 0.000000 0.000000 0.049624 0.000000 -0.037121
# 5 0.003364 0.001568 0.002328 0.000000 0.029510 0.000000
# 6 0.000000 0.000000 0.000000 -0.037121 0.000000 -0.115477
#
#
# Mechanical properties :
#
#
# Convention : Reuss Voigt Hill
#
# Bulk Modulus (GPa) = 26.69541 33.39099 30.04320
# Shear Modulus (GPa) = 238.39196 27.35761 132.87478
#
# Velocity S-wave (km/s) = 9.98809 3.38357 7.45689
# Velocity P-wave (km/s) = 12.00780 5.40723 9.31197
#
# Compressibility (1/GPa) = 0.03745962
#
# Stress axis : x y z
#
# Youngs Moduli (GPa) = 121.91628 107.65421 42.27631
#
# Poissons Ratio (x) = -0.06139 0.02882
# Poissons Ratio (y) = -0.06952 0.07320
# Poissons Ratio (z) = 0.08311 0.18639
#
# Static dielectric constant tensor:
#      x y z
#    x 1.936620 0.000000 0.035780 
#    y 0.000000 1.911750 0.000000 
#    z 0.035780 0.000000 2.021190 
# 
# From -- ./inp_files/56489.got.cif
#   From: 2010.05.17/outbox.cif.g08.bks.cpg/sg12_29_cif.got.tgz:56489.got - 2010.06.03 13:09:07.
