data_PCOD9222050
_publ_section_title
;
Structure prediction by ZEFSAII (Michael W. Deem and Ramdas Pophale) SiO2 
 PCOD9222050
Probable space group: C 2/M
;
_chemical_formula_sum "Si O2"
_cell_formula_units_Z 40
_cell_length_a 24.304023
_cell_length_b 12.865942
_cell_length_c 6.569530
_cell_angle_alpha 90.000000
_cell_angle_beta 105.311144
_cell_angle_gamma 90.000000
_cell_volume 1981.340082
_symmetry_space_group_name_H-M "C 2/M"
_symmetry_group_IT_number 12
_symmetry_cell_setting 'monoclinic'
loop_
_space_group_symop_operation_xyz
x,y,z
-x,y,-z
-x,-y,-z
x,-y,z
1/2+x,1/2+y,z
1/2-x,1/2+y,-z
1/2-x,1/2-y,-z
1/2+x,1/2-y,z
loop_
_atom_site_type_symbol
_atom_site_label
_atom_site_fract_x
_atom_site_fract_y
_atom_site_fract_z
Si Si1 0.150532 0.500000 0.911718
Si Si2 0.000000 0.818137 0.000000
Si Si3 0.160691 0.000000 0.648595
Si Si4 0.463394 0.500000 0.664522
Si Si5 0.718166 0.500000 0.105880
Si Si6 0.802895 0.822252 0.589503
Si Si7 0.900465 0.672072 0.839656
Si Si8 0.438236 0.000000 0.552508
O O1 0.218102 0.500000 0.927434
O O2 0.111740 0.500000 0.668414
O O3 0.132639 0.598842 0.032759
O O4 0.978599 0.896805 0.805495
O O5 0.947801 0.741642 0.999288
O O6 0.190386 0.103877 0.598189
O O7 0.101125 0.000000 0.473589
O O8 0.166555 0.000000 0.894273
O O9 0.500000 0.500000 0.500000
O O10 0.709978 0.399301 0.237137
O O11 0.750000 0.750000 0.500000
O O12 0.857194 0.751136 0.689294
O O13 0.929552 0.598814 0.695335
O O14 0.500000 0.000000 0.500000
#
# Coordination Sequence:
#
# PCOD9222050 Si02
#       8
#     4   4   4   4   4   8   8   4
#     4  11  24  43  65  98 137 172 218 275 325 392
#     4  11  24  45  66  96 130 175 218 269 340 388
#     4  11  24  45  65 100 135 171 219 274 332 385
#     4  11  26  42  68  97 132 169 222 275 325 401
#     4  11  26  42  70  99 134 176 223 271 325 404
#     4  11  24  44  67  95 135 175 219 271 328 388
#     4  11  24  42  67  96 133 173 216 276 328 389
#     4  11  24  43  66  97 134 172 223 273 331 393
#
# _framework density 20.188355999999999
#
# number of rings (size 3 to 8) (size 9 to 14) (size 15 to 20)
#    0.000    1.000    2.000    3.600    2.800   12.000 
#    0.000    0.000    0.000    0.000    0.000    0.000 
#    0.000    0.000    0.000    0.000    0.000    0.000 
#
# Total GULP energy -111803.906294 kJ/mol
# GULP energy per Si atom -5590.195315 kJ/mol
# Density = 2.014241 g / cm^3
# Si number density = 20.188356 Si / 1000 Ang^3
#
#
#
# Elastic Constant Matrix: (Units=GPa)
#
#
# Indices 1 2 3 4 5 6 
#
# 1 83.5965 49.4624 10.3861 0.0000 3.3231 0.0000
# 2 49.4624 151.0792 42.7473 0.0000 0.5399 0.0000
# 3 10.3861 42.7473 96.6910 0.0000 5.2761 0.0000
# 4 0.0000 0.0000 0.0000 -30.8000 0.0000 13.5558
# 5 3.3231 0.5399 5.2761 0.0000 40.6254 0.0000
# 6 0.0000 0.0000 0.0000 13.5558 0.0000 39.5501
#
#
#
# Elastic Compliance Matrix: (Units=1/GPa)
#
#
# Indices 1 2 3 4 5 6 
#
# 1 0.014932 -0.005086 0.000713 0.000000 -0.001246 0.000000
# 2 -0.005086 0.009302 -0.003608 0.000000 0.000761 0.000000
# 3 0.000713 -0.003608 0.011946 0.000000 -0.001562 0.000000
# 4 0.000000 0.000000 0.000000 -0.028212 0.000000 0.009670
# 5 -0.001246 0.000761 -0.001562 0.000000 0.024910 0.000000
# 6 0.000000 0.000000 0.000000 0.009670 0.000000 0.021970
#
#
# Mechanical properties :
#
#
# Convention : Reuss Voigt Hill
#
# Bulk Modulus (GPa) = 49.46012 59.61758 54.53885
# Shear Modulus (GPa) = 64.47404 25.12651 44.80027
#
# Velocity S-wave (km/s) = 5.65735 3.53172 4.71586
# Velocity P-wave (km/s) = 8.19918 6.79894 7.53167
#
# Compressibility (1/GPa) = 0.02021831
#
# Stress axis : x y z
#
# Youngs Moduli (GPa) = 66.96805 107.50103 83.71068
#
# Poissons Ratio (x) = 0.54675 -0.05965
# Poissons Ratio (y) = 0.34060 0.30201
# Poissons Ratio (z) = -0.04772 0.38784
#
# Static dielectric constant tensor:
#      x y z
#    x 1.722530 0.000000 0.013630 
#    y 0.000000 1.706120 0.000000 
#    z 0.013630 0.000000 1.695570 
# 
# From -- ./inp_files/27549.got.cif
#   From: 2010.05.17/outbox.cif.g08.bks.cpg/sg12_14_cif.got.tgz:27549.got - 2010.06.03 13:09:07.
