data_PCOD9222277
_publ_section_title
;
Structure prediction by ZEFSAII (Michael W. Deem and Ramdas Pophale) SiO2 
 PCOD9222277
Probable space group: C 2/M
;
_chemical_formula_sum "Si O2"
_cell_formula_units_Z 64
_cell_length_a 14.747578
_cell_length_b 18.839819
_cell_length_c 17.503016
_cell_angle_alpha 90.000000
_cell_angle_beta 140.419700
_cell_angle_gamma 90.000000
_cell_volume 3098.547498
_symmetry_space_group_name_H-M "C 2/M"
_symmetry_group_IT_number 12
_symmetry_cell_setting 'monoclinic'
loop_
_space_group_symop_operation_xyz
x,y,z
-x,y,-z
-x,-y,-z
x,-y,z
1/2+x,1/2+y,z
1/2-x,1/2+y,-z
1/2-x,1/2-y,-z
1/2+x,1/2-y,z
loop_
_atom_site_type_symbol
_atom_site_label
_atom_site_fract_x
_atom_site_fract_y
_atom_site_fract_z
Si Si1 0.059715 0.288270 0.954720
Si Si2 0.643159 0.715690 0.779289
Si Si3 0.859179 0.165496 0.763659
Si Si4 0.167804 0.784656 0.618031
Si Si5 0.954218 0.919908 0.688437
Si Si6 0.228197 0.579283 0.408058
Si Si7 0.672280 0.583426 0.113434
Si Si8 0.066787 0.641533 0.800090
O O1 0.041549 0.342627 0.873287
O O2 0.984499 0.216029 0.877217
O O3 0.226217 0.279492 0.077682
O O4 0.000000 0.307923 0.000000
O O5 0.698099 0.716463 0.728286
O O6 0.560654 0.642121 0.733064
O O7 0.551754 0.784324 0.743584
O O8 0.758352 0.217248 0.648693
O O9 0.914709 0.101377 0.748622
O O10 0.779763 0.130202 0.783259
O O11 0.215753 0.857268 0.609500
O O12 0.000000 0.775449 0.500000
O O13 0.817552 0.916017 0.544294
O O14 0.011412 0.000000 0.720765
O O15 0.254226 0.500000 0.393076
O O16 0.060189 0.590978 0.309748
O O17 0.695316 0.500000 0.138043
O O18 0.775484 0.610608 0.113104
O O19 0.500000 0.593738 0.000000
#
# Coordination Sequence:
#
# PCOD9222277 Si02
#       8
#     8   8   8   8   8   8   8   8
#     4  12  23  41  69 104 133 175 222 279 343 397
#     4  12  23  40  69  97 133 171 228 277 333 398
#     4  12  23  42  67  96 136 171 224 283 336 400
#     4  12  24  41  69 101 128 175 228 282 330 398
#     4  11  26  43  64  96 136 178 222 280 341 401
#     4  11  25  45  66  94 134 182 228 275 344 405
#     4  11  25  43  66 100 138 179 223 271 340 412
#     4  12  23  43  70 101 133 178 225 283 332 404
#
# _framework density 20.65484
#
# number of rings (size 3 to 8) (size 9 to 14) (size 15 to 20)
#    0.000    0.375    6.250    2.250    3.500    1.750 
#    0.000    0.625    0.000    5.625    0.000    0.000 
#    0.000    0.000    0.000    0.000    0.000    0.000 
#
# Total GULP energy -178774.050109 kJ/mol
# GULP energy per Si atom -5586.689066 kJ/mol
# Density = 2.060783 g / cm^3
# Si number density = 20.654840 Si / 1000 Ang^3
#
#
#
# Elastic Constant Matrix: (Units=GPa)
#
#
# Indices 1 2 3 4 5 6 
#
# 1 74.0945 35.8426 15.6724 0.0002 -7.9831 0.0000
# 2 35.8426 145.2810 38.5132 0.0002 9.6389 0.0000
# 3 15.6724 38.5132 91.3665 0.0002 14.8780 0.0001
# 4 0.0002 0.0002 0.0002 28.8886 0.0002 0.1874
# 5 -7.9831 9.6389 14.8780 0.0002 34.6210 0.0001
# 6 0.0000 0.0000 0.0001 0.1874 0.0001 26.3203
#
#
#
# Elastic Compliance Matrix: (Units=1/GPa)
#
#
# Indices 1 2 3 4 5 6 
#
# 1 0.016445 -0.003877 -0.002129 0.000000 0.005786 0.000000
# 2 -0.003877 0.008684 -0.002641 0.000000 -0.002177 0.000000
# 3 -0.002129 -0.002641 0.013315 0.000000 -0.005478 0.000000
# 4 0.000000 0.000000 0.000000 0.034617 0.000000 -0.000246
# 5 0.005786 -0.002177 -0.005478 0.000000 0.033178 0.000000
# 6 0.000000 0.000000 0.000000 -0.000246 0.000000 0.037995
#
#
# Mechanical properties :
#
#
# Convention : Reuss Voigt Hill
#
# Bulk Modulus (GPa) = 47.27882 54.53318 50.90600
# Shear Modulus (GPa) = 29.65943 32.68023 31.16983
#
# Velocity S-wave (km/s) = 3.79351 3.98201 3.88890
# Velocity P-wave (km/s) = 6.49055 6.89937 6.69808
#
# Compressibility (1/GPa) = 0.02115112
#
# Stress axis : x y z
#
# Youngs Moduli (GPa) = 60.80724 115.15111 75.10084
#
# Poissons Ratio (x) = 0.44642 0.15989
# Poissons Ratio (y) = 0.23574 0.19835
# Poissons Ratio (z) = 0.12946 0.30413
#
# Static dielectric constant tensor:
#      x y z
#    x 1.800920 0.000000 0.023670 
#    y 0.000000 1.724480 0.000000 
#    z 0.023670 0.000000 1.750670 
# 
# From -- ./inp_files/271747.got.cif
#   From: 2010.05.17/outbox.cif.g08.bks.cpg/sg12_136_cif.got.tgz:271747.got - 2010.06.03 13:09:07.
