data_PCOD9222328
_publ_section_title
;
Structure prediction by ZEFSAII (Michael W. Deem and Ramdas Pophale) SiO2 
 PCOD9222328
Probable space group: C 2/M
;
_chemical_formula_sum "Si O2"
_cell_formula_units_Z 36
_cell_length_a 10.696403
_cell_length_b 25.930694
_cell_length_c 4.846784
_cell_angle_alpha 90.000000
_cell_angle_beta 87.772609
_cell_angle_gamma 90.000000
_cell_volume 1343.313279
_symmetry_space_group_name_H-M "C 2/M"
_symmetry_group_IT_number 12
_symmetry_cell_setting 'monoclinic'
loop_
_space_group_symop_operation_xyz
x,y,z
-x,y,-z
-x,-y,-z
x,-y,z
1/2+x,1/2+y,z
1/2-x,1/2+y,-z
1/2-x,1/2-y,-z
1/2+x,1/2-y,z
loop_
_atom_site_type_symbol
_atom_site_label
_atom_site_fract_x
_atom_site_fract_y
_atom_site_fract_z
Si Si1 0.123424 0.305189 0.179831
Si Si2 0.665681 0.417996 0.318105
Si Si3 0.000000 0.000000 0.000000
Si Si4 0.834516 0.417817 0.780187
Si Si5 0.380103 0.694782 0.809138
Si Si6 0.500000 0.000000 0.500000
O O1 0.131947 0.360199 0.324735
O O2 0.251669 0.304690 0.993925
O O3 0.119093 0.250589 0.339577
O O4 0.000000 0.306877 0.000000
O O5 0.718961 0.437336 0.602552
O O6 0.564599 0.454792 0.191223
O O7 0.782824 0.417967 0.094223
O O8 0.622618 0.358721 0.353122
O O9 0.945697 0.455459 0.710876
O O10 0.500000 0.693068 0.000000
#
# Coordination Sequence:
#
# PCOD9222328 Si02
#       6
#     8   8   2   8   8   2
#     4   9  20  40  71 102 147 186 244 297 372 434
#     4  11  25  45  70 104 142 184 245 297 372 433
#     4  12  24  46  76 100 142 196 234 312 358 450
#     4  11  27  45  68 103 140 188 241 306 360 443
#     4   9  18  40  68 106 139 190 237 306 362 439
#     4  12  28  46  72 100 144 194 244 302 364 440
#
# _framework density 26.799410999999999
#
# number of rings (size 3 to 8) (size 9 to 14) (size 15 to 20)
#    0.000    1.778    1.111    1.333    6.222    3.556 
#    0.000    0.000    0.000    0.000    0.000    0.000 
#    0.000    0.000    0.000    0.000    0.000    0.000 
#
# Total GULP energy -100366.967328 kJ/mol
# GULP energy per Si atom -5575.942629 kJ/mol
# Density = 2.673841 g / cm^3
# Si number density = 26.799411 Si / 1000 Ang^3
#
#
#
# Elastic Constant Matrix: (Units=GPa)
#
#
# Indices 1 2 3 4 5 6 
#
# 1 165.5455 19.7001 54.4077 0.0000 -1.9325 0.0000
# 2 19.7001 254.2850 17.5857 0.0000 0.5817 0.0000
# 3 54.4077 17.5857 76.7496 0.0000 6.3458 0.0000
# 4 0.0000 0.0000 0.0000 29.0714 0.0000 13.4943
# 5 -1.9325 0.5817 6.3458 0.0000 73.0627 0.0000
# 6 0.0000 0.0000 0.0000 13.4943 0.0000 36.1802
#
#
#
# Elastic Compliance Matrix: (Units=1/GPa)
#
#
# Indices 1 2 3 4 5 6 
#
# 1 0.007924 -0.000227 -0.005623 0.000000 0.000700 0.000000
# 2 -0.000227 0.004003 -0.000759 0.000000 0.000028 0.000000
# 3 -0.005623 -0.000759 0.017326 0.000000 -0.001647 0.000000
# 4 0.000000 0.000000 0.000000 0.041600 0.000000 -0.015516
# 5 0.000700 0.000028 -0.001647 0.000000 0.013848 0.000000
# 6 0.000000 0.000000 0.000000 -0.015516 0.000000 0.033426
#
#
# Mechanical properties :
#
#
# Convention : Reuss Voigt Hill
#
# Bulk Modulus (GPa) = 62.36341 75.55188 68.95765
# Shear Modulus (GPa) = 36.57937 54.65529 45.61733
#
# Velocity S-wave (km/s) = 3.69851 4.52089 4.13022
# Velocity P-wave (km/s) = 6.44667 7.45011 6.96648
#
# Compressibility (1/GPa) = 0.01603504
#
# Stress axis : x y z
#
# Youngs Moduli (GPa) = 126.20118 249.83990 57.71774
#
# Poissons Ratio (x) = 0.05661 0.32456
# Poissons Ratio (y) = 0.02860 0.04380
# Poissons Ratio (z) = 0.70965 0.18958
#
# Static dielectric constant tensor:
#      x y z
#    x 2.160570 0.000000 -0.025060 
#    y 0.000000 2.058050 0.000000 
#    z -0.025060 0.000000 2.033800 
# 
# From -- ./inp_files/7443.got.cif
#   From: 2010.05.17/outbox.cif.g08.bks.cpg/sg12_4_cif.got.tgz:7443.got - 2010.06.03 13:09:07.
