data_PCOD9222304
_publ_section_title
;
Structure prediction by ZEFSAII (Michael W. Deem and Ramdas Pophale) SiO2 
 PCOD9222304
Probable space group: C 2/M
;
_chemical_formula_sum "Si O2"
_cell_formula_units_Z 24
_cell_length_a 12.546245
_cell_length_b 14.374887
_cell_length_c 5.243980
_cell_angle_alpha 90.000000
_cell_angle_beta 74.631827
_cell_angle_gamma 90.000000
_cell_volume 911.938646
_symmetry_space_group_name_H-M "C 2/M"
_symmetry_group_IT_number 12
_symmetry_cell_setting 'monoclinic'
loop_
_space_group_symop_operation_xyz
x,y,z
-x,y,-z
-x,-y,-z
x,-y,z
1/2+x,1/2+y,z
1/2-x,1/2+y,-z
1/2-x,1/2-y,-z
1/2+x,1/2-y,z
loop_
_atom_site_type_symbol
_atom_site_label
_atom_site_fract_x
_atom_site_fract_y
_atom_site_fract_z
Si Si1 0.276873 0.610032 0.956763
Si Si2 0.405519 0.654863 0.384112
Si Si3 0.963639 0.650476 0.771694
O O1 0.256103 0.500000 0.937804
O O2 0.365096 0.619118 0.134754
O O3 0.166966 0.661263 0.125663
O O4 0.308755 0.650596 0.657675
O O5 0.500000 0.605131 0.500000
O O6 0.461963 0.754832 0.289001
O O7 0.000000 0.598596 0.500000
O O8 0.000000 0.600731 0.000000
#
# Coordination Sequence:
#
# PCOD9222304 Si02
#       3
#     8   8   8
#     4  12  27  46  70 104 143 180 226 290 353 404
#     4  11  25  44  71 102 138 183 233 281 340 416
#     4  11  25  44  72 103 137 182 235 283 338 414
#
# _framework density 26.317561999999999
#
# number of rings (size 3 to 8) (size 9 to 14) (size 15 to 20)
#    0.000    0.667    0.000    8.000    0.000   24.000 
#    0.000    0.000    0.000    0.000    0.000    0.000 
#    0.000    0.000    0.000    0.000    0.000    0.000 
#
# Total GULP energy -67055.686911 kJ/mol
# GULP energy per Si atom -5587.973909 kJ/mol
# Density = 2.625766 g / cm^3
# Si number density = 26.317562 Si / 1000 Ang^3
#
#
#
# Elastic Constant Matrix: (Units=GPa)
#
#
# Indices 1 2 3 4 5 6 
#
# 1 112.6823 18.8667 47.3486 0.0000 6.7013 0.0000
# 2 18.8667 183.0397 48.7431 0.0000 -8.3018 0.0000
# 3 47.3486 48.7431 255.5824 0.0000 7.1549 0.0000
# 4 0.0000 0.0000 0.0000 -100.5602 0.0000 8.3111
# 5 6.7013 -8.3018 7.1549 0.0000 72.1574 0.0000
# 6 0.0000 0.0000 0.0000 8.3111 0.0000 89.0281
#
#
#
# Elastic Compliance Matrix: (Units=1/GPa)
#
#
# Indices 1 2 3 4 5 6 
#
# 1 0.009722 -0.000595 -0.001665 0.000000 -0.000806 0.000000
# 2 -0.000595 0.005835 -0.001026 0.000000 0.000828 0.000000
# 3 -0.001665 -0.001026 0.004428 0.000000 -0.000402 0.000000
# 4 0.000000 0.000000 0.000000 -0.009868 0.000000 0.000921
# 5 -0.000806 0.000828 -0.000402 0.000000 0.014069 0.000000
# 6 0.000000 0.000000 0.000000 0.000921 0.000000 0.011146
#
#
# Mechanical properties :
#
#
# Convention : Reuss Voigt Hill
#
# Bulk Modulus (GPa) = 74.55400 86.80237 80.67819
# Shear Modulus (GPa) = 107.81663 41.21478 74.51571
#
# Velocity S-wave (km/s) = 6.40753 3.96164 5.32687
# Velocity P-wave (km/s) = 9.11768 7.34713 8.27987
#
# Compressibility (1/GPa) = 0.01341310
#
# Stress axis : x y z
#
# Youngs Moduli (GPa) = 102.86253 171.36812 225.83688
#
# Poissons Ratio (x) = 0.10201 0.37600
# Poissons Ratio (y) = 0.06123 0.23166
# Poissons Ratio (z) = 0.17126 0.17579
#
# Static dielectric constant tensor:
#      x y z
#    x 2.152650 0.000000 -0.028830 
#    y 0.000000 2.047850 0.000000 
#    z -0.028830 0.000000 2.166880 
# 
# From -- ./inp_files/9377.got.cif
#   From: 2010.05.17/outbox.cif.g08.bks.cpg/sg12_5_cif.got.tgz:9377.got - 2010.06.03 13:09:07.
