data_PCOD9222011
_publ_section_title
;
Structure prediction by ZEFSAII (Michael W. Deem and Ramdas Pophale) SiO2 
 PCOD9222011
Probable space group: C 2/M
;
_chemical_formula_sum "Si O2"
_cell_formula_units_Z 28
_cell_length_a 14.126967
_cell_length_b 11.504556
_cell_length_c 7.182996
_cell_angle_alpha 90.000000
_cell_angle_beta 64.014484
_cell_angle_gamma 90.000000
_cell_volume 1049.392930
_symmetry_space_group_name_H-M "C 2/M"
_symmetry_group_IT_number 12
_symmetry_cell_setting 'monoclinic'
loop_
_space_group_symop_operation_xyz
x,y,z
-x,y,-z
-x,-y,-z
x,-y,z
1/2+x,1/2+y,z
1/2-x,1/2+y,-z
1/2-x,1/2-y,-z
1/2+x,1/2-y,z
loop_
_atom_site_type_symbol
_atom_site_label
_atom_site_fract_x
_atom_site_fract_y
_atom_site_fract_z
Si Si1 0.139046 0.251382 0.496753
Si Si2 0.750000 0.250000 0.000000
Si Si3 0.844922 0.500000 0.990940
Si Si4 0.585167 0.000000 0.659426
Si Si5 0.074152 0.861120 0.178748
O O1 0.250000 0.250000 0.500000
O O2 0.104066 0.384026 0.528077
O O3 0.150200 0.199426 0.276610
O O4 0.042505 0.177753 0.665871
O O5 0.790553 0.386463 0.957430
O O6 0.635725 0.291393 0.969794
O O7 0.840616 0.500000 0.220940
O O8 0.966508 0.500000 0.832271
O O9 0.076201 0.000000 0.171176
#
# Coordination Sequence:
#
# PCOD9222011 Si02
#       5
#     8   4   4   4   8
#     4  11  24  41  69  99 134 180 224 284 340 411
#     4  12  22  44  72 100 134 178 228 282 346 402
#     4  11  24  43  73  97 139 179 223 293 334 413
#     4  11  24  44  66  99 135 177 234 273 350 401
#     4  11  25  45  69  98 139 181 228 282 349 406
#
# _framework density 26.682092000000001
#
# number of rings (size 3 to 8) (size 9 to 14) (size 15 to 20)
#    0.000    0.857    4.286    3.429    4.000    3.429 
#    0.000    0.000    6.286    8.571    0.000    0.000 
#    0.000    0.000    0.000    0.000    0.000    0.000 
#
# Total GULP energy -78178.889527 kJ/mol
# GULP energy per Si atom -5584.206395 kJ/mol
# Density = 2.662136 g / cm^3
# Si number density = 26.682092 Si / 1000 Ang^3
#
#
#
# Elastic Constant Matrix: (Units=GPa)
#
#
# Indices 1 2 3 4 5 6 
#
# 1 157.6009 42.5081 57.3680 0.0000 -27.1556 0.0000
# 2 42.5081 278.8803 43.4704 0.0000 -46.3230 0.0000
# 3 57.3680 43.4704 122.1751 0.0000 -23.3149 0.0000
# 4 0.0000 0.0000 0.0000 48.8025 0.0000 -26.4850
# 5 -27.1556 -46.3230 -23.3149 0.0000 51.9814 0.0000
# 6 0.0000 0.0000 0.0000 -26.4850 0.0000 11.7817
#
#
#
# Elastic Compliance Matrix: (Units=1/GPa)
#
#
# Indices 1 2 3 4 5 6 
#
# 1 0.008014 -0.000314 -0.003178 0.000000 0.002482 0.000000
# 2 -0.000314 0.004304 -0.000747 0.000000 0.003337 0.000000
# 3 -0.003178 -0.000747 0.010388 0.000000 0.002333 0.000000
# 4 0.000000 0.000000 0.000000 -0.093152 0.000000 -0.209403
# 5 0.002482 0.003337 0.002333 0.000000 0.024554 0.000000
# 6 0.000000 0.000000 0.000000 -0.209403 0.000000 -0.385856
#
#
# Mechanical properties :
#
#
# Convention : Reuss Voigt Hill
#
# Bulk Modulus (GPa) = 70.28161 93.92771 82.10466
# Shear Modulus (GPa) = -11.94669 50.20042 19.12687
#
# Velocity S-wave (km/s) = -2.11829 4.34225 2.68030
# Velocity P-wave (km/s) = 4.51826 7.77297 6.35743
#
# Compressibility (1/GPa) = 0.01422847
#
# Stress axis : x y z
#
# Youngs Moduli (GPa) = 124.77891 232.32389 96.26203
#
# Poissons Ratio (x) = 0.07296 0.30590
# Poissons Ratio (y) = 0.03918 0.07194
# Poissons Ratio (z) = 0.39652 0.17362
#
# Static dielectric constant tensor:
#      x y z
#    x 2.413780 0.000000 -0.074390 
#    y 0.000000 1.968770 0.000000 
#    z -0.074390 0.000000 2.672070 
# 
# From -- ./inp_files/56418.got.cif
#   From: 2010.05.17/outbox.cif.g08.bks.cpg/sg12_29_cif.got.tgz:56418.got - 2010.06.03 13:09:07.
