data_PCOD9222102
_publ_section_title
;
Structure prediction by ZEFSAII (Michael W. Deem and Ramdas Pophale) SiO2 
 PCOD9222102
Probable space group: C 2/M
;
_chemical_formula_sum "Si O2"
_cell_formula_units_Z 40
_cell_length_a 8.930720
_cell_length_b 18.804827
_cell_length_c 13.247378
_cell_angle_alpha 90.000000
_cell_angle_beta 46.458213
_cell_angle_gamma 90.000000
_cell_volume 1612.676126
_symmetry_space_group_name_H-M "C 2/M"
_symmetry_group_IT_number 12
_symmetry_cell_setting 'monoclinic'
loop_
_space_group_symop_operation_xyz
x,y,z
-x,y,-z
-x,-y,-z
x,-y,z
1/2+x,1/2+y,z
1/2-x,1/2+y,-z
1/2-x,1/2-y,-z
1/2+x,1/2-y,z
loop_
_atom_site_type_symbol
_atom_site_label
_atom_site_fract_x
_atom_site_fract_y
_atom_site_fract_z
Si Si1 0.354119 0.677631 0.791185
Si Si2 0.558355 0.872916 0.076901
Si Si3 0.484994 0.187842 0.621354
Si Si4 0.632347 0.418428 0.541413
Si Si5 0.285101 0.421362 0.158729
O O1 0.279789 0.859296 0.735557
O O2 0.481486 0.608502 0.699987
O O3 0.143621 0.675882 0.820908
O O4 0.259204 0.671113 0.946761
O O5 0.613980 0.915943 0.148978
O O6 0.500000 0.914719 0.000000
O O7 0.500000 0.214837 0.500000
O O8 0.476222 0.252780 0.702780
O O9 0.675021 0.134601 0.549820
O O10 0.500000 0.413216 0.500000
O O11 0.697742 0.500000 0.524303
O O12 0.282542 0.500000 0.206048
O O13 0.500000 0.412219 0.000000
#
# Coordination Sequence:
#
# PCOD9222102 Si02
#       5
#     8   8   8   8   8
#     4   9  22  43  71 102 135 181 238 292 350 410
#     4   8  22  44  72 102 130 180 238 295 343 412
#     4  12  27  44  70 102 147 190 236 287 352 425
#     4  11  24  43  67  98 140 185 237 294 347 416
#     4  11  26  46  69 102 146 190 235 291 355 419
#
# _framework density 24.803491999999999
#
# number of rings (size 3 to 8) (size 9 to 14) (size 15 to 20)
#    1.200    0.400    0.000    3.000    5.600    7.600 
#    0.000    0.000    0.000    0.000    0.000    0.000 
#    0.000    0.000    0.000    0.000    0.000    0.000 
#
# Total GULP energy -111826.616658 kJ/mol
# GULP energy per Si atom -5591.330833 kJ/mol
# Density = 2.474704 g / cm^3
# Si number density = 24.803492 Si / 1000 Ang^3
#
#
#
# Elastic Constant Matrix: (Units=GPa)
#
#
# Indices 1 2 3 4 5 6 
#
# 1 64.3150 9.3549 0.2375 0.0000 0.3903 0.0000
# 2 9.3549 123.0059 32.0274 0.0001 -14.4468 0.0001
# 3 0.2375 32.0274 85.2360 0.0000 -17.0685 -0.0001
# 4 0.0000 0.0001 0.0000 94.4863 0.0000 104.5041
# 5 0.3903 -14.4468 -17.0685 0.0000 41.2561 0.0000
# 6 0.0000 0.0001 -0.0001 104.5041 0.0000 158.6527
#
#
#
# Elastic Compliance Matrix: (Units=1/GPa)
#
#
# Indices 1 2 3 4 5 6 
#
# 1 0.015746 -0.001349 0.000369 0.000000 -0.000469 0.000000
# 2 -0.001349 0.009267 -0.003081 0.000000 0.001983 0.000000
# 3 0.000369 -0.003081 0.013817 0.000000 0.004634 0.000000
# 4 0.000000 0.000000 0.000000 0.038987 0.000000 -0.025680
# 5 -0.000469 0.001983 0.004634 0.000000 0.026855 0.000000
# 6 0.000000 0.000000 0.000000 -0.025680 0.000000 0.023219
#
#
# Mechanical properties :
#
#
# Convention : Reuss Voigt Hill
#
# Bulk Modulus (GPa) = 32.56424 39.53293 36.04858
# Shear Modulus (GPa) = 34.18828 74.27481 54.23155
#
# Velocity S-wave (km/s) = 3.71666 5.47817 4.68102
# Velocity P-wave (km/s) = 5.61921 7.48243 6.61673
#
# Compressibility (1/GPa) = 0.03070853
#
# Stress axis : x y z
#
# Youngs Moduli (GPa) = 63.50768 107.90419 72.37540
#
# Poissons Ratio (x) = 0.14553 -0.02671
# Poissons Ratio (y) = 0.08565 0.22302
# Poissons Ratio (z) = -0.02344 0.33249
#
# Static dielectric constant tensor:
#      x y z
#    x 2.005970 0.000000 -0.015620 
#    y 0.000000 1.925290 0.000000 
#    z -0.015620 0.000000 1.971270 
# 
# From -- ./inp_files/205520.got.cif
#   From: 2010.05.17/outbox.cif.g08.bks.cpg/sg12_103_cif.got.tgz:205520.got - 2010.06.03 13:09:07.
