data_PCOD9222197
_publ_section_title
;
Structure prediction by ZEFSAII (Michael W. Deem and Ramdas Pophale) SiO2 
 PCOD9222197
Probable space group: C 2/M
;
_chemical_formula_sum "Si O2"
_cell_formula_units_Z 64
_cell_length_a 29.930706
_cell_length_b 15.283371
_cell_length_c 8.437154
_cell_angle_alpha 90.000000
_cell_angle_beta 133.591475
_cell_angle_gamma 90.000000
_cell_volume 2795.344027
_symmetry_space_group_name_H-M "C 2/M"
_symmetry_group_IT_number 12
_symmetry_cell_setting 'monoclinic'
loop_
_space_group_symop_operation_xyz
x,y,z
-x,y,-z
-x,-y,-z
x,-y,z
1/2+x,1/2+y,z
1/2-x,1/2+y,-z
1/2-x,1/2-y,-z
1/2+x,1/2-y,z
loop_
_atom_site_type_symbol
_atom_site_label
_atom_site_fract_x
_atom_site_fract_y
_atom_site_fract_z
Si Si1 0.180093 0.309538 0.057979
Si Si2 0.501050 0.779616 0.689768
Si Si3 0.367400 0.244799 0.375699
Si Si4 0.698682 0.601747 0.666526
Si Si5 0.197101 0.595077 0.607843
Si Si6 0.100545 0.404339 0.079851
Si Si7 0.033924 0.899445 0.910946
Si Si8 0.180346 0.859004 0.259362
O O1 0.241737 0.345708 0.129268
O O2 0.185246 0.242782 0.218920
O O3 0.140734 0.257697 0.832295
O O4 0.143950 0.393537 0.032317
O O5 0.500000 0.803542 0.500000
O O6 0.432274 0.795876 0.582378
O O7 0.549601 0.830653 0.919115
O O8 0.511706 0.676268 0.738900
O O9 0.359407 0.343131 0.416044
O O10 0.316862 0.180837 0.326299
O O11 0.697104 0.500000 0.701054
O O12 0.703232 0.617306 0.490043
O O13 0.185700 0.500000 0.656974
O O14 0.268436 0.597768 0.728493
O O15 0.148556 0.602223 0.342761
O O16 0.071046 0.500000 0.015631
O O17 0.019898 0.000000 0.833336
O O18 0.108812 0.888251 0.090611
O O19 0.000000 0.884528 0.000000
#
# Coordination Sequence:
#
# PCOD9222197 Si02
#       8
#     8   8   8   8   8   8   8   8
#     4  12  23  45  70  99 140 181 221 284 347 407
#     4  12  26  47  68  95 137 188 230 281 343 406
#     4  12  27  45  68 101 142 180 231 283 349 406
#     4  12  25  43  70 104 140 180 223 279 347 414
#     4  11  25  44  71 105 138 174 225 290 348 408
#     4  11  24  45  72 100 132 179 234 283 341 410
#     4  11  25  44  71 103 136 181 234 281 331 401
#     4  12  22  44  73 100 137 180 229 277 342 409
#
# _framework density 22.895213999999999
#
# number of rings (size 3 to 8) (size 9 to 14) (size 15 to 20)
#    0.000    0.375    5.000    3.750    1.750    3.500 
#    0.000    3.750    0.000    0.000    0.000    0.000 
#    0.000    0.000    0.000    0.000    0.000    0.000 
#
# Total GULP energy -178737.619622 kJ/mol
# GULP energy per Si atom -5585.550613 kJ/mol
# Density = 2.284310 g / cm^3
# Si number density = 22.895214 Si / 1000 Ang^3
#
#
#
# Elastic Constant Matrix: (Units=GPa)
#
#
# Indices 1 2 3 4 5 6 
#
# 1 81.9096 28.2146 24.9653 0.0000 25.5969 0.0000
# 2 28.2146 146.9648 19.1352 0.0000 -3.2856 0.0000
# 3 24.9653 19.1352 40.5719 0.0000 15.4496 0.0000
# 4 0.0000 0.0000 0.0000 4.1616 0.0000 18.8043
# 5 25.5969 -3.2856 15.4496 0.0000 29.6598 0.0000
# 6 0.0000 0.0000 0.0000 18.8043 0.0000 -8.6982
#
#
#
# Elastic Compliance Matrix: (Units=1/GPa)
#
#
# Indices 1 2 3 4 5 6 
#
# 1 0.019425 -0.003440 -0.004742 0.000000 -0.014675 0.000000
# 2 -0.003440 0.008114 -0.003971 0.000000 0.005936 0.000000
# 3 -0.004742 -0.003971 0.034987 0.000000 -0.014572 0.000000
# 4 0.000000 0.000000 0.000000 0.022315 0.000000 0.048241
# 5 -0.014675 0.005936 -0.014572 0.000000 0.054628 0.000000
# 6 0.000000 0.000000 0.000000 0.048241 0.000000 -0.010676
#
#
# Mechanical properties :
#
#
# Convention : Reuss Voigt Hill
#
# Bulk Modulus (GPa) = 26.16383 46.00850 36.08616
# Shear Modulus (GPa) = 30.14971 18.16671 24.15821
#
# Velocity S-wave (km/s) = 3.63279 2.81992 3.25185
# Velocity P-wave (km/s) = 5.38968 5.54450 5.46764
#
# Compressibility (1/GPa) = 0.03822071
#
# Stress axis : x y z
#
# Youngs Moduli (GPa) = 51.48079 123.23711 28.58170
#
# Poissons Ratio (x) = 0.42391 0.13554
# Poissons Ratio (y) = 0.17708 0.11349
# Poissons Ratio (z) = 0.24414 0.48935
#
# Static dielectric constant tensor:
#      x y z
#    x 1.896520 0.000000 0.042700 
#    y 0.000000 1.837740 0.000000 
#    z 0.042700 0.000000 1.901750 
# 
# From -- ./inp_files/112024.got.cif
#   From: 2010.05.17/outbox.cif.g08.bks.cpg/sg12_57_cif.got.tgz:112024.got - 2010.06.03 13:09:07.
