data_PCOD9222671
_publ_section_title
;
Structure prediction by ZEFSAII (Michael W. Deem and Ramdas Pophale) SiO2 
 PCOD9222671
Probable space group: C 2/M
;
_chemical_formula_sum "Si O2"
_cell_formula_units_Z 32
_cell_length_a 5.409417
_cell_length_b 23.281249
_cell_length_c 11.065113
_cell_angle_alpha 90.000000
_cell_angle_beta 79.323278
_cell_angle_gamma 90.000000
_cell_volume 1369.393647
_symmetry_space_group_name_H-M "C 2/M"
_symmetry_group_IT_number 12
_symmetry_cell_setting 'monoclinic'
loop_
_space_group_symop_operation_xyz
x,y,z
-x,y,-z
-x,-y,-z
x,-y,z
1/2+x,1/2+y,z
1/2-x,1/2+y,-z
1/2-x,1/2-y,-z
1/2+x,1/2-y,z
loop_
_atom_site_type_symbol
_atom_site_label
_atom_site_fract_x
_atom_site_fract_y
_atom_site_fract_z
Si Si1 0.916564 0.103251 0.645656
Si Si2 0.128286 0.563868 0.233510
Si Si3 0.362009 0.733399 0.692728
Si Si4 0.718602 0.178617 0.077801
O O1 0.645777 0.073063 0.681072
O O2 0.883959 0.165688 0.711185
O O3 0.000000 0.112108 0.500000
O O4 0.142811 0.070944 0.692654
O O5 0.137538 0.500000 0.179244
O O6 0.166630 0.615456 0.136114
O O7 0.629157 0.756112 0.627081
O O8 0.306351 0.774327 0.813287
O O9 0.500000 0.189625 0.000000
O O10 0.000000 0.179985 0.000000
#
# Coordination Sequence:
#
# PCOD9222671 Si02
#       4
#     8   8   8   8
#     4  12  26  48  74 104 142 185 230 286 359 413
#     4  12  27  50  71 103 143 180 244 294 333 412
#     4  12  23  45  69 106 142 177 231 284 349 422
#     4  12  26  45  73 101 143 187 230 282 355 413
#
# _framework density 23.368008
#
# number of rings (size 3 to 8) (size 9 to 14) (size 15 to 20)
#    0.000    0.000    5.000    4.500    0.000    8.000 
#    0.000    0.000    0.000    0.000    0.000    0.000 
#    0.000    0.000    0.000    0.000    0.000    0.000 
#
# Total GULP energy -89634.125714 kJ/mol
# GULP energy per Si atom -5602.132857 kJ/mol
# Density = 2.331482 g / cm^3
# Si number density = 23.368008 Si / 1000 Ang^3
#
#
#
# Elastic Constant Matrix: (Units=GPa)
#
#
# Indices 1 2 3 4 5 6 
#
# 1 242.6142 33.7812 54.9527 0.0000 -22.9672 0.0000
# 2 33.7812 188.2879 53.8053 0.0000 -19.5324 0.0000
# 3 54.9527 53.8053 122.6192 0.0000 -28.0424 0.0000
# 4 0.0000 0.0000 0.0000 -245.1587 0.0000 -38.4204
# 5 -22.9672 -19.5324 -28.0424 0.0000 26.0662 0.0000
# 6 0.0000 0.0000 0.0000 -38.4204 0.0000 0.8170
#
#
#
# Elastic Compliance Matrix: (Units=1/GPa)
#
#
# Indices 1 2 3 4 5 6 
#
# 1 0.004711 -0.000170 -0.001481 0.000000 0.002430 0.000000
# 2 -0.000170 0.006178 -0.002136 0.000000 0.002182 0.000000
# 3 -0.001481 -0.002136 0.012059 0.000000 0.010068 0.000000
# 4 0.000000 0.000000 0.000000 -0.000487 0.000000 -0.022918
# 5 0.002430 0.002182 0.010068 0.000000 0.052971 0.000000
# 6 0.000000 0.000000 0.000000 -0.022918 0.000000 0.146239
#
#
# Mechanical properties :
#
#
# Convention : Reuss Voigt Hill
#
# Bulk Modulus (GPa) = 65.04258 93.17775 79.11016
# Shear Modulus (GPa) = 21.33391 -16.25629 2.53881
#
# Velocity S-wave (km/s) = 3.02479 -2.64041 1.04346
# Velocity P-wave (km/s) = 6.33195 5.53760 5.94805
#
# Compressibility (1/GPa) = 0.01537454
#
# Stress axis : x y z
#
# Youngs Moduli (GPa) = 212.27278 161.85954 82.92857
#
# Poissons Ratio (x) = 0.02750 0.12281
# Poissons Ratio (y) = 0.03607 0.17712
# Poissons Ratio (z) = 0.31435 0.34570
#
# Static dielectric constant tensor:
#      x y z
#    x 1.927560 0.000000 0.011230 
#    y 0.000000 1.841290 0.000000 
#    z 0.011230 0.000000 1.865660 
# 
# From -- ./inp_files/114807.got.cif
#   From: 2010.05.17/outbox.cif.g08.bks.cpg/sg12_58_cif.got.tgz:114807.got - 2010.06.03 13:09:07.
