data_PCOD9222377
_publ_section_title
;
Structure prediction by ZEFSAII (Michael W. Deem and Ramdas Pophale) SiO2 
 PCOD9222377
Probable space group: C 2/M
;
_chemical_formula_sum "Si O2"
_cell_formula_units_Z 32
_cell_length_a 10.368468
_cell_length_b 15.044167
_cell_length_c 16.219521
_cell_angle_alpha 90.000000
_cell_angle_beta 32.905257
_cell_angle_gamma 90.000000
_cell_volume 1374.427017
_symmetry_space_group_name_H-M "C 2/M"
_symmetry_group_IT_number 12
_symmetry_cell_setting 'monoclinic'
loop_
_space_group_symop_operation_xyz
x,y,z
-x,y,-z
-x,-y,-z
x,-y,z
1/2+x,1/2+y,z
1/2-x,1/2+y,-z
1/2-x,1/2-y,-z
1/2+x,1/2-y,z
loop_
_atom_site_type_symbol
_atom_site_label
_atom_site_fract_x
_atom_site_fract_y
_atom_site_fract_z
Si Si1 0.933342 0.896192 0.132287
Si Si2 0.523995 0.807607 0.655338
Si Si3 0.151712 0.000000 0.283542
Si Si4 0.730758 0.661057 0.118367
Si Si5 0.668480 0.000000 0.643648
O O1 0.710462 0.831177 0.274331
O O2 0.160072 0.872014 0.066211
O O3 0.871266 0.000000 0.181946
O O4 0.000000 0.889274 0.000000
O O5 0.750000 0.750000 0.500000
O O6 0.422643 0.747242 0.781962
O O7 0.576122 0.905725 0.661005
O O8 0.155241 0.915272 0.223350
O O9 0.353140 0.000000 0.245567
O O10 0.924486 0.000000 0.462864
O O11 0.000000 0.678816 0.000000
#
# Coordination Sequence:
#
# PCOD9222377 Si02
#       5
#     8   8   4   8   4
#     4  11  27  49  78 111 153 202 253 315 382 449
#     4  12  27  49  78 110 151 200 254 318 378 455
#     4  11  25  47  75 109 159 196 250 315 381 454
#     4  12  28  48  76 115 154 203 256 313 378 455
#     4  11  26  49  75 110 150 201 251 312 386 452
#
# _framework density 23.282429
#
# number of rings (size 3 to 8) (size 9 to 14) (size 15 to 20)
#    0.000    0.500    5.000    1.125    7.000    3.000 
#    0.000    2.500    0.000    0.000    0.000    0.000 
#    0.000    0.000    0.000    0.000    0.000    0.000 
#
# Total GULP energy -89351.849374 kJ/mol
# GULP energy per Si atom -5584.490586 kJ/mol
# Density = 2.322944 g / cm^3
# Si number density = 23.282429 Si / 1000 Ang^3
#
#
#
# Elastic Constant Matrix: (Units=GPa)
#
#
# Indices 1 2 3 4 5 6 
#
# 1 174.7176 56.5456 63.5146 -0.0010 -1.5770 0.0003
# 2 56.5456 183.6273 56.7646 -0.0005 -6.1010 -0.0005
# 3 63.5146 56.7646 102.2369 -0.0102 -13.2366 0.0056
# 4 -0.0010 -0.0005 -0.0102 49.5492 0.0044 -10.2334
# 5 -1.5770 -6.1010 -13.2366 0.0044 29.8193 -0.0020
# 6 0.0003 -0.0005 0.0056 -10.2334 -0.0020 34.0026
#
#
#
# Elastic Compliance Matrix: (Units=1/GPa)
#
#
# Indices 1 2 3 4 5 6 
#
# 1 0.007646 -0.001055 -0.004392 -0.000001 -0.001761 0.000000
# 2 -0.001055 0.006722 -0.003083 0.000000 -0.000049 0.000000
# 3 -0.004392 -0.003083 0.014970 0.000002 0.005782 -0.000001
# 4 -0.000001 0.000000 0.000002 0.021520 -0.000002 0.006477
# 5 -0.001761 -0.000049 0.005782 -0.000002 0.035999 0.000001
# 6 0.000000 0.000000 -0.000001 0.006477 0.000001 0.031359
#
#
# Mechanical properties :
#
#
# Convention : Reuss Voigt Hill
#
# Bulk Modulus (GPa) = 81.45077 90.47016 85.96047
# Shear Modulus (GPa) = 35.87611 41.59136 38.73373
#
# Velocity S-wave (km/s) = 3.92970 4.23115 4.08321
# Velocity P-wave (km/s) = 7.45988 7.92542 7.69617
#
# Compressibility (1/GPa) = 0.01227736
#
# Stress axis : x y z
#
# Youngs Moduli (GPa) = 130.79132 148.76047 66.79924
#
# Poissons Ratio (x) = 0.15697 0.29339
# Poissons Ratio (y) = 0.13801 0.20595
# Poissons Ratio (z) = 0.57444 0.45865
#
# Static dielectric constant tensor:
#      x y z
#    x 2.003910 -0.000560 -0.134900 
#    y -0.000560 -0.018920 0.000300 
#    z -0.134900 0.000300 1.917290 
# 
# From -- ./inp_files/263188.got.cif
#   From: 2010.05.17/outbox.cif.g08.bks.cpg/sg12_132_cif.got.tgz:263188.got - 2010.06.03 13:09:07.
