data_PCOD9222391
_publ_section_title
;
Structure prediction by ZEFSAII (Michael W. Deem and Ramdas Pophale) SiO2 
 PCOD9222391
Probable space group: C 2/M
;
_chemical_formula_sum "Si O2"
_cell_formula_units_Z 40
_cell_length_a 7.720553
_cell_length_b 27.573643
_cell_length_c 10.296666
_cell_angle_alpha 90.000000
_cell_angle_beta 48.913005
_cell_angle_gamma 90.000000
_cell_volume 1652.132783
_symmetry_space_group_name_H-M "C 2/M"
_symmetry_group_IT_number 12
_symmetry_cell_setting 'monoclinic'
loop_
_space_group_symop_operation_xyz
x,y,z
-x,y,-z
-x,-y,-z
x,-y,z
1/2+x,1/2+y,z
1/2-x,1/2+y,-z
1/2-x,1/2-y,-z
1/2+x,1/2-y,z
loop_
_atom_site_type_symbol
_atom_site_label
_atom_site_fract_x
_atom_site_fract_y
_atom_site_fract_z
Si Si1 0.074460 0.319142 0.679974
Si Si2 0.390249 0.720897 0.193932
Si Si3 0.096943 0.590496 0.817525
Si Si4 0.445265 0.369175 0.307906
Si Si5 0.171825 0.552775 0.293428
O O1 0.155751 0.268509 0.699413
O O2 0.009777 0.355266 0.827748
O O3 0.255321 0.348626 0.502666
O O4 0.850296 0.305705 0.710193
O O5 0.538847 0.680644 0.197634
O O6 0.500000 0.732082 0.000000
O O7 0.367440 0.599196 0.707371
O O8 0.989547 0.560904 0.751762
O O9 0.000000 0.571604 0.000000
O O10 0.344734 0.403821 0.244107
O O11 0.286809 0.500000 0.228012
O O12 0.000000 0.552509 0.500000
#
# Coordination Sequence:
#
# PCOD9222391 Si02
#       5
#     8   8   8   8   8
#     4  12  24  44  66 109 146 197 249 295 356 447
#     4  12  24  42  70 106 154 197 240 300 371 435
#     4  12  26  46  74 107 149 191 247 311 371 433
#     4  12  25  46  74 108 145 198 247 308 362 440
#     4  11  25  49  77 109 148 192 247 307 372 444
#
# _framework density 24.211127000000001
#
# number of rings (size 3 to 8) (size 9 to 14) (size 15 to 20)
#    0.000    0.200    4.000    5.400    0.000    2.800 
#    0.000    3.000    0.000    0.000    0.000    0.000 
#    0.000    0.000    0.000    0.000    0.000    0.000 
#
# Total GULP energy -111939.595808 kJ/mol
# GULP energy per Si atom -5596.979790 kJ/mol
# Density = 2.415602 g / cm^3
# Si number density = 24.211127 Si / 1000 Ang^3
#
#
#
# Elastic Constant Matrix: (Units=GPa)
#
#
# Indices 1 2 3 4 5 6 
#
# 1 142.0546 42.2140 46.7681 0.0000 24.0571 0.0000
# 2 42.2140 144.7154 14.9205 0.0000 13.9978 0.0000
# 3 46.7681 14.9205 118.3069 0.0000 20.4268 0.0000
# 4 0.0000 0.0000 0.0000 -62.1182 0.0000 -52.1566
# 5 24.0571 13.9978 20.4268 0.0000 44.3598 0.0000
# 6 0.0000 0.0000 0.0000 -52.1566 0.0000 -9.5716
#
#
#
# Elastic Compliance Matrix: (Units=1/GPa)
#
#
# Indices 1 2 3 4 5 6 
#
# 1 0.009087 -0.002072 -0.002817 0.000000 -0.002977 0.000000
# 2 -0.002072 0.007634 0.000085 0.000000 -0.001324 0.000000
# 3 -0.002817 0.000085 0.010099 0.000000 -0.003150 0.000000
# 4 0.000000 0.000000 0.000000 0.004503 0.000000 -0.024536
# 5 -0.002977 -0.001324 -0.003150 0.000000 0.026026 0.000000
# 6 0.000000 0.000000 0.000000 -0.024536 0.000000 0.029222
#
#
# Mechanical properties :
#
#
# Convention : Reuss Voigt Hill
#
# Bulk Modulus (GPa) = 58.09909 68.09800 63.09854
# Shear Modulus (GPa) = 49.06016 14.61230 31.83623
#
# Velocity S-wave (km/s) = 4.50638 2.45936 3.63015
# Velocity P-wave (km/s) = 7.15021 6.02100 6.60977
#
# Compressibility (1/GPa) = 0.01721197
#
# Stress axis : x y z
#
# Youngs Moduli (GPa) = 110.04872 130.99420 99.01771
#
# Poissons Ratio (x) = 0.27146 0.27891
# Poissons Ratio (y) = 0.22805 -0.00842
# Poissons Ratio (z) = 0.30998 -0.01114
#
# Static dielectric constant tensor:
#      x y z
#    x 2.002850 0.000000 -0.007490 
#    y 0.000000 1.914860 0.000000 
#    z -0.007490 0.000000 1.970010 
# 
# From -- ./inp_files/123415.got.cif
#   From: 2010.05.17/outbox.cif.g08.bks.cpg/sg12_62_cif.got.tgz:123415.got - 2010.06.03 13:09:07.
