data_PCOD9222232
_publ_section_title
;
Structure prediction by ZEFSAII (Michael W. Deem and Ramdas Pophale) SiO2 
 PCOD9222232
Probable space group: C 2/M
;
_chemical_formula_sum "Si O2"
_cell_formula_units_Z 40
_cell_length_a 12.214640
_cell_length_b 25.429504
_cell_length_c 12.920326
_cell_angle_alpha 90.000000
_cell_angle_beta 156.750108
_cell_angle_gamma 90.000000
_cell_volume 1584.183578
_symmetry_space_group_name_H-M "C 2/M"
_symmetry_group_IT_number 12
_symmetry_cell_setting 'monoclinic'
loop_
_space_group_symop_operation_xyz
x,y,z
-x,y,-z
-x,-y,-z
x,-y,z
1/2+x,1/2+y,z
1/2-x,1/2+y,-z
1/2-x,1/2-y,-z
1/2+x,1/2-y,z
loop_
_atom_site_type_symbol
_atom_site_label
_atom_site_fract_x
_atom_site_fract_y
_atom_site_fract_z
Si Si1 0.418504 0.404690 0.141241
Si Si2 0.508990 0.210767 0.824004
Si Si3 0.811704 0.000000 0.738158
Si Si4 0.293352 0.936748 0.644326
Si Si5 0.500000 0.131064 0.000000
Si Si6 0.288366 0.186854 0.406760
O O1 0.607866 0.448587 0.253099
O O2 0.515210 0.350285 0.172329
O O3 0.545952 0.409653 0.366406
O O4 0.099202 0.423344 0.860291
O O5 0.593380 0.170320 0.987510
O O6 0.401420 0.185381 0.623325
O O7 0.282705 0.251682 0.672235
O O8 0.750000 0.250000 0.000000
O O9 0.500000 0.000000 0.500000
O O10 0.000000 0.000000 0.000000
O O11 0.261734 0.000000 0.621247
O O12 0.312383 0.909029 0.771600
O O13 0.500000 0.169897 0.500000
#
# Coordination Sequence:
#
# PCOD9222232 Si02
#       6
#     8   8   4   8   4   8
#     4  12  25  48  74 108 156 196 254 316 382 451
#     4  11  24  48  71 107 148 194 251 318 384 456
#     4  12  24  44  72 105 146 201 254 308 371 445
#     4  12  25  49  76 110 151 202 253 320 381 455
#     4  12  25  46  78 110 150 203 260 316 386 462
#     4  11  25  44  72 105 147 198 251 312 385 457
#
# _framework density 25.249597999999999
#
# number of rings (size 3 to 8) (size 9 to 14) (size 15 to 20)
#    0.000    0.400    4.000    4.500    0.000    2.400 
#    9.000    2.000    0.000    0.000    0.000    0.000 
#    0.000    0.000    0.000    0.000    0.000    0.000 
#
# Total GULP energy -111935.199154 kJ/mol
# GULP energy per Si atom -5596.759958 kJ/mol
# Density = 2.519213 g / cm^3
# Si number density = 25.249598 Si / 1000 Ang^3
#
#
#
# Elastic Constant Matrix: (Units=GPa)
#
#
# Indices 1 2 3 4 5 6 
#
# 1 132.6807 42.1318 7.9764 0.0002 17.6417 -0.0009
# 2 42.1318 180.3577 27.1674 -0.0001 -2.4670 0.0001
# 3 7.9764 27.1674 77.4835 -0.0003 6.4511 -0.0001
# 4 0.0002 -0.0001 -0.0003 47.0678 -0.0003 -9.7121
# 5 17.6417 -2.4670 6.4511 -0.0003 49.5320 -0.0006
# 6 -0.0009 0.0001 -0.0001 -9.7121 -0.0006 39.9991
#
#
#
# Elastic Compliance Matrix: (Units=1/GPa)
#
#
# Indices 1 2 3 4 5 6 
#
# 1 0.008612 -0.002071 0.000105 0.000000 -0.003184 0.000000
# 2 -0.002071 0.006367 -0.002130 0.000000 0.001332 0.000000
# 3 0.000105 -0.002130 0.013804 0.000000 -0.001941 0.000000
# 4 0.000000 0.000000 0.000000 0.022367 0.000000 0.005431
# 5 -0.003184 0.001332 -0.001941 0.000000 0.021642 0.000000
# 6 0.000000 0.000000 0.000000 0.005431 0.000000 0.026319
#
#
# Mechanical properties :
#
#
# Convention : Reuss Voigt Hill
#
# Bulk Modulus (GPa) = 48.56816 60.56369 54.56593
# Shear Modulus (GPa) = 43.79550 48.20287 45.99918
#
# Velocity S-wave (km/s) = 4.16925 4.37401 4.27286
# Velocity P-wave (km/s) = 6.51567 7.03899 6.78238
#
# Compressibility (1/GPa) = 0.02058962
#
# Stress axis : x y z
#
# Youngs Moduli (GPa) = 116.12278 157.04917 72.44415
#
# Poissons Ratio (x) = 0.32525 -0.00759
# Poissons Ratio (y) = 0.24049 0.15433
# Poissons Ratio (z) = -0.01216 0.33456
#
# Static dielectric constant tensor:
#      x y z
#    x 2.178170 0.000000 -0.162550 
#    y 0.000000 1.995120 0.000000 
#    z -0.162550 0.000000 2.265510 
# 
# From -- ./inp_files/137199.got.cif
#   From: 2010.05.17/outbox.cif.g08.bks.cpg/sg12_69_cif.got.tgz:137199.got - 2010.06.03 13:09:07.
