data_PCOD9222845
_publ_section_title
;
Structure prediction by ZEFSAII (Michael W. Deem and Ramdas Pophale) SiO2 
 PCOD9222845
Probable space group: C 2/M
;
_chemical_formula_sum "Si O2"
_cell_formula_units_Z 56
_cell_length_a 28.584833
_cell_length_b 7.400296
_cell_length_c 18.084380
_cell_angle_alpha 90.000000
_cell_angle_beta 125.732525
_cell_angle_gamma 90.000000
_cell_volume 3105.359008
_symmetry_space_group_name_H-M "C 2/M"
_symmetry_group_IT_number 12
_symmetry_cell_setting 'monoclinic'
loop_
_space_group_symop_operation_xyz
x,y,z
-x,y,-z
-x,-y,-z
x,-y,z
1/2+x,1/2+y,z
1/2-x,1/2+y,-z
1/2-x,1/2-y,-z
1/2+x,1/2-y,z
loop_
_atom_site_type_symbol
_atom_site_label
_atom_site_fract_x
_atom_site_fract_y
_atom_site_fract_z
Si Si1 0.907619 0.719975 0.398030
Si Si2 0.656425 0.781760 0.897692
Si Si3 0.040744 0.786088 0.973365
Si Si4 0.293383 0.778440 0.212764
Si Si5 0.329731 0.709528 0.922741
Si Si6 0.983244 0.279854 0.601401
Si Si7 0.975851 0.282928 0.208104
O O1 0.906948 0.500000 0.397183
O O2 0.844435 0.779144 0.314693
O O3 0.931722 0.778755 0.499957
O O4 0.956712 0.771314 0.383556
O O5 0.687832 0.722182 0.852525
O O6 0.589577 0.724414 0.834571
O O7 0.657763 0.000000 0.900248
O O8 0.680450 0.716732 0.998115
O O9 0.013205 0.767089 0.866516
O O10 0.046480 0.000000 0.991701
O O11 0.106411 0.711463 0.031743
O O12 0.000000 0.711458 0.000000
O O13 0.228290 0.715018 0.167318
O O14 0.292733 0.000000 0.212450
O O15 0.332751 0.500000 0.903713
O O16 0.982287 0.500000 0.600477
O O17 0.984602 0.219346 0.687620
O O18 0.976160 0.500000 0.210504
#
# Coordination Sequence:
#
# PCOD9222845 Si02
#       7
#     8   8   8   8   8   8   8
#     4   8  12  18  31  52  80 107 125 144 175 213
#     4   9  15  23  35  53  78 103 122 144 176 218
#     4   9  18  31  42  53  72  98 128 161 195 227
#     4   9  14  21  33  52  77 102 125 148 177 213
#     4   9  17  26  37  53  72  96 126 157 185 217
#     4   8  12  19  32  54  81 104 123 145 177 217
#     4   9  15  24  40  61  80  97 122 153 185 222
#
# _framework density 18.033342000000001
#
# number of rings (size 3 to 8) (size 9 to 14) (size 15 to 20)
#    0.000    3.286    1.429    1.286    0.000    0.286 
#    0.000    0.000    0.000    0.000    0.000    5.000 
#    0.000    0.000    0.000    0.000    0.000    0.000 
#
# Total GULP energy -155991.355063 kJ/mol
# GULP energy per Si atom -5571.119824 kJ/mol
# Density = 1.799230 g / cm^3
# Si number density = 18.033342 Si / 1000 Ang^3
#
#
#
# Elastic Constant Matrix: (Units=GPa)
#
#
# Indices 1 2 3 4 5 6 
#
# 1 89.2233 5.8488 92.8372 0.0000 3.0242 0.0000
# 2 5.8488 58.8011 0.6468 0.0000 1.2778 0.0000
# 3 92.8372 0.6468 150.7135 0.0000 19.6974 0.0000
# 4 0.0000 0.0000 0.0000 9.7561 0.0000 -5.8545
# 5 3.0242 1.2778 19.6974 0.0000 26.6065 0.0000
# 6 0.0000 0.0000 0.0000 -5.8545 0.0000 4.1121
#
#
#
# Elastic Compliance Matrix: (Units=1/GPa)
#
#
# Indices 1 2 3 4 5 6 
#
# 1 0.035726 -0.003590 -0.023784 0.000000 0.013720 -0.000001
# 2 -0.003590 0.017385 0.002427 0.000000 -0.002224 0.000000
# 3 -0.023784 0.002427 0.023180 0.000000 -0.014574 0.000001
# 4 0.000000 0.000000 0.000000 0.703834 0.000000 1.002072
# 5 0.013720 -0.002224 -0.014574 0.000000 0.046921 0.000000
# 6 -0.000001 0.000000 0.000001 1.002072 0.000000 1.669869
#
#
# Mechanical properties :
#
#
# Convention : Reuss Voigt Hill
#
# Bulk Modulus (GPa) = 37.88235 55.26706 46.57470
# Shear Modulus (GPa) = 1.95648 21.38862 11.67255
#
# Velocity S-wave (km/s) = 1.04273 3.44766 2.54692
# Velocity P-wave (km/s) = 4.74364 6.82365 5.87641
#
# Compressibility (1/GPa) = 0.02639752
#
# Stress axis : x y z
#
# Youngs Moduli (GPa) = 27.99110 57.52018 43.14051
#
# Poissons Ratio (x) = 0.20650 1.02606
# Poissons Ratio (y) = 0.10049 -0.10472
# Poissons Ratio (z) = 0.66574 -0.13963
#
# Static dielectric constant tensor:
#      x y z
#    x 1.611030 0.000000 0.027280 
#    y 0.000000 1.692450 0.000000 
#    z 0.027280 0.000000 1.643460 
# 
# From -- ./inp_files/239346.got.cif
#   From: 2010.05.17/outbox.cif.g08.bks.cpg/sg12_120_cif.got.tgz:239346.got - 2010.06.03 13:09:07.
