data_PCOD9222257
_publ_section_title
;
Structure prediction by ZEFSAII (Michael W. Deem and Ramdas Pophale) SiO2 
 PCOD9222257
Probable space group: C 2/M
;
_chemical_formula_sum "Si O2"
_cell_formula_units_Z 48
_cell_length_a 9.832721
_cell_length_b 29.607270
_cell_length_c 18.303237
_cell_angle_alpha 90.000000
_cell_angle_beta 153.510758
_cell_angle_gamma 90.000000
_cell_volume 2376.642343
_symmetry_space_group_name_H-M "C 2/M"
_symmetry_group_IT_number 12
_symmetry_cell_setting 'monoclinic'
loop_
_space_group_symop_operation_xyz
x,y,z
-x,y,-z
-x,-y,-z
x,-y,z
1/2+x,1/2+y,z
1/2-x,1/2+y,-z
1/2-x,1/2-y,-z
1/2+x,1/2-y,z
loop_
_atom_site_type_symbol
_atom_site_label
_atom_site_fract_x
_atom_site_fract_y
_atom_site_fract_z
Si Si1 0.387282 0.420497 0.331395
Si Si2 0.350641 0.169355 0.853285
Si Si3 0.838031 0.319357 0.144359
Si Si4 0.312828 0.740087 0.614154
Si Si5 0.441844 0.500000 0.681810
Si Si6 0.801748 0.500000 0.279226
Si Si7 0.503893 0.080820 0.722070
O O1 0.312311 0.371523 0.265775
O O2 0.401857 0.455185 0.272506
O O3 0.136546 0.436984 0.269367
O O4 0.708056 0.415601 0.527656
O O5 0.601705 0.183079 0.913502
O O6 0.100750 0.206735 0.753918
O O7 0.500000 0.153956 0.000000
O O8 0.089686 0.286515 0.299950
O O9 0.868597 0.369663 0.194975
O O10 0.500000 0.302726 0.000000
O O11 0.250000 0.750000 0.500000
O O12 0.000000 0.722315 0.500000
O O13 0.422139 0.500000 0.759552
O O14 0.122678 0.500000 0.480429
O O15 0.789925 0.544314 0.221587
#
# Coordination Sequence:
#
# PCOD9222257 Si02
#       7
#     8   8   8   8   4   4   8
#     4   9  18  36  60  85 117 161 204 249 296 359
#     4  11  25  43  61  92 128 163 203 250 310 368
#     4  11  25  42  63  91 127 164 203 252 306 367
#     4  12  25  44  69  94 120 157 207 258 305 361
#     4   9  17  31  52  89 126 149 194 253 306 348
#     4   9  17  31  52  91 122 151 196 255 300 351
#     4   9  18  35  62  84 116 159 209 246 295 356
#
# _framework density 20.196560999999999
#
# number of rings (size 3 to 8) (size 9 to 14) (size 15 to 20)
#    0.000    1.833    1.667    2.000    4.667    4.667 
#    6.000    0.833    0.000    0.000    0.000    0.000 
#    0.000    0.000    0.000    0.000    0.000    0.000 
#
# Total GULP energy -133897.700414 kJ/mol
# GULP energy per Si atom -5579.070851 kJ/mol
# Density = 2.015059 g / cm^3
# Si number density = 20.196561 Si / 1000 Ang^3
#
#
#
# Elastic Constant Matrix: (Units=GPa)
#
#
# Indices 1 2 3 4 5 6 
#
# 1 156.8632 35.4609 29.8236 0.0002 -4.5029 -0.0002
# 2 35.4609 54.6796 2.7717 -0.0001 2.5428 0.0000
# 3 29.8236 2.7717 19.9681 0.0015 5.8964 -0.0003
# 4 0.0002 -0.0001 0.0015 13.1719 0.0005 8.4372
# 5 -4.5029 2.5428 5.8964 0.0005 32.7174 -0.0002
# 6 -0.0002 0.0000 -0.0003 8.4372 -0.0002 23.0042
#
#
#
# Elastic Compliance Matrix: (Units=1/GPa)
#
#
# Indices 1 2 3 4 5 6 
#
# 1 0.011411 -0.006750 -0.017665 0.000002 0.005279 -0.000001
# 2 -0.006750 0.022444 0.008192 -0.000001 -0.004150 0.000000
# 3 -0.017665 0.008192 0.080517 -0.000011 -0.017579 0.000005
# 4 0.000002 -0.000001 -0.000011 0.099232 0.000001 -0.036395
# 5 0.005279 -0.004150 -0.017579 0.000001 0.034782 0.000000
# 6 -0.000001 0.000000 0.000005 -0.036395 0.000000 0.056819
#
#
# Mechanical properties :
#
#
# Convention : Reuss Voigt Hill
#
# Bulk Modulus (GPa) = 12.20611 40.84704 26.52657
# Shear Modulus (GPa) = 13.70014 24.67569 19.18791
#
# Velocity S-wave (km/s) = 2.60732 3.49918 3.08565
# Velocity P-wave (km/s) = 3.88857 6.04933 5.08504
#
# Compressibility (1/GPa) = 0.08192616
#
# Stress axis : x y z
#
# Youngs Moduli (GPa) = 87.63428 44.55563 12.41967
#
# Poissons Ratio (x) = 0.30077 0.21939
# Poissons Ratio (y) = 0.59156 -0.10174
# Poissons Ratio (z) = 1.54805 -0.36501
#
# Static dielectric constant tensor:
#      x y z
#    x 1.736760 0.000000 0.079350 
#    y 0.000000 1.716550 0.000000 
#    z 0.079350 0.000000 1.778160 
# 
# From -- ./inp_files/260462.got.cif
#   From: 2010.05.17/outbox.cif.g08.bks.cpg/sg12_131_cif.got.tgz:260462.got - 2010.06.03 13:09:07.
