data_PCOD9222661
_publ_section_title
;
Structure prediction by ZEFSAII (Michael W. Deem and Ramdas Pophale) SiO2 
 PCOD9222661
Probable space group: C 2/M
;
_chemical_formula_sum "Si O2"
_cell_formula_units_Z 48
_cell_length_a 14.659182
_cell_length_b 29.098195
_cell_length_c 11.586958
_cell_angle_alpha 90.000000
_cell_angle_beta 29.315074
_cell_angle_gamma 90.000000
_cell_volume 2419.898533
_symmetry_space_group_name_H-M "C 2/M"
_symmetry_group_IT_number 12
_symmetry_cell_setting 'monoclinic'
loop_
_space_group_symop_operation_xyz
x,y,z
-x,y,-z
-x,-y,-z
x,-y,z
1/2+x,1/2+y,z
1/2-x,1/2+y,-z
1/2-x,1/2-y,-z
1/2+x,1/2-y,z
loop_
_atom_site_type_symbol
_atom_site_label
_atom_site_fract_x
_atom_site_fract_y
_atom_site_fract_z
Si Si1 0.759479 0.303320 0.954634
Si Si2 0.706555 0.553496 0.273934
Si Si3 0.133200 0.351262 0.611407
Si Si4 0.934503 0.553296 0.259800
Si Si5 0.282365 0.716878 0.258892
Si Si6 0.598694 0.684689 0.511793
O O1 0.785533 0.302994 0.788605
O O2 0.928752 0.329011 0.829403
O O3 0.750000 0.250000 0.000000
O O4 0.562937 0.322037 0.215453
O O5 0.500000 0.574024 0.500000
O O6 0.685337 0.500000 0.263551
O O7 0.797291 0.553316 0.300525
O O8 0.864610 0.569875 0.011194
O O9 0.129828 0.405406 0.587503
O O10 0.250414 0.321075 0.391629
O O11 0.225346 0.343729 0.635722
O O12 0.943485 0.500000 0.290548
O O13 0.171932 0.762715 0.418513
O O14 0.500000 0.728399 0.000000
O O15 0.500000 0.674078 0.500000
#
# Coordination Sequence:
#
# PCOD9222661 Si02
#       6
#     8   8   8   8   8   8
#     4  12  23  43  63  88 122 163 203 253 309 369
#     4   8  15  33  59  81 116 163 199 248 314 363
#     4  12  25  39  63  93 123 167 207 253 309 367
#     4   9  20  37  57  86 122 160 207 257 304 358
#     4  12  23  43  66  85 126 168 206 250 313 374
#     4  12  25  39  61  93 128 160 205 253 304 371
#
# _framework density 19.835543000000001
#
# number of rings (size 3 to 8) (size 9 to 14) (size 15 to 20)
#    0.000    1.167    5.000    3.000    0.000    4.667 
#    0.000    0.000    0.000    2.500    0.000    0.000 
#    0.000    0.000    0.000    0.000    0.000    0.000 
#
# Total GULP energy -133965.491569 kJ/mol
# GULP energy per Si atom -5581.895482 kJ/mol
# Density = 1.979040 g / cm^3
# Si number density = 19.835543 Si / 1000 Ang^3
#
#
#
# Elastic Constant Matrix: (Units=GPa)
#
#
# Indices 1 2 3 4 5 6 
#
# 1 95.8710 38.0274 35.6687 0.0000 -20.2005 0.0000
# 2 38.0274 123.8979 24.5106 0.0001 0.9843 0.0000
# 3 35.6687 24.5106 102.6871 0.0000 -23.6678 -0.0001
# 4 0.0000 0.0001 0.0000 11.6026 0.0000 0.0349
# 5 -20.2005 0.9843 -23.6678 0.0000 36.3044 0.0000
# 6 0.0000 0.0000 -0.0001 0.0349 0.0000 4.1527
#
#
#
# Elastic Compliance Matrix: (Units=1/GPa)
#
#
# Indices 1 2 3 4 5 6 
#
# 1 0.014286 -0.003931 -0.002551 0.000000 0.006393 0.000000
# 2 -0.003931 0.009656 -0.001770 0.000000 -0.003603 0.000000
# 3 -0.002551 -0.001770 0.012628 0.000000 0.006861 0.000000
# 4 0.000000 0.000000 0.000000 0.086190 0.000000 -0.000724
# 5 0.006393 -0.003603 0.006861 0.000000 0.035673 0.000000
# 6 0.000000 0.000000 0.000000 -0.000724 0.000000 0.240814
#
#
# Mechanical properties :
#
#
# Convention : Reuss Voigt Hill
#
# Bulk Modulus (GPa) = 49.83125 57.65215 53.74170
# Shear Modulus (GPa) = 11.83603 25.36188 18.59896
#
# Velocity S-wave (km/s) = 2.44541 3.57964 3.06544
# Velocity P-wave (km/s) = 5.75761 6.79804 6.29934
#
# Compressibility (1/GPa) = 0.02006773
#
# Stress axis : x y z
#
# Youngs Moduli (GPa) = 69.99982 103.55818 79.18795
#
# Poissons Ratio (x) = 0.40707 0.20197
# Poissons Ratio (y) = 0.27516 0.14016
# Poissons Ratio (z) = 0.17854 0.18329
#
# Static dielectric constant tensor:
#      x y z
#    x 1.730710 0.000000 -0.018920 
#    y 0.000000 1.709400 0.000000 
#    z -0.018920 0.000000 1.767180 
# 
# From -- ./inp_files/149861.got.cif
#   From: 2010.05.17/outbox.cif.g08.bks.cpg/sg12_75_cif.got.tgz:149861.got - 2010.06.03 13:09:07.
