data_PCOD9222144
_publ_section_title
;
Structure prediction by ZEFSAII (Michael W. Deem and Ramdas Pophale) SiO2 
 PCOD9222144
Probable space group: C 2/M
;
_chemical_formula_sum "Si O2"
_cell_formula_units_Z 56
_cell_length_a 17.171224
_cell_length_b 27.808672
_cell_length_c 8.445418
_cell_angle_alpha 90.000000
_cell_angle_beta 40.204137
_cell_angle_gamma 90.000000
_cell_volume 2603.199997
_symmetry_space_group_name_H-M "C 2/M"
_symmetry_group_IT_number 12
_symmetry_cell_setting 'monoclinic'
loop_
_space_group_symop_operation_xyz
x,y,z
-x,y,-z
-x,-y,-z
x,-y,z
1/2+x,1/2+y,z
1/2-x,1/2+y,-z
1/2-x,1/2-y,-z
1/2+x,1/2-y,z
loop_
_atom_site_type_symbol
_atom_site_label
_atom_site_fract_x
_atom_site_fract_y
_atom_site_fract_z
Si Si1 0.379002 0.074758 0.748279
Si Si2 0.971030 0.826512 0.730466
Si Si3 0.330306 0.500000 0.900877
Si Si4 0.837978 0.106635 0.417900
Si Si5 0.397615 0.134647 0.027131
Si Si6 0.898042 0.000000 0.422797
Si Si7 0.764192 0.345381 0.730333
Si Si8 0.025123 0.719154 0.650237
O O1 0.500000 0.050016 0.500000
O O2 0.400123 0.093125 0.892140
O O3 0.360959 0.120596 0.663913
O O4 0.255941 0.045053 0.930291
O O5 0.000000 0.831704 0.500000
O O6 0.039028 0.869040 0.714878
O O7 0.016611 0.774299 0.715381
O O8 0.830148 0.828690 0.990790
O O9 0.360500 0.500000 0.666680
O O10 0.455608 0.500000 0.801253
O O11 0.848688 0.049187 0.422139
O O12 0.804639 0.124028 0.294913
O O13 0.732633 0.129508 0.690764
O O14 0.431200 0.184838 0.888468
O O15 0.500000 0.127044 0.000000
O O16 0.841486 0.302597 0.533880
O O17 0.000000 0.718650 0.500000
#
# Coordination Sequence:
#
# PCOD9222144 Si02
#       8
#     8   8   4   8   8   4   8   8
#     4  12  22  44  69  99 140 179 237 290 351 416
#     4  11  28  43  70 103 139 186 237 288 347 419
#     4  11  25  41  71 101 134 185 235 290 349 419
#     4  12  26  46  71 103 141 185 234 294 348 415
#     4  12  22  42  70 102 138 184 227 289 351 412
#     4  11  26  47  71 103 140 185 236 288 356 409
#     4  12  24  46  70 100 143 182 232 289 348 420
#     4  11  24  44  69 101 141 189 226 287 352 414
#
# _framework density 21.511986
#
# number of rings (size 3 to 8) (size 9 to 14) (size 15 to 20)
#    0.000    0.429    5.714    2.357    4.000    3.429 
#    0.000    5.000    0.000    0.000    0.000    0.000 
#    0.000    0.000    0.000    0.000    0.000    0.000 
#
# Total GULP energy -156650.353103 kJ/mol
# GULP energy per Si atom -5594.655468 kJ/mol
# Density = 2.146302 g / cm^3
# Si number density = 21.511986 Si / 1000 Ang^3
#
#
#
# Elastic Constant Matrix: (Units=GPa)
#
#
# Indices 1 2 3 4 5 6 
#
# 1 63.0317 15.3854 9.6205 0.0000 2.8623 0.0000
# 2 15.3854 113.3589 29.2671 0.0000 -4.1868 0.0000
# 3 9.6205 29.2671 137.1600 0.0000 -15.0161 0.0000
# 4 0.0000 0.0000 0.0000 14.0092 0.0000 -3.7531
# 5 2.8623 -4.1868 -15.0161 0.0000 35.1790 0.0000
# 6 0.0000 0.0000 0.0000 -3.7531 0.0000 25.6438
#
#
#
# Elastic Compliance Matrix: (Units=1/GPa)
#
#
# Indices 1 2 3 4 5 6 
#
# 1 0.016608 -0.002086 -0.000939 0.000000 -0.002000 0.000000
# 2 -0.002086 0.009600 -0.001845 0.000000 0.000525 0.000000
# 3 -0.000939 -0.001845 0.008114 0.000000 0.003320 0.000000
# 4 0.000000 0.000000 0.000000 0.074295 0.000000 0.010873
# 5 -0.002000 0.000525 0.003320 0.000000 0.030068 0.000000
# 6 0.000000 0.000000 0.000000 0.010873 0.000000 0.040587
#
#
# Mechanical properties :
#
#
# Convention : Reuss Voigt Hill
#
# Bulk Modulus (GPa) = 40.67722 46.89961 43.78842
# Shear Modulus (GPa) = 25.35425 32.25158 28.80292
#
# Velocity S-wave (km/s) = 3.43681 3.87620 3.66310
# Velocity P-wave (km/s) = 5.89059 6.47164 6.18794
#
# Compressibility (1/GPa) = 0.02458378
#
# Stress axis : x y z
#
# Youngs Moduli (GPa) = 60.21105 104.16383 123.24790
#
# Poissons Ratio (x) = 0.21724 0.11572
# Poissons Ratio (y) = 0.12558 0.22736
# Poissons Ratio (z) = 0.05653 0.19216
#
# Static dielectric constant tensor:
#      x y z
#    x 1.756110 0.000000 0.002760 
#    y 0.000000 1.769800 0.000000 
#    z 0.002760 0.000000 1.785030 
# 
# From -- ./inp_files/80045.got.cif
#   From: 2010.05.17/outbox.cif.g08.bks.cpg/sg12_41_cif.got.tgz:80045.got - 2010.06.03 13:09:07.
