data_PCOD9222280
_publ_section_title
;
Structure prediction by ZEFSAII (Michael W. Deem and Ramdas Pophale) SiO2 
 PCOD9222280
Probable space group: C 2/M
;
_chemical_formula_sum "Si O2"
_cell_formula_units_Z 28
_cell_length_a 10.147138
_cell_length_b 13.764772
_cell_length_c 18.315460
_cell_angle_alpha 90.000000
_cell_angle_beta 154.355226
_cell_angle_gamma 90.000000
_cell_volume 1107.153903
_symmetry_space_group_name_H-M "C 2/M"
_symmetry_group_IT_number 12
_symmetry_cell_setting 'monoclinic'
loop_
_space_group_symop_operation_xyz
x,y,z
-x,y,-z
-x,-y,-z
x,-y,z
1/2+x,1/2+y,z
1/2-x,1/2+y,-z
1/2-x,1/2-y,-z
1/2+x,1/2-y,z
loop_
_atom_site_type_symbol
_atom_site_label
_atom_site_fract_x
_atom_site_fract_y
_atom_site_fract_z
Si Si1 0.680724 0.000000 0.778835
Si Si2 0.198430 0.000000 0.935693
Si Si3 0.218280 0.000000 0.687677
Si Si4 0.817378 0.215335 0.115809
Si Si5 0.792487 0.334066 0.577613
O O1 0.567475 0.098929 0.687056
O O2 0.034050 0.000000 0.934583
O O3 0.452285 0.000000 0.735586
O O4 0.118334 0.099891 0.855154
O O5 0.559435 0.000000 0.132549
O O6 0.999879 0.906153 0.574171
O O7 0.079633 0.279426 0.285725
O O8 0.500000 0.231570 0.000000
O O9 0.750000 0.250000 0.000000
O O10 0.750000 0.250000 0.500000
#
# Coordination Sequence:
#
# PCOD9222280 Si02
#       5
#     4   4   4   8   8
#     4  11  25  43  70 109 152 201 255 302 373 471
#     4  12  26  47  76 115 152 198 256 318 376 450
#     4  11  25  48  77 108 154 205 255 312 381 461
#     4  12  27  49  79 115 155 202 254 314 383 458
#     4  11  25  48  77 111 150 201 257 319 383 447
#
# _framework density 25.29007
#
# number of rings (size 3 to 8) (size 9 to 14) (size 15 to 20)
#    0.000    0.571    0.000    7.714    0.000   10.286 
#    0.000    3.571    0.000    0.000    0.000    0.000 
#    0.000    0.000    0.000    0.000    0.000    0.000 
#
# Total GULP energy -78223.582517 kJ/mol
# GULP energy per Si atom -5587.398751 kJ/mol
# Density = 2.523251 g / cm^3
# Si number density = 25.290070 Si / 1000 Ang^3
#
#
#
# Elastic Constant Matrix: (Units=GPa)
#
#
# Indices 1 2 3 4 5 6 
#
# 1 158.9844 58.1888 56.3570 0.0058 18.4579 0.0027
# 2 58.1888 262.0976 117.0702 0.0056 9.6803 0.0022
# 3 56.3570 117.0702 172.8389 0.0233 15.4129 0.0142
# 4 0.0058 0.0056 0.0233 25.5350 0.0093 8.2252
# 5 18.4579 9.6803 15.4129 0.0093 45.0760 0.0048
# 6 0.0027 0.0022 0.0142 8.2252 0.0048 31.1637
#
#
#
# Elastic Compliance Matrix: (Units=1/GPa)
#
#
# Indices 1 2 3 4 5 6 
#
# 1 0.007450 -0.000825 -0.001665 0.000001 -0.002304 0.000000
# 2 -0.000825 0.005562 -0.003530 0.000002 0.000350 0.000001
# 3 -0.001665 -0.003530 0.008861 -0.000006 -0.001590 -0.000002
# 4 0.000001 0.000002 -0.000006 0.042801 -0.000006 -0.011297
# 5 -0.002304 0.000350 -0.001590 -0.000006 0.023597 -0.000001
# 6 0.000000 0.000001 -0.000002 -0.011297 -0.000001 0.035070
#
#
# Mechanical properties :
#
#
# Convention : Reuss Voigt Hill
#
# Bulk Modulus (GPa) = 101.68993 117.46144 109.57569
# Shear Modulus (GPa) = 36.06007 44.50860 40.28434
#
# Velocity S-wave (km/s) = 3.78015 4.19970 3.99543
# Velocity P-wave (km/s) = 7.70386 8.37037 8.04402
#
# Compressibility (1/GPa) = 0.00983382
#
# Stress axis : x y z
#
# Youngs Moduli (GPa) = 134.23641 179.78392 112.85304
#
# Poissons Ratio (x) = 0.14837 0.18785
# Poissons Ratio (y) = 0.11078 0.39833
# Poissons Ratio (z) = 0.22345 0.63457
#
# Static dielectric constant tensor:
#      x y z
#    x 2.387030 -0.000330 -0.412940 
#    y -0.000330 2.100860 0.000360 
#    z -0.412940 0.000360 2.442490 
# 
# From -- ./inp_files/194736.got.cif
#   From: 2010.05.17/outbox.cif.g08.bks.cpg/sg12_98_cif.got.tgz:194736.got - 2010.06.03 13:09:07.
