data_PCOD9222152
_publ_section_title
;
Structure prediction by ZEFSAII (Michael W. Deem and Ramdas Pophale) SiO2 
 PCOD9222152
Probable space group: C 2/M
;
_chemical_formula_sum "Si O2"
_cell_formula_units_Z 32
_cell_length_a 19.468945
_cell_length_b 16.909870
_cell_length_c 8.570412
_cell_angle_alpha 90.000000
_cell_angle_beta 149.256182
_cell_angle_gamma 90.000000
_cell_volume 1442.366194
_symmetry_space_group_name_H-M "C 2/M"
_symmetry_group_IT_number 12
_symmetry_cell_setting 'monoclinic'
loop_
_space_group_symop_operation_xyz
x,y,z
-x,y,-z
-x,-y,-z
x,-y,z
1/2+x,1/2+y,z
1/2-x,1/2+y,-z
1/2-x,1/2-y,-z
1/2+x,1/2-y,z
loop_
_atom_site_type_symbol
_atom_site_label
_atom_site_fract_x
_atom_site_fract_y
_atom_site_fract_z
Si Si1 0.959673 0.416016 0.599785
Si Si2 0.640468 0.846803 0.192125
Si Si3 0.240794 0.786501 0.155786
Si Si4 0.378348 0.593323 0.876088
O O1 0.889152 0.500000 0.498696
O O2 0.876744 0.335378 0.447000
O O3 0.000000 0.419721 0.500000
O O4 0.086589 0.408703 0.959681
O O5 0.713485 0.778966 0.234672
O O6 0.743807 0.886216 0.513869
O O7 0.500000 0.820437 0.000000
O O8 0.129945 0.853993 0.982522
O O9 0.250000 0.750000 0.000000
O O10 0.392274 0.500000 0.933711
O O11 0.500000 0.617128 0.000000
#
# Coordination Sequence:
#
# PCOD9222152 Si02
#       4
#     8   8   8   8
#     4  11  24  44  70 103 141 185 237 294 351 423
#     4  12  25  43  74 105 137 184 244 293 350 422
#     4  12  25  42  67 102 142 187 227 293 358 419
#     4  11  26  47  71 103 146 189 236 297 365 428
#
# _framework density 22.185767999999999
#
# number of rings (size 3 to 8) (size 9 to 14) (size 15 to 20)
#    0.000    0.500    5.000    3.000    3.500    1.000 
#    0.000    0.000    0.000    3.000    0.000    0.000 
#    0.000    0.000    0.000    0.000    0.000    0.000 
#
# Total GULP energy -89297.827715 kJ/mol
# GULP energy per Si atom -5581.114232 kJ/mol
# Density = 2.213527 g / cm^3
# Si number density = 22.185768 Si / 1000 Ang^3
#
#
#
# Elastic Constant Matrix: (Units=GPa)
#
#
# Indices 1 2 3 4 5 6 
#
# 1 162.2946 62.6938 47.4196 0.0000 -14.2637 0.0000
# 2 62.6938 147.2176 30.1689 0.0000 -13.4076 0.0000
# 3 47.4196 30.1689 82.8418 0.0000 -5.0546 0.0000
# 4 0.0000 0.0000 0.0000 76.1437 0.0000 -35.8837
# 5 -14.2637 -13.4076 -5.0546 0.0000 38.1269 0.0000
# 6 0.0000 0.0000 0.0000 -35.8837 0.0000 78.1150
#
#
#
# Elastic Compliance Matrix: (Units=1/GPa)
#
#
# Indices 1 2 3 4 5 6 
#
# 1 0.008441 -0.002668 -0.003755 0.000000 0.001722 0.000000
# 2 -0.002668 0.008380 -0.001417 0.000000 0.001761 0.000000
# 3 -0.003755 -0.001417 0.014740 0.000000 0.000051 0.000000
# 4 0.000000 0.000000 0.000000 0.016762 0.000000 0.007700
# 5 0.001722 0.001761 0.000051 0.000000 0.027498 0.000000
# 6 0.000000 0.000000 0.000000 0.007700 0.000000 0.016339
#
#
# Mechanical properties :
#
#
# Convention : Reuss Voigt Hill
#
# Bulk Modulus (GPa) = 62.97199 74.76873 68.87036
# Shear Modulus (GPa) = 44.19611 55.28190 49.73901
#
# Velocity S-wave (km/s) = 4.46813 4.99718 4.74004
# Velocity P-wave (km/s) = 7.42054 8.18964 7.81456
#
# Compressibility (1/GPa) = 0.01588008
#
# Stress axis : x y z
#
# Youngs Moduli (GPa) = 118.47213 119.33604 67.84439
#
# Poissons Ratio (x) = 0.31843 0.25474
# Poissons Ratio (y) = 0.31612 0.09613
# Poissons Ratio (z) = 0.44484 0.16908
#
# Static dielectric constant tensor:
#      x y z
#    x 1.892350 0.000000 0.031580 
#    y 0.000000 1.856670 0.000000 
#    z 0.031580 0.000000 1.818740 
# 
# From -- ./inp_files/88294.got.cif
#   From: 2010.05.17/outbox.cif.g08.bks.cpg/sg12_45_cif.got.tgz:88294.got - 2010.06.03 13:09:07.
