data_PCOD9222989
_publ_section_title
;
Structure prediction by ZEFSAII (Michael W. Deem and Ramdas Pophale) SiO2 
 PCOD9222989
Probable space group: C 2/M
;
_chemical_formula_sum "Si O2"
_cell_formula_units_Z 56
_cell_length_a 20.049059
_cell_length_b 7.390665
_cell_length_c 22.362143
_cell_angle_alpha 90.000000
_cell_angle_beta 56.209506
_cell_angle_gamma 90.000000
_cell_volume 2753.797910
_symmetry_space_group_name_H-M "C 2/M"
_symmetry_group_IT_number 12
_symmetry_cell_setting 'monoclinic'
loop_
_space_group_symop_operation_xyz
x,y,z
-x,y,-z
-x,-y,-z
x,-y,z
1/2+x,1/2+y,z
1/2-x,1/2+y,-z
1/2-x,1/2-y,-z
1/2+x,1/2-y,z
loop_
_atom_site_type_symbol
_atom_site_label
_atom_site_fract_x
_atom_site_fract_y
_atom_site_fract_z
Si Si1 0.336977 0.284301 0.426787
Si Si2 0.708967 0.720769 0.795425
Si Si3 0.925648 0.787443 0.497078
Si Si4 0.969561 0.779868 0.080491
Si Si5 0.245767 0.710756 0.101408
Si Si6 0.372273 0.281571 0.940128
Si Si7 0.752486 0.280537 0.641805
O O1 0.349884 0.500000 0.416852
O O2 0.250000 0.250000 0.500000
O O3 0.403166 0.213774 0.441446
O O4 0.318125 0.218929 0.368794
O O5 0.711003 0.500000 0.790858
O O6 0.618397 0.777053 0.856588
O O7 0.758100 0.781212 0.829512
O O8 0.737527 0.783359 0.716592
O O9 0.841079 0.772159 0.574589
O O10 0.000000 0.713745 0.500000
O O11 0.943347 0.000000 0.479760
O O12 0.037713 0.723926 0.092828
O O13 0.967513 0.000000 0.079505
O O14 0.000000 0.721535 0.000000
O O15 0.267197 0.500000 0.097041
O O16 0.165374 0.725514 0.103540
O O17 0.314897 0.786414 0.022840
O O18 0.369552 0.500000 0.943112
O O19 0.751051 0.500000 0.641360
#
# Coordination Sequence:
#
# PCOD9222989 Si02
#       7
#     8   8   8   8   8   8   8
#     4   8  14  26  44  64  86 112 143 176 209 252
#     4   9  16  27  44  65  88 117 150 186 228 265
#     4   9  17  30  48  69  92 120 148 174 214 267
#     4   9  14  24  43  66  87 110 149 193 222 252
#     4   9  16  27  43  61  85 116 144 178 226 274
#     4   9  16  26  43  65  84 107 147 192 226 259
#     4   9  17  29  46  68  91 115 148 187 222 258
#
# _framework density 20.335553000000001
#
# number of rings (size 3 to 8) (size 9 to 14) (size 15 to 20)
#    0.000    3.143    1.429    0.000    0.000    0.286 
#    0.000    2.143    0.000    5.571    0.000    0.000 
#    0.000    0.000    0.000    0.000    0.000    0.000 
#
# Total GULP energy -155932.048779 kJ/mol
# GULP energy per Si atom -5569.001742 kJ/mol
# Density = 2.028927 g / cm^3
# Si number density = 20.335553 Si / 1000 Ang^3
#
#
#
# Elastic Constant Matrix: (Units=GPa)
#
#
# Indices 1 2 3 4 5 6 
#
# 1 173.9434 -2.5670 67.7532 -0.0006 43.9546 -0.0021
# 2 -2.5670 67.1432 -2.7516 -0.0026 4.3268 -0.0026
# 3 67.7532 -2.7516 106.0630 0.0004 39.7199 -0.0011
# 4 -0.0006 -0.0026 0.0004 -6.3878 0.0004 25.3055
# 5 43.9546 4.3268 39.7199 0.0004 37.3417 -0.0010
# 6 -0.0021 -0.0026 -0.0011 25.3055 -0.0010 -51.5666
#
#
#
# Elastic Compliance Matrix: (Units=1/GPa)
#
#
# Indices 1 2 3 4 5 6 
#
# 1 0.008705 0.000693 -0.002785 0.000003 -0.007365 0.000001
# 2 0.000693 0.015254 0.001530 0.000010 -0.004211 0.000004
# 3 -0.002785 0.001530 0.016763 0.000000 -0.014730 0.000000
# 4 0.000003 0.000010 0.000000 0.165824 -0.000004 0.081375
# 5 -0.007365 -0.004211 -0.014730 -0.000004 0.051605 -0.000002
# 6 0.000001 0.000004 0.000000 0.081375 -0.000002 0.020541
#
#
# Mechanical properties :
#
#
# Convention : Reuss Voigt Hill
#
# Bulk Modulus (GPa) = 25.25305 52.44652 38.84978
# Shear Modulus (GPa) = 17.06394 14.85846 15.96120
#
# Velocity S-wave (km/s) = 2.89990 2.70601 2.80463
# Velocity P-wave (km/s) = 4.86392 5.96740 5.44369
#
# Compressibility (1/GPa) = 0.03959918
#
# Stress axis : x y z
#
# Youngs Moduli (GPa) = 114.87715 65.55623 59.65394
#
# Poissons Ratio (x) = -0.04545 0.16612
# Poissons Ratio (y) = -0.07964 -0.09126
# Poissons Ratio (z) = 0.31989 -0.10029
#
# Static dielectric constant tensor:
#      x y z
#    x 1.753030 0.000000 0.046700 
#    y 0.000000 1.821600 0.000000 
#    z 0.046700 0.000000 1.709100 
# 
# From -- ./inp_files/276389.got.cif
#   From: 2010.05.17/outbox.cif.g08.bks.cpg/sg12_139_cif.got.tgz:276389.got - 2010.06.03 13:09:07.
