data_PCOD9222109
_publ_section_title
;
Structure prediction by ZEFSAII (Michael W. Deem and Ramdas Pophale) SiO2 
 PCOD9222109
Probable space group: C 2/M
;
_chemical_formula_sum "Si O2"
_cell_formula_units_Z 64
_cell_length_a 10.310519
_cell_length_b 15.437162
_cell_length_c 29.171423
_cell_angle_alpha 90.000000
_cell_angle_beta 45.690853
_cell_angle_gamma 90.000000
_cell_volume 3322.496570
_symmetry_space_group_name_H-M "C 2/M"
_symmetry_group_IT_number 12
_symmetry_cell_setting 'monoclinic'
loop_
_space_group_symop_operation_xyz
x,y,z
-x,y,-z
-x,-y,-z
x,-y,z
1/2+x,1/2+y,z
1/2-x,1/2+y,-z
1/2-x,1/2-y,-z
1/2+x,1/2-y,z
loop_
_atom_site_type_symbol
_atom_site_label
_atom_site_fract_x
_atom_site_fract_y
_atom_site_fract_z
Si Si1 0.791894 0.759207 0.543155
Si Si2 0.112692 0.099571 0.633844
Si Si3 0.300476 0.148346 0.282649
Si Si4 0.002501 0.400980 0.859471
Si Si5 0.846083 0.144393 0.270202
Si Si6 0.940169 0.596884 0.347142
Si Si7 0.208891 0.240542 0.956519
Si Si8 0.212995 0.900122 0.127803
O O1 0.750000 0.750000 0.500000
O O2 0.750488 0.667811 0.577873
O O3 0.662081 0.830726 0.597961
O O4 0.000000 0.783629 0.500000
O O5 0.118119 0.110870 0.687331
O O6 0.911765 0.125543 0.666770
O O7 0.150639 0.000000 0.612613
O O8 0.394289 0.111200 0.214042
O O9 0.329489 0.251631 0.275606
O O10 0.386113 0.110987 0.307719
O O11 0.937493 0.500000 0.879214
O O12 0.842478 0.331911 0.903210
O O13 0.145909 0.385992 0.865219
O O14 0.654817 0.108729 0.300014
O O15 0.012693 0.116584 0.197233
O O16 0.888382 0.500000 0.374492
O O17 0.245235 0.331323 0.921904
O O18 0.250000 0.250000 0.000000
O O19 0.000000 0.216905 0.000000
O O20 0.229533 0.000000 0.108704
#
# Coordination Sequence:
#
# PCOD9222109 Si02
#       8
#     8   8   8   8   8   8   8   8
#     4  12  26  44  66  92 130 177 227 268 320 387
#     4  12  24  43  70  98 127 171 222 272 329 401
#     4  12  22  42  70 100 135 169 209 272 351 399
#     4  11  24  43  69 101 135 173 220 276 331 394
#     4  12  22  42  70 101 134 167 212 275 343 398
#     4  12  26  43  66 100 136 170 211 276 339 393
#     4  12  26  44  69  97 134 184 229 268 320 383
#     4  11  24  43  70 101 134 175 220 273 332 396
#
# _framework density 19.262623000000001
#
# number of rings (size 3 to 8) (size 9 to 14) (size 15 to 20)
#    0.000    0.250    6.250    3.750    0.000    3.000 
#    0.000    1.250    0.000    0.000    0.000    0.000 
#    0.000    0.000    0.000    0.000    0.000    0.000 
#
# Total GULP energy -179130.193187 kJ/mol
# GULP energy per Si atom -5597.818537 kJ/mol
# Density = 1.921878 g / cm^3
# Si number density = 19.262623 Si / 1000 Ang^3
#
#
#
# Elastic Constant Matrix: (Units=GPa)
#
#
# Indices 1 2 3 4 5 6 
#
# 1 121.9751 33.3939 36.6206 -0.0001 -8.2829 -0.0001
# 2 33.3939 155.9932 36.6837 0.0002 0.3740 -0.0001
# 3 36.6206 36.6837 85.5572 0.0006 -2.2123 -0.0001
# 4 -0.0001 0.0002 0.0006 -4.4213 -0.0002 6.4958
# 5 -8.2829 0.3740 -2.2123 -0.0002 41.2535 0.0003
# 6 -0.0001 -0.0001 -0.0001 6.4958 0.0003 63.7495
#
#
#
# Elastic Compliance Matrix: (Units=1/GPa)
#
#
# Indices 1 2 3 4 5 6 
#
# 1 0.009737 -0.001245 -0.003588 -0.000001 0.001774 0.000000
# 2 -0.001245 0.007291 -0.002605 0.000000 -0.000456 0.000000
# 3 -0.003588 -0.002605 0.014343 0.000002 0.000072 0.000000
# 4 -0.000001 0.000000 0.000002 -0.196726 -0.000001 0.020046
# 5 0.001774 -0.000456 0.000072 -0.000001 0.024605 0.000000
# 6 0.000000 0.000000 0.000000 0.020046 0.000000 0.013644
#
#
# Mechanical properties :
#
#
# Convention : Reuss Voigt Hill
#
# Bulk Modulus (GPa) = 60.62597 64.10241 62.36419
# Shear Modulus (GPa) = -46.84547 37.23815 -4.80366
#
# Velocity S-wave (km/s) = -4.93682 4.40157 -1.58088
# Velocity P-wave (km/s) = 0.97699 7.69299 5.39572
#
# Compressibility (1/GPa) = 0.01649458
#
# Stress axis : x y z
#
# Youngs Moduli (GPa) = 102.70204 137.16095 69.72232
#
# Poissons Ratio (x) = 0.17075 0.25016
# Poissons Ratio (y) = 0.12785 0.18162
# Poissons Ratio (z) = 0.36850 0.35729
#
# Static dielectric constant tensor:
#      x y z
#    x 1.638280 0.000000 -0.000490 
#    y 0.000000 1.672060 0.000000 
#    z -0.000490 0.000000 1.637210 
# 
# From -- ./inp_files/372575.got.cif
#   From: 2010.05.17/outbox.cif.g08.bks.cpg/sg12_187_cif.got.tgz:372575.got - 2010.06.03 13:09:07.
