data_PCOD9222061
_publ_section_title
;
Structure prediction by ZEFSAII (Michael W. Deem and Ramdas Pophale) SiO2 
 PCOD9222061
Probable space group: C 2/M
;
_chemical_formula_sum "Si O2"
_cell_formula_units_Z 40
_cell_length_a 20.903468
_cell_length_b 21.581571
_cell_length_c 5.107471
_cell_angle_alpha 90.000000
_cell_angle_beta 44.842719
_cell_angle_gamma 90.000000
_cell_volume 1624.788599
_symmetry_space_group_name_H-M "C 2/M"
_symmetry_group_IT_number 12
_symmetry_cell_setting 'monoclinic'
loop_
_space_group_symop_operation_xyz
x,y,z
-x,y,-z
-x,-y,-z
x,-y,z
1/2+x,1/2+y,z
1/2-x,1/2+y,-z
1/2-x,1/2-y,-z
1/2+x,1/2-y,z
loop_
_atom_site_type_symbol
_atom_site_label
_atom_site_fract_x
_atom_site_fract_y
_atom_site_fract_z
Si Si1 0.096393 0.234784 0.067579
Si Si2 0.000000 0.600106 0.000000
Si Si3 0.413750 0.500000 0.566100
Si Si4 0.807147 0.110963 0.129850
Si Si5 0.090907 0.500000 0.071671
Si Si6 0.360459 0.189503 0.585162
Si Si7 0.717655 0.500000 0.425152
O O1 0.157379 0.272425 0.099444
O O2 0.000000 0.236864 0.500000
O O3 0.124984 0.163419 0.963705
O O4 0.110776 0.266630 0.744049
O O5 0.945780 0.643013 0.361105
O O6 0.075021 0.558845 0.927977
O O7 0.500000 0.500000 0.500000
O O8 0.391802 0.500000 0.322362
O O9 0.357096 0.562279 0.795753
O O10 0.726089 0.148455 0.233778
O O11 0.773392 0.064334 0.448007
O O12 0.000000 0.500000 0.500000
O O13 0.180243 0.500000 0.997066
#
# Coordination Sequence:
#
# PCOD9222061 Si02
#       7
#     8   4   4   8   4   8   4
#     4  12  26  47  73 110 148 200 246 308 375 444
#     4  11  24  42  68 108 158 183 250 288 376 441
#     4  11  28  52  75 105 141 195 259 327 374 439
#     4  11  27  46  74 106 145 192 257 302 383 438
#     4  11  26  40  74 109 153 203 236 303 373 448
#     4  12  26  46  74 112 153 197 241 306 369 456
#     4  11  26  47  75 105 145 196 252 321 373 447
#
# _framework density 24.618587000000002
#
# number of rings (size 3 to 8) (size 9 to 14) (size 15 to 20)
#    0.000    0.600    4.000    1.800   11.200    1.600 
#    3.600    0.000    0.000    0.000    0.000    0.000 
#    0.000    0.000    0.000    0.000    0.000    0.000 
#
# Total GULP energy -111672.546038 kJ/mol
# GULP energy per Si atom -5583.627302 kJ/mol
# Density = 2.456255 g / cm^3
# Si number density = 24.618587 Si / 1000 Ang^3
#
#
#
# Elastic Constant Matrix: (Units=GPa)
#
#
# Indices 1 2 3 4 5 6 
#
# 1 107.5509 21.6853 11.3158 0.0000 -17.3674 0.0000
# 2 21.6853 154.2003 15.2719 0.0000 -0.2500 0.0000
# 3 11.3158 15.2719 42.6877 0.0000 8.2816 0.0000
# 4 0.0000 0.0000 0.0000 64.3861 0.0000 -4.3740
# 5 -17.3674 -0.2500 8.2816 0.0000 39.7258 0.0000
# 6 0.0000 0.0000 0.0000 -4.3740 0.0000 10.5967
#
#
#
# Elastic Compliance Matrix: (Units=1/GPa)
#
#
# Indices 1 2 3 4 5 6 
#
# 1 0.010777 -0.001161 -0.003496 0.000000 0.005433 0.000000
# 2 -0.001161 0.006861 -0.002143 0.000000 -0.000017 0.000000
# 3 -0.003496 -0.002143 0.026490 0.000000 -0.007064 0.000000
# 4 0.000000 0.000000 0.000000 0.015979 0.000000 0.006596
# 5 0.005433 -0.000017 -0.007064 0.000000 0.029020 0.000000
# 6 0.000000 0.000000 0.000000 0.006596 0.000000 0.097092
#
#
# Mechanical properties :
#
#
# Convention : Reuss Voigt Hill
#
# Bulk Modulus (GPa) = 32.75656 44.55387 38.65521
# Shear Modulus (GPa) = 23.81018 40.01945 31.91481
#
# Velocity S-wave (km/s) = 3.11330 4.03622 3.60442
# Velocity P-wave (km/s) = 5.12426 6.31335 5.74963
#
# Compressibility (1/GPa) = 0.03052824
#
# Stress axis : x y z
#
# Youngs Moduli (GPa) = 92.78988 145.76122 37.75027
#
# Poissons Ratio (x) = 0.16917 0.13196
# Poissons Ratio (y) = 0.10769 0.08091
# Poissons Ratio (z) = 0.32436 0.31242
#
# Static dielectric constant tensor:
#      x y z
#    x 2.133380 0.000000 0.070620 
#    y 0.000000 1.932210 0.000000 
#    z 0.070620 0.000000 2.063790 
# 
# From -- ./inp_files/21152.got.cif
#   From: 2010.05.17/outbox.cif.g08.bks.cpg/sg12_11_cif.got.tgz:21152.got - 2010.06.03 13:09:07.
