data_PCOD9222723
_publ_section_title
;
Structure prediction by ZEFSAII (Michael W. Deem and Ramdas Pophale) SiO2 
 PCOD9222723
Probable space group: C 2/M
;
_chemical_formula_sum "Si O2"
_cell_formula_units_Z 28
_cell_length_a 5.433190
_cell_length_b 21.212062
_cell_length_c 9.373859
_cell_angle_alpha 90.000000
_cell_angle_beta 110.555679
_cell_angle_gamma 90.000000
_cell_volume 1011.546368
_symmetry_space_group_name_H-M "C 2/M"
_symmetry_group_IT_number 12
_symmetry_cell_setting 'monoclinic'
loop_
_space_group_symop_operation_xyz
x,y,z
-x,y,-z
-x,-y,-z
x,-y,z
1/2+x,1/2+y,z
1/2-x,1/2+y,-z
1/2-x,1/2-y,-z
1/2+x,1/2-y,z
loop_
_atom_site_type_symbol
_atom_site_label
_atom_site_fract_x
_atom_site_fract_y
_atom_site_fract_z
Si Si1 0.279029 0.265020 0.801825
Si Si2 0.571438 0.409011 0.176313
Si Si3 0.000000 0.816385 0.500000
Si Si4 0.676772 0.068464 0.357522
O O1 0.546080 0.224957 0.867603
O O2 0.403586 0.333620 0.808962
O O3 0.116128 0.232077 0.640103
O O4 0.349582 0.427843 0.246535
O O5 0.867908 0.430398 0.266434
O O6 0.500000 0.426420 0.000000
O O7 0.233310 0.869336 0.535748
O O8 0.731065 0.000000 0.436555
#
# Coordination Sequence:
#
# PCOD9222723 Si02
#       4
#     8   8   4   8
#     4  12  24  43  74 103 143 183 224 293 362 413
#     4  12  27  48  73 106 141 186 240 288 348 420
#     4  12  25  48  72 108 147 178 232 296 352 432
#     4  12  28  47  74 104 140 192 237 289 348 410
#
# _framework density 27.680389999999999
#
# number of rings (size 3 to 8) (size 9 to 14) (size 15 to 20)
#    0.000    0.000    5.714    3.000    0.000    5.714 
#    0.000    2.857    0.000    0.000    0.000    0.000 
#    0.000    0.000    0.000    0.000    0.000    0.000 
#
# Total GULP energy -78277.468577 kJ/mol
# GULP energy per Si atom -5591.247755 kJ/mol
# Density = 2.761739 g / cm^3
# Si number density = 27.680390 Si / 1000 Ang^3
#
#
#
# Elastic Constant Matrix: (Units=GPa)
#
#
# Indices 1 2 3 4 5 6 
#
# 1 263.6051 -0.2705 80.3943 0.0000 -3.1496 0.0000
# 2 -0.2705 151.6231 16.7341 0.0000 -15.0378 0.0000
# 3 80.3943 16.7341 141.4417 0.0000 8.6855 0.0000
# 4 0.0000 0.0000 0.0000 -139.2495 0.0000 -56.0087
# 5 -3.1496 -15.0378 8.6855 0.0000 56.5016 0.0000
# 6 0.0000 0.0000 0.0000 -56.0087 0.0000 21.2178
#
#
#
# Elastic Compliance Matrix: (Units=1/GPa)
#
#
# Indices 1 2 3 4 5 6 
#
# 1 0.004635 0.000387 -0.002728 0.000000 0.000781 0.000000
# 2 0.000387 0.006927 -0.001165 0.000000 0.002044 0.000000
# 3 -0.002728 -0.001165 0.008871 0.000000 -0.001826 0.000000
# 4 0.000000 0.000000 0.000000 -0.003483 0.000000 -0.009194
# 5 0.000781 0.002044 -0.001826 0.000000 0.018567 0.000000
# 6 0.000000 0.000000 0.000000 -0.009194 0.000000 0.022859
#
#
# Mechanical properties :
#
#
# Convention : Reuss Voigt Hill
#
# Bulk Modulus (GPa) = 74.51365 83.37619 78.94492
# Shear Modulus (GPa) = 71.56826 18.34810 44.95818
#
# Velocity S-wave (km/s) = 5.09032 2.57739 4.03449
# Velocity P-wave (km/s) = 7.84386 6.24849 7.09119
#
# Compressibility (1/GPa) = 0.01342036
#
# Stress axis : x y z
#
# Youngs Moduli (GPa) = 215.73125 144.35592 112.72922
#
# Poissons Ratio (x) = -0.05584 0.30757
# Poissons Ratio (y) = -0.08345 0.13133
# Poissons Ratio (z) = 0.58861 0.16817
#
# Static dielectric constant tensor:
#      x y z
#    x 2.350060 0.000000 -0.258970 
#    y 0.000000 2.140360 0.000000 
#    z -0.258970 0.000000 2.373050 
# 
# From -- ./inp_files/114577.got.cif
#   From: 2010.05.17/outbox.cif.g08.bks.cpg/sg12_58_cif.got.tgz:114577.got - 2010.06.03 13:09:07.
