data_PCOD9222385
_publ_section_title
;
Structure prediction by ZEFSAII (Michael W. Deem and Ramdas Pophale) SiO2 
 PCOD9222385
Probable space group: C 2/M
;
_chemical_formula_sum "Si O2"
_cell_formula_units_Z 64
_cell_length_a 9.625449
_cell_length_b 27.534058
_cell_length_c 24.955837
_cell_angle_alpha 90.000000
_cell_angle_beta 152.230042
_cell_angle_gamma 90.000000
_cell_volume 3081.607260
_symmetry_space_group_name_H-M "C 2/M"
_symmetry_group_IT_number 12
_symmetry_cell_setting 'monoclinic'
loop_
_space_group_symop_operation_xyz
x,y,z
-x,y,-z
-x,-y,-z
x,-y,z
1/2+x,1/2+y,z
1/2-x,1/2+y,-z
1/2-x,1/2-y,-z
1/2+x,1/2-y,z
loop_
_atom_site_type_symbol
_atom_site_label
_atom_site_fract_x
_atom_site_fract_y
_atom_site_fract_z
Si Si1 0.817965 0.902590 0.082772
Si Si2 0.786531 0.598009 0.478901
Si Si3 0.055528 0.198449 0.212282
Si Si4 0.433932 0.228433 0.873550
Si Si5 0.851004 0.557145 0.726330
Si Si6 0.694842 0.870508 0.922220
Si Si7 0.941651 0.556075 0.320852
Si Si8 0.897653 0.296524 0.524307
O O1 0.922715 0.849791 0.140214
O O2 0.088771 0.937443 0.190993
O O3 0.500000 0.915168 0.000000
O O4 0.776188 0.897824 0.005024
O O5 0.491584 0.565759 0.374844
O O6 0.699282 0.654958 0.452433
O O7 0.000000 0.592217 0.500000
O O8 0.952379 0.584153 0.590491
O O9 0.182396 0.234478 0.210708
O O10 0.313009 0.188168 0.342717
O O11 0.787670 0.224293 0.152456
O O12 0.488013 0.174995 0.867525
O O13 0.750000 0.250000 0.000000
O O14 0.929961 0.500000 0.758158
O O15 0.045048 0.591846 0.830369
O O16 0.902240 0.571770 0.681558
O O17 0.000000 0.851401 0.000000
O O18 0.018817 0.500000 0.355586
O O19 0.750000 0.250000 0.500000
O O20 0.000000 0.283426 0.500000
#
# Coordination Sequence:
#
# PCOD9222385 Si02
#       8
#     8   8   8   8   8   8   8   8
#     4  12  24  44  68 102 140 182 225 286 347 410
#     4  11  26  47  74 103 138 179 233 290 349 408
#     4  12  24  43  67  94 140 177 224 283 338 413
#     4  12  24  41  66 100 132 180 226 274 334 408
#     4  11  27  47  72 103 136 183 233 287 348 417
#     4  12  25  43  70 101 140 181 230 280 346 417
#     4  11  25  48  73 100 138 181 230 290 349 414
#     4  11  26  45  66 100 136 178 222 278 341 404
#
# _framework density 20.768383
#
# number of rings (size 3 to 8) (size 9 to 14) (size 15 to 20)
#    0.000    0.500    5.000    2.625    7.000    4.000 
#    0.000    0.000    0.000    0.000    0.000    0.000 
#    0.000    0.000    0.000    0.000    0.000    0.000 
#
# Total GULP energy -179079.527688 kJ/mol
# GULP energy per Si atom -5596.235240 kJ/mol
# Density = 2.072111 g / cm^3
# Si number density = 20.768383 Si / 1000 Ang^3
#
#
#
# Elastic Constant Matrix: (Units=GPa)
#
#
# Indices 1 2 3 4 5 6 
#
# 1 116.6473 42.4009 27.0188 -0.0004 -22.1906 0.0013
# 2 42.4009 74.7056 13.2792 -0.0014 -12.1764 -0.0005
# 3 27.0188 13.2792 64.4845 0.0040 -10.5960 0.0024
# 4 -0.0004 -0.0014 0.0040 29.3587 0.0019 -5.1872
# 5 -22.1906 -12.1764 -10.5960 0.0019 35.6067 0.0015
# 6 0.0013 -0.0005 0.0024 -5.1872 0.0015 31.2925
#
#
#
# Elastic Compliance Matrix: (Units=1/GPa)
#
#
# Indices 1 2 3 4 5 6 
#
# 1 0.012261 -0.005613 -0.003198 0.000000 0.004770 -0.000001
# 2 -0.005613 0.017058 -0.000817 0.000001 0.002092 0.000001
# 3 -0.003198 -0.000817 0.017498 -0.000003 0.002935 -0.000002
# 4 0.000000 0.000001 -0.000003 0.035089 -0.000003 0.005817
# 5 0.004770 0.002092 0.002935 -0.000003 0.032646 -0.000002
# 6 -0.000001 0.000001 -0.000002 0.005817 -0.000002 0.032921
#
#
# Mechanical properties :
#
#
# Convention : Reuss Voigt Hill
#
# Bulk Modulus (GPa) = 36.28279 46.80391 41.54335
# Shear Modulus (GPa) = 28.42251 30.79414 29.60832
#
# Velocity S-wave (km/s) = 3.70340 3.85482 3.77987
# Velocity P-wave (km/s) = 5.98290 6.51136 6.25272
#
# Compressibility (1/GPa) = 0.02756128
#
# Stress axis : x y z
#
# Youngs Moduli (GPa) = 81.55634 58.62330 57.14958
#
# Poissons Ratio (x) = 0.32907 0.18275
# Poissons Ratio (y) = 0.45781 0.04669
# Poissons Ratio (z) = 0.26079 0.04790
#
# Static dielectric constant tensor:
#      x y z
#    x 1.723900 0.000000 0.002550 
#    y 0.000000 1.736320 0.000000 
#    z 0.002550 0.000000 1.752780 
# 
# From -- ./inp_files/201305.got.cif
#   From: 2010.05.17/outbox.cif.g08.bks.cpg/sg12_101_cif.got.tgz:201305.got - 2010.06.03 13:09:07.
