data_PCOD9222480
_publ_section_title
;
Structure prediction by ZEFSAII (Michael W. Deem and Ramdas Pophale) SiO2 
 PCOD9222480
Probable space group: C 2/M
;
_chemical_formula_sum "Si O2"
_cell_formula_units_Z 64
_cell_length_a 10.333213
_cell_length_b 14.946035
_cell_length_c 21.060067
_cell_angle_alpha 90.000000
_cell_angle_beta 67.515569
_cell_angle_gamma 90.000000
_cell_volume 3005.282718
_symmetry_space_group_name_H-M "C 2/M"
_symmetry_group_IT_number 12
_symmetry_cell_setting 'monoclinic'
loop_
_space_group_symop_operation_xyz
x,y,z
-x,y,-z
-x,-y,-z
x,-y,z
1/2+x,1/2+y,z
1/2-x,1/2+y,-z
1/2-x,1/2-y,-z
1/2+x,1/2-y,z
loop_
_atom_site_type_symbol
_atom_site_label
_atom_site_fract_x
_atom_site_fract_y
_atom_site_fract_z
Si Si1 0.101082 0.099044 0.230871
Si Si2 0.835476 0.098678 0.107999
Si Si3 0.898240 0.601799 0.340264
Si Si4 0.935625 0.397792 0.185564
Si Si5 0.586433 0.227746 0.542970
Si Si6 0.328519 0.400605 0.958763
Si Si7 0.563516 0.402275 0.385007
Si Si8 0.359253 0.247531 0.864031
O O1 0.270523 0.104756 0.202286
O O2 0.045862 0.104834 0.312438
O O3 0.060538 0.183000 0.196585
O O4 0.063281 0.000000 0.212925
O O5 0.752483 0.183292 0.150371
O O6 0.002628 0.103165 0.080689
O O7 0.793269 0.000000 0.139857
O O8 0.802053 0.103778 0.038692
O O9 0.940334 0.500000 0.348254
O O10 0.951764 0.619769 0.258501
O O11 0.935087 0.669071 0.389555
O O12 0.729265 0.603313 0.366318
O O13 0.980933 0.500000 0.163663
O O14 0.025925 0.323390 0.132671
O O15 0.500000 0.186349 0.500000
O O16 0.750000 0.250000 0.500000
O O17 0.515178 0.322821 0.567843
O O18 0.279974 0.500000 0.945975
O O19 0.281947 0.313606 0.928385
O O20 0.513302 0.500000 0.415037
#
# Coordination Sequence:
#
# PCOD9222480 Si02
#       8
#     8   8   8   8   8   8   8   8
#     4   9  19  34  52  76 104 134 170 212 256 311
#     4   9  19  34  48  66  98 138 174 206 253 317
#     4   9  19  38  58  76 107 149 181 213 265 327
#     4   9  19  34  52  75 104 136 169 207 260 321
#     4  12  23  36  57  90 114 138 182 233 267 310
#     4   9  19  34  48  66  98 137 173 211 254 308
#     4   9  19  38  59  76 105 150 186 209 257 334
#     4  12  18  28  52  81  99 124 169 222 266 299
#
# _framework density 21.295832999999998
#
# number of rings (size 3 to 8) (size 9 to 14) (size 15 to 20)
#    0.000    2.250    1.250    4.875    0.000    1.000 
#    0.000    0.000    0.000    0.000    0.000   10.500 
#    0.000    0.000    0.000    0.000    0.000    0.000 
#
# Total GULP energy -178558.993629 kJ/mol
# GULP energy per Si atom -5579.968551 kJ/mol
# Density = 2.124736 g / cm^3
# Si number density = 21.295833 Si / 1000 Ang^3
#
#
#
# Elastic Constant Matrix: (Units=GPa)
#
#
# Indices 1 2 3 4 5 6 
#
# 1 32.1950 10.5964 0.3656 0.0000 -3.2631 0.0000
# 2 10.5964 150.9914 29.7901 0.0000 5.6413 0.0000
# 3 0.3656 29.7901 44.0514 0.0000 13.9507 0.0000
# 4 0.0000 0.0000 0.0000 26.2367 0.0000 -3.8551
# 5 -3.2631 5.6413 13.9507 0.0000 31.8266 0.0000
# 6 0.0000 0.0000 0.0000 -3.8551 0.0000 9.5643
#
#
#
# Elastic Compliance Matrix: (Units=1/GPa)
#
#
# Indices 1 2 3 4 5 6 
#
# 1 0.032231 -0.002444 0.000234 0.000000 0.003635 0.000000
# 2 -0.002444 0.007859 -0.005543 0.000000 0.000786 0.000000
# 3 0.000234 -0.005543 0.030340 0.000000 -0.012293 0.000000
# 4 0.000000 0.000000 0.000000 0.040514 0.000000 0.016330
# 5 0.003635 0.000786 -0.012293 0.000000 0.037042 0.000000
# 6 0.000000 0.000000 0.000000 0.016330 0.000000 0.111137
#
#
# Mechanical properties :
#
#
# Convention : Reuss Voigt Hill
#
# Bulk Modulus (GPa) = 18.20702 34.30464 26.25583
# Shear Modulus (GPa) = 17.06849 25.95792 21.51320
#
# Velocity S-wave (km/s) = 2.83414 3.49509 3.18182
# Velocity P-wave (km/s) = 4.39066 5.69483 5.08473
#
# Compressibility (1/GPa) = 0.05492388
#
# Stress axis : x y z
#
# Youngs Moduli (GPa) = 31.02613 127.24783 32.95930
#
# Poissons Ratio (x) = 0.31098 -0.00771
# Poissons Ratio (y) = 0.07582 0.18270
# Poissons Ratio (z) = -0.00726 0.70536
#
# Static dielectric constant tensor:
#      x y z
#    x 1.798010 0.000000 0.036790 
#    y 0.000000 1.796620 0.000000 
#    z 0.036790 0.000000 1.805640 
# 
# From -- ./inp_files/335282.got.cif
#   From: 2010.05.17/outbox.cif.g08.bks.cpg/sg12_168_cif.got.tgz:335282.got - 2010.06.03 13:09:07.
