data_PCOD9222862
_publ_section_title
;
Structure prediction by ZEFSAII (Michael W. Deem and Ramdas Pophale) SiO2 
 PCOD9222862
Probable space group: C 2/M
;
_chemical_formula_sum "Si O2"
_cell_formula_units_Z 52
_cell_length_a 19.597702
_cell_length_b 7.358842
_cell_length_c 21.555926
_cell_angle_alpha 90.000000
_cell_angle_beta 143.299091
_cell_angle_gamma 90.000000
_cell_volume 1857.887527
_symmetry_space_group_name_H-M "C 2/M"
_symmetry_group_IT_number 12
_symmetry_cell_setting 'monoclinic'
loop_
_space_group_symop_operation_xyz
x,y,z
-x,y,-z
-x,-y,-z
x,-y,z
1/2+x,1/2+y,z
1/2-x,1/2+y,-z
1/2-x,1/2-y,-z
1/2+x,1/2-y,z
loop_
_atom_site_type_symbol
_atom_site_label
_atom_site_fract_x
_atom_site_fract_y
_atom_site_fract_z
Si Si1 0.613341 0.218128 0.406893
Si Si2 0.889541 0.285920 0.728030
Si Si3 0.123796 0.711277 0.550290
Si Si4 0.340520 0.219218 0.290266
Si Si5 0.701848 0.200257 0.873141
Si Si6 0.421905 0.718206 0.887085
Si Si7 0.150650 0.500000 0.956334
O O1 0.750000 0.250000 0.500000
O O2 0.571584 0.291401 0.309821
O O3 0.586399 0.290369 0.456354
O O4 0.590386 0.000000 0.392744
O O5 0.875445 0.500000 0.707946
O O6 0.762808 0.211158 0.648952
O O7 0.955496 0.274355 0.841668
O O8 0.090447 0.500000 0.523954
O O9 0.101701 0.785850 0.603740
O O10 0.208129 0.278604 0.197014
O O11 0.344325 0.000000 0.299148
O O12 0.370778 0.255082 0.240440
O O13 0.797384 0.343148 0.959439
O O14 0.754629 0.000000 0.895924
O O15 0.635668 0.154784 0.888471
O O16 0.423843 0.500000 0.888577
O O17 0.500000 0.784549 0.000000
#
# Coordination Sequence:
#
# PCOD9222862 Si02
#       7
#     8   8   8   8   8   8   4
#     4   8  13  20  31  45  61  81 107 137 167 202
#     4   9  15  22  32  46  63  83 108 143 180 205
#     4   8  13  22  33  46  63  85 113 139 164 197
#     4   8  13  22  36  49  65  88 113 145 173 198
#     4   8  13  23  35  51  70  88 116 140 168 207
#     4   9  17  28  38  47  61  87 125 156 177 202
#     4   8  14  22  36  52  68  90 112 140 166 212
#
# _framework density 27.988776000000001
#
# number of rings (size 3 to 8) (size 9 to 14) (size 15 to 20)
#    0.462    3.231    0.000    1.385    0.000    0.923 
#    5.538    0.000    0.000    0.000    0.000    0.000 
#    0.000    0.000    0.000    0.000    0.000    9.231 
#
# Total GULP energy -144750.692905 kJ/mol
# GULP energy per Si atom -5567.334342 kJ/mol
# Density = 2.792507 g / cm^3
# Si number density = 27.988776 Si / 1000 Ang^3
#
#
#
# Elastic Constant Matrix: (Units=GPa)
#
#
# Indices 1 2 3 4 5 6 
#
# 1 164.4686 7.1141 78.6205 0.0000 -57.9493 0.0000
# 2 7.1141 115.1281 20.1591 0.0000 -2.5973 -0.0001
# 3 78.6205 20.1591 329.6101 0.0000 -58.6945 0.0000
# 4 0.0000 0.0000 0.0000 7.7948 0.0000 -7.5270
# 5 -57.9493 -2.5973 -58.6945 0.0000 73.5374 0.0000
# 6 0.0000 -0.0001 0.0000 -7.5270 0.0000 -19.2945
#
#
#
# Elastic Compliance Matrix: (Units=1/GPa)
#
#
# Indices 1 2 3 4 5 6 
#
# 1 0.008694 -0.000229 -0.000981 0.000000 0.006061 0.000000
# 2 -0.000229 0.008787 -0.000536 0.000000 -0.000298 0.000000
# 3 -0.000981 -0.000536 0.003683 0.000000 0.002148 0.000000
# 4 0.000000 0.000000 0.000000 0.093186 0.000000 -0.036353
# 5 0.006061 -0.000298 0.002148 0.000000 0.020078 0.000000
# 6 0.000000 0.000000 0.000000 -0.036353 0.000000 -0.037647
#
#
# Mechanical properties :
#
#
# Convention : Reuss Voigt Hill
#
# Bulk Modulus (GPa) = 56.58035 91.22157 73.90096
# Shear Modulus (GPa) = 47.09692 45.96175 46.52933
#
# Velocity S-wave (km/s) = 4.10653 4.05674 4.08171
# Velocity P-wave (km/s) = 6.53789 7.38957 6.97674
#
# Compressibility (1/GPa) = 0.01767398
#
# Stress axis : x y z
#
# Youngs Moduli (GPa) = 115.01900 113.80151 271.51346
#
# Poissons Ratio (x) = 0.02604 0.26624
# Poissons Ratio (y) = 0.02632 0.14549
# Poissons Ratio (z) = 0.11279 0.06098
#
# Static dielectric constant tensor:
#      x y z
#    x 2.397120 0.000000 0.046710 
#    y 0.000000 3.463070 0.000000 
#    z 0.046710 0.000000 2.200480 
# 
# From -- ./inp_files/328960.got.cif
#   From: 2010.05.17/outbox.cif.g08.bks.cpg/sg12_165_cif.got.tgz:328960.got - 2010.06.03 13:09:07.
