data_PCOD9222646
_publ_section_title
;
Structure prediction by ZEFSAII (Michael W. Deem and Ramdas Pophale) SiO2 
 PCOD9222646
Probable space group: C 2/M
;
_chemical_formula_sum "Si O2"
_cell_formula_units_Z 44
_cell_length_a 9.227070
_cell_length_b 23.571534
_cell_length_c 12.461674
_cell_angle_alpha 90.000000
_cell_angle_beta 51.563041
_cell_angle_gamma 90.000000
_cell_volume 2123.010207
_symmetry_space_group_name_H-M "C 2/M"
_symmetry_group_IT_number 12
_symmetry_cell_setting 'monoclinic'
loop_
_space_group_symop_operation_xyz
x,y,z
-x,y,-z
-x,-y,-z
x,-y,z
1/2+x,1/2+y,z
1/2-x,1/2+y,-z
1/2-x,1/2-y,-z
1/2+x,1/2-y,z
loop_
_atom_site_type_symbol
_atom_site_label
_atom_site_fract_x
_atom_site_fract_y
_atom_site_fract_z
Si Si1 0.721989 0.277015 0.129526
Si Si2 0.165943 0.268566 0.693708
Si Si3 0.501982 0.120338 0.711772
Si Si4 0.810136 0.401299 0.024121
Si Si5 0.431980 0.000000 0.652021
Si Si6 0.000000 0.309845 0.500000
Si Si7 0.015004 0.000000 0.121306
O O1 0.848657 0.259173 0.170807
O O2 0.524079 0.256649 0.261717
O O3 0.740492 0.344071 0.111087
O O4 0.750000 0.250000 0.000000
O O5 0.165557 0.336447 0.673130
O O6 0.327768 0.232172 0.568681
O O7 0.447796 0.150080 0.624486
O O8 0.514768 0.054705 0.674680
O O9 0.365902 0.117486 0.877049
O O10 0.643898 0.446711 0.097165
O O11 0.000000 0.419753 0.000000
O O12 0.500000 0.000000 0.500000
O O13 0.204919 0.000000 0.748774
O O14 0.000000 0.000000 0.000000
#
# Coordination Sequence:
#
# PCOD9222646 Si02
#       7
#     8   8   8   8   4   4   4
#     4  12  23  40  69 103 142 185 237 288 375 425
#     4  12  25  43  68 107 144 192 233 295 361 435
#     4  12  24  45  74 102 143 192 236 302 360 428
#     4  12  24  45  70 107 148 178 238 308 373 426
#     4  12  28  52  74 106 146 194 251 300 368 437
#     4  12  26  45  70 107 150 190 246 292 364 442
#     4  12  27  44  77 109 133 190 249 304 358 437
#
# _framework density 20.725290000000001
#
# number of rings (size 3 to 8) (size 9 to 14) (size 15 to 20)
#    0.000    0.000    8.182    1.364    2.545    1.455 
#    0.000    0.000    0.000    1.636    0.000    0.000 
#    0.000    0.000    0.000    0.000    0.000    0.000 
#
# Total GULP energy -122646.023915 kJ/mol
# GULP energy per Si atom -5574.819269 kJ/mol
# Density = 2.067812 g / cm^3
# Si number density = 20.725290 Si / 1000 Ang^3
#
#
#
# Elastic Constant Matrix: (Units=GPa)
#
#
# Indices 1 2 3 4 5 6 
#
# 1 93.8961 30.5405 26.3399 0.0000 -1.4787 0.0000
# 2 30.5405 123.9180 32.2584 0.0000 -13.2238 0.0000
# 3 26.3399 32.2584 109.5198 0.0000 2.7411 0.0000
# 4 0.0000 0.0000 0.0000 21.0641 0.0000 16.4466
# 5 -1.4787 -13.2238 2.7411 0.0000 39.5445 0.0000
# 6 0.0000 0.0000 0.0000 16.4466 0.0000 33.8588
#
#
#
# Elastic Compliance Matrix: (Units=1/GPa)
#
#
# Indices 1 2 3 4 5 6 
#
# 1 0.012046 -0.002424 -0.002178 0.000000 -0.000209 0.000000
# 2 -0.002424 0.009626 -0.002335 0.000000 0.003290 0.000000
# 3 -0.002178 -0.002335 0.010382 0.000000 -0.001582 0.000000
# 4 0.000000 0.000000 0.000000 0.076480 0.000000 -0.037149
# 5 -0.000209 0.003290 -0.001582 0.000000 0.026490 0.000000
# 6 0.000000 0.000000 0.000000 -0.037149 0.000000 0.047579
#
#
# Mechanical properties :
#
#
# Convention : Reuss Voigt Hill
#
# Bulk Modulus (GPa) = 55.00352 56.17908 55.59130
# Shear Modulus (GPa) = 24.68684 34.77317 29.73001
#
# Velocity S-wave (km/s) = 3.45504 4.10056 3.79156
# Velocity P-wave (km/s) = 6.52023 7.04165 6.78595
#
# Compressibility (1/GPa) = 0.01818066
#
# Stress axis : x y z
#
# Youngs Moduli (GPa) = 83.01357 103.88317 96.32246
#
# Poissons Ratio (x) = 0.25184 0.20978
# Poissons Ratio (y) = 0.20125 0.22488
# Poissons Ratio (z) = 0.18079 0.24253
#
# Static dielectric constant tensor:
#      x y z
#    x 1.856080 0.000000 -0.025010 
#    y 0.000000 1.764680 0.000000 
#    z -0.025010 0.000000 1.822080 
# 
# From -- ./inp_files/122375.got.cif
#   From: 2010.05.17/outbox.cif.g08.bks.cpg/sg12_62_cif.got.tgz:122375.got - 2010.06.03 13:09:07.
