data_PCOD9222713
_publ_section_title
;
Structure prediction by ZEFSAII (Michael W. Deem and Ramdas Pophale) SiO2 
 PCOD9222713
Probable space group: C 2/M
;
_chemical_formula_sum "Si O2"
_cell_formula_units_Z 36
_cell_length_a 29.392934
_cell_length_b 14.265584
_cell_length_c 23.936835
_cell_angle_alpha 90.000000
_cell_angle_beta 10.601029
_cell_angle_gamma 90.000000
_cell_volume 1846.476892
_symmetry_space_group_name_H-M "C 2/M"
_symmetry_group_IT_number 12
_symmetry_cell_setting 'monoclinic'
loop_
_space_group_symop_operation_xyz
x,y,z
-x,y,-z
-x,-y,-z
x,-y,z
1/2+x,1/2+y,z
1/2-x,1/2+y,-z
1/2-x,1/2-y,-z
1/2+x,1/2-y,z
loop_
_atom_site_type_symbol
_atom_site_label
_atom_site_fract_x
_atom_site_fract_y
_atom_site_fract_z
Si Si1 0.084788 0.500000 0.705926
Si Si2 0.868109 0.000000 0.944303
Si Si3 0.902939 0.706128 0.263973
Si Si4 0.607625 0.175456 0.311875
Si Si5 0.079121 0.000000 0.252175
Si Si6 0.271883 0.685447 0.647113
O O1 0.367501 0.500000 0.342815
O O2 0.062526 0.595287 0.768056
O O3 0.863915 0.500000 0.928052
O O4 0.928748 0.000000 0.805478
O O5 0.716509 0.908212 0.143625
O O6 0.750000 0.750000 0.500000
O O7 0.763283 0.719568 0.374161
O O8 0.166964 0.755736 0.944965
O O9 0.500000 0.138235 0.500000
O O10 0.405972 0.235505 0.521781
O O11 0.939409 0.092201 0.443200
O O12 0.000000 0.665246 0.000000
#
# Coordination Sequence:
#
# PCOD9222713 Si02
#       6
#     4   4   8   8   4   8
#     4  12  24  41  68 104 135 173 227 283 342 399
#     4  12  27  45  69  97 142 176 237 284 333 410
#     4  12  24  44  70  99 143 183 231 285 338 412
#     4  12  26  46  69 100 137 188 229 283 347 406
#     4  12  25  42  71 106 134 180 223 283 349 413
#     4  12  25  44  69 103 140 176 227 284 348 411
#
# _framework density 19.496589
#
# number of rings (size 3 to 8) (size 9 to 14) (size 15 to 20)
#    0.000    0.000    8.889    0.667    3.111    1.778 
#    0.000    2.778    0.000    0.000    0.000    0.000 
#    0.000    0.000    0.000    0.000    0.000    0.000 
#
# Total GULP energy -100699.174568 kJ/mol
# GULP energy per Si atom -5594.398587 kJ/mol
# Density = 1.945221 g / cm^3
# Si number density = 19.496589 Si / 1000 Ang^3
#
#
#
# Elastic Constant Matrix: (Units=GPa)
#
#
# Indices 1 2 3 4 5 6 
#
# 1 109.9275 24.3409 40.6116 -0.1217 -11.9605 0.0569
# 2 24.3409 117.4803 38.3966 -0.4984 -1.4184 0.1182
# 3 40.6116 38.3966 122.5739 -0.5155 -5.9197 0.1228
# 4 -0.1217 -0.4984 -0.5155 14.6615 0.2336 2.8821
# 5 -11.9605 -1.4184 -5.9197 0.2336 39.2726 -0.0425
# 6 0.0569 0.1182 0.1228 2.8821 -0.0425 22.3478
#
#
#
# Elastic Compliance Matrix: (Units=1/GPa)
#
#
# Indices 1 2 3 4 5 6 
#
# 1 0.010799 -0.001202 -0.003068 -0.000106 0.002784 0.000015
# 2 -0.001202 0.009618 -0.002634 0.000244 -0.000417 -0.000066
# 3 -0.003068 -0.002634 0.010024 0.000242 0.000480 -0.000064
# 4 -0.000106 0.000244 0.000242 0.070004 -0.000413 -0.009031
# 5 0.002784 -0.000417 0.000480 -0.000413 0.026371 0.000096
# 6 0.000015 -0.000066 -0.000064 -0.009031 0.000096 0.045913
#
#
# Mechanical properties :
#
#
# Convention : Reuss Voigt Hill
#
# Bulk Modulus (GPa) = 60.11459 61.85333 60.98396
# Shear Modulus (GPa) = 26.03092 31.69854 28.86473
#
# Velocity S-wave (km/s) = 3.65794 4.03656 3.85190
# Velocity P-wave (km/s) = 6.98148 7.31568 7.15053
#
# Compressibility (1/GPa) = 0.01663490
#
# Stress axis : x y z
#
# Youngs Moduli (GPa) = 92.60091 103.97267 99.76073
#
# Poissons Ratio (x) = 0.12495 0.30602
# Poissons Ratio (y) = 0.11128 0.26274
# Poissons Ratio (z) = 0.28406 0.27384
#
# Static dielectric constant tensor:
#      x y z
#    x 1.664730 -0.000040 -0.001030 
#    y -0.000040 1.652840 0.000050 
#    z -0.001030 0.000050 1.680290 
# 
# From -- ./inp_files/316445.got.cif
#   From: 2010.05.17/outbox.cif.g08.bks.cpg/sg12_159_cif.got.tgz:316445.got - 2010.06.03 13:09:07.
