data_PCOD9222511
_publ_section_title
;
Structure prediction by ZEFSAII (Michael W. Deem and Ramdas Pophale) SiO2 
 PCOD9222511
Probable space group: C 2/M
;
_chemical_formula_sum "Si O2"
_cell_formula_units_Z 44
_cell_length_a 23.064355
_cell_length_b 15.314412
_cell_length_c 17.823890
_cell_angle_alpha 90.000000
_cell_angle_beta 20.090215
_cell_angle_gamma 90.000000
_cell_volume 2162.569152
_symmetry_space_group_name_H-M "C 2/M"
_symmetry_group_IT_number 12
_symmetry_cell_setting 'monoclinic'
loop_
_space_group_symop_operation_xyz
x,y,z
-x,y,-z
-x,-y,-z
x,-y,z
1/2+x,1/2+y,z
1/2-x,1/2+y,-z
1/2-x,1/2-y,-z
1/2+x,1/2-y,z
loop_
_atom_site_type_symbol
_atom_site_label
_atom_site_fract_x
_atom_site_fract_y
_atom_site_fract_z
Si Si1 0.351232 0.708381 0.573597
Si Si2 0.352718 0.594259 0.021690
Si Si3 0.674472 0.653624 0.108693
Si Si4 0.113516 0.251856 0.732824
Si Si5 0.658967 0.102397 0.936721
Si Si6 0.000000 0.655222 0.500000
O O1 0.474902 0.656689 0.368256
O O2 0.207275 0.752564 0.698602
O O3 0.274044 0.648887 0.733264
O O4 0.471468 0.780600 0.464613
O O5 0.430169 0.500000 0.944695
O O6 0.174239 0.604606 0.280315
O O7 0.305022 0.600264 0.992049
O O8 0.476545 0.674815 0.889220
O O9 0.759906 0.616427 0.079769
O O10 0.750000 0.750000 0.000000
O O11 0.250000 0.250000 0.500000
O O12 0.014304 0.343519 0.852185
O O13 0.639808 0.000000 0.944400
#
# Coordination Sequence:
#
# PCOD9222511 Si02
#       6
#     8   8   8   8   8   4
#     4  12  22  42  73  96 137 183 222 276 349 411
#     4  12  26  45  70 102 136 181 235 284 336 402
#     4  12  20  44  72  97 136 181 225 281 338 402
#     4  12  25  45  69  95 142 183 223 278 348 410
#     4  12  26  43  69 105 138 176 228 284 345 413
#     4  12  23  46  73  96 134 184 231 288 335 398
#
# _framework density 20.346170999999998
#
# number of rings (size 3 to 8) (size 9 to 14) (size 15 to 20)
#    0.000    0.000    9.091    1.364    0.000    4.364 
#    0.000    2.727    0.000    0.000    0.000    0.000 
#    0.000    0.000    0.000    0.000    0.000    0.000 
#
# Total GULP energy -123011.773184 kJ/mol
# GULP energy per Si atom -5591.444236 kJ/mol
# Density = 2.029986 g / cm^3
# Si number density = 20.346171 Si / 1000 Ang^3
#
#
#
# Elastic Constant Matrix: (Units=GPa)
#
#
# Indices 1 2 3 4 5 6 
#
# 1 89.8121 20.1791 1.2423 -0.0028 -13.3759 0.0010
# 2 20.1791 128.6296 30.3710 -0.0025 -4.4798 0.0013
# 3 1.2423 30.3710 110.3741 -0.0028 7.0097 0.0020
# 4 -0.0028 -0.0025 -0.0028 9.2063 0.0018 3.7702
# 5 -13.3759 -4.4798 7.0097 0.0018 36.8771 -0.0008
# 6 0.0010 0.0013 0.0020 3.7702 -0.0008 10.7317
#
#
#
# Elastic Compliance Matrix: (Units=1/GPa)
#
#
# Indices 1 2 3 4 5 6 
#
# 1 0.012155 -0.001782 0.000088 0.000003 0.004176 -0.000002
# 2 -0.001782 0.008654 -0.002416 0.000001 0.000864 -0.000001
# 3 0.000088 -0.002416 0.009860 0.000004 -0.002136 -0.000003
# 4 0.000003 0.000001 0.000004 0.126875 -0.000007 -0.044573
# 5 0.004176 0.000864 -0.002136 -0.000007 0.029143 0.000005
# 6 -0.000002 -0.000001 -0.000003 -0.044573 0.000005 0.108841
#
#
# Mechanical properties :
#
#
# Convention : Reuss Voigt Hill
#
# Bulk Modulus (GPa) = 44.54496 48.04453 46.29475
# Shear Modulus (GPa) = 16.06522 29.83123 22.94823
#
# Velocity S-wave (km/s) = 2.81302 3.83323 3.36205
# Velocity P-wave (km/s) = 5.70016 6.57696 6.15419
#
# Compressibility (1/GPa) = 0.02244923
#
# Stress axis : x y z
#
# Youngs Moduli (GPa) = 82.26731 115.54724 101.42410
#
# Poissons Ratio (x) = 0.20595 -0.00897
# Poissons Ratio (y) = 0.14663 0.24506
# Poissons Ratio (z) = -0.00728 0.27919
#
# Static dielectric constant tensor:
#      x y z
#    x 1.720390 0.000000 -0.000240 
#    y 0.000000 1.741640 0.000000 
#    z -0.000240 0.000000 1.739150 
# 
# From -- ./inp_files/290008.got.cif
#   From: 2010.05.17/outbox.cif.g08.bks.cpg/sg12_146_cif.got.tgz:290008.got - 2010.06.03 13:09:07.
