data_PCOD9222700
_publ_section_title
;
Structure prediction by ZEFSAII (Michael W. Deem and Ramdas Pophale) SiO2 
 PCOD9222700
Probable space group: C 2/M
;
_chemical_formula_sum "Si O2"
_cell_formula_units_Z 40
_cell_length_a 10.371804
_cell_length_b 26.089057
_cell_length_c 9.651358
_cell_angle_alpha 90.000000
_cell_angle_beta 51.580285
_cell_angle_gamma 90.000000
_cell_volume 2046.109373
_symmetry_space_group_name_H-M "C 2/M"
_symmetry_group_IT_number 12
_symmetry_cell_setting 'monoclinic'
loop_
_space_group_symop_operation_xyz
x,y,z
-x,y,-z
-x,-y,-z
x,-y,z
1/2+x,1/2+y,z
1/2-x,1/2+y,-z
1/2-x,1/2-y,-z
1/2+x,1/2-y,z
loop_
_atom_site_type_symbol
_atom_site_label
_atom_site_fract_x
_atom_site_fract_y
_atom_site_fract_z
Si Si1 0.883175 0.291858 0.955604
Si Si2 0.682051 0.388240 0.059376
Si Si3 0.713984 0.500000 0.708008
Si Si4 0.613952 0.790090 0.542787
Si Si5 0.206516 0.887424 0.707039
Si Si6 0.814696 0.000000 0.950463
O O1 0.999847 0.303417 0.748293
O O2 0.750000 0.250000 0.000000
O O3 0.784477 0.343136 0.060436
O O4 0.000000 0.272496 0.000000
O O5 0.485526 0.381903 0.206619
O O6 0.731146 0.444888 0.079398
O O7 0.710536 0.385795 0.872819
O O8 0.768245 0.444134 0.619149
O O9 0.514577 0.500000 0.826462
O O10 0.747461 0.500000 0.849820
O O11 0.500000 0.765889 0.500000
O O12 0.750000 0.750000 0.500000
O O13 0.693436 0.840982 0.424495
#
# Coordination Sequence:
#
# PCOD9222700 Si02
#       6
#     8   8   4   8   8   4
#     4  12  26  41  59  83 115 157 197 240 295 349
#     4   9  17  34  59  87 117 151 193 228 289 341
#     4   7  12  26  52  88 116 144 187 226 286 332
#     4  12  24  40  58  85 115 150 195 245 294 339
#     4   9  17  33  60  88 117 150 188 242 278 344
#     4   7  12  26  54  85 114 149 185 229 270 353
#
# _framework density 19.549295999999998
#
# number of rings (size 3 to 8) (size 9 to 14) (size 15 to 20)
#    0.000    2.200    2.000    4.800    2.800    0.000 
#    0.000    2.000    0.000    0.000    0.000    4.900 
#    0.000    0.000    0.000    0.000    0.000    0.000 
#
# Total GULP energy -111579.897467 kJ/mol
# GULP energy per Si atom -5578.994873 kJ/mol
# Density = 1.950480 g / cm^3
# Si number density = 19.549296 Si / 1000 Ang^3
#
#
#
# Elastic Constant Matrix: (Units=GPa)
#
#
# Indices 1 2 3 4 5 6 
#
# 1 102.6535 56.9409 14.6448 0.0000 -1.2439 0.0000
# 2 56.9409 143.4607 16.5477 0.0000 -19.7298 0.0000
# 3 14.6448 16.5477 53.4544 0.0000 -8.3478 0.0000
# 4 0.0000 0.0000 0.0000 -12.1133 0.0000 10.7176
# 5 -1.2439 -19.7298 -8.3478 0.0000 18.1591 0.0000
# 6 0.0000 0.0000 0.0000 10.7176 0.0000 20.7326
#
#
#
# Elastic Compliance Matrix: (Units=1/GPa)
#
#
# Indices 1 2 3 4 5 6 
#
# 1 0.013346 -0.005902 -0.002896 0.000000 -0.006830 0.000000
# 2 -0.005902 0.010882 0.000034 0.000000 0.011435 0.000000
# 3 -0.002896 0.000034 0.020971 0.000000 0.009479 0.000000
# 4 0.000000 0.000000 0.000000 -0.056646 0.000000 0.029283
# 5 -0.006830 0.011435 0.009479 0.000000 0.071382 0.000000
# 6 0.000000 0.000000 0.000000 0.029283 0.000000 0.033096
#
#
# Mechanical properties :
#
#
# Convention : Reuss Voigt Hill
#
# Bulk Modulus (GPa) = 36.13989 52.87059 44.50524
# Shear Modulus (GPa) = 41.74229 19.45134 30.59682
#
# Velocity S-wave (km/s) = 4.62587 3.15777 3.96044
# Velocity P-wave (km/s) = 6.85990 6.35600 6.61275
#
# Compressibility (1/GPa) = 0.02767026
#
# Stress axis : x y z
#
# Youngs Moduli (GPa) = 74.92960 91.89565 47.68574
#
# Poissons Ratio (x) = 0.54240 0.13809
# Poissons Ratio (y) = 0.44226 -0.00163
# Poissons Ratio (z) = 0.21698 -0.00313
#
# Static dielectric constant tensor:
#      x y z
#    x 1.697610 0.000000 0.004510 
#    y 0.000000 1.726000 0.000000 
#    z 0.004510 0.000000 1.725770 
# 
# From -- ./inp_files/52365.got.cif
#   From: 2010.05.17/outbox.cif.g08.bks.cpg/sg12_27_cif.got.tgz:52365.got - 2010.06.03 13:09:07.
