data_PCOD9222964
_publ_section_title
;
Structure prediction by ZEFSAII (Michael W. Deem and Ramdas Pophale) SiO2 
 PCOD9222964
Probable space group: C 2/M
;
_chemical_formula_sum "Si O2"
_cell_formula_units_Z 56
_cell_length_a 15.894372
_cell_length_b 7.422180
_cell_length_c 17.122347
_cell_angle_alpha 90.000000
_cell_angle_beta 84.589793
_cell_angle_gamma 90.000000
_cell_volume 2010.940059
_symmetry_space_group_name_H-M "C 2/M"
_symmetry_group_IT_number 12
_symmetry_cell_setting 'monoclinic'
loop_
_space_group_symop_operation_xyz
x,y,z
-x,y,-z
-x,-y,-z
x,-y,z
1/2+x,1/2+y,z
1/2-x,1/2+y,-z
1/2-x,1/2-y,-z
1/2+x,1/2-y,z
loop_
_atom_site_type_symbol
_atom_site_label
_atom_site_fract_x
_atom_site_fract_y
_atom_site_fract_z
Si Si1 0.040333 0.282228 0.878351
Si Si2 0.448965 0.290484 0.411444
Si Si3 0.134173 0.714732 0.016488
Si Si4 0.170933 0.785230 0.449451
Si Si5 0.295184 0.781166 0.310748
Si Si6 0.947703 0.788804 0.735590
Si Si7 0.780253 0.215929 0.836160
O O1 0.046038 0.500000 0.874339
O O2 0.023954 0.222254 0.791645
O O3 0.952540 0.232557 0.930313
O O4 0.115156 0.218190 0.929893
O O5 0.469702 0.500000 0.422662
O O6 0.410476 0.214793 0.495633
O O7 0.369795 0.288645 0.358271
O O8 0.522493 0.211597 0.350038
O O9 0.134478 0.500000 0.009816
O O10 0.208079 0.754599 0.072460
O O11 0.250000 0.750000 0.500000
O O12 0.207844 0.728145 0.362758
O O13 0.159764 0.000000 0.445542
O O14 0.288929 0.723257 0.221229
O O15 0.301888 0.000000 0.312729
O O16 0.867231 0.713941 0.788774
O O17 0.929402 0.000000 0.724214
O O18 0.776926 0.000000 0.831383
#
# Coordination Sequence:
#
# PCOD9222964 Si02
#       7
#     8   8   8   8   8   8   8
#     4   8  14  25  41  61  84 110 141 174 206 244
#     4   9  17  29  45  64  85 111 143 176 209 247
#     4   8  14  25  41  61  84 110 141 174 206 244
#     4   8  14  26  43  61  81 107 141 176 206 240
#     4   9  17  29  45  64  85 111 143 176 209 247
#     4   9  17  28  42  63  90 114 137 170 212 254
#     4   9  17  28  42  63  90 114 137 170 212 254
#
# _framework density 27.847674000000001
#
# number of rings (size 3 to 8) (size 9 to 14) (size 15 to 20)
#    0.000    3.429    0.000    0.857    0.000    1.714 
#    0.000    3.571    0.000    5.143    0.000    0.000 
#    0.000   16.000    0.000    0.000    0.000    0.000 
#
# Total GULP energy -156428.557142 kJ/mol
# GULP energy per Si atom -5586.734184 kJ/mol
# Density = 2.778429 g / cm^3
# Si number density = 27.847674 Si / 1000 Ang^3
#
#
#
# Elastic Constant Matrix: (Units=GPa)
#
#
# Indices 1 2 3 4 5 6 
#
# 1 114.9458 -5.1373 32.9994 0.0000 22.7443 0.0000
# 2 -5.1373 90.1232 8.5239 0.0000 4.4291 0.0000
# 3 32.9994 8.5239 264.1356 0.0000 6.8104 0.0000
# 4 0.0000 0.0000 0.0000 0.1594 0.0000 2.1807
# 5 22.7443 4.4291 6.8104 0.0000 63.8371 0.0000
# 6 0.0000 0.0000 0.0000 2.1807 0.0000 -13.6481
#
#
#
# Elastic Compliance Matrix: (Units=1/GPa)
#
#
# Indices 1 2 3 4 5 6 
#
# 1 0.009743 0.000832 -0.001156 0.000000 -0.003406 0.000000
# 2 0.000832 0.011236 -0.000440 0.000000 -0.001029 0.000000
# 3 -0.001156 -0.000440 0.003944 0.000000 0.000022 0.000000
# 4 0.000000 0.000000 0.000000 1.969355 0.000000 0.314662
# 5 -0.003406 -0.001029 0.000022 0.000000 0.016947 0.000000
# 6 0.000000 0.000000 0.000000 0.314662 0.000000 -0.022994
#
#
# Mechanical properties :
#
#
# Convention : Reuss Voigt Hill
#
# Bulk Modulus (GPa) = 42.74599 60.21964 51.48281
# Shear Modulus (GPa) = 2.50306 38.92426 20.71366
#
# Velocity S-wave (km/s) = 0.94910 3.74271 2.73027
# Velocity P-wave (km/s) = 4.07238 6.35207 5.33541
#
# Compressibility (1/GPa) = 0.02339401
#
# Stress axis : x y z
#
# Youngs Moduli (GPa) = 102.64048 89.00325 253.54801
#
# Poissons Ratio (x) = -0.07406 0.29316
# Poissons Ratio (y) = -0.08541 0.11156
# Poissons Ratio (z) = 0.11868 0.03916
#
# Static dielectric constant tensor:
#      x y z
#    x 2.294460 0.000000 -0.036270 
#    y 0.000000 2.260230 0.000000 
#    z -0.036270 0.000000 2.180110 
# 
# From -- ./inp_files/258993.got.cif
#   From: 2010.05.17/outbox.cif.g08.bks.cpg/sg12_130_cif.got.tgz:258993.got - 2010.06.03 13:09:07.
