data_PCOD9222569
_publ_section_title
;
Structure prediction by ZEFSAII (Michael W. Deem and Ramdas Pophale) SiO2 
 PCOD9222569
Probable space group: C 2/M
;
_chemical_formula_sum "Si O2"
_cell_formula_units_Z 48
_cell_length_a 13.956035
_cell_length_b 31.923640
_cell_length_c 10.870793
_cell_angle_alpha 90.000000
_cell_angle_beta 31.077544
_cell_angle_gamma 90.000000
_cell_volume 2500.067524
_symmetry_space_group_name_H-M "C 2/M"
_symmetry_group_IT_number 12
_symmetry_cell_setting 'monoclinic'
loop_
_space_group_symop_operation_xyz
x,y,z
-x,y,-z
-x,-y,-z
x,-y,z
1/2+x,1/2+y,z
1/2-x,1/2+y,-z
1/2-x,1/2-y,-z
1/2+x,1/2-y,z
loop_
_atom_site_type_symbol
_atom_site_label
_atom_site_fract_x
_atom_site_fract_y
_atom_site_fract_z
Si Si1 0.279870 0.000000 0.865427
Si Si2 0.488633 0.569928 0.160880
Si Si3 0.423965 0.657564 0.808674
Si Si4 0.808366 0.500000 0.536011
Si Si5 0.234778 0.701328 0.491843
Si Si6 0.723489 0.215269 0.233135
Si Si7 0.372199 0.189690 0.024948
O O1 0.300861 0.000000 0.693494
O O2 0.472209 0.000000 0.726936
O O3 0.156368 0.040732 0.022678
O O4 0.518129 0.613380 0.197424
O O5 0.303351 0.541525 0.383891
O O6 0.500000 0.576118 0.000000
O O7 0.619963 0.680405 0.576502
O O8 0.296446 0.659849 0.828235
O O9 0.306686 0.685807 0.035474
O O10 0.250000 0.750000 0.500000
O O11 0.292127 0.696128 0.287482
O O12 0.025102 0.688635 0.748071
O O13 0.500000 0.217130 0.500000
O O14 0.796852 0.262636 0.127611
O O15 0.500000 0.178390 0.000000
#
# Coordination Sequence:
#
# PCOD9222569 Si02
#       7
#     4   8   8   4   8   8   8
#     4   8  15  31  56  77 111 146 173 208 276 344
#     4   9  18  33  52  81 116 143 178 224 271 336
#     4  12  24  37  55  84 115 149 192 241 281 329
#     4   8  15  31  54  81 107 149 176 207 275 347
#     4  12  22  39  57  77 107 151 193 238 286 330
#     4  12  22  38  58  78 110 151 197 240 286 334
#     4  12  25  39  56  77 106 153 203 240 286 332
#
# _framework density 19.199482
#
# number of rings (size 3 to 8) (size 9 to 14) (size 15 to 20)
#    0.000    1.167    5.000    4.000    0.000    1.333 
#    6.000    0.000    0.000    0.000    0.000    2.333 
#    0.000    6.667    0.000    0.000    0.000    0.000 
#
# Total GULP energy -133859.408583 kJ/mol
# GULP energy per Si atom -5577.475358 kJ/mol
# Density = 1.915578 g / cm^3
# Si number density = 19.199482 Si / 1000 Ang^3
#
#
#
# Elastic Constant Matrix: (Units=GPa)
#
#
# Indices 1 2 3 4 5 6 
#
# 1 114.8440 53.6685 35.1386 0.0000 -37.2104 0.0000
# 2 53.6685 115.7100 26.9954 0.0000 -31.0478 0.0000
# 3 35.1386 26.9954 87.4275 0.0000 -36.3708 0.0000
# 4 0.0000 0.0000 0.0000 4.6031 0.0000 3.6061
# 5 -37.2104 -31.0478 -36.3708 0.0000 48.4902 0.0000
# 6 0.0000 0.0000 0.0000 3.6061 0.0000 24.6040
#
#
#
# Elastic Compliance Matrix: (Units=1/GPa)
#
#
# Indices 1 2 3 4 5 6 
#
# 1 0.013092 -0.004026 -0.001325 0.000000 0.006475 0.000000
# 2 -0.004026 0.011698 -0.000237 0.000000 0.004223 0.000000
# 3 -0.001325 -0.000237 0.016800 0.000000 0.011432 0.000000
# 4 0.000000 0.000000 0.000000 0.245425 0.000000 -0.035971
# 5 0.006475 0.004223 0.011432 0.000000 0.036870 0.000000
# 6 0.000000 0.000000 0.000000 -0.035971 0.000000 0.045916
#
#
# Mechanical properties :
#
#
# Convention : Reuss Voigt Hill
#
# Bulk Modulus (GPa) = 32.88036 61.06518 46.97277
# Shear Modulus (GPa) = 12.78394 29.01806 20.90100
#
# Velocity S-wave (km/s) = 2.58320 3.89189 3.30301
# Velocity P-wave (km/s) = 5.10491 7.21598 6.25022
#
# Compressibility (1/GPa) = 0.03041330
#
# Stress axis : x y z
#
# Youngs Moduli (GPa) = 76.38107 85.48468 59.52450
#
# Poissons Ratio (x) = 0.34415 0.07888
# Poissons Ratio (y) = 0.30750 0.01412
# Poissons Ratio (z) = 0.10122 0.02028
#
# Static dielectric constant tensor:
#      x y z
#    x 1.548040 0.000000 -0.159190 
#    y 0.000000 1.641790 0.000000 
#    z -0.159190 0.000000 1.577740 
# 
# From -- ./inp_files/149663.got.cif
#   From: 2010.05.17/outbox.cif.g08.bks.cpg/sg12_75_cif.got.tgz:149663.got - 2010.06.03 13:09:07.
