data_PCOD9222981
_publ_section_title
;
Structure prediction by ZEFSAII (Michael W. Deem and Ramdas Pophale) SiO2 
 PCOD9222981
Probable space group: C 2/M
;
_chemical_formula_sum "Si O2"
_cell_formula_units_Z 64
_cell_length_a 14.189415
_cell_length_b 12.931967
_cell_length_c 14.956025
_cell_angle_alpha 90.000000
_cell_angle_beta 76.567012
_cell_angle_gamma 90.000000
_cell_volume 2669.306283
_symmetry_space_group_name_H-M "C 2/M"
_symmetry_group_IT_number 12
_symmetry_cell_setting 'monoclinic'
loop_
_space_group_symop_operation_xyz
x,y,z
-x,y,-z
-x,-y,-z
x,-y,z
1/2+x,1/2+y,z
1/2-x,1/2+y,-z
1/2-x,1/2-y,-z
1/2+x,1/2-y,z
loop_
_atom_site_type_symbol
_atom_site_label
_atom_site_fract_x
_atom_site_fract_y
_atom_site_fract_z
Si Si1 0.716999 0.885493 0.027918
Si Si2 0.787466 0.888346 0.261425
Si Si3 0.168569 0.111839 0.536387
Si Si4 0.424456 0.163264 0.646838
Si Si5 0.053874 0.882172 0.072726
Si Si6 0.900965 0.120653 0.738404
Si Si7 0.618292 0.841975 0.545660
Si Si8 0.780121 0.286366 0.143398
O O1 0.713475 0.796666 0.102414
O O2 0.686653 0.000000 0.061526
O O3 0.832017 0.888485 0.977814
O O4 0.667328 0.848148 0.946916
O O5 0.812320 0.886731 0.360745
O O6 0.670361 0.877315 0.281879
O O7 0.832153 0.791258 0.199761
O O8 0.815953 0.000000 0.217912
O O9 0.271599 0.124485 0.462272
O O10 0.114259 0.218004 0.534369
O O11 0.126051 0.000000 0.522560
O O12 0.422268 0.287694 0.664141
O O13 0.404368 0.124818 0.550329
O O14 0.535759 0.128765 0.634485
O O15 0.048095 0.850239 0.178009
O O16 0.017430 0.000000 0.084487
O O17 0.000000 0.831070 0.000000
O O18 0.787121 0.135401 0.786692
O O19 0.922033 0.000000 0.711716
#
# Coordination Sequence:
#
# PCOD9222981 Si02
#       8
#     8   8   8   8   8   8   8   8
#     4   9  16  26  43  66  90 116 151 190 225 270
#     4   9  17  30  47  69  95 121 153 195 238 277
#     4   9  18  32  49  68  95 127 154 189 239 282
#     4   9  18  31  49  70  93 122 159 197 232 274
#     4   8  14  26  41  59  86 116 143 174 218 269
#     4   9  17  29  44  65  93 119 149 190 230 271
#     4   9  18  33  49  69  95 122 159 197 229 279
#     4   9  16  27  43  63  92 117 149 186 231 268
#
# _framework density 23.976267
#
# number of rings (size 3 to 8) (size 9 to 14) (size 15 to 20)
#    0.000    3.125    0.000    1.500    0.000    1.500 
#    2.250    3.750    0.000    0.750    0.000    0.000 
#    0.000   32.000    0.000    0.000    0.000    0.000 
#
# Total GULP energy -178246.196265 kJ/mol
# GULP energy per Si atom -5570.193633 kJ/mol
# Density = 2.392170 g / cm^3
# Si number density = 23.976267 Si / 1000 Ang^3
#
#
#
# Elastic Constant Matrix: (Units=GPa)
#
#
# Indices 1 2 3 4 5 6 
#
# 1 48.0787 6.7348 7.5555 0.0000 -8.9784 0.0000
# 2 6.7348 127.5899 9.6889 0.0000 2.9987 0.0000
# 3 7.5555 9.6889 56.6455 0.0000 -3.2346 0.0000
# 4 0.0000 0.0000 0.0000 14.9957 0.0000 6.2062
# 5 -8.9784 2.9987 -3.2346 0.0000 19.0221 0.0000
# 6 0.0000 0.0000 0.0000 6.2062 0.0000 -3.1538
#
#
#
# Elastic Compliance Matrix: (Units=1/GPa)
#
#
# Indices 1 2 3 4 5 6 
#
# 1 0.023367 -0.001316 -0.002272 0.000000 0.010850 0.000000
# 2 -0.001316 0.008057 -0.001323 0.000000 -0.002116 0.000000
# 3 -0.002272 -0.001323 0.018312 0.000000 0.002250 0.000000
# 4 0.000000 0.000000 0.000000 0.036753 0.000000 0.072324
# 5 0.010850 -0.002116 0.002250 0.000000 0.058408 0.000000
# 6 0.000000 0.000000 0.000000 0.072324 0.000000 -0.174754
#
#
# Mechanical properties :
#
#
# Convention : Reuss Voigt Hill
#
# Bulk Modulus (GPa) = 25.05463 31.14140 28.09802
# Shear Modulus (GPa) = -742.99544 20.06178 -361.46683
#
# Velocity S-wave (km/s) = -17.62273 2.89578 -12.29177
# Velocity P-wave (km/s) = 20.09001 4.91908 13.77336
#
# Compressibility (1/GPa) = 0.03991278
#
# Stress axis : x y z
#
# Youngs Moduli (GPa) = 42.79570 124.11090 54.61028
#
# Poissons Ratio (x) = 0.16332 0.12408
# Poissons Ratio (y) = 0.05631 0.07228
# Poissons Ratio (z) = 0.09724 0.16426
#
# Static dielectric constant tensor:
#      x y z
#    x 1.999670 0.000000 0.010270 
#    y 0.000000 1.949990 0.000000 
#    z 0.010270 0.000000 1.981810 
# 
# From -- ./inp_files/224780.got.cif
#   From: 2010.05.17/outbox.cif.g08.bks.cpg/sg12_113_cif.got.tgz:224780.got - 2010.06.03 13:09:07.
