data_PCOD9222139
_publ_section_title
;
Structure prediction by ZEFSAII (Michael W. Deem and Ramdas Pophale) SiO2 
 PCOD9222139
Probable space group: C 2/M
;
_chemical_formula_sum "Si O2"
_cell_formula_units_Z 40
_cell_length_a 9.122989
_cell_length_b 17.048529
_cell_length_c 11.499517
_cell_angle_alpha 90.000000
_cell_angle_beta 80.924523
_cell_angle_gamma 90.000000
_cell_volume 1766.170358
_symmetry_space_group_name_H-M "C 2/M"
_symmetry_group_IT_number 12
_symmetry_cell_setting 'monoclinic'
loop_
_space_group_symop_operation_xyz
x,y,z
-x,y,-z
-x,-y,-z
x,-y,z
1/2+x,1/2+y,z
1/2-x,1/2+y,-z
1/2-x,1/2-y,-z
1/2+x,1/2-y,z
loop_
_atom_site_type_symbol
_atom_site_label
_atom_site_fract_x
_atom_site_fract_y
_atom_site_fract_z
Si Si1 0.870197 0.408263 0.760311
Si Si2 0.300080 0.133024 0.217446
Si Si3 0.983752 0.917677 0.638687
Si Si4 0.322223 0.664266 0.011337
Si Si5 0.722214 0.288138 0.631479
O O1 0.858341 0.500000 0.734801
O O2 0.748910 0.379498 0.869677
O O3 0.847854 0.351175 0.651990
O O4 0.031076 0.392487 0.795498
O O5 0.189099 0.087167 0.314248
O O6 0.287082 0.221254 0.269494
O O7 0.229592 0.121642 0.099746
O O8 0.000000 0.920471 0.500000
O O9 0.071670 0.839323 0.660937
O O10 0.042678 0.000000 0.682317
O O11 0.500000 0.669739 0.000000
O O12 0.250000 0.750000 0.000000
O O13 0.750000 0.250000 0.500000
#
# Coordination Sequence:
#
# PCOD9222139 Si02
#       5
#     8   8   8   8   8
#     4  12  28  48  76 114 153 193 249 315 375 437
#     4  12  25  45  77 107 147 196 247 304 371 447
#     4  11  24  44  68 100 142 189 242 300 365 430
#     4  12  26  47  77 111 147 195 250 306 375 454
#     4  12  25  46  72 105 146 201 253 305 363 445
#
# _framework density 22.647873000000001
#
# number of rings (size 3 to 8) (size 9 to 14) (size 15 to 20)
#    0.000    0.200    4.000    5.400    0.000    2.800 
#    0.000    1.000    0.000    0.000    0.000    0.000 
#    0.000    0.000    0.000    0.000    0.000    0.000 
#
# Total GULP energy -111878.087826 kJ/mol
# GULP energy per Si atom -5593.904391 kJ/mol
# Density = 2.259633 g / cm^3
# Si number density = 22.647873 Si / 1000 Ang^3
#
#
#
# Elastic Constant Matrix: (Units=GPa)
#
#
# Indices 1 2 3 4 5 6 
#
# 1 196.6935 42.7821 46.7219 0.0000 5.6599 0.0000
# 2 42.7821 160.2831 38.6200 0.0000 7.2722 0.0000
# 3 46.7219 38.6200 119.4268 0.0000 1.7531 0.0000
# 4 0.0000 0.0000 0.0000 -66.2271 0.0000 84.4968
# 5 5.6599 7.2722 1.7531 0.0000 35.9829 0.0000
# 6 0.0000 0.0000 0.0000 84.4968 0.0000 -87.4695
#
#
#
# Elastic Compliance Matrix: (Units=1/GPa)
#
#
# Indices 1 2 3 4 5 6 
#
# 1 0.005786 -0.001056 -0.001913 0.000000 -0.000603 0.000000
# 2 -0.001056 0.007017 -0.001839 0.000000 -0.001162 0.000000
# 3 -0.001913 -0.001839 0.009713 0.000000 0.000199 0.000000
# 4 0.000000 0.000000 0.000000 0.064944 0.000000 0.062737
# 5 -0.000603 -0.001162 0.000199 0.000000 0.028111 0.000000
# 6 0.000000 0.000000 0.000000 0.062737 0.000000 0.049172
#
#
# Mechanical properties :
#
#
# Convention : Reuss Voigt Hill
#
# Bulk Modulus (GPa) = 77.52001 81.40571 79.46286
# Shear Modulus (GPa) = 27.98645 -0.32412 13.83117
#
# Velocity S-wave (km/s) = 3.51910 -0.37871 2.47393
# Velocity P-wave (km/s) = 7.12845 5.98589 6.58201
#
# Compressibility (1/GPa) = 0.01289989
#
# Stress axis : x y z
#
# Youngs Moduli (GPa) = 172.84565 142.51888 102.94972
#
# Poissons Ratio (x) = 0.15049 0.19695
# Poissons Ratio (y) = 0.18251 0.18931
# Poissons Ratio (z) = 0.33067 0.26207
#
# Static dielectric constant tensor:
#      x y z
#    x 1.821570 0.000000 0.052040 
#    y 0.000000 1.814170 0.000000 
#    z 0.052040 0.000000 1.818540 
# 
# From -- ./inp_files/118877.got.cif
#   From: 2010.05.17/outbox.cif.g08.bks.cpg/sg12_60_cif.got.tgz:118877.got - 2010.06.03 13:09:07.
