data_PCOD9222541
_publ_section_title
;
Structure prediction by ZEFSAII (Michael W. Deem and Ramdas Pophale) SiO2 
 PCOD9222541
Probable space group: C 2/M
;
_chemical_formula_sum "Si O2"
_cell_formula_units_Z 32
_cell_length_a 13.626914
_cell_length_b 22.601079
_cell_length_c 13.513403
_cell_angle_alpha 90.000000
_cell_angle_beta 158.812661
_cell_angle_gamma 90.000000
_cell_volume 1504.187046
_symmetry_space_group_name_H-M "C 2/M"
_symmetry_group_IT_number 12
_symmetry_cell_setting 'monoclinic'
loop_
_space_group_symop_operation_xyz
x,y,z
-x,y,-z
-x,-y,-z
x,-y,z
1/2+x,1/2+y,z
1/2-x,1/2+y,-z
1/2-x,1/2-y,-z
1/2+x,1/2-y,z
loop_
_atom_site_type_symbol
_atom_site_label
_atom_site_fract_x
_atom_site_fract_y
_atom_site_fract_z
Si Si1 0.699425 0.500000 0.510227
Si Si2 0.635956 0.369058 0.521853
Si Si3 0.763049 0.000000 0.933129
Si Si4 0.735737 0.879167 0.801298
Si Si5 0.324742 0.182247 0.051715
O O1 0.709174 0.438771 0.579875
O O2 0.947194 0.500000 0.665739
O O3 0.427035 0.500000 0.189343
O O4 0.500000 0.358383 0.500000
O O5 0.905684 0.330504 0.758129
O O6 0.422036 0.350970 0.235524
O O7 0.826790 0.057831 0.930407
O O8 0.500000 0.886189 0.500000
O O9 0.629228 0.844764 0.796522
O O10 0.000000 0.850044 0.000000
O O11 0.250000 0.250000 0.000000
#
# Coordination Sequence:
#
# PCOD9222541 Si02
#       5
#     4   8   4   8   8
#     4  12  21  43  72 103 140 179 218 289 355 410
#     4  12  25  46  74 104 137 181 229 287 351 410
#     4  12  22  41  69  97 146 177 221 281 350 406
#     4  12  24  42  68 100 135 180 226 278 343 405
#     4  12  27  48  69  99 140 185 234 287 334 405
#
# _framework density 21.273952000000001
#
# number of rings (size 3 to 8) (size 9 to 14) (size 15 to 20)
#    0.000    0.000    5.000    5.625    0.000    3.000 
#    0.000    3.750    0.000    0.000    0.000    0.000 
#    0.000    0.000    0.000    0.000    0.000    0.000 
#
# Total GULP energy -89595.537475 kJ/mol
# GULP energy per Si atom -5599.721092 kJ/mol
# Density = 2.122553 g / cm^3
# Si number density = 21.273952 Si / 1000 Ang^3
#
#
#
# Elastic Constant Matrix: (Units=GPa)
#
#
# Indices 1 2 3 4 5 6 
#
# 1 111.8737 59.6317 -2.6819 0.0025 23.2476 0.0053
# 2 59.6317 124.9915 15.2034 -0.0057 6.8288 -0.0080
# 3 -2.6819 15.2034 59.3979 -0.0037 14.8533 -0.0027
# 4 0.0025 -0.0057 -0.0037 11.4865 -0.0020 -2.4892
# 5 23.2476 6.8288 14.8533 -0.0020 42.6468 0.0079
# 6 0.0053 -0.0080 -0.0027 -2.4892 0.0079 -70.6064
#
#
#
# Elastic Compliance Matrix: (Units=1/GPa)
#
#
# Indices 1 2 3 4 5 6 
#
# 1 0.014538 -0.007032 0.004553 -0.000006 -0.008385 0.000001
# 2 -0.007032 0.011675 -0.004159 0.000006 0.003412 -0.000002
# 3 0.004553 -0.004159 0.020330 0.000002 -0.008897 -0.000001
# 4 -0.000006 0.000006 0.000002 0.086399 0.000007 -0.003046
# 5 -0.008385 0.003412 -0.008897 0.000007 0.030571 0.000003
# 6 0.000001 -0.000002 -0.000001 -0.003046 0.000003 -0.014056
#
#
# Mechanical properties :
#
#
# Convention : Reuss Voigt Hill
#
# Bulk Modulus (GPa) = 30.05885 48.95217 39.50551
# Shear Modulus (GPa) = 28.76494 11.64604 20.20549
#
# Velocity S-wave (km/s) = 3.68111 2.34226 3.08519
# Velocity P-wave (km/s) = 5.67693 5.51138 5.59476
#
# Compressibility (1/GPa) = 0.03326807
#
# Stress axis : x y z
#
# Youngs Moduli (GPa) = 68.78378 85.65492 49.18719
#
# Poissons Ratio (x) = 0.60230 -0.22395
# Poissons Ratio (y) = 0.48367 0.20457
# Poissons Ratio (z) = -0.31317 0.35624
#
# Static dielectric constant tensor:
#      x y z
#    x 1.741500 0.000000 0.011580 
#    y 0.000000 1.775100 0.000000 
#    z 0.011580 0.000000 1.731110 
# 
# From -- ./inp_files/6095.got.cif
#   From: 2010.05.17/outbox.cif.g08.bks.cpg/sg12_4_cif.got.tgz:6095.got - 2010.06.03 13:09:07.
