data_PCOD9222037
_publ_section_title
;
Structure prediction by ZEFSAII (Michael W. Deem and Ramdas Pophale) SiO2 
 PCOD9222037
Probable space group: C 2/M
;
_chemical_formula_sum "Si O2"
_cell_formula_units_Z 50
_cell_length_a 9.125622
_cell_length_b 27.752667
_cell_length_c 11.321690
_cell_angle_alpha 90.000000
_cell_angle_beta 54.936248
_cell_angle_gamma 90.000000
_cell_volume 2346.952043
_symmetry_space_group_name_H-M "C 2/M"
_symmetry_group_IT_number 12
_symmetry_cell_setting 'monoclinic'
loop_
_space_group_symop_operation_xyz
x,y,z
-x,y,-z
-x,-y,-z
x,-y,z
1/2+x,1/2+y,z
1/2-x,1/2+y,-z
1/2-x,1/2-y,-z
1/2+x,1/2-y,z
loop_
_atom_site_type_symbol
_atom_site_label
_atom_site_fract_x
_atom_site_fract_y
_atom_site_fract_z
Si Si1 0.327131 0.169581 0.510385
Si Si2 0.240580 0.282650 0.890241
Si Si3 0.500000 0.500000 0.500000
Si Si4 0.704145 0.446467 0.858061
Si Si5 0.888306 0.255522 0.292093
Si Si6 0.309325 0.894108 0.036042
Si Si7 0.070270 0.918649 0.667039
O O1 0.500000 0.149694 0.500000
O O2 0.269392 0.218182 0.606380
O O3 0.372804 0.192752 0.362331
O O4 0.168287 0.130537 0.580203
O O5 0.112444 0.265300 0.846191
O O6 0.438759 0.273848 0.745582
O O7 0.205927 0.336950 0.943230
O O8 0.250000 0.250000 0.000000
O O9 0.561961 0.457734 0.567584
O O10 0.782089 0.500000 0.836765
O O11 0.685935 0.433921 0.729201
O O12 0.500000 0.447625 0.000000
O O13 0.798729 0.409899 0.903904
O O14 0.134023 0.913088 0.188363
O O15 0.500000 0.910563 0.000000
#
# Coordination Sequence:
#
# PCOD9222037 Si02
#       7
#     8   8   2   8   8   8   8
#     4  11  24  44  72 100 138 194 238 286 342 435
#     4  12  25  42  65 100 146 184 230 297 346 402
#     4  12  28  52  74 108 146 182 242 310 358 428
#     4   9  20  43  71  99 132 176 233 293 360 422
#     4  11  24  42  66 101 144 185 240 284 343 420
#     4  11  25  43  71 108 140 183 237 292 353 424
#     4  11  25  47  76 100 141 185 235 296 367 422
#
# _framework density 21.304228999999999
#
# number of rings (size 3 to 8) (size 9 to 14) (size 15 to 20)
#    0.000    1.120    4.000    1.440    5.600    2.880 
#    0.000    0.400    0.000    0.000    0.000    0.000 
#    0.000    0.000    0.000    0.000    0.000    0.000 
#
# Total GULP energy -139292.136864 kJ/mol
# GULP energy per Si atom -5571.685475 kJ/mol
# Density = 2.125574 g / cm^3
# Si number density = 21.304229 Si / 1000 Ang^3
#
#
#
# Elastic Constant Matrix: (Units=GPa)
#
#
# Indices 1 2 3 4 5 6 
#
# 1 154.0400 60.4092 56.5281 0.0000 18.0459 0.0000
# 2 60.4092 106.7525 36.1028 0.0000 17.0032 0.0000
# 3 56.5281 36.1028 73.2248 0.0000 22.8133 0.0000
# 4 0.0000 0.0000 0.0000 3.6283 0.0000 18.3390
# 5 18.0459 17.0032 22.8133 0.0000 44.6708 0.0000
# 6 0.0000 0.0000 0.0000 18.3390 0.0000 24.1163
#
#
#
# Elastic Compliance Matrix: (Units=1/GPa)
#
#
# Indices 1 2 3 4 5 6 
#
# 1 0.010160 -0.003746 -0.006139 0.000000 0.000456 0.000000
# 2 -0.003746 0.012736 -0.002793 0.000000 -0.001908 0.000000
# 3 -0.006139 -0.002793 0.022201 0.000000 -0.007795 0.000000
# 4 0.000000 0.000000 0.000000 -0.096923 0.000000 0.073704
# 5 0.000456 -0.001908 -0.007795 0.000000 0.026909 0.000000
# 6 0.000000 0.000000 0.000000 0.073704 0.000000 -0.014582
#
#
# Mechanical properties :
#
#
# Convention : Reuss Voigt Hill
#
# Bulk Modulus (GPa) = 50.65423 71.12194 60.88808
# Shear Modulus (GPa) = -661.05138 26.54822 -317.25158
#
# Velocity S-wave (km/s) = -17.63419 3.53391 -12.21631
# Velocity P-wave (km/s) = 19.76845 7.07869 13.05151
#
# Compressibility (1/GPa) = 0.01974169
#
# Stress axis : x y z
#
# Youngs Moduli (GPa) = 98.42386 78.51921 45.04277
#
# Poissons Ratio (x) = 0.29414 0.27650
# Poissons Ratio (y) = 0.36870 0.12580
# Poissons Ratio (z) = 0.60419 0.21930
#
# Static dielectric constant tensor:
#      x y z
#    x 2.437610 0.000000 -1.049540 
#    y 0.000000 1.726970 0.000000 
#    z -1.049540 0.000000 3.381980 
# 
# From -- ./inp_files/124156.got.cif
#   From: 2010.05.17/outbox.cif.g08.bks.cpg/sg12_63_cif.got.tgz:124156.got - 2010.06.03 13:09:07.
