data_PCOD9222233
_publ_section_title
;
Structure prediction by ZEFSAII (Michael W. Deem and Ramdas Pophale) SiO2 
 PCOD9222233
Probable space group: C 2/M
;
_chemical_formula_sum "Si O2"
_cell_formula_units_Z 30
_cell_length_a 14.024828
_cell_length_b 17.247831
_cell_length_c 9.052295
_cell_angle_alpha 90.000000
_cell_angle_beta 33.083094
_cell_angle_gamma 90.000000
_cell_volume 1195.274980
_symmetry_space_group_name_H-M "C 2/M"
_symmetry_group_IT_number 12
_symmetry_cell_setting 'monoclinic'
loop_
_space_group_symop_operation_xyz
x,y,z
-x,y,-z
-x,-y,-z
x,-y,z
1/2+x,1/2+y,z
1/2-x,1/2+y,-z
1/2-x,1/2-y,-z
1/2+x,1/2-y,z
loop_
_atom_site_type_symbol
_atom_site_label
_atom_site_fract_x
_atom_site_fract_y
_atom_site_fract_z
Si Si1 0.610440 0.297238 0.589742
Si Si2 0.663062 0.412109 0.964419
Si Si3 0.500000 0.000000 0.000000
Si Si4 0.500000 0.814449 0.500000
Si Si5 0.713457 0.912993 0.860257
O O1 0.750000 0.250000 0.500000
O O2 0.505900 0.358302 0.824490
O O3 0.480229 0.239341 0.670937
O O4 0.832031 0.366972 0.689203
O O5 0.646676 0.500000 0.932337
O O6 0.291923 0.344946 0.665645
O O7 0.700031 0.416769 0.094522
O O8 0.492186 0.072314 0.879415
O O9 0.737453 0.000000 0.745940
#
# Coordination Sequence:
#
# PCOD9222233 Si02
#       5
#     8   8   2   4   8
#     4  12  26  41  71 101 145 180 236 289 356 410
#     4  11  24  48  71  99 141 189 234 287 351 425
#     4   8  20  32  66 106 126 164 236 282 340 392
#     4  12  27  44  67 108 142 182 228 294 363 408
#     4   9  20  40  70 100 133 180 236 288 338 419
#
# _framework density 25.098828000000001
#
# number of rings (size 3 to 8) (size 9 to 14) (size 15 to 20)
#    0.800    0.533    2.667    2.000    3.733    3.200 
#    0.000    5.333    0.000    0.000    0.000    0.000 
#    0.000    0.000    0.000    0.000    0.000    0.000 
#
# Total GULP energy -83653.446496 kJ/mol
# GULP energy per Si atom -5576.896433 kJ/mol
# Density = 2.504170 g / cm^3
# Si number density = 25.098828 Si / 1000 Ang^3
#
#
#
# Elastic Constant Matrix: (Units=GPa)
#
#
# Indices 1 2 3 4 5 6 
#
# 1 93.7196 23.6436 3.5716 -0.0080 -10.3244 0.0332
# 2 23.6436 154.2415 46.3147 -0.0068 -5.1127 0.0267
# 3 3.5716 46.3147 57.4746 -0.0168 -6.7098 0.0640
# 4 -0.0080 -0.0068 -0.0168 67.2014 0.0097 -91.8516
# 5 -10.3244 -5.1127 -6.7098 0.0097 32.5286 -0.0396
# 6 0.0332 0.0267 0.0640 -91.8516 -0.0396 341.7187
#
#
#
# Elastic Compliance Matrix: (Units=1/GPa)
#
#
# Indices 1 2 3 4 5 6 
#
# 1 0.011536 -0.002058 0.001364 0.000000 0.003619 -0.000001
# 2 -0.002058 0.008920 -0.007145 0.000000 -0.000725 0.000001
# 3 0.001364 -0.007145 0.023559 0.000000 0.004169 -0.000004
# 4 0.000000 0.000000 0.000000 0.023523 0.000001 0.006323
# 5 0.003619 -0.000725 0.004169 0.000001 0.032637 0.000003
# 6 -0.000001 0.000001 -0.000004 0.006323 0.000003 0.004626
#
#
# Mechanical properties :
#
#
# Convention : Reuss Voigt Hill
#
# Bulk Modulus (GPa) = 35.28934 50.27727 42.78330
# Shear Modulus (GPa) = 38.48412 103.75015 71.11714
#
# Velocity S-wave (km/s) = 3.91999 6.43633 5.32882
# Velocity P-wave (km/s) = 5.88040 8.67816 7.41247
#
# Compressibility (1/GPa) = 0.02833717
#
# Stress axis : x y z
#
# Youngs Moduli (GPa) = 86.68479 112.10507 42.44738
#
# Poissons Ratio (x) = 0.23071 -0.05790
# Poissons Ratio (y) = 0.17839 0.30328
# Poissons Ratio (z) = -0.11824 0.80098
#
# Static dielectric constant tensor:
#      x y z
#    x 2.167360 0.000000 -0.038190 
#    y 0.000000 2.047300 0.000000 
#    z -0.038190 0.000000 1.974490 
# 
# From -- ./inp_files/131928.got.cif
#   From: 2010.05.17/outbox.cif.g08.bks.cpg/sg12_66_cif.got.tgz:131928.got - 2010.06.03 13:09:07.
