data_PCOD9222677
_publ_section_title
;
Structure prediction by ZEFSAII (Michael W. Deem and Ramdas Pophale) SiO2 
 PCOD9222677
Probable space group: C 2/M
;
_chemical_formula_sum "Si O2"
_cell_formula_units_Z 28
_cell_length_a 15.457394
_cell_length_b 15.597770
_cell_length_c 11.480701
_cell_angle_alpha 90.000000
_cell_angle_beta 28.125049
_cell_angle_gamma 90.000000
_cell_volume 1304.831589
_symmetry_space_group_name_H-M "C 2/M"
_symmetry_group_IT_number 12
_symmetry_cell_setting 'monoclinic'
loop_
_space_group_symop_operation_xyz
x,y,z
-x,y,-z
-x,-y,-z
x,-y,z
1/2+x,1/2+y,z
1/2-x,1/2+y,-z
1/2-x,1/2-y,-z
1/2+x,1/2-y,z
loop_
_atom_site_type_symbol
_atom_site_label
_atom_site_fract_x
_atom_site_fract_y
_atom_site_fract_z
Si Si1 0.634843 0.500000 0.450267
Si Si2 0.653827 0.165496 0.554553
Si Si3 0.594052 0.500000 0.760101
Si Si4 0.647569 0.157224 0.906919
Si Si5 0.000000 0.262611 0.500000
O O1 0.500000 0.500000 0.500000
O O2 0.526645 0.500000 0.702137
O O3 0.766656 0.582104 0.274447
O O4 0.750000 0.250000 0.500000
O O5 0.574204 0.188363 0.523240
O O6 0.793874 0.088266 0.375226
O O7 0.480263 0.132126 0.834774
O O8 0.500000 0.500000 0.000000
O O9 0.823359 0.206833 0.745113
O O10 0.500000 0.206956 0.000000
#
# Coordination Sequence:
#
# PCOD9222677 Si02
#       5
#     4   8   4   8   4
#     4  12  24  46  78 112 143 202 262 323 377 455
#     4  12  27  48  78 111 157 204 257 320 387 457
#     4  12  29  48  77 117 162 204 258 322 391 462
#     4  12  23  46  77 108 147 193 266 313 378 454
#     4  12  26  44  76 114 148 210 248 315 398 465
#
# _framework density 21.458708999999999
#
# number of rings (size 3 to 8) (size 9 to 14) (size 15 to 20)
#    0.000    0.000    7.143    2.143    4.000    2.857 
#    0.000    0.000    0.000    0.000    0.000    0.000 
#    0.000    0.000    0.000    0.000    0.000    0.000 
#
# Total GULP energy -78063.730297 kJ/mol
# GULP energy per Si atom -5575.980735 kJ/mol
# Density = 2.140987 g / cm^3
# Si number density = 21.458709 Si / 1000 Ang^3
#
#
#
# Elastic Constant Matrix: (Units=GPa)
#
#
# Indices 1 2 3 4 5 6 
#
# 1 186.1306 45.8655 50.6724 -0.0004 5.1385 0.0005
# 2 45.8655 98.2631 28.8189 0.0002 -4.6351 0.0005
# 3 50.6724 28.8189 138.9494 0.0009 27.2994 0.0004
# 4 -0.0004 0.0002 0.0009 17.8651 0.0000 0.1544
# 5 5.1385 -4.6351 27.2994 0.0000 56.8886 -0.0003
# 6 0.0005 0.0005 0.0004 0.1544 -0.0003 31.8816
#
#
#
# Elastic Compliance Matrix: (Units=1/GPa)
#
#
# Indices 1 2 3 4 5 6 
#
# 1 0.006490 -0.002474 -0.001876 0.000000 0.000112 0.000000
# 2 -0.002474 0.012026 -0.002019 0.000000 0.002172 0.000000
# 3 -0.001876 -0.002019 0.009162 0.000000 -0.004392 0.000000
# 4 0.000000 0.000000 0.000000 0.055977 0.000000 -0.000271
# 5 0.000112 0.002172 -0.004392 0.000000 0.019853 0.000000
# 6 0.000000 0.000000 0.000000 -0.000271 0.000000 0.031367
#
#
# Mechanical properties :
#
#
# Convention : Reuss Voigt Hill
#
# Bulk Modulus (GPa) = 66.92739 74.89520 70.91130
# Shear Modulus (GPa) = 32.76701 41.19282 36.97992
#
# Velocity S-wave (km/s) = 3.91190 4.38611 4.15578
# Velocity P-wave (km/s) = 7.18753 7.78643 7.49296
#
# Compressibility (1/GPa) = 0.01494156
#
# Stress axis : x y z
#
# Youngs Moduli (GPa) = 154.09094 83.15344 109.14053
#
# Poissons Ratio (x) = 0.20570 0.20471
# Poissons Ratio (y) = 0.38118 0.22034
# Poissons Ratio (z) = 0.28903 0.16788
#
# Static dielectric constant tensor:
#      x y z
#    x 1.779680 0.000000 0.001170 
#    y 0.000000 1.827750 0.000000 
#    z 0.001170 0.000000 1.755120 
# 
# From -- ./inp_files/144550.got.cif
#   From: 2010.05.17/outbox.cif.g08.bks.cpg/sg12_73_cif.got.tgz:144550.got - 2010.06.03 13:09:07.
