data_PCOD9222609
_publ_section_title
;
Structure prediction by ZEFSAII (Michael W. Deem and Ramdas Pophale) SiO2 
 PCOD9222609
Probable space group: C 2/M
;
_chemical_formula_sum "Si O2"
_cell_formula_units_Z 64
_cell_length_a 17.112183
_cell_length_b 14.845319
_cell_length_c 14.836950
_cell_angle_alpha 90.000000
_cell_angle_beta 115.625109
_cell_angle_gamma 90.000000
_cell_volume 3398.398001
_symmetry_space_group_name_H-M "C 2/M"
_symmetry_group_IT_number 12
_symmetry_cell_setting 'monoclinic'
loop_
_space_group_symop_operation_xyz
x,y,z
-x,y,-z
-x,-y,-z
x,-y,z
1/2+x,1/2+y,z
1/2-x,1/2+y,-z
1/2-x,1/2-y,-z
1/2+x,1/2-y,z
loop_
_atom_site_type_symbol
_atom_site_label
_atom_site_fract_x
_atom_site_fract_y
_atom_site_fract_z
Si Si1 0.403380 0.393700 0.536818
Si Si2 0.993949 0.104147 0.147607
Si Si3 0.979921 0.763368 0.309169
Si Si4 0.112904 0.601456 0.385547
Si Si5 0.264016 0.398466 0.313649
Si Si6 0.219817 0.277463 0.769206
Si Si7 0.146274 0.103705 0.078551
Si Si8 0.246133 0.894958 0.389971
O O1 0.426043 0.500000 0.546776
O O2 0.484244 0.329517 0.594665
O O3 0.344824 0.375282 0.419718
O O4 0.337875 0.378543 0.589231
O O5 0.987141 0.175339 0.223594
O O6 0.079700 0.117261 0.129191
O O7 0.995981 0.000000 0.181697
O O8 0.912513 0.113833 0.039519
O O9 0.883073 0.726629 0.270973
O O10 0.043199 0.678279 0.339013
O O11 0.076304 0.500000 0.372578
O O12 0.180896 0.603541 0.337271
O O13 0.171129 0.616776 0.503546
O O14 0.276964 0.500000 0.287030
O O15 0.253637 0.325983 0.231087
O O16 0.274310 0.328396 0.872420
O O17 0.244617 0.329616 0.689379
O O18 0.176216 0.000000 0.097510
O O19 0.242711 0.000000 0.359959
#
# Coordination Sequence:
#
# PCOD9222609 Si02
#       8
#     8   8   8   8   8   8   8   8
#     4   9  18  34  55  75  97 133 183 230 259 281
#     4   9  19  38  63  84  98 120 164 220 266 301
#     4  12  23  31  48  78 111 140 164 198 258 322
#     4   9  19  35  52  71 100 141 185 219 244 284
#     4   9  19  35  52  71 100 141 185 219 244 284
#     4  12  23  31  48  78 111 140 164 198 258 322
#     4   9  19  38  63  84  98 120 164 220 266 301
#     4   9  18  34  55  75  97 133 183 230 259 281
#
# _framework density 18.832401999999998
#
# number of rings (size 3 to 8) (size 9 to 14) (size 15 to 20)
#    0.000    2.250    0.000    6.000    0.000    8.500 
#    0.000    2.500    0.000    0.750    0.000    3.500 
#    0.000    0.000    0.000    0.000    0.000    0.000 
#
# Total GULP energy -178809.744903 kJ/mol
# GULP energy per Si atom -5587.804528 kJ/mol
# Density = 1.878954 g / cm^3
# Si number density = 18.832402 Si / 1000 Ang^3
#
#
#
# Elastic Constant Matrix: (Units=GPa)
#
#
# Indices 1 2 3 4 5 6 
#
# 1 37.2461 43.0677 20.5848 0.0000 11.9378 0.0000
# 2 43.0677 102.8772 56.6116 0.0000 21.0930 0.0000
# 3 20.5848 56.6116 60.6461 0.0000 13.5674 0.0000
# 4 0.0000 0.0000 0.0000 77.4739 0.0000 33.8607
# 5 11.9378 21.0930 13.5674 0.0000 22.3356 0.0000
# 6 0.0000 0.0000 0.0000 33.8607 0.0000 -10.9595
#
#
#
# Elastic Compliance Matrix: (Units=1/GPa)
#
#
# Indices 1 2 3 4 5 6 
#
# 1 0.054725 -0.024381 0.006453 0.000000 -0.010145 0.000000
# 2 -0.024381 0.032437 -0.020907 0.000000 -0.004902 0.000000
# 3 0.006453 -0.020907 0.034914 0.000000 -0.004913 0.000000
# 4 0.000000 0.000000 0.000000 0.005492 0.000000 0.016967
# 5 -0.010145 -0.004902 -0.004913 0.000000 0.057807 0.000000
# 6 0.000000 0.000000 0.000000 0.016967 0.000000 -0.038822
#
#
# Mechanical properties :
#
#
# Convention : Reuss Voigt Hill
#
# Bulk Modulus (GPa) = 22.51900 49.03307 35.77604
# Shear Modulus (GPa) = 20.91852 23.13700 22.02776
#
# Velocity S-wave (km/s) = 3.33644 3.50890 3.42376
# Velocity P-wave (km/s) = 5.17938 6.51994 5.88794
#
# Compressibility (1/GPa) = 0.04440694
#
# Stress axis : x y z
#
# Youngs Moduli (GPa) = 18.27318 30.82946 28.64208
#
# Poissons Ratio (x) = 0.75165 -0.18484
# Poissons Ratio (y) = 0.44552 0.59881
# Poissons Ratio (z) = -0.11792 0.64454
#
# Static dielectric constant tensor:
#      x y z
#    x 1.664120 0.000000 -0.004830 
#    y 0.000000 1.654860 0.000000 
#    z -0.004830 0.000000 1.653700 
# 
# From -- ./inp_files/225342.got.cif
#   From: 2010.05.17/outbox.cif.g08.bks.cpg/sg12_113_cif.got.tgz:225342.got - 2010.06.03 13:09:07.
