data_PCOD9222082
_publ_section_title
;
Structure prediction by ZEFSAII (Michael W. Deem and Ramdas Pophale) SiO2 
 PCOD9222082
Probable space group: C 2/M
;
_chemical_formula_sum "Si O2"
_cell_formula_units_Z 40
_cell_length_a 15.381736
_cell_length_b 26.965875
_cell_length_c 9.180638
_cell_angle_alpha 90.000000
_cell_angle_beta 145.900498
_cell_angle_gamma 90.000000
_cell_volume 2134.865207
_symmetry_space_group_name_H-M "C 2/M"
_symmetry_group_IT_number 12
_symmetry_cell_setting 'monoclinic'
loop_
_space_group_symop_operation_xyz
x,y,z
-x,y,-z
-x,-y,-z
x,-y,z
1/2+x,1/2+y,z
1/2-x,1/2+y,-z
1/2-x,1/2-y,-z
1/2+x,1/2-y,z
loop_
_atom_site_type_symbol
_atom_site_label
_atom_site_fract_x
_atom_site_fract_y
_atom_site_fract_z
Si Si1 0.678667 0.944221 0.203380
Si Si2 0.184030 0.851965 0.763591
Si Si3 0.658595 0.660531 0.059456
Si Si4 0.678486 0.234504 0.242918
Si Si5 0.368951 0.596226 0.731713
O O1 0.727271 0.901447 0.160497
O O2 0.777147 0.932817 0.485068
O O3 0.709984 0.000000 0.193868
O O4 0.500000 0.940417 0.000000
O O5 0.227511 0.807172 0.715002
O O6 0.000000 0.860528 0.500000
O O7 0.220888 0.840908 0.983370
O O8 0.670380 0.715370 0.137369
O O9 0.731327 0.623760 0.282807
O O10 0.480025 0.639425 0.815413
O O11 0.750000 0.250000 0.500000
O O12 0.500000 0.216239 0.000000
O O13 0.500000 0.565264 0.000000
#
# Coordination Sequence:
#
# PCOD9222082 Si02
#       5
#     8   8   8   8   8
#     4  11  24  43  65  94 126 164 209 263 325 377
#     4  12  22  39  62  95 126 164 213 267 308 370
#     4   9  19  38  62  89 126 156 213 252 296 372
#     4  12  23  40  64  90 131 175 207 253 315 378
#     4   8  17  40  66  84 127 160 208 252 302 380
#
# _framework density 18.736545
#
# number of rings (size 3 to 8) (size 9 to 14) (size 15 to 20)
#    1.200    0.200    4.000    3.600    0.000    0.800 
#    0.000    4.000    0.000    2.400    0.000    0.000 
#    0.000    0.000    0.000    0.000    0.000    0.000 
#
# Total GULP energy -111393.349432 kJ/mol
# GULP energy per Si atom -5569.667472 kJ/mol
# Density = 1.869390 g / cm^3
# Si number density = 18.736545 Si / 1000 Ang^3
#
#
#
# Elastic Constant Matrix: (Units=GPa)
#
#
# Indices 1 2 3 4 5 6 
#
# 1 109.0270 55.6284 39.8555 0.0000 -23.6900 0.0000
# 2 55.6284 108.9638 31.3417 0.0000 1.3956 0.0000
# 3 39.8555 31.3417 75.6776 0.0000 -8.3722 0.0000
# 4 0.0000 0.0000 0.0000 20.6140 0.0000 -13.5483
# 5 -23.6900 1.3956 -8.3722 0.0000 30.3625 0.0000
# 6 0.0000 0.0000 0.0000 -13.5483 0.0000 46.8474
#
#
#
# Elastic Compliance Matrix: (Units=1/GPa)
#
#
# Indices 1 2 3 4 5 6 
#
# 1 0.017667 -0.007853 -0.004628 0.000000 0.012869 0.000000
# 2 -0.007853 0.013997 -0.002486 0.000000 -0.007456 0.000000
# 3 -0.004628 -0.002486 0.016807 0.000000 0.001137 0.000000
# 4 0.000000 0.000000 0.000000 0.059895 0.000000 0.017322
# 5 0.012869 -0.007456 0.001137 0.000000 0.043633 0.000000
# 6 0.000000 0.000000 0.000000 0.017322 0.000000 0.026355
#
#
# Mechanical properties :
#
#
# Convention : Reuss Voigt Hill
#
# Bulk Modulus (GPa) = 53.94782 60.81331 57.38056
# Shear Modulus (GPa) = 23.31354 30.68763 27.00058
#
# Velocity S-wave (km/s) = 3.53126 4.05143 3.80025
# Velocity P-wave (km/s) = 6.74402 7.37651 7.06734
#
# Compressibility (1/GPa) = 0.01853643
#
# Stress axis : x y z
#
# Youngs Moduli (GPa) = 56.60257 71.44380 59.49971
#
# Poissons Ratio (x) = 0.56105 0.27538
# Poissons Ratio (y) = 0.44450 0.14791
# Poissons Ratio (z) = 0.26197 0.17760
#
# Static dielectric constant tensor:
#      x y z
#    x 1.668900 0.000000 -0.010240 
#    y 0.000000 1.643010 0.000000 
#    z -0.010240 0.000000 1.705350 
# 
# From -- ./inp_files/65613.got.cif
#   From: 2010.05.17/outbox.cif.g08.bks.cpg/sg12_33_cif.got.tgz:65613.got - 2010.06.03 13:09:07.
