data_PCOD9222262
_publ_section_title
;
Structure prediction by ZEFSAII (Michael W. Deem and Ramdas Pophale) SiO2 
 PCOD9222262
Probable space group: C 2/M
;
_chemical_formula_sum "Si O2"
_cell_formula_units_Z 48
_cell_length_a 9.248703
_cell_length_b 30.064630
_cell_length_c 8.489862
_cell_angle_alpha 90.000000
_cell_angle_beta 91.571463
_cell_angle_gamma 90.000000
_cell_volume 2359.793268
_symmetry_space_group_name_H-M "C 2/M"
_symmetry_group_IT_number 12
_symmetry_cell_setting 'monoclinic'
loop_
_space_group_symop_operation_xyz
x,y,z
-x,y,-z
-x,-y,-z
x,-y,z
1/2+x,1/2+y,z
1/2-x,1/2+y,-z
1/2-x,1/2-y,-z
1/2+x,1/2-y,z
loop_
_atom_site_type_symbol
_atom_site_label
_atom_site_fract_x
_atom_site_fract_y
_atom_site_fract_z
Si Si1 0.639048 0.221887 0.605162
Si Si2 0.298509 0.366655 0.637619
Si Si3 0.800323 0.550498 0.853521
Si Si4 0.626494 0.051168 0.772980
Si Si5 0.360450 0.280842 0.099612
Si Si6 0.869731 0.867639 0.270390
O O1 0.500000 0.208895 0.500000
O O2 0.750000 0.250000 0.500000
O O3 0.713201 0.178106 0.677672
O O4 0.591985 0.253884 0.744297
O O5 0.212163 0.411042 0.682097
O O6 0.320235 0.363895 0.449952
O O7 0.456379 0.365497 0.721428
O O8 0.756794 0.500000 0.815934
O O9 0.683856 0.585894 0.797932
O O10 0.953711 0.559144 0.771469
O O11 0.827502 0.553366 0.041766
O O12 0.652108 0.000000 0.719843
O O13 0.303711 0.327808 0.163988
O O14 0.500000 0.289765 0.000000
O O15 0.250000 0.250000 0.000000
#
# Coordination Sequence:
#
# PCOD9222262 Si02
#       6
#     8   8   8   8   8   8
#     4  12  25  46  69  93 134 178 218 267 337 397
#     4  11  25  42  66  94 130 176 217 265 325 393
#     4   9  21  42  67  96 133 170 211 268 329 388
#     4   9  21  42  67  98 131 168 216 268 325 392
#     4  12  27  44  66  97 130 170 221 276 324 385
#     4  11  25  43  63  95 134 170 216 269 326 389
#
# _framework density 20.340764
#
# number of rings (size 3 to 8) (size 9 to 14) (size 15 to 20)
#    0.000    1.333    1.667    4.000    7.000    1.333 
#    0.000    5.000    0.000    0.000    0.000    0.000 
#    0.000    0.000    0.000    0.000    0.000    0.000 
#
# Total GULP energy -134241.528464 kJ/mol
# GULP energy per Si atom -5593.397019 kJ/mol
# Density = 2.029447 g / cm^3
# Si number density = 20.340764 Si / 1000 Ang^3
#
#
#
# Elastic Constant Matrix: (Units=GPa)
#
#
# Indices 1 2 3 4 5 6 
#
# 1 64.1391 58.0974 24.5295 0.0000 4.2150 0.0000
# 2 58.0974 147.9764 38.1010 0.0000 -4.7817 0.0000
# 3 24.5295 38.1010 56.5773 0.0000 -8.1534 0.0000
# 4 0.0000 0.0000 0.0000 44.2488 0.0000 0.4270
# 5 4.2150 -4.7817 -8.1534 0.0000 34.9482 0.0000
# 6 0.0000 0.0000 0.0000 0.4270 0.0000 39.7865
#
#
#
# Elastic Compliance Matrix: (Units=1/GPa)
#
#
# Indices 1 2 3 4 5 6 
#
# 1 0.026524 -0.008982 -0.006301 0.000000 -0.005898 0.000000
# 2 -0.008982 0.011218 -0.003397 0.000000 0.001826 0.000000
# 3 -0.006301 -0.003397 0.023528 0.000000 0.005784 0.000000
# 4 0.000000 0.000000 0.000000 0.022602 0.000000 -0.000243
# 5 -0.005898 0.001826 0.005784 0.000000 0.030924 0.000000
# 6 0.000000 0.000000 0.000000 -0.000243 0.000000 0.025137
#
#
# Mechanical properties :
#
#
# Convention : Reuss Voigt Hill
#
# Bulk Modulus (GPa) = 41.82355 56.68319 49.25337
# Shear Modulus (GPa) = 26.98850 33.66103 30.32477
#
# Velocity S-wave (km/s) = 3.64650 4.07241 3.86532
# Velocity P-wave (km/s) = 6.19156 7.07389 6.64738
#
# Compressibility (1/GPa) = 0.02390997
#
# Stress axis : x y z
#
# Youngs Moduli (GPa) = 37.70116 89.14245 42.50221
#
# Poissons Ratio (x) = 0.80068 0.26781
# Poissons Ratio (y) = 0.33863 0.14439
# Poissons Ratio (z) = 0.23756 0.30284
#
# Static dielectric constant tensor:
#      x y z
#    x 1.755270 0.000000 -0.184840 
#    y 0.000000 1.696260 0.000000 
#    z -0.184840 0.000000 2.267950 
# 
# From -- ./inp_files/42189.got.cif
#   From: 2010.05.17/outbox.cif.g08.bks.cpg/sg12_22_cif.got.tgz:42189.got - 2010.06.03 13:09:07.
