data_PCOD9222633
_publ_section_title
;
Structure prediction by ZEFSAII (Michael W. Deem and Ramdas Pophale) SiO2 
 PCOD9222633
Probable space group: C 2/M
;
_chemical_formula_sum "Si O2"
_cell_formula_units_Z 48
_cell_length_a 8.744328
_cell_length_b 29.333013
_cell_length_c 16.373490
_cell_angle_alpha 90.000000
_cell_angle_beta 32.712325
_cell_angle_gamma 90.000000
_cell_volume 2269.639351
_symmetry_space_group_name_H-M "C 2/M"
_symmetry_group_IT_number 12
_symmetry_cell_setting 'monoclinic'
loop_
_space_group_symop_operation_xyz
x,y,z
-x,y,-z
-x,-y,-z
x,-y,z
1/2+x,1/2+y,z
1/2-x,1/2+y,-z
1/2-x,1/2-y,-z
1/2+x,1/2-y,z
loop_
_atom_site_type_symbol
_atom_site_label
_atom_site_fract_x
_atom_site_fract_y
_atom_site_fract_z
Si Si1 0.581870 0.784338 0.135130
Si Si2 0.942457 0.729665 0.662824
Si Si3 0.130379 0.051285 0.816749
Si Si4 0.720397 0.360697 0.669766
Si Si5 0.641243 0.131069 0.849985
Si Si6 0.521795 0.949547 0.180591
O O1 0.260137 0.769043 0.276502
O O2 0.641140 0.779864 0.204535
O O3 0.574588 0.833997 0.097840
O O4 0.750000 0.750000 0.000000
O O5 0.837777 0.683834 0.664099
O O6 0.250000 0.750000 0.500000
O O7 0.124750 0.095987 0.764910
O O8 0.383154 0.057929 0.768858
O O9 0.164397 0.000000 0.765174
O O10 0.826019 0.050496 0.998204
O O11 0.450303 0.348946 0.734256
O O12 0.000000 0.377969 0.500000
O O13 0.665570 0.088533 0.778304
O O14 0.500000 0.118546 0.000000
O O15 0.396733 0.000000 0.228612
#
# Coordination Sequence:
#
# PCOD9222633 Si02
#       6
#     8   8   8   8   8   8
#     4  12  25  41  64  93 124 158 210 274 322 366
#     4  12  25  45  66  87 124 173 216 255 319 394
#     4   9  19  39  65  94 128 167 211 260 319 378
#     4  12  25  41  63  92 130 171 213 260 317 383
#     4  12  23  39  62  96 130 162 212 265 319 374
#     4   9  19  38  66  95 126 167 213 260 316 383
#
# _framework density 21.148734000000001
#
# number of rings (size 3 to 8) (size 9 to 14) (size 15 to 20)
#    0.000    1.000    1.667    8.000    0.000    1.333 
#    0.000    2.500    0.000    2.000    0.000    0.000 
#    0.000    0.000    0.000    0.000    0.000    0.000 
#
# Total GULP energy -133864.093730 kJ/mol
# GULP energy per Si atom -5577.670572 kJ/mol
# Density = 2.110060 g / cm^3
# Si number density = 21.148734 Si / 1000 Ang^3
#
#
#
# Elastic Constant Matrix: (Units=GPa)
#
#
# Indices 1 2 3 4 5 6 
#
# 1 77.0403 35.7798 1.8433 0.0000 -4.7302 0.0000
# 2 35.7798 111.5413 -8.6642 0.0000 3.6838 0.0000
# 3 1.8433 -8.6642 51.7513 0.0000 -14.8661 0.0000
# 4 0.0000 0.0000 0.0000 21.1528 0.0000 -2.6203
# 5 -4.7302 3.6838 -14.8661 0.0000 27.3308 0.0000
# 6 0.0000 0.0000 0.0000 -2.6203 0.0000 18.9235
#
#
#
# Elastic Compliance Matrix: (Units=1/GPa)
#
#
# Indices 1 2 3 4 5 6 
#
# 1 0.015569 -0.005137 -0.000523 0.000000 0.003102 0.000000
# 2 -0.005137 0.010784 0.001559 0.000000 -0.001495 0.000000
# 3 -0.000523 0.001559 0.023131 0.000000 0.012281 0.000000
# 4 0.000000 0.000000 0.000000 0.048100 0.000000 0.006660
# 5 0.003102 -0.001495 0.012281 0.000000 0.044007 0.000000
# 6 0.000000 0.000000 0.000000 0.006660 0.000000 0.053767
#
#
# Mechanical properties :
#
#
# Convention : Reuss Voigt Hill
#
# Bulk Modulus (GPa) = 24.22485 33.13896 28.68191
# Shear Modulus (GPa) = 23.00748 27.57302 25.29025
#
# Velocity S-wave (km/s) = 3.30189 3.61469 3.46183
# Velocity P-wave (km/s) = 5.10059 5.75541 5.43787
#
# Compressibility (1/GPa) = 0.04127992
#
# Stress axis : x y z
#
# Youngs Moduli (GPa) = 64.22960 92.73273 43.23281
#
# Poissons Ratio (x) = 0.47640 0.02263
# Poissons Ratio (y) = 0.32997 -0.06740
# Poissons Ratio (z) = 0.03362 -0.14457
#
# Static dielectric constant tensor:
#      x y z
#    x 1.924060 0.000000 0.041440 
#    y 0.000000 1.790430 0.000000 
#    z 0.041440 0.000000 1.784910 
# 
# From -- ./inp_files/200239.got.cif
#   From: 2010.05.17/outbox.cif.g08.bks.cpg/sg12_101_cif.got.tgz:200239.got - 2010.06.03 13:09:07.
