data_PCOD9222930
_publ_section_title
;
Structure prediction by ZEFSAII (Michael W. Deem and Ramdas Pophale) SiO2 
 PCOD9222930
Probable space group: C 2/M
;
_chemical_formula_sum "Si O2"
_cell_formula_units_Z 50
_cell_length_a 19.259952
_cell_length_b 15.882335
_cell_length_c 6.909789
_cell_angle_alpha 90.000000
_cell_angle_beta 95.762045
_cell_angle_gamma 90.000000
_cell_volume 2102.976767
_symmetry_space_group_name_H-M "C 2/M"
_symmetry_group_IT_number 12
_symmetry_cell_setting 'monoclinic'
loop_
_space_group_symop_operation_xyz
x,y,z
-x,y,-z
-x,-y,-z
x,-y,z
1/2+x,1/2+y,z
1/2-x,1/2+y,-z
1/2-x,1/2-y,-z
1/2+x,1/2-y,z
loop_
_atom_site_type_symbol
_atom_site_label
_atom_site_fract_x
_atom_site_fract_y
_atom_site_fract_z
Si Si1 0.436768 0.095469 0.747421
Si Si2 0.095735 0.404584 0.724261
Si Si3 0.824658 0.269277 0.757118
Si Si4 0.076178 0.093503 0.603684
Si Si5 0.169617 0.238240 0.706222
Si Si6 0.867022 0.912972 0.804130
Si Si7 0.500000 0.500000 0.000000
O O1 0.420117 0.096424 0.511826
O O2 0.519178 0.111985 0.792808
O O3 0.384900 0.164224 0.819185
O O4 0.423008 0.000000 0.809872
O O5 0.118692 0.500000 0.775612
O O6 0.149125 0.329525 0.781677
O O7 0.828490 0.254853 0.525462
O O8 0.745836 0.295082 0.781421
O O9 0.836982 0.176851 0.848099
O O10 0.110213 0.168911 0.728942
O O11 0.124411 0.085293 0.427228
O O12 0.000000 0.114055 0.500000
O O13 0.069565 0.000000 0.700992
O O14 0.828011 0.000000 0.850695
O O15 0.944860 0.927798 0.903761
#
# Coordination Sequence:
#
# PCOD9222930 Si02
#       7
#     8   8   8   8   8   8   2
#     4   8  14  23  36  51  76 110 145 176 200 245
#     4   8  14  23  34  51  74 113 151 170 196 246
#     4   9  16  25  36  60  85 113 144 173 223 266
#     4   9  17  27  40  62  92 119 144 176 217 271
#     4   9  17  23  36  57  87 121 139 169 219 272
#     4   8  16  28  44  62  87 110 146 187 222 256
#     4   8  16  32  46  64  82 112 154 198 222 246
#
# _framework density 23.775822999999999
#
# number of rings (size 3 to 8) (size 9 to 14) (size 15 to 20)
#    0.480    3.040    0.000    0.960    6.720    1.280 
#    0.000    6.400    0.000    0.000    0.000    1.680 
#    0.000    0.000    0.000    0.000    0.000    0.000 
#
# Total GULP energy -139364.291800 kJ/mol
# GULP energy per Si atom -5574.571672 kJ/mol
# Density = 2.372171 g / cm^3
# Si number density = 23.775823 Si / 1000 Ang^3
#
#
#
# Elastic Constant Matrix: (Units=GPa)
#
#
# Indices 1 2 3 4 5 6 
#
# 1 90.3822 103.8250 3.5620 0.0000 12.7968 0.0000
# 2 103.8250 193.2279 -2.7684 0.0000 23.2582 0.0000
# 3 3.5620 -2.7684 76.7122 0.0000 -21.3735 0.0000
# 4 0.0000 0.0000 0.0000 -12.0333 0.0000 24.7188
# 5 12.7968 23.2582 -21.3735 0.0000 27.9313 0.0000
# 6 0.0000 0.0000 0.0000 24.7188 0.0000 -29.2751
#
#
#
# Elastic Compliance Matrix: (Units=1/GPa)
#
#
# Indices 1 2 3 4 5 6 
#
# 1 0.029312 -0.015480 -0.002631 0.000000 -0.002552 0.000000
# 2 -0.015480 0.014054 -0.000074 0.000000 -0.004667 0.000000
# 3 -0.002631 -0.000074 0.017169 0.000000 0.014405 0.000000
# 4 0.000000 0.000000 0.000000 0.113143 0.000000 0.095534
# 5 -0.002552 -0.004667 0.014405 0.000000 0.051880 0.000000
# 6 0.000000 0.000000 0.000000 0.095534 0.000000 0.046506
#
#
# Mechanical properties :
#
#
# Convention : Reuss Voigt Hill
#
# Bulk Modulus (GPa) = 41.38468 63.28440 52.33454
# Shear Modulus (GPa) = 15.79830 14.37150 15.08490
#
# Velocity S-wave (km/s) = 2.58053 2.46124 2.52159
# Velocity P-wave (km/s) = 5.13058 5.89507 5.52606
#
# Compressibility (1/GPa) = 0.02416353
#
# Stress axis : x y z
#
# Youngs Moduli (GPa) = 34.11574 71.15497 58.24549
#
# Poissons Ratio (x) = 1.10151 0.15323
# Poissons Ratio (y) = 0.52813 0.00433
# Poissons Ratio (z) = 0.08975 0.00529
#
# Static dielectric constant tensor:
#      x y z
#    x 1.761690 0.000000 -0.018050 
#    y 0.000000 1.900500 0.000000 
#    z -0.018050 0.000000 1.997460 
# 
# From -- ./inp_files/166291.got.cif
#   From: 2010.05.17/outbox.cif.g08.bks.cpg/sg12_84_cif.got.tgz:166291.got - 2010.06.03 13:09:07.
