data_PCOD9222739
_publ_section_title
;
Structure prediction by ZEFSAII (Michael W. Deem and Ramdas Pophale) SiO2 
 PCOD9222739
Probable space group: C 2/M
;
_chemical_formula_sum "Si O2"
_cell_formula_units_Z 40
_cell_length_a 15.920489
_cell_length_b 9.211387
_cell_length_c 22.775049
_cell_angle_alpha 90.000000
_cell_angle_beta 31.474067
_cell_angle_gamma 90.000000
_cell_volume 1743.833111
_symmetry_space_group_name_H-M "C 2/M"
_symmetry_group_IT_number 12
_symmetry_cell_setting 'monoclinic'
loop_
_space_group_symop_operation_xyz
x,y,z
-x,y,-z
-x,-y,-z
x,-y,z
1/2+x,1/2+y,z
1/2-x,1/2+y,-z
1/2-x,1/2-y,-z
1/2+x,1/2-y,z
loop_
_atom_site_type_symbol
_atom_site_label
_atom_site_fract_x
_atom_site_fract_y
_atom_site_fract_z
Si Si1 0.402022 0.167402 0.338191
Si Si2 0.773239 0.170545 0.259554
Si Si3 0.085627 0.331528 0.526569
Si Si4 0.096263 0.327571 0.062590
Si Si5 0.266915 0.330630 0.121528
O O1 0.426223 0.234813 0.186484
O O2 0.248865 0.256855 0.408393
O O3 0.406467 0.176586 0.406938
O O4 0.377956 0.000000 0.336799
O O5 0.592847 0.221656 0.384333
O O6 0.773618 0.175447 0.187800
O O7 0.792923 0.000000 0.263676
O O8 0.091351 0.500000 0.507435
O O9 0.103335 0.500000 0.064906
O O10 0.117757 0.275979 0.982271
O O11 0.250000 0.250000 0.000000
O O12 0.083293 0.292325 0.213198
O O13 0.299316 0.500000 0.085724
#
# Coordination Sequence:
#
# PCOD9222739 Si02
#       5
#     8   8   8   8   8
#     4   8  14  25  44  72 104 135 164 197 241 291
#     4   9  18  34  55  78 106 138 169 205 252 302
#     4   8  14  25  44  72 104 135 164 197 241 291
#     4  12  25  38  53  73  99 133 173 216 261 306
#     4   9  18  34  55  78 106 138 169 205 252 302
#
# _framework density 22.937974000000001
#
# number of rings (size 3 to 8) (size 9 to 14) (size 15 to 20)
#    0.000    2.800    0.000    4.800    0.000    4.800 
#    0.000    4.000    0.000    1.200    0.000    8.400 
#    0.000    0.000    0.000    0.000    0.000    0.000 
#
# Total GULP energy -111800.538172 kJ/mol
# GULP energy per Si atom -5590.026909 kJ/mol
# Density = 2.288577 g / cm^3
# Si number density = 22.937974 Si / 1000 Ang^3
#
#
#
# Elastic Constant Matrix: (Units=GPa)
#
#
# Indices 1 2 3 4 5 6 
#
# 1 150.7150 64.5544 44.5639 0.0001 -39.4303 0.0000
# 2 64.5544 90.5717 60.1552 0.0000 -42.3672 0.0000
# 3 44.5639 60.1552 129.3734 0.0003 -40.9707 -0.0001
# 4 0.0001 0.0000 0.0003 29.5733 -0.0001 -15.2672
# 5 -39.4303 -42.3672 -40.9707 -0.0001 63.0592 0.0000
# 6 0.0000 0.0000 -0.0001 -15.2672 0.0000 29.4703
#
#
#
# Elastic Compliance Matrix: (Units=1/GPa)
#
#
# Indices 1 2 3 4 5 6 
#
# 1 0.009735 -0.006029 0.000120 0.000000 0.002114 0.000000
# 2 -0.006029 0.023059 -0.006211 0.000000 0.007688 0.000000
# 3 0.000120 -0.006211 0.011682 0.000000 0.003492 0.000000
# 4 0.000000 0.000000 0.000000 0.046159 0.000000 0.023913
# 5 0.002114 0.007688 0.003492 0.000000 0.024614 0.000000
# 6 0.000000 0.000000 0.000000 0.023913 0.000000 0.046321
#
#
# Mechanical properties :
#
#
# Convention : Reuss Voigt Hill
#
# Bulk Modulus (GPa) = 49.41659 78.80079 64.10869
# Shear Modulus (GPa) = 25.96645 37.84633 31.90639
#
# Velocity S-wave (km/s) = 3.36821 4.06635 3.73364
# Velocity P-wave (km/s) = 6.05944 7.51501 6.82614
#
# Compressibility (1/GPa) = 0.02023612
#
# Stress axis : x y z
#
# Youngs Moduli (GPa) = 102.71975 43.36677 85.60140
#
# Poissons Ratio (x) = 0.26146 -0.01023
# Poissons Ratio (y) = 0.61931 0.53163
# Poissons Ratio (z) = -0.01228 0.26933
#
# Static dielectric constant tensor:
#      x y z
#    x 1.947640 0.000000 0.055450 
#    y 0.000000 1.761890 0.000000 
#    z 0.055450 0.000000 1.936180 
# 
# From -- ./inp_files/211443.got.cif
#   From: 2010.05.17/outbox.cif.g08.bks.cpg/sg12_106_cif.got.tgz:211443.got - 2010.06.03 13:09:07.
