data_PCOD9222405
_publ_section_title
;
Structure prediction by ZEFSAII (Michael W. Deem and Ramdas Pophale) SiO2 
 PCOD9222405
Probable space group: C 2/M
;
_chemical_formula_sum "Si O2"
_cell_formula_units_Z 40
_cell_length_a 8.913937
_cell_length_b 18.553950
_cell_length_c 12.063302
_cell_angle_alpha 90.000000
_cell_angle_beta 97.664049
_cell_angle_gamma 90.000000
_cell_volume 1977.311952
_symmetry_space_group_name_H-M "C 2/M"
_symmetry_group_IT_number 12
_symmetry_cell_setting 'monoclinic'
loop_
_space_group_symop_operation_xyz
x,y,z
-x,y,-z
-x,-y,-z
x,-y,z
1/2+x,1/2+y,z
1/2-x,1/2+y,-z
1/2-x,1/2-y,-z
1/2+x,1/2-y,z
loop_
_atom_site_type_symbol
_atom_site_label
_atom_site_fract_x
_atom_site_fract_y
_atom_site_fract_z
Si Si1 0.679873 0.415925 0.517095
Si Si2 0.727561 0.158434 0.690193
Si Si3 0.168825 0.683455 0.052370
Si Si4 0.130261 0.309878 0.308740
Si Si5 0.342082 0.415290 0.924767
O O1 0.500000 0.398587 0.500000
O O2 0.694952 0.500000 0.547935
O O3 0.748999 0.400693 0.402590
O O4 0.774188 0.366081 0.609771
O O5 0.817501 0.228984 0.656828
O O6 0.550165 0.177179 0.693202
O O7 0.803919 0.129833 0.810954
O O8 0.178304 0.683061 0.185042
O O9 0.250000 0.750000 0.000000
O O10 0.222742 0.608703 0.005196
O O11 0.000000 0.694312 0.000000
O O12 0.339553 0.500000 0.899465
O O13 0.500000 0.396774 0.000000
#
# Coordination Sequence:
#
# PCOD9222405 Si02
#       5
#     8   8   8   8   8
#     4  11  27  48  71 100 138 182 228 282 344 407
#     4  12  25  46  70 103 137 178 232 282 342 404
#     4  12  23  43  68 103 138 178 227 278 336 405
#     4  12  25  43  73 101 136 181 228 285 336 405
#     4  11  26  43  67  99 140 183 224 280 345 409
#
# _framework density 20.229482999999998
#
# number of rings (size 3 to 8) (size 9 to 14) (size 15 to 20)
#    0.000    0.400    4.000    3.600    5.600    3.600 
#    0.000    0.000    0.000    0.000    0.000    0.000 
#    0.000    0.000    0.000    0.000    0.000    0.000 
#
# Total GULP energy -111836.228814 kJ/mol
# GULP energy per Si atom -5591.811441 kJ/mol
# Density = 2.018344 g / cm^3
# Si number density = 20.229483 Si / 1000 Ang^3
#
#
#
# Elastic Constant Matrix: (Units=GPa)
#
#
# Indices 1 2 3 4 5 6 
#
# 1 163.1571 67.0941 42.9742 0.0000 14.2608 0.0000
# 2 67.0941 101.1992 29.4508 0.0000 22.6131 0.0000
# 3 42.9742 29.4508 91.8022 0.0000 7.8283 0.0000
# 4 0.0000 0.0000 0.0000 41.2868 0.0000 -5.2923
# 5 14.2608 22.6131 7.8283 0.0000 37.0407 0.0000
# 6 0.0000 0.0000 0.0000 -5.2923 0.0000 35.6204
#
#
#
# Elastic Compliance Matrix: (Units=1/GPa)
#
#
# Indices 1 2 3 4 5 6 
#
# 1 0.008926 -0.005252 -0.002519 0.000000 0.000302 0.000000
# 2 -0.005252 0.015491 -0.001911 0.000000 -0.007031 0.000000
# 3 -0.002519 -0.001911 0.012733 0.000000 -0.000554 0.000000
# 4 0.000000 0.000000 0.000000 0.024691 0.000000 0.003668
# 5 0.000302 -0.007031 -0.000554 0.000000 0.031290 0.000000
# 6 0.000000 0.000000 0.000000 0.003668 0.000000 0.028619
#
#
# Mechanical properties :
#
#
# Convention : Reuss Voigt Hill
#
# Bulk Modulus (GPa) = 56.23042 70.57743 63.40392
# Shear Modulus (GPa) = 34.00341 37.23221 35.61781
#
# Velocity S-wave (km/s) = 4.10431 4.29475 4.20061
# Velocity P-wave (km/s) = 7.09345 7.71734 7.41196
#
# Compressibility (1/GPa) = 0.01778397
#
# Stress axis : x y z
#
# Youngs Moduli (GPa) = 112.03150 64.55326 78.53774
#
# Poissons Ratio (x) = 0.33905 0.19786
# Poissons Ratio (y) = 0.58842 0.15012
# Poissons Ratio (z) = 0.28224 0.12339
#
# Static dielectric constant tensor:
#      x y z
#    x 1.721910 0.000000 0.044450 
#    y 0.000000 1.714290 0.000000 
#    z 0.044450 0.000000 1.785080 
# 
# From -- ./inp_files/119027.got.cif
#   From: 2010.05.17/outbox.cif.g08.bks.cpg/sg12_60_cif.got.tgz:119027.got - 2010.06.03 13:09:07.
