data_PCOD9222807
_publ_section_title
;
Structure prediction by ZEFSAII (Michael W. Deem and Ramdas Pophale) SiO2 
 PCOD9222807
Probable space group: C 2/M
;
_chemical_formula_sum "Si O2"
_cell_formula_units_Z 48
_cell_length_a 7.835689
_cell_length_b 15.100476
_cell_length_c 22.541246
_cell_angle_alpha 90.000000
_cell_angle_beta 39.831006
_cell_angle_gamma 90.000000
_cell_volume 1708.370568
_symmetry_space_group_name_H-M "C 2/M"
_symmetry_group_IT_number 12
_symmetry_cell_setting 'monoclinic'
loop_
_space_group_symop_operation_xyz
x,y,z
-x,y,-z
-x,-y,-z
x,-y,z
1/2+x,1/2+y,z
1/2-x,1/2+y,-z
1/2-x,1/2-y,-z
1/2+x,1/2-y,z
loop_
_atom_site_type_symbol
_atom_site_label
_atom_site_fract_x
_atom_site_fract_y
_atom_site_fract_z
Si Si1 0.032767 0.106233 0.230269
Si Si2 0.706380 0.871627 0.561316
Si Si3 0.138634 0.165575 0.600525
Si Si4 0.559025 0.898524 0.723531
Si Si5 0.813692 0.894584 0.935181
Si Si6 0.148216 0.606324 0.103346
O O1 0.034032 0.143864 0.162880
O O2 0.338528 0.121636 0.169883
O O3 0.855903 0.143133 0.331434
O O4 0.001044 0.000000 0.237293
O O5 0.694070 0.887319 0.494249
O O6 0.709783 0.766813 0.571494
O O7 0.508292 0.901338 0.666578
O O8 0.000000 0.906383 0.500000
O O9 0.831765 0.153479 0.661983
O O10 0.343306 0.866947 0.829458
O O11 0.617612 0.000000 0.724768
O O12 0.886252 0.000000 0.918018
O O13 0.500000 0.892891 0.000000
O O14 0.812925 0.858076 0.002827
O O15 0.194205 0.500000 0.088706
#
# Coordination Sequence:
#
# PCOD9222807 Si02
#       6
#     8   8   8   8   8   8
#     4   8  12  18  32  52  71  95 125 152 179 216
#     4   9  18  28  38  53  75 103 130 156 194 236
#     4   9  16  26  38  54  77 101 127 157 193 231
#     4   9  16  26  43  63  77  96 130 164 187 215
#     4   7   9  14  26  47  73  95 115 142 178 219
#     4   7  10  17  30  51  76  94 113 147 185 216
#
# _framework density 28.096948999999999
#
# number of rings (size 3 to 8) (size 9 to 14) (size 15 to 20)
#    0.000    3.833    0.000    3.500    0.000    3.667 
#    0.000    0.000    0.000    3.000    0.000    7.000 
#    0.000    0.000    0.000    0.000    0.000  148.333 
#
# Total GULP energy -134125.399277 kJ/mol
# GULP energy per Si atom -5588.558303 kJ/mol
# Density = 2.803300 g / cm^3
# Si number density = 28.096949 Si / 1000 Ang^3
#
#
#
# Elastic Constant Matrix: (Units=GPa)
#
#
# Indices 1 2 3 4 5 6 
#
# 1 161.9306 16.4127 92.6933 -0.0052 64.4983 0.0070
# 2 16.4127 70.1802 23.5920 0.0018 8.9108 0.0021
# 3 92.6933 23.5920 338.6549 -0.0159 66.7421 0.0003
# 4 -0.0052 0.0018 -0.0159 26.8618 0.0075 16.8625
# 5 64.4983 8.9108 66.7421 0.0075 90.6127 -0.0046
# 6 0.0070 0.0021 0.0003 16.8625 -0.0046 13.2481
#
#
#
# Elastic Compliance Matrix: (Units=1/GPa)
#
#
# Indices 1 2 3 4 5 6 
#
# 1 0.009245 -0.001003 -0.001384 0.000033 -0.005463 -0.000049
# 2 -0.001003 0.014750 -0.000711 -0.000002 -0.000213 0.000001
# 3 -0.001384 -0.000711 0.003712 0.000012 -0.001679 -0.000015
# 4 0.000033 -0.000002 0.000012 0.185228 -0.000059 -0.235763
# 5 -0.005463 -0.000213 -0.001679 -0.000059 0.016182 0.000084
# 6 -0.000049 0.000001 -0.000015 -0.235763 0.000084 0.375568
#
#
# Mechanical properties :
#
#
# Convention : Reuss Voigt Hill
#
# Bulk Modulus (GPa) = 46.48903 92.90685 69.69794
# Shear Modulus (GPa) = 8.08993 55.34903 31.71948
#
# Velocity S-wave (km/s) = 1.69869 4.44320 3.36360
# Velocity P-wave (km/s) = 4.51987 7.71110 6.32022
#
# Compressibility (1/GPa) = 0.02151045
#
# Stress axis : x y z
#
# Youngs Moduli (GPa) = 108.16320 67.79810 269.38609
#
# Poissons Ratio (x) = 0.06802 0.37284
# Poissons Ratio (y) = 0.10852 0.19153
# Poissons Ratio (z) = 0.14970 0.04820
#
# Static dielectric constant tensor:
#      x y z
#    x 2.281180 0.000000 0.030820 
#    y 0.000000 2.059140 0.000010 
#    z 0.030820 0.000010 2.228140 
# 
# From -- ./inp_files/339773.got.cif
#   From: 2010.05.17/outbox.cif.g08.bks.cpg/sg12_170_cif.got.tgz:339773.got - 2010.06.03 13:09:07.
