data_PCOD9222292
_publ_section_title
;
Structure prediction by ZEFSAII (Michael W. Deem and Ramdas Pophale) SiO2 
 PCOD9222292
Probable space group: C 2/M
;
_chemical_formula_sum "Si O2"
_cell_formula_units_Z 26
_cell_length_a 9.953693
_cell_length_b 7.713131
_cell_length_c 14.807094
_cell_angle_alpha 90.000000
_cell_angle_beta 68.449307
_cell_angle_gamma 90.000000
_cell_volume 1057.331400
_symmetry_space_group_name_H-M "C 2/M"
_symmetry_group_IT_number 12
_symmetry_cell_setting 'monoclinic'
loop_
_space_group_symop_operation_xyz
x,y,z
-x,y,-z
-x,-y,-z
x,-y,z
1/2+x,1/2+y,z
1/2-x,1/2+y,-z
1/2-x,1/2-y,-z
1/2+x,1/2-y,z
loop_
_atom_site_type_symbol
_atom_site_label
_atom_site_fract_x
_atom_site_fract_y
_atom_site_fract_z
Si Si1 0.955399 0.790715 0.213059
Si Si2 0.798769 0.200773 0.589745
Si Si3 0.000000 0.500000 0.500000
Si Si4 0.771752 0.798445 0.098300
O O1 0.840533 0.721930 0.313000
O O2 0.899414 0.723977 0.128787
O O3 0.120163 0.736946 0.185200
O O4 0.951553 0.000000 0.217833
O O5 0.750000 0.250000 0.500000
O O6 0.918332 0.345666 0.579271
O O7 0.846086 0.000000 0.582079
O O8 0.802246 0.000000 0.088809
O O9 0.750000 0.750000 0.000000
#
# Coordination Sequence:
#
# PCOD9222292 Si02
#       4
#     8   8   2   8
#     4  11  25  45  69 102 140 183 234 292 352 421
#     4  12  26  46  72 104 143 189 236 296 351 427
#     4  12  26  48  72 100 146 186 244 284 364 418
#     4  11  25  44  69 100 138 180 233 292 353 421
#
# _framework density 24.590208000000001
#
# number of rings (size 3 to 8) (size 9 to 14) (size 15 to 20)
#    0.000    0.615    3.077    3.231    4.308    8.615 
#    0.000    0.000    0.000    0.000    0.000    0.000 
#    0.000    0.000    0.000    0.000    0.000    0.000 
#
# Total GULP energy -72532.347013 kJ/mol
# GULP energy per Si atom -5579.411309 kJ/mol
# Density = 2.453424 g / cm^3
# Si number density = 24.590208 Si / 1000 Ang^3
#
#
#
# Elastic Constant Matrix: (Units=GPa)
#
#
# Indices 1 2 3 4 5 6 
#
# 1 72.3661 -21.9053 -12.7698 0.0000 5.5252 0.0000
# 2 -21.9053 133.3899 -11.9688 0.0000 9.1840 0.0000
# 3 -12.7698 -11.9688 87.0212 0.0000 2.2413 0.0000
# 4 0.0000 0.0000 0.0000 42.8366 0.0000 -12.3057
# 5 5.5252 9.1840 2.2413 0.0000 39.5505 0.0000
# 6 0.0000 0.0000 0.0000 -12.3057 0.0000 20.6187
#
#
#
# Elastic Compliance Matrix: (Units=1/GPa)
#
#
# Indices 1 2 3 4 5 6 
#
# 1 0.015439 0.002990 0.002754 0.000000 -0.003007 0.000000
# 2 0.002990 0.008303 0.001644 0.000000 -0.002439 0.000000
# 3 0.002754 0.001644 0.012159 0.000000 -0.001455 0.000000
# 4 0.000000 0.000000 0.000000 0.028175 0.000000 0.016816
# 5 -0.003007 -0.002439 -0.001455 0.000000 0.026353 0.000000
# 6 0.000000 0.000000 0.000000 0.016816 0.000000 0.058536
#
#
# Mechanical properties :
#
#
# Convention : Reuss Voigt Hill
#
# Bulk Modulus (GPa) = 19.73310 22.16548 20.94929
# Shear Modulus (GPa) = 33.09448 43.22923 38.16185
#
# Velocity S-wave (km/s) = 3.67255 4.19738 3.94371
# Velocity P-wave (km/s) = 5.10154 5.70300 5.41063
#
# Compressibility (1/GPa) = 0.05067629
#
# Stress axis : x y z
#
# Youngs Moduli (GPa) = 64.77017 120.43610 82.24252
#
# Poissons Ratio (x) = -0.36006 -0.22652
# Poissons Ratio (y) = -0.19364 -0.13517
# Poissons Ratio (z) = -0.17839 -0.19794
#
# Static dielectric constant tensor:
#      x y z
#    x 2.090120 0.000000 0.102440 
#    y 0.000000 1.894530 0.000000 
#    z 0.102440 0.000000 1.988190 
# 
# From -- ./inp_files/201773.got.cif
#   From: 2010.05.17/outbox.cif.g08.bks.cpg/sg12_101_cif.got.tgz:201773.got - 2010.06.03 13:09:07.
