data_PCOD9222557
_publ_section_title
;
Structure prediction by ZEFSAII (Michael W. Deem and Ramdas Pophale) SiO2 
 PCOD9222557
Probable space group: C 2/M
;
_chemical_formula_sum "Si O2"
_cell_formula_units_Z 48
_cell_length_a 8.465590
_cell_length_b 34.878378
_cell_length_c 13.864169
_cell_angle_alpha 90.000000
_cell_angle_beta 142.780711
_cell_angle_gamma 90.000000
_cell_volume 2476.095647
_symmetry_space_group_name_H-M "C 2/M"
_symmetry_group_IT_number 12
_symmetry_cell_setting 'monoclinic'
loop_
_space_group_symop_operation_xyz
x,y,z
-x,y,-z
-x,-y,-z
x,-y,z
1/2+x,1/2+y,z
1/2-x,1/2+y,-z
1/2-x,1/2-y,-z
1/2+x,1/2-y,z
loop_
_atom_site_type_symbol
_atom_site_label
_atom_site_fract_x
_atom_site_fract_y
_atom_site_fract_z
Si Si1 0.208105 0.544017 0.309830
Si Si2 0.829082 0.706883 0.015066
Si Si3 0.600554 0.601035 0.750546
Si Si4 0.478787 0.364592 0.874837
Si Si5 0.268051 0.665248 0.332976
Si Si6 0.574895 0.897621 0.389535
O O1 0.500000 0.545380 0.500000
O O2 0.140012 0.500000 0.259462
O O3 0.234739 0.568995 0.225535
O O4 0.025036 0.564742 0.300032
O O5 0.020362 0.690811 0.190843
O O6 0.750000 0.750000 0.000000
O O7 0.583755 0.677676 0.899079
O O8 0.000000 0.705575 0.000000
O O9 0.641568 0.606866 0.884153
O O10 0.659877 0.642193 0.729201
O O11 0.296053 0.592926 0.575593
O O12 0.181639 0.374922 0.704208
O O13 0.500000 0.370170 0.000000
O O14 0.500000 0.687382 0.500000
O O15 0.207256 0.631297 0.377862
#
# Coordination Sequence:
#
# PCOD9222557 Si02
#       6
#     8   8   8   8   8   8
#     4   8  15  32  60  89 117 152 196 246 290 334
#     4  12  25  42  60  85 115 149 192 241 296 357
#     4   9  18  34  57  87 114 149 195 237 280 340
#     4  12  22  35  57  85 114 154 193 235 284 349
#     4   9  18  38  61  83 110 146 192 238 281 338
#     4   9  18  33  58  88 116 144 192 240 285 340
#
# _framework density 19.385358
#
# number of rings (size 3 to 8) (size 9 to 14) (size 15 to 20)
#    0.000    2.167    3.333    3.000    0.000    0.000 
#    0.000    3.333    0.000    7.000    0.000    0.000 
#    0.000    0.000    0.000    0.000    0.000    0.000 
#
# Total GULP energy -133674.814136 kJ/mol
# GULP energy per Si atom -5569.783922 kJ/mol
# Density = 1.934124 g / cm^3
# Si number density = 19.385358 Si / 1000 Ang^3
#
#
#
# Elastic Constant Matrix: (Units=GPa)
#
#
# Indices 1 2 3 4 5 6 
#
# 1 100.1597 45.2421 27.1016 0.0000 -18.5609 0.0000
# 2 45.2421 128.4677 45.3261 0.0000 -0.4548 0.0000
# 3 27.1016 45.3261 37.5023 0.0000 2.9454 0.0000
# 4 0.0000 0.0000 0.0000 18.2599 0.0000 2.7858
# 5 -18.5609 -0.4548 2.9454 0.0000 42.5857 0.0000
# 6 0.0000 0.0000 0.0000 2.7858 0.0000 20.0646
#
#
#
# Elastic Compliance Matrix: (Units=1/GPa)
#
#
# Indices 1 2 3 4 5 6 
#
# 1 0.014502 -0.002082 -0.008504 0.000000 0.006887 0.000000
# 2 -0.002082 0.013941 -0.015368 0.000000 0.000304 0.000000
# 3 -0.008504 -0.015368 0.051971 0.000000 -0.007465 0.000000
# 4 0.000000 0.000000 0.000000 0.055950 0.000000 -0.007768
# 5 0.006887 0.000304 -0.007465 0.000000 0.027003 0.000000
# 6 0.000000 0.000000 0.000000 -0.007768 0.000000 0.050917
#
#
# Mechanical properties :
#
#
# Convention : Reuss Voigt Hill
#
# Bulk Modulus (GPa) = 35.08201 55.71883 45.40042
# Shear Modulus (GPa) = 18.13601 26.07937 22.10769
#
# Velocity S-wave (km/s) = 3.06200 3.67183 3.38069
# Velocity P-wave (km/s) = 5.53512 6.83971 6.22170
#
# Compressibility (1/GPa) = 0.02850464
#
# Stress axis : x y z
#
# Youngs Moduli (GPa) = 68.95665 71.73290 19.24146
#
# Poissons Ratio (x) = 0.14937 0.16363
# Poissons Ratio (y) = 0.14359 0.29570
# Poissons Ratio (z) = 0.58642 1.10239
#
# Static dielectric constant tensor:
#      x y z
#    x 1.761750 0.000000 0.012740 
#    y 0.000000 1.650390 0.000000 
#    z 0.012740 0.000000 1.751780 
# 
# From -- ./inp_files/201034.got.cif
#   From: 2010.05.17/outbox.cif.g08.bks.cpg/sg12_101_cif.got.tgz:201034.got - 2010.06.03 13:09:07.
