data_PCOD9222943
_publ_section_title
;
Structure prediction by ZEFSAII (Michael W. Deem and Ramdas Pophale) SiO2 
 PCOD9222943
Probable space group: C 2/M
;
_chemical_formula_sum "Si O2"
_cell_formula_units_Z 56
_cell_length_a 19.904237
_cell_length_b 7.402392
_cell_length_c 24.140196
_cell_angle_alpha 90.000000
_cell_angle_beta 52.052668
_cell_angle_gamma 90.000000
_cell_volume 2804.801667
_symmetry_space_group_name_H-M "C 2/M"
_symmetry_group_IT_number 12
_symmetry_cell_setting 'monoclinic'
loop_
_space_group_symop_operation_xyz
x,y,z
-x,y,-z
-x,-y,-z
x,-y,z
1/2+x,1/2+y,z
1/2-x,1/2+y,-z
1/2-x,1/2-y,-z
1/2+x,1/2-y,z
loop_
_atom_site_type_symbol
_atom_site_label
_atom_site_fract_x
_atom_site_fract_y
_atom_site_fract_z
Si Si1 0.869239 0.279600 0.779681
Si Si2 0.405396 0.279375 0.062004
Si Si3 0.056253 0.716632 0.653234
Si Si4 0.248942 0.215256 0.935716
Si Si5 0.830010 0.284487 0.499993
Si Si6 0.784516 0.783535 0.346787
Si Si7 0.286573 0.279988 0.220113
O O1 0.872234 0.500000 0.778552
O O2 0.829454 0.219808 0.858659
O O3 0.799834 0.228288 0.768322
O O4 0.964042 0.215100 0.718344
O O5 0.407066 0.500000 0.060977
O O6 0.337039 0.219664 0.050613
O O7 0.365860 0.224679 0.141213
O O8 0.500000 0.217401 0.000000
O O9 0.049888 0.500000 0.651452
O O10 0.090410 0.785171 0.576205
O O11 0.129417 0.750604 0.661839
O O12 0.248528 0.000000 0.929061
O O13 0.250000 0.250000 0.000000
O O14 0.841460 0.500000 0.500058
O O15 0.750000 0.250000 0.500000
O O16 0.796007 0.214702 0.576167
O O17 0.789608 0.715405 0.281586
O O18 0.775095 0.000000 0.348417
O O19 0.287566 0.500000 0.220510
#
# Coordination Sequence:
#
# PCOD9222943 Si02
#       7
#     8   8   8   8   8   8   8
#     4   8  15  28  43  59  82 112 139 162 197 246
#     4   8  14  25  41  60  80 104 135 166 197 239
#     4   9  16  27  43  60  81 111 141 164 194 244
#     4   9  17  29  45  63  83 107 135 168 204 241
#     4   8  14  24  38  58  82 106 132 164 202 239
#     4   9  16  26  42  64  85 103 132 175 211 234
#     4   8  14  25  40  57  80 108 133 163 204 241
#
# _framework density 19.96576
#
# number of rings (size 3 to 8) (size 9 to 14) (size 15 to 20)
#    0.000    3.571    0.000    1.714    0.000    1.143 
#    0.000    2.857    0.000    9.000    0.000    0.000 
#    0.000   11.429    0.000    0.000    0.000    0.000 
#
# Total GULP energy -155969.441792 kJ/mol
# GULP energy per Si atom -5570.337207 kJ/mol
# Density = 1.992032 g / cm^3
# Si number density = 19.965760 Si / 1000 Ang^3
#
#
#
# Elastic Constant Matrix: (Units=GPa)
#
#
# Indices 1 2 3 4 5 6 
#
# 1 85.8084 1.7141 128.2159 -0.0001 -10.7332 0.0002
# 2 1.7141 67.3304 9.0200 -0.0005 -2.1351 0.0001
# 3 128.2159 9.0200 268.6886 0.0001 -7.3559 0.0001
# 4 -0.0001 -0.0005 0.0001 2.3300 0.0001 5.7842
# 5 -10.7332 -2.1351 -7.3559 0.0001 36.4701 -0.0002
# 6 0.0002 0.0001 0.0001 5.7842 -0.0002 7.7444
#
#
#
# Elastic Compliance Matrix: (Units=1/GPa)
#
#
# Indices 1 2 3 4 5 6 
#
# 1 0.043375 0.001922 -0.020523 -0.000004 0.008738 0.000003
# 2 0.001922 0.015026 -0.001390 -0.000004 0.001165 0.000003
# 3 -0.020523 -0.001390 0.013469 0.000002 -0.003405 -0.000002
# 4 -0.000004 -0.000004 0.000002 -0.502466 0.000003 0.375287
# 5 0.008738 0.001165 -0.003405 0.000003 0.029373 -0.000001
# 6 0.000003 0.000003 -0.000002 0.375287 -0.000001 -0.151174
#
#
# Mechanical properties :
#
#
# Convention : Reuss Voigt Hill
#
# Bulk Modulus (GPa) = 31.35971 77.74751 54.55361
# Shear Modulus (GPa) = -9.96442 28.16740 9.10149
#
# Velocity S-wave (km/s) = -2.23642 3.76012 2.13739
# Velocity P-wave (km/s) = 3.01199 7.60765 5.78569
#
# Compressibility (1/GPa) = 0.03188805
#
# Stress axis : x y z
#
# Youngs Moduli (GPa) = 23.05489 66.54986 74.24566
#
# Poissons Ratio (x) = -0.12793 1.52377
# Poissons Ratio (y) = -0.04432 0.10319
# Poissons Ratio (z) = 0.47316 0.09249
#
# Static dielectric constant tensor:
#      x y z
#    x 1.653900 0.000000 -0.005080 
#    y 0.000000 1.769330 0.000000 
#    z -0.005080 0.000000 1.745720 
# 
# From -- ./inp_files/277085.got.cif
#   From: 2010.05.17/outbox.cif.g08.bks.cpg/sg12_139_cif.got.tgz:277085.got - 2010.06.03 13:09:07.
