data_PCOD9222637
_publ_section_title
;
Structure prediction by ZEFSAII (Michael W. Deem and Ramdas Pophale) SiO2 
 PCOD9222637
Probable space group: C 2/M
;
_chemical_formula_sum "Si O2"
_cell_formula_units_Z 52
_cell_length_a 19.969526
_cell_length_b 26.650942
_cell_length_c 12.648998
_cell_angle_alpha 90.000000
_cell_angle_beta 156.501865
_cell_angle_gamma 90.000000
_cell_volume 2684.130416
_symmetry_space_group_name_H-M "C 2/M"
_symmetry_group_IT_number 12
_symmetry_cell_setting 'monoclinic'
loop_
_space_group_symop_operation_xyz
x,y,z
-x,y,-z
-x,-y,-z
x,-y,z
1/2+x,1/2+y,z
1/2-x,1/2+y,-z
1/2-x,1/2-y,-z
1/2+x,1/2-y,z
loop_
_atom_site_type_symbol
_atom_site_label
_atom_site_fract_x
_atom_site_fract_y
_atom_site_fract_z
Si Si1 0.249937 0.056496 0.071845
Si Si2 0.000000 0.298971 0.000000
Si Si3 0.613769 0.056980 0.493368
Si Si4 0.550400 0.741413 0.694286
Si Si5 0.456110 0.354667 0.181011
Si Si6 0.269762 0.138430 0.508991
Si Si7 0.276251 0.292159 0.739263
O O1 0.422607 0.061702 0.257298
O O2 0.284699 0.061198 0.248877
O O3 0.185491 0.000000 0.959877
O O4 0.134364 0.103438 0.880729
O O5 0.905008 0.334450 0.779124
O O6 0.871766 0.261184 0.875553
O O7 0.662021 0.097249 0.474481
O O8 0.638843 0.000000 0.489970
O O9 0.500000 0.735162 0.500000
O O10 0.494759 0.692349 0.676811
O O11 0.574545 0.785462 0.449392
O O12 0.750000 0.750000 0.000000
O O13 0.615824 0.380164 0.357249
O O14 0.334849 0.328400 0.918250
O O15 0.185538 0.182014 0.316456
#
# Coordination Sequence:
#
# PCOD9222637 Si02
#       7
#     8   4   8   8   8   8   8
#     4   9  20  39  63  93 124 155 203 262 321 378
#     4  12  24  40  57  86 125 176 204 252 308 376
#     4   9  20  39  64  91 121 158 202 260 322 377
#     4  12  27  41  60  92 132 174 216 265 309 377
#     4  12  23  39  64  96 124 164 212 260 318 372
#     4  12  24  38  64  90 124 167 211 259 316 377
#     4  12  23  40  61  89 128 166 212 255 309 375
#
# _framework density 19.373127
#
# number of rings (size 3 to 8) (size 9 to 14) (size 15 to 20)
#    0.000    0.923    6.154    2.308    2.154    0.615 
#    0.000    1.923    0.000    0.462    0.000    0.000 
#    0.000    0.000    0.000    0.000    0.000    0.000 
#
# Total GULP energy -145114.388238 kJ/mol
# GULP energy per Si atom -5581.322625 kJ/mol
# Density = 1.932903 g / cm^3
# Si number density = 19.373127 Si / 1000 Ang^3
#
#
#
# Elastic Constant Matrix: (Units=GPa)
#
#
# Indices 1 2 3 4 5 6 
#
# 1 47.9743 26.0398 10.9748 0.0000 5.9069 0.0000
# 2 26.0398 98.4809 28.2857 0.0000 8.2106 0.0000
# 3 10.9748 28.2857 75.1451 0.0000 6.3441 0.0000
# 4 0.0000 0.0000 0.0000 -7.7018 0.0000 15.6029
# 5 5.9069 8.2106 6.3441 0.0000 28.3352 0.0000
# 6 0.0000 0.0000 0.0000 15.6029 0.0000 27.0650
#
#
#
# Elastic Compliance Matrix: (Units=1/GPa)
#
#
# Indices 1 2 3 4 5 6 
#
# 1 0.024720 -0.005955 -0.001100 0.000000 -0.003181 0.000000
# 2 -0.005955 0.012980 -0.003877 0.000000 -0.001652 0.000000
# 3 -0.001100 -0.003877 0.015099 0.000000 -0.002028 0.000000
# 4 0.000000 0.000000 0.000000 -0.059892 0.000000 0.034527
# 5 -0.003181 -0.001652 -0.002028 0.000000 0.036888 0.000000
# 6 0.000000 0.000000 0.000000 0.034527 0.000000 0.017043
#
#
# Mechanical properties :
#
#
# Convention : Reuss Voigt Hill
#
# Bulk Modulus (GPa) = 32.32584 39.13344 35.72964
# Shear Modulus (GPa) = 63.27993 19.95967 41.61980
#
# Velocity S-wave (km/s) = 5.72142 3.21327 4.64003
# Velocity P-wave (km/s) = 7.76971 5.83186 6.86946
#
# Compressibility (1/GPa) = 0.03093500
#
# Stress axis : x y z
#
# Youngs Moduli (GPa) = 40.45261 77.04116 66.23079
#
# Poissons Ratio (x) = 0.45879 0.07286
# Poissons Ratio (y) = 0.24090 0.25676
# Poissons Ratio (z) = 0.04450 0.29866
#
# Static dielectric constant tensor:
#      x y z
#    x 1.724300 0.000000 0.029400 
#    y 0.000000 1.643870 0.000000 
#    z 0.029400 0.000000 1.711330 
# 
# From -- ./inp_files/160835.got.cif
#   From: 2010.05.17/outbox.cif.g08.bks.cpg/sg12_81_cif.got.tgz:160835.got - 2010.06.03 13:09:07.
