data_PCOD9222154
_publ_section_title
;
Structure prediction by ZEFSAII (Michael W. Deem and Ramdas Pophale) SiO2 
 PCOD9222154
Probable space group: C 2/M
;
_chemical_formula_sum "Si O2"
_cell_formula_units_Z 40
_cell_length_a 23.491892
_cell_length_b 8.472472
_cell_length_c 16.993238
_cell_angle_alpha 90.000000
_cell_angle_beta 33.103533
_cell_angle_gamma 90.000000
_cell_volume 1847.221995
_symmetry_space_group_name_H-M "C 2/M"
_symmetry_group_IT_number 12
_symmetry_cell_setting 'monoclinic'
loop_
_space_group_symop_operation_xyz
x,y,z
-x,y,-z
-x,-y,-z
x,-y,z
1/2+x,1/2+y,z
1/2-x,1/2+y,-z
1/2-x,1/2-y,-z
1/2+x,1/2-y,z
loop_
_atom_site_type_symbol
_atom_site_label
_atom_site_fract_x
_atom_site_fract_y
_atom_site_fract_z
Si Si1 0.707918 0.184201 0.631120
Si Si2 0.866170 0.315147 0.879564
Si Si3 0.410757 0.684824 0.666615
Si Si4 0.479325 0.314772 0.899568
Si Si5 0.227927 0.813378 0.774832
O O1 0.750000 0.250000 0.500000
O O2 0.584154 0.214913 0.778355
O O3 0.753216 0.268850 0.656069
O O4 0.731752 0.000000 0.608553
O O5 0.863588 0.500000 0.902799
O O6 0.922844 0.286687 0.730935
O O7 0.921374 0.217667 0.884300
O O8 0.750000 0.250000 0.000000
O O9 0.500000 0.718406 0.500000
O O10 0.414510 0.500000 0.683547
O O11 0.301976 0.723069 0.749691
O O12 0.506892 0.500000 0.875701
O O13 0.392616 0.275428 0.065610
O O14 0.241035 0.000000 0.772528
#
# Coordination Sequence:
#
# PCOD9222154 Si02
#       5
#     8   8   8   8   8
#     4  12  27  46  69  97 132 173 220 274 330 389
#     4  12  24  41  67  99 135 174 220 271 325 389
#     4  11  25  43  66  97 136 177 220 271 328 389
#     4  11  24  44  70  99 133 172 219 271 327 393
#     4  11  24  44  70  98 132 173 220 271 327 392
#
# _framework density 21.654136000000001
#
# number of rings (size 3 to 8) (size 9 to 14) (size 15 to 20)
#    0.000    0.600    2.000    6.000    2.800    6.400 
#    0.000    0.000    0.000    0.000    0.000    0.000 
#    0.000    0.000    0.000    0.000    0.000    0.000 
#
# Total GULP energy -112028.139844 kJ/mol
# GULP energy per Si atom -5601.406992 kJ/mol
# Density = 2.160485 g / cm^3
# Si number density = 21.654136 Si / 1000 Ang^3
#
#
#
# Elastic Constant Matrix: (Units=GPa)
#
#
# Indices 1 2 3 4 5 6 
#
# 1 65.2254 -21.2750 0.0019 -0.0002 24.5102 -0.0001
# 2 -21.2750 48.0683 27.2768 -0.0007 11.0780 0.0001
# 3 0.0019 27.2768 70.6668 -0.0006 19.8618 -0.0001
# 4 -0.0002 -0.0007 -0.0006 35.0055 0.0004 0.7903
# 5 24.5102 11.0780 19.8618 0.0004 36.8456 0.0000
# 6 -0.0001 0.0001 -0.0001 0.7903 0.0000 30.0474
#
#
#
# Elastic Compliance Matrix: (Units=1/GPa)
#
#
# Indices 1 2 3 4 5 6 
#
# 1 0.032704 0.021074 -0.000283 0.000001 -0.027939 0.000000
# 2 0.021074 0.040485 -0.009742 0.000001 -0.020940 0.000000
# 3 -0.000283 -0.009742 0.020077 0.000000 -0.007705 0.000000
# 4 0.000001 0.000001 0.000000 0.028584 -0.000001 -0.000752
# 5 -0.027939 -0.020940 -0.007705 -0.000001 0.056175 0.000000
# 6 0.000000 0.000000 0.000000 -0.000752 0.000000 0.033301
#
#
# Mechanical properties :
#
#
# Convention : Reuss Voigt Hill
#
# Bulk Modulus (GPa) = 8.66808 21.77421 15.22115
# Shear Modulus (GPa) = 21.96033 32.24347 27.10190
#
# Velocity S-wave (km/s) = 3.18801 3.86297 3.54161
# Velocity P-wave (km/s) = 4.19081 5.47485 4.87529
#
# Compressibility (1/GPa) = 0.11536577
#
# Stress axis : x y z
#
# Youngs Moduli (GPa) = 30.57691 24.70022 49.80802
#
# Poissons Ratio (x) = -0.52054 0.01408
# Poissons Ratio (y) = -0.64439 0.48524
# Poissons Ratio (z) = 0.00865 0.24064
#
# Static dielectric constant tensor:
#      x y z
#    x 1.765930 0.000000 0.004260 
#    y 0.000000 1.724700 0.000000 
#    z 0.004260 0.000000 1.800730 
# 
# From -- ./inp_files/288592.got.cif
#   From: 2010.05.17/outbox.cif.g08.bks.cpg/sg12_145_cif.got.tgz:288592.got - 2010.06.03 13:09:07.
