data_PCOD9222097
_publ_section_title
;
Structure prediction by ZEFSAII (Michael W. Deem and Ramdas Pophale) SiO2 
 PCOD9222097
Probable space group: C 2/M
;
_chemical_formula_sum "Si O2"
_cell_formula_units_Z 24
_cell_length_a 9.264530
_cell_length_b 27.966237
_cell_length_c 8.032514
_cell_angle_alpha 90.000000
_cell_angle_beta 146.747385
_cell_angle_gamma 90.000000
_cell_volume 1141.174428
_symmetry_space_group_name_H-M "C 2/M"
_symmetry_group_IT_number 12
_symmetry_cell_setting 'monoclinic'
loop_
_space_group_symop_operation_xyz
x,y,z
-x,y,-z
-x,-y,-z
x,-y,z
1/2+x,1/2+y,z
1/2-x,1/2+y,-z
1/2-x,1/2-y,-z
1/2+x,1/2-y,z
loop_
_atom_site_type_symbol
_atom_site_label
_atom_site_fract_x
_atom_site_fract_y
_atom_site_fract_z
Si Si1 0.088279 0.556028 0.277130
Si Si2 0.263570 0.707605 0.146064
Si Si3 0.591707 0.389791 0.901826
O O1 0.138717 0.500000 0.354246
O O2 0.348836 0.585763 0.570849
O O3 0.000000 0.562379 0.000000
O O4 0.841072 0.574792 0.144400
O O5 0.500000 0.717433 0.500000
O O6 0.319273 0.658064 0.105474
O O7 0.250000 0.750000 0.000000
O O8 0.000000 0.704016 0.000000
O O9 0.500000 0.378920 0.000000
#
# Coordination Sequence:
#
# PCOD9222097 Si02
#       3
#     8   8   8
#     4  11  24  43  67  95 131 176 222 268 323 384
#     4  12  26  46  71  98 132 170 216 268 326 389
#     4  12  25  42  66  98 134 172 217 268 325 385
#
# _framework density 21.030964000000001
#
# number of rings (size 3 to 8) (size 9 to 14) (size 15 to 20)
#    0.000    0.333    0.000   10.000    0.000    9.333 
#    0.000    0.000    0.000    0.000    0.000    0.000 
#    0.000    0.000    0.000    0.000    0.000    0.000 
#
# Total GULP energy -67289.797817 kJ/mol
# GULP energy per Si atom -5607.483151 kJ/mol
# Density = 2.098310 g / cm^3
# Si number density = 21.030964 Si / 1000 Ang^3
#
#
#
# Elastic Constant Matrix: (Units=GPa)
#
#
# Indices 1 2 3 4 5 6 
#
# 1 187.5709 102.3469 77.4930 0.0000 20.8044 0.0000
# 2 102.3469 181.0909 97.8348 0.0000 0.2041 0.0000
# 3 77.4930 97.8348 156.9756 0.0000 22.6930 0.0000
# 4 0.0000 0.0000 0.0000 40.5190 0.0000 -0.5651
# 5 20.8044 0.2041 22.6930 0.0000 41.0020 0.0000
# 6 0.0000 0.0000 0.0000 -0.5651 0.0000 25.7844
#
#
#
# Elastic Compliance Matrix: (Units=1/GPa)
#
#
# Indices 1 2 3 4 5 6 
#
# 1 0.008474 -0.004245 -0.000999 0.000000 -0.003726 0.000000
# 2 -0.004245 0.010825 -0.005386 0.000000 0.005081 0.000000
# 3 -0.000999 -0.005386 0.011025 0.000000 -0.005568 0.000000
# 4 0.000000 0.000000 0.000000 0.024687 0.000000 0.000541
# 5 -0.003726 0.005081 -0.005568 0.000000 0.029336 0.000000
# 6 0.000000 0.000000 0.000000 0.000541 0.000000 0.038795
#
#
# Mechanical properties :
#
#
# Convention : Reuss Voigt Hill
#
# Bulk Modulus (GPa) = 110.31741 120.10965 115.21353
# Shear Modulus (GPa) = 33.91614 37.99194 35.95404
#
# Velocity S-wave (km/s) = 4.02017 4.25488 4.13919
# Velocity P-wave (km/s) = 8.60916 9.02073 8.81735
#
# Compressibility (1/GPa) = 0.00906475
#
# Stress axis : x y z
#
# Youngs Moduli (GPa) = 118.01484 92.37686 90.70344
#
# Poissons Ratio (x) = 0.39216 0.09058
# Poissons Ratio (y) = 0.50100 0.48849
# Poissons Ratio (z) = 0.11785 0.49750
#
# Static dielectric constant tensor:
#      x y z
#    x 1.738280 0.000000 -0.010380 
#    y 0.000000 1.723070 0.000000 
#    z -0.010380 0.000000 1.716500 
# 
# From -- ./inp_files/6786.got.cif
#   From: 2010.05.17/outbox.cif.g08.bks.cpg/sg12_4_cif.got.tgz:6786.got - 2010.06.03 13:09:07.
