data_PCOD9222024
_publ_section_title
;
Structure prediction by ZEFSAII (Michael W. Deem and Ramdas Pophale) SiO2 
 PCOD9222024
Probable space group: C 2/M
;
_chemical_formula_sum "Si O2"
_cell_formula_units_Z 64
_cell_length_a 22.720627
_cell_length_b 17.786990
_cell_length_c 20.824560
_cell_angle_alpha 90.000000
_cell_angle_beta 159.508577
_cell_angle_gamma 90.000000
_cell_volume 2946.116923
_symmetry_space_group_name_H-M "C 2/M"
_symmetry_group_IT_number 12
_symmetry_cell_setting 'monoclinic'
loop_
_space_group_symop_operation_xyz
x,y,z
-x,y,-z
-x,-y,-z
x,-y,z
1/2+x,1/2+y,z
1/2-x,1/2+y,-z
1/2-x,1/2-y,-z
1/2+x,1/2-y,z
loop_
_atom_site_type_symbol
_atom_site_label
_atom_site_fract_x
_atom_site_fract_y
_atom_site_fract_z
Si Si1 0.369282 0.225110 0.316278
Si Si2 0.515497 0.226776 0.942268
Si Si3 0.477716 0.619502 0.695074
Si Si4 0.840632 0.581358 0.068493
Si Si5 0.299302 0.583376 0.782449
Si Si6 0.502433 0.794062 0.312636
Si Si7 0.141174 0.416594 0.272261
Si Si8 0.347331 0.639337 0.691993
O O1 0.500000 0.260055 0.500000
O O2 0.293491 0.149842 0.273113
O O3 0.468677 0.206141 0.353755
O O4 0.215465 0.278337 0.138040
O O5 0.404421 0.152553 0.820236
O O6 0.447496 0.289913 0.824292
O O7 0.500000 0.251628 0.000000
O O8 0.495225 0.709708 0.710387
O O9 0.316699 0.596386 0.488585
O O10 0.452489 0.597877 0.744342
O O11 0.652834 0.586356 0.849427
O O12 0.860845 0.500000 0.122235
O O13 0.867503 0.652421 0.141576
O O14 0.987104 0.585787 0.165491
O O15 0.237743 0.500000 0.738012
O O16 0.286854 0.594320 0.692807
O O17 0.500000 0.585272 0.000000
O O18 0.684706 0.830026 0.488694
O O19 0.143257 0.500000 0.244938
#
# Coordination Sequence:
#
# PCOD9222024 Si02
#       8
#     8   8   8   8   8   8   8   8
#     4  12  23  41  64  96 130 172 226 271 332 391
#     4  12  22  42  69  92 130 169 219 278 327 394
#     4  12  24  43  72  98 134 176 226 281 337 401
#     4  11  25  43  62  96 138 176 219 271 336 401
#     4  11  24  42  63  92 133 179 222 270 329 401
#     4  12  23  40  66  98 130 171 229 275 333 395
#     4  11  25  45  69  99 134 172 218 277 342 401
#     4  12  21  42  67  97 127 174 223 273 334 399
#
# _framework density 21.723510000000001
#
# number of rings (size 3 to 8) (size 9 to 14) (size 15 to 20)
#    0.000    0.375    6.250    3.375    0.000    2.500 
#    0.000    0.000    0.000    0.375    0.000    0.000 
#    0.000    0.000    0.000    0.000    0.000    0.000 
#
# Total GULP energy -178906.304424 kJ/mol
# GULP energy per Si atom -5590.822013 kJ/mol
# Density = 2.167407 g / cm^3
# Si number density = 21.723510 Si / 1000 Ang^3
#
#
#
# Elastic Constant Matrix: (Units=GPa)
#
#
# Indices 1 2 3 4 5 6 
#
# 1 57.0754 4.3759 6.2237 0.0163 5.3471 0.0036
# 2 4.3759 91.7995 21.8226 0.0147 -8.5896 0.0107
# 3 6.2237 21.8226 132.8565 0.0064 13.8316 0.0089
# 4 0.0163 0.0147 0.0064 8.8162 0.0096 -9.9363
# 5 5.3471 -8.5896 13.8316 0.0096 27.2505 0.0063
# 6 0.0036 0.0107 0.0089 -9.9363 0.0063 8.2733
#
#
#
# Elastic Compliance Matrix: (Units=1/GPa)
#
#
# Indices 1 2 3 4 5 6 
#
# 1 0.017989 -0.001147 -0.000263 0.000087 -0.003758 0.000101
# 2 -0.001147 0.012028 -0.002471 0.000114 0.005270 0.000121
# 3 -0.000263 -0.002471 0.008468 -0.000005 -0.005025 -0.000008
# 4 0.000087 0.000114 -0.000005 -0.320783 0.000223 -0.385263
# 5 -0.003758 0.005270 -0.005025 0.000223 0.041646 0.000236
# 6 0.000101 0.000121 -0.000008 -0.385263 0.000236 -0.341833
#
#
# Mechanical properties :
#
#
# Convention : Reuss Voigt Hill
#
# Bulk Modulus (GPa) = 32.54682 38.50842 35.52762
# Shear Modulus (GPa) = -8.85768 25.48864 8.31548
#
# Velocity S-wave (km/s) = -2.02146 3.42909 1.95862
# Velocity P-wave (km/s) = 3.09296 5.78302 4.63733
#
# Compressibility (1/GPa) = 0.03072497
#
# Stress axis : x y z
#
# Youngs Moduli (GPa) = 55.58863 83.13643 118.08774
#
# Poissons Ratio (x) = 0.09532 0.03108
# Poissons Ratio (y) = 0.06374 0.29177
# Poissons Ratio (z) = 0.01463 0.20541
#
# Static dielectric constant tensor:
#      x y z
#    x 1.818290 -0.000010 0.047790 
#    y -0.000010 1.829080 0.000000 
#    z 0.047790 0.000000 1.821500 
# 
# From -- ./inp_files/326152.got.cif
#   From: 2010.05.17/outbox.cif.g08.bks.cpg/sg12_164_cif.got.tgz:326152.got - 2010.06.03 13:09:07.
