data_PCOD9222899
_publ_section_title
;
Structure prediction by ZEFSAII (Michael W. Deem and Ramdas Pophale) SiO2 
 PCOD9222899
Probable space group: C 2/M
;
_chemical_formula_sum "Si O2"
_cell_formula_units_Z 40
_cell_length_a 29.934563
_cell_length_b 7.455675
_cell_length_c 26.256288
_cell_angle_alpha 90.000000
_cell_angle_beta 159.443597
_cell_angle_gamma 90.000000
_cell_volume 2057.596795
_symmetry_space_group_name_H-M "C 2/M"
_symmetry_group_IT_number 12
_symmetry_cell_setting 'monoclinic'
loop_
_space_group_symop_operation_xyz
x,y,z
-x,y,-z
-x,-y,-z
x,-y,z
1/2+x,1/2+y,z
1/2-x,1/2+y,-z
1/2-x,1/2-y,-z
1/2+x,1/2-y,z
loop_
_atom_site_type_symbol
_atom_site_label
_atom_site_fract_x
_atom_site_fract_y
_atom_site_fract_z
Si Si1 0.950193 0.290174 0.312954
Si Si2 0.118748 0.780715 0.092931
Si Si3 0.661792 0.719939 0.024732
Si Si4 0.101026 0.211674 0.852127
Si Si5 0.107965 0.718600 0.574417
O O1 0.940609 0.500000 0.314798
O O2 0.808777 0.218342 0.174835
O O3 0.972294 0.276977 0.276110
O O4 0.057876 0.219650 0.465773
O O5 0.112068 0.725434 0.026722
O O6 0.253126 0.720824 0.260014
O O7 0.118979 0.000000 0.093193
O O8 0.000000 0.722297 0.000000
O O9 0.663106 0.500000 0.024900
O O10 0.583628 0.779541 0.891238
O O11 0.082276 0.000000 0.832941
O O12 0.250000 0.250000 0.000000
O O13 0.114389 0.500000 0.581651
O O14 0.000000 0.769138 0.500000
#
# Coordination Sequence:
#
# PCOD9222899 Si02
#       5
#     8   8   8   8   8
#     4   9  15  24  40  61  84 109 138 169 207 251
#     4   9  15  22  35  58  84 106 133 173 214 247
#     4   8  13  22  35  54  79 106 133 164 203 245
#     4   9  16  25  39  60  85 111 138 170 209 248
#     4   9  14  22  38  58  81 110 138 168 209 250
#
# _framework density 19.440154
#
# number of rings (size 3 to 8) (size 9 to 14) (size 15 to 20)
#    0.000    3.200    2.000    1.800    0.000    0.000 
#    0.000    0.000    0.000    1.800    0.000    0.000 
#    0.000   27.200    0.000    0.000    0.000    0.800 
#
# Total GULP energy -111390.894976 kJ/mol
# GULP energy per Si atom -5569.544749 kJ/mol
# Density = 1.939591 g / cm^3
# Si number density = 19.440154 Si / 1000 Ang^3
#
#
#
# Elastic Constant Matrix: (Units=GPa)
#
#
# Indices 1 2 3 4 5 6 
#
# 1 185.3034 -3.9092 96.8884 0.0000 -33.8970 0.0000
# 2 -3.9092 50.0467 -1.6346 0.0001 2.6875 0.0000
# 3 96.8884 -1.6346 106.7772 0.0001 -19.0161 0.0001
# 4 0.0000 0.0001 0.0001 2.1190 0.0001 -7.3058
# 5 -33.8970 2.6875 -19.0161 0.0001 37.4669 0.0000
# 6 0.0000 0.0000 0.0001 -7.3058 0.0000 8.9401
#
#
#
# Elastic Compliance Matrix: (Units=1/GPa)
#
#
# Indices 1 2 3 4 5 6 
#
# 1 0.011207 0.000282 -0.009194 0.000000 0.005453 0.000000
# 2 0.000282 0.020066 -0.000176 0.000000 -0.001273 0.000000
# 3 -0.009194 -0.000176 0.017838 0.000001 0.000749 0.000000
# 4 0.000000 0.000000 0.000001 -0.259656 0.000001 -0.212189
# 5 0.005453 -0.001273 0.000749 0.000001 0.032095 0.000001
# 6 0.000000 0.000000 0.000000 -0.212189 0.000001 -0.061543
#
#
# Mechanical properties :
#
#
# Convention : Reuss Voigt Hill
#
# Bulk Modulus (GPa) = 32.32378 58.31296 45.31837
# Shear Modulus (GPa) = -23.63991 26.42404 1.39207
#
# Velocity S-wave (km/s) = -3.49095 3.69080 0.84713
# Velocity P-wave (km/s) = 0.64376 6.94435 4.93145
#
# Compressibility (1/GPa) = 0.03093698
#
# Stress axis : x y z
#
# Youngs Moduli (GPa) = 89.22974 49.83550 56.05952
#
# Poissons Ratio (x) = -0.01407 0.51540
# Poissons Ratio (y) = -0.02519 0.00985
# Poissons Ratio (z) = 0.82035 0.00876
#
# Static dielectric constant tensor:
#      x y z
#    x 1.698890 0.000000 -0.052240 
#    y 0.000000 1.756100 0.000000 
#    z -0.052240 0.000000 1.657480 
# 
# From -- ./inp_files/109172.got.cif
#   From: 2010.05.17/outbox.cif.g08.bks.cpg/sg12_55_cif.got.tgz:109172.got - 2010.06.03 13:09:07.
