data_PCOD9222482
_publ_section_title
;
Structure prediction by ZEFSAII (Michael W. Deem and Ramdas Pophale) SiO2 
 PCOD9222482
Probable space group: C 2/M
;
_chemical_formula_sum "Si O2"
_cell_formula_units_Z 40
_cell_length_a 15.757558
_cell_length_b 9.580289
_cell_length_c 33.144298
_cell_angle_alpha 90.000000
_cell_angle_beta 25.423954
_cell_angle_gamma 90.000000
_cell_volume 2148.078485
_symmetry_space_group_name_H-M "C 2/M"
_symmetry_group_IT_number 12
_symmetry_cell_setting 'monoclinic'
loop_
_space_group_symop_operation_xyz
x,y,z
-x,y,-z
-x,-y,-z
x,-y,z
1/2+x,1/2+y,z
1/2-x,1/2+y,-z
1/2-x,1/2-y,-z
1/2+x,1/2-y,z
loop_
_atom_site_type_symbol
_atom_site_label
_atom_site_fract_x
_atom_site_fract_y
_atom_site_fract_z
Si Si1 0.674077 0.500000 0.157125
Si Si2 0.367917 0.742371 0.289653
Si Si3 0.489802 0.000000 0.370053
Si Si4 0.672359 0.266646 0.784910
Si Si5 0.091819 0.500000 0.868345
Si Si6 0.354618 0.500000 0.927023
Si Si7 0.238945 0.000000 0.399223
Si Si8 0.447640 0.000000 0.569265
O O1 0.550564 0.640083 0.220827
O O2 0.866514 0.500000 0.101844
O O3 0.683803 0.500000 0.104701
O O4 0.379635 0.787556 0.237837
O O5 0.327659 0.866254 0.337726
O O6 0.183338 0.637638 0.369711
O O7 0.634812 0.133563 0.300598
O O8 0.316845 0.000000 0.411632
O O9 0.418886 0.000000 0.447425
O O10 0.491469 0.365862 0.876572
O O11 0.688450 0.136455 0.807273
O O12 0.856974 0.500000 0.961077
O O13 0.000000 0.000000 0.500000
O O14 0.500000 0.000000 0.500000
#
# Coordination Sequence:
#
# PCOD9222482 Si02
#       8
#     4   8   4   8   4   4   4   4
#     4   9  19  34  53  72  99 140 175 203 247 309
#     4   9  19  36  52  70 101 137 170 204 256 313
#     4   9  20  38  54  72 105 142 171 204 263 322
#     4   9  19  35  54  73 101 141 174 204 251 310
#     4  12  18  28  53  85 101 124 177 223 242 288
#     4   9  19  34  49  74 110 138 161 208 264 297
#     4  12  22  34  52  81 108 130 164 224 272 300
#     4   9  17  36  58  72  93 134 175 212 252 304
#
# _framework density 18.621292
#
# number of rings (size 3 to 8) (size 9 to 14) (size 15 to 20)
#    0.000    2.400    0.000    5.700    0.000    0.000 
#    0.000   13.000    0.000    0.000    0.000   16.800 
#    0.000    0.000    0.000    0.000    0.000    0.000 
#
# Total GULP energy -111438.378355 kJ/mol
# GULP energy per Si atom -5571.918918 kJ/mol
# Density = 1.857891 g / cm^3
# Si number density = 18.621292 Si / 1000 Ang^3
#
#
#
# Elastic Constant Matrix: (Units=GPa)
#
#
# Indices 1 2 3 4 5 6 
#
# 1 108.3311 35.0291 16.0269 -0.0065 -4.2740 -0.0160
# 2 35.0291 101.2775 15.4094 0.0030 11.5444 -0.0074
# 3 16.0269 15.4094 47.7447 0.0121 -0.9113 0.0152
# 4 -0.0065 0.0030 0.0121 -1.7553 -0.0047 6.9146
# 5 -4.2740 11.5444 -0.9113 -0.0047 25.0285 -0.0118
# 6 -0.0160 -0.0074 0.0152 6.9146 -0.0118 15.5973
#
#
#
# Elastic Compliance Matrix: (Units=1/GPa)
#
#
# Indices 1 2 3 4 5 6 
#
# 1 0.010963 -0.003836 -0.002374 -0.000006 0.003555 0.000017
# 2 -0.003836 0.012367 -0.002827 0.000012 -0.006462 -0.000005
# 3 -0.002374 -0.002827 0.022687 0.000022 0.001725 -0.000034
# 4 -0.000006 0.000012 0.000022 -0.207441 -0.000001 0.091962
# 5 0.003555 -0.006462 0.001725 -0.000001 0.043605 0.000032
# 6 0.000017 -0.000005 -0.000034 0.091962 0.000032 0.023345
#
#
# Mechanical properties :
#
#
# Convention : Reuss Voigt Hill
#
# Bulk Modulus (GPa) = 35.78728 43.36491 39.57609
# Shear Modulus (GPa) = -74.53264 20.49996 -27.01634
#
# Velocity S-wave (km/s) = -6.33343 3.32156 -3.81311
# Velocity P-wave (km/s) = 5.85004 6.16837 1.38307
#
# Compressibility (1/GPa) = 0.02794289
#
# Stress axis : x y z
#
# Youngs Moduli (GPa) = 91.21809 80.85822 44.07788
#
# Poissons Ratio (x) = 0.31015 0.10465
# Poissons Ratio (y) = 0.34988 0.12462
# Poissons Ratio (z) = 0.21657 0.22861
#
# Static dielectric constant tensor:
#      x y z
#    x 1.668460 0.000000 0.023440 
#    y 0.000000 1.614510 0.000000 
#    z 0.023440 0.000000 1.659120 
# 
# From -- ./inp_files/211423.got.cif
#   From: 2010.05.17/outbox.cif.g08.bks.cpg/sg12_106_cif.got.tgz:211423.got - 2010.06.03 13:09:07.
