data_PCOD9222884
_publ_section_title
;
Structure prediction by ZEFSAII (Michael W. Deem and Ramdas Pophale) SiO2 
 PCOD9222884
Probable space group: C 2/M
;
_chemical_formula_sum "Si O2"
_cell_formula_units_Z 56
_cell_length_a 17.743753
_cell_length_b 24.894709
_cell_length_c 6.978242
_cell_angle_alpha 90.000000
_cell_angle_beta 127.204900
_cell_angle_gamma 90.000000
_cell_volume 2455.118519
_symmetry_space_group_name_H-M "C 2/M"
_symmetry_group_IT_number 12
_symmetry_cell_setting 'monoclinic'
loop_
_space_group_symop_operation_xyz
x,y,z
-x,y,-z
-x,-y,-z
x,-y,z
1/2+x,1/2+y,z
1/2-x,1/2+y,-z
1/2-x,1/2-y,-z
1/2+x,1/2-y,z
loop_
_atom_site_type_symbol
_atom_site_label
_atom_site_fract_x
_atom_site_fract_y
_atom_site_fract_z
Si Si1 0.576821 0.265539 0.394985
Si Si2 0.472768 0.437673 0.235884
Si Si3 0.193656 0.331514 0.651809
Si Si4 0.372137 0.260094 0.980229
Si Si5 0.754520 0.337222 0.724195
Si Si6 0.262040 0.439039 0.831268
Si Si7 0.675888 0.560237 0.503742
O O1 0.603953 0.207247 0.518767
O O2 0.600450 0.264121 0.202885
O O3 0.654311 0.306903 0.592789
O O4 0.465680 0.276134 0.239162
O O5 0.500000 0.434929 0.500000
O O6 0.463939 0.500000 0.159959
O O7 0.570214 0.416915 0.292301
O O8 0.367139 0.417266 0.047544
O O9 0.283169 0.298754 0.872820
O O10 0.218720 0.336092 0.462123
O O11 0.189255 0.389959 0.740235
O O12 0.334252 0.198973 0.947316
O O13 0.733056 0.399701 0.727781
O O14 0.244705 0.500000 0.879069
O O15 0.271386 0.444692 0.615394
O O16 0.663232 0.500000 0.564399
#
# Coordination Sequence:
#
# PCOD9222884 Si02
#       7
#     8   8   8   8   8   8   8
#     4   8  13  21  33  50  75 103 128 160 196 224
#     4   9  17  27  37  53  79 107 133 157 184 227
#     4   8  14  22  33  53  77 100 128 158 192 232
#     4   8  13  21  33  50  75 103 128 160 196 224
#     4   8  14  22  33  53  77 100 128 158 192 232
#     4   9  16  25  38  56  79 104 127 156 194 232
#     4   9  16  25  38  56  79 104 127 156 194 232
#
# _framework density 22.809488999999999
#
# number of rings (size 3 to 8) (size 9 to 14) (size 15 to 20)
#    0.000    3.571    0.000    2.143    2.000    1.714 
#    0.000    0.000    0.000    0.857    0.000   10.000 
#    0.000    0.000    0.000    7.143    0.000    7.429 
#
# Total GULP energy -156231.685103 kJ/mol
# GULP energy per Si atom -5579.703039 kJ/mol
# Density = 2.275757 g / cm^3
# Si number density = 22.809489 Si / 1000 Ang^3
#
#
#
# Elastic Constant Matrix: (Units=GPa)
#
#
# Indices 1 2 3 4 5 6 
#
# 1 50.5031 -7.3522 3.6544 0.0000 -7.9902 0.0000
# 2 -7.3522 81.0098 -2.2896 0.0000 -1.3921 0.0000
# 3 3.6544 -2.2896 66.4110 0.0000 -6.3939 0.0000
# 4 0.0000 0.0000 0.0000 20.8436 0.0000 7.9296
# 5 -7.9902 -1.3921 -6.3939 0.0000 26.2413 0.0000
# 6 0.0000 0.0000 0.0000 7.9296 0.0000 11.6771
#
#
#
# Elastic Compliance Matrix: (Units=1/GPa)
#
#
# Indices 1 2 3 4 5 6 
#
# 1 0.021146 0.002016 -0.000475 0.000000 0.006430 0.000000
# 2 0.002016 0.012564 0.000456 0.000000 0.001392 0.000000
# 3 -0.000475 0.000456 0.015450 0.000000 0.003644 0.000000
# 4 0.000000 0.000000 0.000000 0.064688 0.000000 -0.043927
# 5 0.006430 0.001392 0.003644 0.000000 0.041028 0.000000
# 6 0.000000 0.000000 0.000000 -0.043927 0.000000 0.115467
#
#
# Mechanical properties :
#
#
# Convention : Reuss Voigt Hill
#
# Bulk Modulus (GPa) = 18.81287 20.66103 19.73695
# Shear Modulus (GPa) = 17.60151 25.34649 21.47400
#
# Velocity S-wave (km/s) = 2.78092 3.33712 3.07163
# Velocity P-wave (km/s) = 4.31011 4.89145 4.60995
#
# Compressibility (1/GPa) = 0.05315511
#
# Stress axis : x y z
#
# Youngs Moduli (GPa) = 47.29039 79.59264 64.72297
#
# Poissons Ratio (x) = -0.16047 0.03075
# Poissons Ratio (y) = -0.09535 -0.02953
# Poissons Ratio (z) = 0.02246 -0.03631
#
# Static dielectric constant tensor:
#      x y z
#    x 1.890560 0.000000 -0.073540 
#    y 0.000000 1.911810 0.000000 
#    z -0.073540 0.000000 1.893020 
# 
# From -- ./inp_files/79149.got.cif
#   From: 2010.05.17/outbox.cif.g08.bks.cpg/sg12_40_cif.got.tgz:79149.got - 2010.06.03 13:09:07.
