data_PCOD9222580
_publ_section_title
;
Structure prediction by ZEFSAII (Michael W. Deem and Ramdas Pophale) SiO2 
 PCOD9222580
Probable space group: C 2/M
;
_chemical_formula_sum "Si O2"
_cell_formula_units_Z 52
_cell_length_a 22.625608
_cell_length_b 19.232112
_cell_length_c 12.436770
_cell_angle_alpha 90.000000
_cell_angle_beta 153.095233
_cell_angle_gamma 90.000000
_cell_volume 2448.848799
_symmetry_space_group_name_H-M "C 2/M"
_symmetry_group_IT_number 12
_symmetry_cell_setting 'monoclinic'
loop_
_space_group_symop_operation_xyz
x,y,z
-x,y,-z
-x,-y,-z
x,-y,z
1/2+x,1/2+y,z
1/2-x,1/2+y,-z
1/2-x,1/2-y,-z
1/2+x,1/2-y,z
loop_
_atom_site_type_symbol
_atom_site_label
_atom_site_fract_x
_atom_site_fract_y
_atom_site_fract_z
Si Si1 0.129920 0.367088 0.140901
Si Si2 0.153329 0.756732 0.567582
Si Si3 0.030413 0.884776 0.669251
Si Si4 0.993778 0.631314 0.700119
Si Si5 0.750247 0.000000 0.456807
Si Si6 0.316326 0.000000 0.404469
Si Si7 0.975894 0.000000 0.166445
Si Si8 0.799191 0.680167 0.135021
O O1 0.226847 0.300879 0.285194
O O2 0.202253 0.431572 0.315693
O O3 0.000000 0.352472 0.000000
O O4 0.087825 0.389174 0.951538
O O5 0.081186 0.700191 0.376481
O O6 0.190850 0.705724 0.726707
O O7 0.049419 0.813159 0.443241
O O8 0.996498 0.935158 0.710922
O O9 0.000000 0.910406 0.500000
O O10 0.184348 0.874108 0.930913
O O11 0.898246 0.569187 0.510955
O O12 0.077054 0.654470 0.731481
O O13 0.690458 0.000000 0.477671
O O14 0.906320 0.000000 0.726244
O O15 0.171039 0.000000 0.117973
O O16 0.750000 0.750000 0.000000
#
# Coordination Sequence:
#
# PCOD9222580 Si02
#       8
#     8   8   8   8   4   4   4   8
#     4  12  24  45  74 107 137 183 245 297 355 421
#     4  12  23  43  71 104 145 184 232 286 357 430
#     4  12  22  42  66 102 143 182 233 285 347 431
#     4  12  25  44  74 105 144 189 232 297 360 419
#     4  12  25  51  78  96 136 192 245 302 355 415
#     4  12  28  52  69 102 142 189 247 301 352 420
#     4  12  28  44  70 101 141 189 237 292 360 421
#     4  12  22  40  70 103 139 186 228 286 354 421
#
# _framework density 21.234468
#
# number of rings (size 3 to 8) (size 9 to 14) (size 15 to 20)
#    0.000    0.000    7.692    2.538    0.000    1.231 
#    0.000    2.308    0.000    0.000    0.000    0.000 
#    0.000    0.000    0.000    0.000    0.000    0.000 
#
# Total GULP energy -145304.032363 kJ/mol
# GULP energy per Si atom -5588.616629 kJ/mol
# Density = 2.118614 g / cm^3
# Si number density = 21.234468 Si / 1000 Ang^3
#
#
#
# Elastic Constant Matrix: (Units=GPa)
#
#
# Indices 1 2 3 4 5 6 
#
# 1 103.3605 55.5512 48.3530 0.0000 20.3777 0.0000
# 2 55.5512 114.8654 54.0137 0.0000 17.0113 0.0000
# 3 48.3530 54.0137 113.0090 0.0000 13.7666 0.0000
# 4 0.0000 0.0000 0.0000 26.1795 0.0000 9.3136
# 5 20.3777 17.0113 13.7666 0.0000 54.6065 0.0000
# 6 0.0000 0.0000 0.0000 9.3136 0.0000 29.2933
#
#
#
# Elastic Compliance Matrix: (Units=1/GPa)
#
#
# Indices 1 2 3 4 5 6 
#
# 1 0.014568 -0.004954 -0.003498 0.000000 -0.003011 0.000000
# 2 -0.004954 0.013180 -0.004028 0.000000 -0.001241 0.000000
# 3 -0.003498 -0.004028 0.012338 0.000000 -0.000550 0.000000
# 4 0.000000 0.000000 0.000000 0.043070 0.000000 -0.013694
# 5 -0.003011 -0.001241 -0.000550 0.000000 0.019962 0.000000
# 6 0.000000 0.000000 0.000000 -0.013694 0.000000 0.038491
#
#
# Mechanical properties :
#
#
# Convention : Reuss Voigt Hill
#
# Bulk Modulus (GPa) = 66.12153 71.89674 69.00914
# Shear Modulus (GPa) = 29.13547 33.57031 31.35289
#
# Velocity S-wave (km/s) = 3.70818 3.98041 3.84671
# Velocity P-wave (km/s) = 7.03850 7.42003 7.23179
#
# Compressibility (1/GPa) = 0.01512367
#
# Stress axis : x y z
#
# Youngs Moduli (GPa) = 68.64482 75.87230 81.04942
#
# Poissons Ratio (x) = 0.37589 0.28354
# Poissons Ratio (y) = 0.34009 0.32651
# Poissons Ratio (z) = 0.24014 0.30565
#
# Static dielectric constant tensor:
#      x y z
#    x 1.740540 0.000000 -0.037540 
#    y 0.000000 7.095410 0.000000 
#    z -0.037540 0.000000 1.782980 
# 
# From -- ./inp_files/169899.got.cif
#   From: 2010.05.17/outbox.cif.g08.bks.cpg/sg12_85_cif.got.tgz:169899.got - 2010.06.03 13:09:07.
