data_PCOD9222075
_publ_section_title
;
Structure prediction by ZEFSAII (Michael W. Deem and Ramdas Pophale) SiO2 
 PCOD9222075
Probable space group: C 2/M
;
_chemical_formula_sum "Si O2"
_cell_formula_units_Z 40
_cell_length_a 10.112553
_cell_length_b 13.943973
_cell_length_c 11.959602
_cell_angle_alpha 90.000000
_cell_angle_beta 76.880999
_cell_angle_gamma 90.000000
_cell_volume 1642.399375
_symmetry_space_group_name_H-M "C 2/M"
_symmetry_group_IT_number 12
_symmetry_cell_setting 'monoclinic'
loop_
_space_group_symop_operation_xyz
x,y,z
-x,y,-z
-x,-y,-z
x,-y,z
1/2+x,1/2+y,z
1/2-x,1/2+y,-z
1/2-x,1/2-y,-z
1/2+x,1/2-y,z
loop_
_atom_site_type_symbol
_atom_site_label
_atom_site_fract_x
_atom_site_fract_y
_atom_site_fract_z
Si Si1 0.304174 0.705445 0.134484
Si Si2 0.268230 0.000000 0.808321
Si Si3 0.500000 0.160934 0.500000
Si Si4 0.500000 0.838193 0.000000
Si Si5 0.270354 0.000000 0.560296
Si Si6 0.967670 0.798299 0.715006
Si Si7 0.638505 0.500000 0.353342
Si Si8 0.059725 0.500000 0.808288
O O1 0.271131 0.594544 0.116612
O O2 0.171722 0.754853 0.210000
O O3 0.418152 0.702154 0.211268
O O4 0.373547 0.766554 0.023488
O O5 0.207778 0.000000 0.696084
O O6 0.430324 0.000000 0.751958
O O7 0.367418 0.093089 0.530618
O O8 0.510782 0.228462 0.606030
O O9 0.534897 0.907839 0.890929
O O10 0.161845 0.000000 0.482016
O O11 0.932368 0.903532 0.676012
O O12 0.794053 0.500000 0.274902
#
# Coordination Sequence:
#
# PCOD9222075 Si02
#       8
#     8   4   4   4   4   8   4   4
#     4  12  27  48  73 109 144 190 245 305 361 422
#     4  12  26  46  74 110 152 182 240 303 359 436
#     4  11  24  43  72 104 140 201 236 285 354 442
#     4  11  26  49  78 102 138 201 246 301 364 426
#     4  11  24  42  75 107 143 200 237 278 363 448
#     4  12  27  46  75 106 151 188 243 300 359 433
#     4  12  26  46  71 110 151 184 239 301 358 432
#     4  11  24  49  74 107 140 196 246 294 360 438
#
# _framework density 24.354613000000001
#
# number of rings (size 3 to 8) (size 9 to 14) (size 15 to 20)
#    0.000    0.400    4.000    4.200    2.800    5.600 
#    0.000    0.000    0.000    0.000    0.000    0.000 
#    0.000    0.000    0.000    0.000    0.000    0.000 
#
# Total GULP energy -112233.759918 kJ/mol
# GULP energy per Si atom -5611.687996 kJ/mol
# Density = 2.429918 g / cm^3
# Si number density = 24.354613 Si / 1000 Ang^3
#
#
#
# Elastic Constant Matrix: (Units=GPa)
#
#
# Indices 1 2 3 4 5 6 
#
# 1 126.0685 36.8410 6.2447 0.0000 3.5583 0.0000
# 2 36.8410 214.7126 43.5330 0.0000 -12.3196 0.0000
# 3 6.2447 43.5330 92.0683 0.0000 -10.1320 0.0000
# 4 0.0000 0.0000 0.0000 46.4327 0.0000 -11.0593
# 5 3.5583 -12.3196 -10.1320 0.0000 42.0427 0.0000
# 6 0.0000 0.0000 0.0000 -11.0593 0.0000 32.2719
#
#
#
# Elastic Compliance Matrix: (Units=1/GPa)
#
#
# Indices 1 2 3 4 5 6 
#
# 1 0.008406 -0.001512 0.000018 0.000000 -0.001150 0.000000
# 2 -0.001512 0.005460 -0.002351 0.000000 0.001161 0.000000
# 3 0.000018 -0.002351 0.012220 0.000000 0.002254 0.000000
# 4 0.000000 0.000000 0.000000 0.023451 0.000000 0.008036
# 5 -0.001150 0.001161 0.002254 0.000000 0.024766 0.000000
# 6 0.000000 0.000000 0.000000 0.008036 0.000000 0.033741
#
#
# Mechanical properties :
#
#
# Convention : Reuss Voigt Hill
#
# Bulk Modulus (GPa) = 54.36059 67.34297 60.85178
# Shear Modulus (GPa) = 41.02879 47.23152 44.13016
#
# Velocity S-wave (km/s) = 4.10889 4.40855 4.26136
# Velocity P-wave (km/s) = 6.69922 7.32290 7.01799
#
# Compressibility (1/GPa) = 0.01839568
#
# Stress axis : x y z
#
# Youngs Moduli (GPa) = 118.96851 183.14393 81.83179
#
# Poissons Ratio (x) = 0.27690 -0.00149
# Poissons Ratio (y) = 0.17987 0.19242
# Poissons Ratio (z) = -0.00217 0.43065
#
# Static dielectric constant tensor:
#      x y z
#    x 1.962580 0.000000 0.039350 
#    y 0.000000 1.909710 0.000000 
#    z 0.039350 0.000000 1.921610 
# 
# From -- ./inp_files/129672.got.cif
#   From: 2010.05.17/outbox.cif.g08.bks.cpg/sg12_65_cif.got.tgz:129672.got - 2010.06.03 13:09:07.
