data_PCOD9222114
_publ_section_title
;
Structure prediction by ZEFSAII (Michael W. Deem and Ramdas Pophale) SiO2 
 PCOD9222114
Probable space group: C 2/M
;
_chemical_formula_sum "Si O2"
_cell_formula_units_Z 40
_cell_length_a 23.234279
_cell_length_b 8.318029
_cell_length_c 9.638163
_cell_angle_alpha 90.000000
_cell_angle_beta 74.231533
_cell_angle_gamma 90.000000
_cell_volume 1792.606367
_symmetry_space_group_name_H-M "C 2/M"
_symmetry_group_IT_number 12
_symmetry_cell_setting 'monoclinic'
loop_
_space_group_symop_operation_xyz
x,y,z
-x,y,-z
-x,-y,-z
x,-y,z
1/2+x,1/2+y,z
1/2-x,1/2+y,-z
1/2-x,1/2-y,-z
1/2+x,1/2-y,z
loop_
_atom_site_type_symbol
_atom_site_label
_atom_site_fract_x
_atom_site_fract_y
_atom_site_fract_z
Si Si1 0.068129 0.313001 0.099676
Si Si2 0.752693 0.812788 0.342341
Si Si3 0.382445 0.810932 0.223910
Si Si4 0.026598 0.812431 0.628038
Si Si5 0.692387 0.312224 0.121368
O O1 0.049538 0.500000 0.122312
O O2 0.134765 0.288514 0.115174
O O3 0.024492 0.209315 0.222627
O O4 0.074040 0.270353 0.933464
O O5 0.750000 0.750000 0.500000
O O6 0.821110 0.785417 0.249942
O O7 0.708932 0.715141 0.270756
O O8 0.737442 0.000000 0.344736
O O9 0.415788 0.774941 0.345891
O O10 0.368383 0.000000 0.222082
O O11 0.000000 0.750004 0.500000
O O12 0.041369 0.000000 0.599607
O O13 0.682109 0.500000 0.099322
O O14 0.750000 0.250000 0.000000
#
# Coordination Sequence:
#
# PCOD9222114 Si02
#       5
#     8   8   8   8   8
#     4  11  24  43  69  98 131 172 221 273 329 391
#     4  12  26  44  68  98 136 178 220 272 332 392
#     4  11  24  44  69  97 131 171 222 274 328 393
#     4  11  26  45  66  95 132 172 220 274 332 393
#     4  12  24  42  68 100 136 174 221 271 326 392
#
# _framework density 22.313877999999999
#
# number of rings (size 3 to 8) (size 9 to 14) (size 15 to 20)
#    0.000    0.600    2.000    6.000    2.800    6.400 
#    0.000    0.000    0.000    0.000    0.000    0.000 
#    0.000    0.000    0.000    0.000    0.000    0.000 
#
# Total GULP energy -112032.218897 kJ/mol
# GULP energy per Si atom -5601.610945 kJ/mol
# Density = 2.226309 g / cm^3
# Si number density = 22.313878 Si / 1000 Ang^3
#
#
#
# Elastic Constant Matrix: (Units=GPa)
#
#
# Indices 1 2 3 4 5 6 
#
# 1 60.6758 -12.6073 0.8090 0.0000 24.2572 0.0000
# 2 -12.6073 59.3099 10.3257 0.0000 -0.0150 0.0000
# 3 0.8090 10.3257 93.7176 0.0000 31.1566 0.0000
# 4 0.0000 0.0000 0.0000 33.8088 0.0000 -2.5977
# 5 24.2572 -0.0150 31.1566 0.0000 42.2589 0.0000
# 6 0.0000 0.0000 0.0000 -2.5977 0.0000 23.8939
#
#
#
# Elastic Compliance Matrix: (Units=1/GPa)
#
#
# Indices 1 2 3 4 5 6 
#
# 1 0.024471 0.004278 0.005281 0.000000 -0.017939 0.000000
# 2 0.004278 0.018049 -0.001605 0.000000 -0.001266 0.000000
# 3 0.005281 -0.001605 0.015644 0.000000 -0.014566 0.000000
# 4 0.000000 0.000000 0.000000 0.029827 0.000000 0.003243
# 5 -0.017939 -0.001266 -0.014566 0.000000 0.044700 0.000000
# 6 0.000000 0.000000 0.000000 0.003243 0.000000 0.042204
#
#
# Mechanical properties :
#
#
# Convention : Reuss Voigt Hill
#
# Bulk Modulus (GPa) = 13.50015 23.41755 18.45885
# Shear Modulus (GPa) = 27.22158 34.33738 30.77948
#
# Velocity S-wave (km/s) = 3.49655 3.92705 3.71804
# Velocity P-wave (km/s) = 4.72910 5.57492 5.16934
#
# Compressibility (1/GPa) = 0.07407324
#
# Stress axis : x y z
#
# Youngs Moduli (GPa) = 40.86435 55.40491 63.92168
#
# Poissons Ratio (x) = -0.23701 -0.33759
# Poissons Ratio (y) = -0.17481 0.10257
# Poissons Ratio (z) = -0.21582 0.08890
#
# Static dielectric constant tensor:
#      x y z
#    x 1.818620 0.000000 -0.015920 
#    y 0.000000 1.746290 0.000000 
#    z -0.015920 0.000000 1.854380 
# 
# From -- ./inp_files/92726.got.cif
#   From: 2010.05.17/outbox.cif.g08.bks.cpg/sg12_47_cif.got.tgz:92726.got - 2010.06.03 13:09:07.
