data_PCOD9222744
_publ_section_title
;
Structure prediction by ZEFSAII (Michael W. Deem and Ramdas Pophale) SiO2 
 PCOD9222744
Probable space group: C 2/M
;
_chemical_formula_sum "Si O2"
_cell_formula_units_Z 28
_cell_length_a 10.434709
_cell_length_b 9.400311
_cell_length_c 12.873957
_cell_angle_alpha 90.000000
_cell_angle_beta 52.450336
_cell_angle_gamma 90.000000
_cell_volume 1001.179978
_symmetry_space_group_name_H-M "C 2/M"
_symmetry_group_IT_number 12
_symmetry_cell_setting 'monoclinic'
loop_
_space_group_symop_operation_xyz
x,y,z
-x,y,-z
-x,-y,-z
x,-y,z
1/2+x,1/2+y,z
1/2-x,1/2+y,-z
1/2-x,1/2-y,-z
1/2+x,1/2-y,z
loop_
_atom_site_type_symbol
_atom_site_label
_atom_site_fract_x
_atom_site_fract_y
_atom_site_fract_z
Si Si1 0.881418 0.744982 0.278041
Si Si2 0.632182 0.000000 0.206252
Si Si3 0.131140 0.000000 0.345138
Si Si4 0.236671 0.000000 0.077404
Si Si5 0.500000 0.760634 0.000000
Si Si6 0.695415 0.000000 0.405202
O O1 0.017117 0.639564 0.257952
O O2 0.740489 0.637858 0.312189
O O3 0.962541 0.804900 0.131296
O O4 0.789877 0.859962 0.394726
O O5 0.719680 0.000000 0.270451
O O6 0.759415 0.000000 0.049272
O O7 0.000000 0.000000 0.500000
O O8 0.100987 0.000000 0.234623
O O9 0.348860 0.136129 0.049060
O O10 0.500000 0.000000 0.500000
#
# Coordination Sequence:
#
# PCOD9222744 Si02
#       6
#     8   4   4   4   4   4
#     4   9  19  37  60  84 118 156 193 242 295 345
#     4   9  20  42  63  81 117 159 196 244 293 345
#     4   9  15  30  58  86 118 157 192 235 292 352
#     4   7  12  27  54  81 108 150 193 235 289 337
#     4   7  12  29  56  80 108 148 190 238 284 334
#     4  12  25  38  58  90 121 152 196 247 297 351
#
# _framework density 27.966999000000001
#
# number of rings (size 3 to 8) (size 9 to 14) (size 15 to 20)
#    0.000    3.143    0.000    4.286    0.000    1.714 
#    0.000   15.714    0.000    0.000    0.000    0.000 
#    0.000    0.000    0.000    0.000    0.000    0.000 
#
# Total GULP energy -78312.751542 kJ/mol
# GULP energy per Si atom -5593.767967 kJ/mol
# Density = 2.790335 g / cm^3
# Si number density = 27.966999 Si / 1000 Ang^3
#
#
#
# Elastic Constant Matrix: (Units=GPa)
#
#
# Indices 1 2 3 4 5 6 
#
# 1 56.0842 26.9829 52.3543 0.0000 -5.8656 0.0000
# 2 26.9829 142.1098 51.4831 0.0000 -32.7629 0.0000
# 3 52.3543 51.4831 190.1235 0.0000 -20.8773 0.0000
# 4 0.0000 0.0000 0.0000 41.0708 0.0000 -5.6103
# 5 -5.8656 -32.7629 -20.8773 0.0000 67.1836 0.0000
# 6 0.0000 0.0000 0.0000 -5.6103 0.0000 19.9708
#
#
#
# Elastic Compliance Matrix: (Units=1/GPa)
#
#
# Indices 1 2 3 4 5 6 
#
# 1 0.024830 -0.002711 -0.006223 0.000000 -0.001088 0.000000
# 2 -0.002711 0.008854 -0.001245 0.000000 0.003694 0.000000
# 3 -0.006223 -0.001245 0.007438 0.000000 0.001161 0.000000
# 4 0.000000 0.000000 0.000000 0.025320 0.000000 0.007113
# 5 -0.001088 0.003694 0.001161 0.000000 0.016952 0.000000
# 6 0.000000 0.000000 0.000000 0.007113 0.000000 0.052071
#
#
# Mechanical properties :
#
#
# Convention : Reuss Voigt Hill
#
# Bulk Modulus (GPa) = 48.16074 72.21756 60.18915
# Shear Modulus (GPa) = 30.72292 42.81152 36.76722
#
# Velocity S-wave (km/s) = 3.31802 3.91677 3.62976
# Velocity P-wave (km/s) = 5.65128 6.80686 6.25581
#
# Compressibility (1/GPa) = 0.02076380
#
# Stress axis : x y z
#
# Youngs Moduli (GPa) = 40.27430 112.93729 134.44455
#
# Poissons Ratio (x) = 0.30617 0.83661
# Poissons Ratio (y) = 0.10918 0.16745
# Poissons Ratio (z) = 0.25062 0.14066
#
# Static dielectric constant tensor:
#      x y z
#    x 2.135050 0.000000 -0.012340 
#    y 0.000000 2.331700 0.000000 
#    z -0.012340 0.000000 2.201810 
# 
# From -- ./inp_files/138477.got.cif
#   From: 2010.05.17/outbox.cif.g08.bks.cpg/sg12_70_cif.got.tgz:138477.got - 2010.06.03 13:09:07.
