data_PCOD9222896
_publ_section_title
;
Structure prediction by ZEFSAII (Michael W. Deem and Ramdas Pophale) SiO2 
 PCOD9222896
Probable space group: C 2/M
;
_chemical_formula_sum "Si O2"
_cell_formula_units_Z 40
_cell_length_a 23.904448
_cell_length_b 7.345165
_cell_length_c 11.911261
_cell_angle_alpha 90.000000
_cell_angle_beta 71.967344
_cell_angle_gamma 90.000000
_cell_volume 1988.675106
_symmetry_space_group_name_H-M "C 2/M"
_symmetry_group_IT_number 12
_symmetry_cell_setting 'monoclinic'
loop_
_space_group_symop_operation_xyz
x,y,z
-x,y,-z
-x,-y,-z
x,-y,z
1/2+x,1/2+y,z
1/2-x,1/2+y,-z
1/2-x,1/2-y,-z
1/2+x,1/2-y,z
loop_
_atom_site_type_symbol
_atom_site_label
_atom_site_fract_x
_atom_site_fract_y
_atom_site_fract_z
Si Si1 0.529670 0.778316 0.153704
Si Si2 0.090443 0.278397 0.890196
Si Si3 0.444533 0.222497 0.610520
Si Si4 0.329741 0.786590 0.553114
Si Si5 0.698788 0.219762 0.679114
O O1 0.463905 0.724770 0.156554
O O2 0.546900 0.716982 0.266727
O O3 0.529854 0.000000 0.154496
O O4 0.573357 0.720914 0.026488
O O5 0.091005 0.500000 0.890640
O O6 0.152221 0.217733 0.800657
O O7 0.500000 0.275071 0.500000
O O8 0.384234 0.286112 0.590179
O O9 0.443661 0.000000 0.614010
O O10 0.320909 0.712733 0.432408
O O11 0.266781 0.769600 0.652535
O O12 0.342271 0.000000 0.530006
O O13 0.696961 0.000000 0.678028
#
# Coordination Sequence:
#
# PCOD9222896 Si02
#       5
#     8   8   8   8   8
#     4   8  13  21  35  57  81 101 127 164 200 232
#     4   8  13  22  37  57  79 102 129 162 197 231
#     4   9  15  23  37  57  80 103 127 161 203 237
#     4   9  17  27  40  60  82 103 131 164 196 232
#     4   9  16  27  42  58  79 107 135 161 191 230
#
# _framework density 20.113894999999999
#
# number of rings (size 3 to 8) (size 9 to 14) (size 15 to 20)
#    0.000    3.400    0.000    2.400    0.000    4.800 
#    0.000    1.000    0.000    0.600    0.000    4.200 
#    0.000    0.000    0.000    0.000    0.000    0.000 
#
# Total GULP energy -111564.425252 kJ/mol
# GULP energy per Si atom -5578.221263 kJ/mol
# Density = 2.006812 g / cm^3
# Si number density = 20.113895 Si / 1000 Ang^3
#
#
#
# Elastic Constant Matrix: (Units=GPa)
#
#
# Indices 1 2 3 4 5 6 
#
# 1 180.0157 -1.9187 119.6355 0.0000 1.4415 0.0000
# 2 -1.9187 72.9159 -4.8054 0.0000 7.0539 0.0000
# 3 119.6355 -4.8054 144.8466 0.0000 -4.0626 0.0000
# 4 0.0000 0.0000 0.0000 -16.1393 0.0000 -64.1802
# 5 1.4415 7.0539 -4.0626 0.0000 30.6048 0.0000
# 6 0.0000 0.0000 0.0000 -64.1802 0.0000 -201.1705
#
#
#
# Elastic Compliance Matrix: (Units=1/GPa)
#
#
# Indices 1 2 3 4 5 6 
#
# 1 0.012432 -0.000168 -0.010328 0.000000 -0.001918 0.000000
# 2 -0.000168 0.014050 0.000516 0.000000 -0.003162 0.000000
# 3 -0.010328 0.000516 0.015519 0.000000 0.002428 0.000000
# 4 0.000000 0.000000 0.000000 0.230610 0.000000 -0.073572
# 5 -0.001918 -0.003162 0.002428 0.000000 0.033816 0.000000
# 6 0.000000 0.000000 0.000000 -0.073572 0.000000 0.018501
#
#
# Mechanical properties :
#
#
# Convention : Reuss Voigt Hill
#
# Bulk Modulus (GPa) = 45.36729 69.28899 57.32814
# Shear Modulus (GPa) = 14.19506 -18.34986 -2.07740
#
# Velocity S-wave (km/s) = 2.65945 -3.02370 -1.01738
# Velocity P-wave (km/s) = 5.65989 4.72575 5.21378
#
# Compressibility (1/GPa) = 0.02204231
#
# Stress axis : x y z
#
# Youngs Moduli (GPa) = 80.43555 71.17488 64.43607
#
# Poissons Ratio (x) = 0.01195 0.66548
# Poissons Ratio (y) = 0.01351 -0.03326
# Poissons Ratio (z) = 0.83072 -0.03674
#
# Static dielectric constant tensor:
#      x y z
#    x 1.675240 0.000000 -0.003300 
#    y 0.000000 1.799370 0.000000 
#    z -0.003300 0.000000 1.689310 
# 
# From -- ./inp_files/152680.got.cif
#   From: 2010.05.17/outbox.cif.g08.bks.cpg/sg12_77_cif.got.tgz:152680.got - 2010.06.03 13:09:07.
