data_PCOD9222559
_publ_section_title
;
Structure prediction by ZEFSAII (Michael W. Deem and Ramdas Pophale) SiO2 
 PCOD9222559
Probable space group: C 2/M
;
_chemical_formula_sum "Si O2"
_cell_formula_units_Z 56
_cell_length_a 9.028285
_cell_length_b 30.076088
_cell_length_c 21.547883
_cell_angle_alpha 90.000000
_cell_angle_beta 150.535393
_cell_angle_gamma 90.000000
_cell_volume 2878.031376
_symmetry_space_group_name_H-M "C 2/M"
_symmetry_group_IT_number 12
_symmetry_cell_setting 'monoclinic'
loop_
_space_group_symop_operation_xyz
x,y,z
-x,y,-z
-x,-y,-z
x,-y,z
1/2+x,1/2+y,z
1/2-x,1/2+y,-z
1/2-x,1/2-y,-z
1/2+x,1/2-y,z
loop_
_atom_site_type_symbol
_atom_site_label
_atom_site_fract_x
_atom_site_fract_y
_atom_site_fract_z
Si Si1 0.971350 0.051513 0.385165
Si Si2 0.149893 0.874308 0.364615
Si Si3 0.297873 0.703199 0.278276
Si Si4 0.684246 0.360892 0.232571
Si Si5 0.503528 0.948152 0.678949
Si Si6 0.357477 0.790845 0.640757
Si Si7 0.162071 0.298586 0.993321
O O1 0.694464 0.058958 0.331243
O O2 0.971298 0.083926 0.326824
O O3 0.271750 0.058707 0.536750
O O4 0.970271 0.000000 0.366087
O O5 0.500000 0.884453 0.500000
O O6 0.102504 0.861997 0.275496
O O7 0.062222 0.832883 0.376283
O O8 0.453685 0.749616 0.317175
O O9 0.116819 0.708075 0.275610
O O10 0.074477 0.685416 0.144087
O O11 0.737657 0.411479 0.231019
O O12 0.998458 0.334885 0.335912
O O13 0.437972 0.332152 0.105273
O O14 0.597969 0.000000 0.711915
O O15 0.000000 0.786065 0.500000
O O16 0.250000 0.250000 0.000000
O O17 0.000000 0.293100 0.000000
#
# Coordination Sequence:
#
# PCOD9222559 Si02
#       7
#     8   8   8   8   8   8   8
#     4   9  19  36  61  91 131 171 205 257 324 391
#     4  12  22  36  58  91 131 164 208 259 327 383
#     4  12  24  42  62  86 125 174 208 270 313 377
#     4  12  24  38  64  94 126 171 213 267 310 377
#     4   9  19  38  62  93 128 166 212 261 318 386
#     4  12  25  41  63  94 130 162 212 257 333 386
#     4  12  25  46  65  86 125 167 230 265 307 372
#
# _framework density 19.457744999999999
#
# number of rings (size 3 to 8) (size 9 to 14) (size 15 to 20)
#    0.000    0.857    4.286    5.143    2.000    0.857 
#    0.000    0.000    0.000    1.286    0.000    3.000 
#    0.000    0.000    0.000    0.000    0.000    0.000 
#
# Total GULP energy -156478.696898 kJ/mol
# GULP energy per Si atom -5588.524889 kJ/mol
# Density = 1.941346 g / cm^3
# Si number density = 19.457745 Si / 1000 Ang^3
#
#
#
# Elastic Constant Matrix: (Units=GPa)
#
#
# Indices 1 2 3 4 5 6 
#
# 1 111.9885 64.1277 19.4549 -0.0001 -11.8787 -0.0002
# 2 64.1277 122.1171 20.6447 -0.0001 6.8349 0.0002
# 3 19.4549 20.6447 70.5495 -0.0006 -5.7678 0.0006
# 4 -0.0001 -0.0001 -0.0006 23.3514 -0.0002 1.9702
# 5 -11.8787 6.8349 -5.7678 -0.0002 26.0027 -0.0002
# 6 -0.0002 0.0002 0.0006 1.9702 -0.0002 42.5048
#
#
#
# Elastic Compliance Matrix: (Units=1/GPa)
#
#
# Indices 1 2 3 4 5 6 
#
# 1 0.014562 -0.007957 -0.000990 0.000000 0.008524 0.000000
# 2 -0.007957 0.013179 -0.002284 0.000000 -0.007606 0.000000
# 3 -0.000990 -0.002284 0.015407 0.000000 0.003566 0.000000
# 4 0.000000 0.000000 0.000000 0.042992 0.000000 -0.001993
# 5 0.008524 -0.007606 0.003566 0.000000 0.045142 0.000000
# 6 0.000000 0.000000 0.000000 -0.001993 0.000000 0.023619
#
#
# Mechanical properties :
#
#
# Convention : Reuss Voigt Hill
#
# Bulk Modulus (GPa) = 48.34202 57.01217 52.67710
# Shear Modulus (GPa) = 27.13577 31.73366 29.43471
#
# Velocity S-wave (km/s) = 3.73849 4.04282 3.89363
# Velocity P-wave (km/s) = 6.59800 7.15239 6.88078
#
# Compressibility (1/GPa) = 0.02068594
#
# Stress axis : x y z
#
# Youngs Moduli (GPa) = 68.67272 75.87860 64.90352
#
# Poissons Ratio (x) = 0.60373 0.06428
# Poissons Ratio (y) = 0.54640 0.14825
# Poissons Ratio (z) = 0.06801 0.17332
#
# Static dielectric constant tensor:
#      x y z
#    x 1.680390 0.000000 0.008610 
#    y 0.000000 1.694400 0.000000 
#    z 0.008610 0.000000 1.770460 
# 
# From -- ./inp_files/302993.got.cif
#   From: 2010.05.17/outbox.cif.g08.bks.cpg/sg12_152_cif.got.tgz:302993.got - 2010.06.03 13:09:07.
