data_PCOD9222938
_publ_section_title
;
Structure prediction by ZEFSAII (Michael W. Deem and Ramdas Pophale) SiO2 
 PCOD9222938
Probable space group: C 2/M
;
_chemical_formula_sum "Si O2"
_cell_formula_units_Z 44
_cell_length_a 13.813433
_cell_length_b 21.521338
_cell_length_c 8.217307
_cell_angle_alpha 90.000000
_cell_angle_beta 124.304675
_cell_angle_gamma 90.000000
_cell_volume 2017.938643
_symmetry_space_group_name_H-M "C 2/M"
_symmetry_group_IT_number 12
_symmetry_cell_setting 'monoclinic'
loop_
_space_group_symop_operation_xyz
x,y,z
-x,y,-z
-x,-y,-z
x,-y,z
1/2+x,1/2+y,z
1/2-x,1/2+y,-z
1/2-x,1/2-y,-z
1/2+x,1/2-y,z
loop_
_atom_site_type_symbol
_atom_site_label
_atom_site_fract_x
_atom_site_fract_y
_atom_site_fract_z
Si Si1 0.628474 0.233001 0.711397
Si Si2 0.726982 0.863650 0.574200
Si Si3 0.027706 0.365535 0.836312
Si Si4 0.639908 0.365812 0.638401
Si Si5 0.859451 0.000000 0.365553
Si Si6 0.729532 0.000000 0.583472
Si Si7 0.475258 0.000000 0.170948
O O1 0.500000 0.235508 0.500000
O O2 0.720455 0.194013 0.689960
O O3 0.601398 0.192048 0.842835
O O4 0.667047 0.304042 0.764863
O O5 0.596888 0.865210 0.373715
O O6 0.812059 0.855925 0.499821
O O7 0.748104 0.931499 0.675922
O O8 0.081079 0.433437 0.846351
O O9 0.000000 0.361611 0.000000
O O10 0.500000 0.370721 0.500000
O O11 0.683185 0.433314 0.741017
O O12 0.000000 0.000000 0.500000
O O13 0.814677 0.000000 0.508114
O O14 0.597896 0.000000 0.385374
O O15 0.500000 0.000000 0.000000
#
# Coordination Sequence:
#
# PCOD9222938 Si02
#       7
#     8   8   8   8   4   4   4
#     4   9  17  27  42  64  87 111 137 168 209 249
#     4   9  16  27  43  63  87 111 138 172 205 242
#     4   9  17  29  43  62  87 113 140 168 201 247
#     4   9  16  27  43  63  84 109 139 173 210 246
#     4   8  14  24  39  59  82 104 134 174 209 240
#     4   8  14  23  38  61  84 108 137 167 202 239
#     4   8  14  25  41  58  82 114 139 161 195 241
#
# _framework density 21.804428999999999
#
# number of rings (size 3 to 8) (size 9 to 14) (size 15 to 20)
#    0.000    3.273    0.000    0.545    0.000    0.727 
#    0.000    4.545    0.000    0.000    0.000    0.636 
#    0.000    0.000    0.000    7.273    0.000    0.545 
#
# Total GULP energy -122559.160849 kJ/mol
# GULP energy per Si atom -5570.870948 kJ/mol
# Density = 2.175480 g / cm^3
# Si number density = 21.804429 Si / 1000 Ang^3
#
#
#
# Elastic Constant Matrix: (Units=GPa)
#
#
# Indices 1 2 3 4 5 6 
#
# 1 104.7094 55.8784 13.5200 0.0000 -4.6990 0.0000
# 2 55.8784 250.5161 10.7762 0.0000 -32.3376 0.0000
# 3 13.5200 10.7762 19.8080 0.0000 7.3877 0.0000
# 4 0.0000 0.0000 0.0000 1.9275 0.0000 -7.7479
# 5 -4.6990 -32.3376 7.3877 0.0000 18.5424 0.0000
# 6 0.0000 0.0000 0.0000 -7.7479 0.0000 23.5649
#
#
#
# Elastic Compliance Matrix: (Units=1/GPa)
#
#
# Indices 1 2 3 4 5 6 
#
# 1 0.011731 -0.001902 -0.008039 0.000000 0.002859 0.000000
# 2 -0.001902 0.006522 -0.007415 0.000000 0.013847 0.000000
# 3 -0.008039 -0.007415 0.077035 0.000000 -0.045661 0.000000
# 4 0.000000 0.000000 0.000000 -1.613093 0.000000 -0.530370
# 5 0.002859 0.013847 -0.045661 0.000000 0.096996 0.000000
# 6 0.000000 0.000000 0.000000 -0.530370 0.000000 -0.131945
#
#
# Mechanical properties :
#
#
# Convention : Reuss Voigt Hill
#
# Bulk Modulus (GPa) = 16.50763 59.48695 37.99729
# Shear Modulus (GPa) = -3.33812 28.46423 12.56306
#
# Velocity S-wave (km/s) = -1.23865 3.61700 2.40296
# Velocity P-wave (km/s) = 2.35404 6.69215 5.01629
#
# Compressibility (1/GPa) = 0.06057806
#
# Stress axis : x y z
#
# Youngs Moduli (GPa) = 85.24076 153.31837 12.98105
#
# Poissons Ratio (x) = 0.29159 0.10435
# Poissons Ratio (y) = 0.16212 0.09625
# Poissons Ratio (z) = 0.68525 1.13681
#
# Static dielectric constant tensor:
#      x y z
#    x 1.777920 0.000000 -0.008160 
#    y 0.000000 1.894420 0.000000 
#    z -0.008160 0.000000 1.754250 
# 
# From -- ./inp_files/61110.got.cif
#   From: 2010.05.17/outbox.cif.g08.bks.cpg/sg12_31_cif.got.tgz:61110.got - 2010.06.03 13:09:07.
