data_PCOD9222130
_publ_section_title
;
Structure prediction by ZEFSAII (Michael W. Deem and Ramdas Pophale) SiO2 
 PCOD9222130
Probable space group: C 2/M
;
_chemical_formula_sum "Si O2"
_cell_formula_units_Z 42
_cell_length_a 26.342935
_cell_length_b 15.771702
_cell_length_c 5.794152
_cell_angle_alpha 90.000000
_cell_angle_beta 53.148759
_cell_angle_gamma 90.000000
_cell_volume 1926.320823
_symmetry_space_group_name_H-M "C 2/M"
_symmetry_group_IT_number 12
_symmetry_cell_setting 'monoclinic'
loop_
_space_group_symop_operation_xyz
x,y,z
-x,y,-z
-x,-y,-z
x,-y,z
1/2+x,1/2+y,z
1/2-x,1/2+y,-z
1/2-x,1/2-y,-z
1/2+x,1/2-y,z
loop_
_atom_site_type_symbol
_atom_site_label
_atom_site_fract_x
_atom_site_fract_y
_atom_site_fract_z
Si Si1 0.651517 0.097528 0.676463
Si Si2 0.900283 0.144885 0.844315
Si Si3 0.964926 0.299660 0.846279
Si Si4 0.821353 0.751606 0.711748
Si Si5 0.500000 0.500000 0.500000
Si Si6 0.294658 0.592713 0.460643
O O1 0.659588 0.161112 0.440363
O O2 0.720103 0.100553 0.613488
O O3 0.638929 0.000000 0.648652
O O4 0.595143 0.136911 0.980784
O O5 0.940133 0.202080 0.916115
O O6 0.873136 0.215203 0.747137
O O7 0.945768 0.074463 0.617359
O O8 0.838313 0.098928 0.115629
O O9 0.000000 0.310482 0.500000
O O10 0.000000 0.313816 0.000000
O O11 0.817261 0.825522 0.534708
O O12 0.750000 0.750000 0.000000
O O13 0.305889 0.500000 0.539981
#
# Coordination Sequence:
#
# PCOD9222130 Si02
#       6
#     8   8   8   8   2   8
#     4  11  25  47  75 111 149 196 263 332 394 462
#     4  12  25  46  71 110 150 201 252 313 391 474
#     4  12  27  50  77 109 153 207 260 316 393 475
#     4  12  24  43  77 106 153 201 257 329 394 461
#     4  12  28  44  74 112 160 208 254 326 390 508
#     4  11  24  43  72 110 146 187 252 320 391 474
#
# _framework density 21.803222999999999
#
# number of rings (size 3 to 8) (size 9 to 14) (size 15 to 20)
#    0.000    0.381    5.714    2.857    1.333    1.524 
#    0.000    6.190    0.000    0.000    0.000    0.000 
#    0.000    0.000    0.000    0.000    0.000    0.000 
#
# Total GULP energy -117024.943457 kJ/mol
# GULP energy per Si atom -5572.616355 kJ/mol
# Density = 2.175360 g / cm^3
# Si number density = 21.803223 Si / 1000 Ang^3
#
#
#
# Elastic Constant Matrix: (Units=GPa)
#
#
# Indices 1 2 3 4 5 6 
#
# 1 95.5129 42.5669 50.5438 0.0000 -15.8974 0.0000
# 2 42.5669 179.1875 52.9546 0.0000 -7.5369 0.0000
# 3 50.5438 52.9546 124.8711 0.0000 -28.3393 0.0000
# 4 0.0000 0.0000 0.0000 -14.9465 0.0000 -62.7605
# 5 -15.8974 -7.5369 -28.3393 0.0000 33.7008 0.0000
# 6 0.0000 0.0000 0.0000 -62.7605 0.0000 -36.2727
#
#
#
# Elastic Compliance Matrix: (Units=1/GPa)
#
#
# Indices 1 2 3 4 5 6 
#
# 1 0.014031 -0.001966 -0.004255 0.000000 0.002601 0.000000
# 2 -0.001966 0.006686 -0.002361 0.000000 -0.001418 0.000000
# 3 -0.004255 -0.002361 0.012552 0.000000 0.008020 0.000000
# 4 0.000000 0.000000 0.000000 0.010679 0.000000 -0.018477
# 5 0.002601 -0.001418 0.008020 0.000000 0.037327 0.000000
# 6 0.000000 0.000000 0.000000 -0.018477 0.000000 0.004400
#
#
# Mechanical properties :
#
#
# Convention : Reuss Voigt Hill
#
# Bulk Modulus (GPa) = 62.09830 76.85579 69.47705
# Shear Modulus (GPa) = 46.20762 13.39671 29.80217
#
# Velocity S-wave (km/s) = 4.60858 2.48147 3.70113
# Velocity P-wave (km/s) = 7.54068 6.59822 7.08514
#
# Compressibility (1/GPa) = 0.01610350
#
# Stress axis : x y z
#
# Youngs Moduli (GPa) = 71.27248 149.56604 79.66829
#
# Poissons Ratio (x) = 0.29407 0.33900
# Poissons Ratio (y) = 0.14013 0.18812
# Poissons Ratio (z) = 0.30327 0.35317
#
# Static dielectric constant tensor:
#      x y z
#    x 1.804110 0.000000 0.015700 
#    y 0.000000 1.772990 0.000000 
#    z 0.015700 0.000000 1.881650 
# 
# From -- ./inp_files/28106.got.cif
#   From: 2010.05.17/outbox.cif.g08.bks.cpg/sg12_15_cif.got.tgz:28106.got - 2010.06.03 13:09:07.
