data_PCOD9222111
_publ_section_title
;
Structure prediction by ZEFSAII (Michael W. Deem and Ramdas Pophale) SiO2 
 PCOD9222111
Probable space group: C 2/M
;
_chemical_formula_sum "Si O2"
_cell_formula_units_Z 36
_cell_length_a 13.651832
_cell_length_b 13.883908
_cell_length_c 8.278610
_cell_angle_alpha 90.000000
_cell_angle_beta 79.404868
_cell_angle_gamma 90.000000
_cell_volume 1542.381984
_symmetry_space_group_name_H-M "C 2/M"
_symmetry_group_IT_number 12
_symmetry_cell_setting 'monoclinic'
loop_
_space_group_symop_operation_xyz
x,y,z
-x,y,-z
-x,-y,-z
x,-y,z
1/2+x,1/2+y,z
1/2-x,1/2+y,-z
1/2-x,1/2-y,-z
1/2+x,1/2-y,z
loop_
_atom_site_type_symbol
_atom_site_label
_atom_site_fract_x
_atom_site_fract_y
_atom_site_fract_z
Si Si1 0.207378 0.000000 0.331657
Si Si2 0.647311 0.285041 0.881075
Si Si3 0.815138 0.209890 0.622353
Si Si4 0.877035 0.000000 0.011151
Si Si5 0.948498 0.500000 0.334284
Si Si6 0.527831 0.204057 0.223893
O O1 0.163638 0.901173 0.412188
O O2 0.326897 0.000000 0.343642
O O3 0.168590 0.000000 0.156794
O O4 0.758022 0.276698 0.200463
O O5 0.595169 0.234058 0.049906
O O6 0.661647 0.398698 0.904096
O O7 0.566590 0.273509 0.763004
O O8 0.750000 0.250000 0.500000
O O9 0.908794 0.274118 0.637218
O O10 0.000000 0.000000 0.000000
O O11 0.000000 0.500000 0.500000
O O12 0.989703 0.595711 0.236325
#
# Coordination Sequence:
#
# PCOD9222111 Si02
#       6
#     4   8   8   4   4   8
#     4  12  24  44  76 101 139 190 235 286 355 429
#     4  11  24  43  69 101 137 181 236 292 351 417
#     4  12  26  44  69 102 144 183 237 292 354 422
#     4  12  22  42  72 103 139 180 235 294 355 416
#     4  12  26  45  71 105 148 190 234 292 363 425
#     4  11  24  43  70  99 141 182 237 288 353 413
#
# _framework density 23.340520999999999
#
# number of rings (size 3 to 8) (size 9 to 14) (size 15 to 20)
#    0.000    0.444    6.667    2.000    0.000    4.444 
#    0.000    0.000    0.000    4.000    0.000    0.000 
#    0.000    0.000    0.000    0.000    0.000    0.000 
#
# Total GULP energy -100601.204381 kJ/mol
# GULP energy per Si atom -5588.955799 kJ/mol
# Density = 2.328740 g / cm^3
# Si number density = 23.340521 Si / 1000 Ang^3
#
#
#
# Elastic Constant Matrix: (Units=GPa)
#
#
# Indices 1 2 3 4 5 6 
#
# 1 73.8284 -14.5985 21.9319 0.0000 13.8293 0.0000
# 2 -14.5985 171.8664 21.7606 0.0000 -1.4361 0.0000
# 3 21.9319 21.7606 100.1162 0.0000 43.9079 0.0000
# 4 0.0000 0.0000 0.0000 36.7963 0.0000 10.9449
# 5 13.8293 -1.4361 43.9079 0.0000 57.3815 0.0000
# 6 0.0000 0.0000 0.0000 10.9449 0.0000 14.9400
#
#
#
# Elastic Compliance Matrix: (Units=1/GPa)
#
#
# Indices 1 2 3 4 5 6 
#
# 1 0.015026 0.001664 -0.003136 0.000000 -0.001181 0.000000
# 2 0.001664 0.006283 -0.002443 0.000000 0.001626 0.000000
# 3 -0.003136 -0.002443 0.016408 0.000000 -0.011861 0.000000
# 4 0.000000 0.000000 0.000000 0.034748 0.000000 -0.025456
# 5 -0.001181 0.001626 -0.011861 0.000000 0.026828 0.000000
# 6 0.000000 0.000000 0.000000 -0.025456 0.000000 0.085584
#
#
# Mechanical properties :
#
#
# Convention : Reuss Voigt Hill
#
# Bulk Modulus (GPa) = 33.45924 44.88880 39.17402
# Shear Modulus (GPa) = 24.67067 42.93802 33.80435
#
# Velocity S-wave (km/s) = 3.25466 4.29375 3.80980
# Velocity P-wave (km/s) = 5.33762 6.62236 6.01439
#
# Compressibility (1/GPa) = 0.02988711
#
# Stress axis : x y z
#
# Youngs Moduli (GPa) = 66.54922 159.16819 60.94580
#
# Poissons Ratio (x) = -0.26478 0.19110
# Poissons Ratio (y) = -0.11070 0.14889
# Poissons Ratio (z) = 0.20867 0.38884
#
# Static dielectric constant tensor:
#      x y z
#    x 2.034210 0.000000 -0.054420 
#    y 0.000000 1.792620 0.000000 
#    z -0.054420 0.000000 2.025840 
# 
# From -- ./inp_files/153007.got.cif
#   From: 2010.05.17/outbox.cif.g08.bks.cpg/sg12_77_cif.got.tgz:153007.got - 2010.06.03 13:09:07.
