data_PCOD9222715
_publ_section_title
;
Structure prediction by ZEFSAII (Michael W. Deem and Ramdas Pophale) SiO2 
 PCOD9222715
Probable space group: C 2/M
;
_chemical_formula_sum "Si O2"
_cell_formula_units_Z 34
_cell_length_a 13.416597
_cell_length_b 13.577426
_cell_length_c 7.279489
_cell_angle_alpha 90.000000
_cell_angle_beta 61.770588
_cell_angle_gamma 90.000000
_cell_volume 1168.332808
_symmetry_space_group_name_H-M "C 2/M"
_symmetry_group_IT_number 12
_symmetry_cell_setting 'monoclinic'
loop_
_space_group_symop_operation_xyz
x,y,z
-x,y,-z
-x,-y,-z
x,-y,z
1/2+x,1/2+y,z
1/2-x,1/2+y,-z
1/2-x,1/2-y,-z
1/2+x,1/2-y,z
loop_
_atom_site_type_symbol
_atom_site_label
_atom_site_fract_x
_atom_site_fract_y
_atom_site_fract_z
Si Si1 0.654805 0.127324 0.705751
Si Si2 0.156921 0.140050 0.737859
Si Si3 0.500000 0.500000 0.500000
Si Si4 0.403830 0.655281 0.815303
Si Si5 0.106148 0.607922 0.167360
O O1 0.746990 0.098565 0.475311
O O2 0.661403 0.244104 0.712072
O O3 0.529960 0.104291 0.743472
O O4 0.659478 0.101401 0.916361
O O5 0.028486 0.120192 0.786108
O O6 0.172495 0.124385 0.943110
O O7 0.406354 0.586840 0.637538
O O8 0.386134 0.772097 0.786093
O O9 0.129313 0.500000 0.239122
#
# Coordination Sequence:
#
# PCOD9222715 Si02
#       5
#     8   8   2   8   8
#     4   8  13  25  53  88 121 128 163 218 284 321
#     4   8  15  31  54  87 106 140 176 229 261 319
#     4  12  24  42  50  72 104 164 188 226 256 314
#     4   9  20  36  56  75 113 140 189 223 269 313
#     4   9  16  30  51  89 114 135 161 223 284 335
#
# _framework density 29.101299000000001
#
# number of rings (size 3 to 8) (size 9 to 14) (size 15 to 20)
#    0.000    3.294    0.000    4.235    0.000    1.882 
#    8.471    0.588    0.000   22.588    0.000    0.000 
#    0.000    0.000    0.000    0.000    0.000    0.000 
#
# Total GULP energy -94679.579022 kJ/mol
# GULP energy per Si atom -5569.387001 kJ/mol
# Density = 2.903506 g / cm^3
# Si number density = 29.101299 Si / 1000 Ang^3
#
#
#
# Elastic Constant Matrix: (Units=GPa)
#
#
# Indices 1 2 3 4 5 6 
#
# 1 81.9214 21.8908 39.8416 0.0000 -3.0923 0.0000
# 2 21.8908 292.8310 64.5567 0.0000 -5.5120 0.0000
# 3 39.8416 64.5567 232.7096 0.0000 -33.1738 0.0000
# 4 0.0000 0.0000 0.0000 35.8008 0.0000 9.0952
# 5 -3.0923 -5.5120 -33.1738 0.0000 41.7498 0.0000
# 6 0.0000 0.0000 0.0000 9.0952 0.0000 16.4512
#
#
#
# Elastic Compliance Matrix: (Units=1/GPa)
#
#
# Indices 1 2 3 4 5 6 
#
# 1 0.013421 -0.000517 -0.002281 0.000000 -0.000886 0.000000
# 2 -0.000517 0.003662 -0.000974 0.000000 -0.000329 0.000000
# 3 -0.002281 -0.000974 0.005543 0.000000 0.004107 0.000000
# 4 0.000000 0.000000 0.000000 0.032497 0.000000 -0.017966
# 5 -0.000886 -0.000329 0.004107 0.000000 0.027107 0.000000
# 6 0.000000 0.000000 0.000000 -0.017966 0.000000 0.070719
#
#
# Mechanical properties :
#
#
# Convention : Reuss Voigt Hill
#
# Bulk Modulus (GPa) = 66.30339 95.56002 80.93171
# Shear Modulus (GPa) = 30.20789 50.87857 40.54323
#
# Velocity S-wave (km/s) = 3.22534 4.18584 3.73658
# Velocity P-wave (km/s) = 6.05834 7.50133 6.81812
#
# Compressibility (1/GPa) = 0.01508219
#
# Stress axis : x y z
#
# Youngs Moduli (GPa) = 74.51167 273.06002 180.39356
#
# Poissons Ratio (x) = 0.14122 0.41141
# Poissons Ratio (y) = 0.03854 0.17576
# Poissons Ratio (z) = 0.16993 0.26604
#
# Static dielectric constant tensor:
#      x y z
#    x 2.582170 0.000000 0.095470 
#    y 0.000000 2.199780 0.000000 
#    z 0.095470 0.000000 2.340430 
# 
# From -- ./inp_files/72780.got.cif
#   From: 2010.05.17/outbox.cif.g08.bks.cpg/sg12_37_cif.got.tgz:72780.got - 2010.06.03 13:09:07.
