data_PCOD9222107
_publ_section_title
;
Structure prediction by ZEFSAII (Michael W. Deem and Ramdas Pophale) SiO2 
 PCOD9222107
Probable space group: C 2/M
;
_chemical_formula_sum "Si O2"
_cell_formula_units_Z 40
_cell_length_a 11.342877
_cell_length_b 28.693345
_cell_length_c 4.959026
_cell_angle_alpha 90.000000
_cell_angle_beta 97.628087
_cell_angle_gamma 90.000000
_cell_volume 1599.706948
_symmetry_space_group_name_H-M "C 2/M"
_symmetry_group_IT_number 12
_symmetry_cell_setting 'monoclinic'
loop_
_space_group_symop_operation_xyz
x,y,z
-x,y,-z
-x,-y,-z
x,-y,z
1/2+x,1/2+y,z
1/2-x,1/2+y,-z
1/2-x,1/2-y,-z
1/2+x,1/2-y,z
loop_
_atom_site_type_symbol
_atom_site_label
_atom_site_fract_x
_atom_site_fract_y
_atom_site_fract_z
Si Si1 0.584216 0.594353 0.779322
Si Si2 0.362724 0.305632 0.346553
Si Si3 0.607435 0.897577 0.755182
Si Si4 0.132082 0.704650 0.675687
Si Si5 0.191649 0.551900 0.301632
O O1 0.500000 0.594372 0.500000
O O2 0.646818 0.645504 0.810541
O O3 0.678770 0.553849 0.785634
O O4 0.500000 0.589037 0.000000
O O5 0.500000 0.306611 0.500000
O O6 0.249712 0.302282 0.519641
O O7 0.357823 0.255955 0.190676
O O8 0.500000 0.902647 0.500000
O O9 0.622189 0.843476 0.833383
O O10 0.705513 0.918142 0.579844
O O11 0.615982 0.925174 0.036813
O O12 0.000000 0.706096 0.500000
O O13 0.148542 0.500000 0.352429
#
# Coordination Sequence:
#
# PCOD9222107 Si02
#       5
#     8   8   8   8   8
#     4  11  24  43  68  97 136 178 225 281 343 407
#     4   9  18  36  65  99 134 181 221 273 334 409
#     4  11  24  44  68  98 136 178 221 284 346 410
#     4   9  18  37  65  99 138 175 224 273 337 408
#     4  12  26  44  68  98 131 175 235 288 346 405
#
# _framework density 25.004581000000002
#
# number of rings (size 3 to 8) (size 9 to 14) (size 15 to 20)
#    0.000    1.600    2.000    2.400    2.800    3.200 
#    0.000    9.000    0.000    0.000    0.000    0.000 
#    0.000    0.000    0.000    0.000    0.000    0.000 
#
# Total GULP energy -111544.120793 kJ/mol
# GULP energy per Si atom -5577.206040 kJ/mol
# Density = 2.494767 g / cm^3
# Si number density = 25.004581 Si / 1000 Ang^3
#
#
#
# Elastic Constant Matrix: (Units=GPa)
#
#
# Indices 1 2 3 4 5 6 
#
# 1 132.6261 -22.8323 13.9563 0.0000 15.3769 0.0000
# 2 -22.8323 132.5642 -5.5180 0.0000 5.9142 0.0000
# 3 13.9563 -5.5180 94.8408 0.0000 5.7140 0.0000
# 4 0.0000 0.0000 0.0000 1101.9330 0.0000 -407.4271
# 5 15.3769 5.9142 5.7140 0.0000 51.3234 0.0000
# 6 0.0000 0.0000 0.0000 -407.4271 0.0000 182.0100
#
#
#
# Elastic Compliance Matrix: (Units=1/GPa)
#
#
# Indices 1 2 3 4 5 6 
#
# 1 0.008189 0.001482 -0.000967 0.000000 -0.002517 0.000000
# 2 0.001482 0.007874 0.000324 0.000000 -0.001388 0.000000
# 3 -0.000967 0.000324 0.010762 0.000000 -0.000946 0.000000
# 4 0.000000 0.000000 0.000000 0.005266 0.000000 0.011787
# 5 -0.002517 -0.001388 -0.000946 0.000000 0.020503 0.000000
# 6 0.000000 0.000000 0.000000 0.011787 0.000000 0.031879
#
#
# Mechanical properties :
#
#
# Convention : Reuss Voigt Hill
#
# Bulk Modulus (GPa) = 35.08431 36.80479 35.94455
# Shear Modulus (GPa) = 54.17329 292.01495 173.09412
#
# Velocity S-wave (km/s) = 4.65965 10.81842 8.32918
# Velocity P-wave (km/s) = 6.55831 13.06912 10.33957
#
# Compressibility (1/GPa) = 0.02850277
#
# Stress axis : x y z
#
# Youngs Moduli (GPa) = 122.11886 126.99680 92.91861
#
# Poissons Ratio (x) = -0.18826 0.08987
# Poissons Ratio (y) = -0.18103 -0.03007
# Poissons Ratio (z) = 0.11811 -0.04109
#
# Static dielectric constant tensor:
#      x y z
#    x 2.238700 0.000000 -0.029700 
#    y 0.000000 1.967020 0.000000 
#    z -0.029700 0.000000 1.960860 
# 
# From -- ./inp_files/7729.got.cif
#   From: 2010.05.17/outbox.cif.g08.bks.cpg/sg12_4_cif.got.tgz:7729.got - 2010.06.03 13:09:07.
