data_PCOD9222676
_publ_section_title
;
Structure prediction by ZEFSAII (Michael W. Deem and Ramdas Pophale) SiO2 
 PCOD9222676
Probable space group: C 2/M
;
_chemical_formula_sum "Si O2"
_cell_formula_units_Z 38
_cell_length_a 10.500943
_cell_length_b 19.089962
_cell_length_c 9.060826
_cell_angle_alpha 90.000000
_cell_angle_beta 108.400220
_cell_angle_gamma 90.000000
_cell_volume 1723.495160
_symmetry_space_group_name_H-M "C 2/M"
_symmetry_group_IT_number 12
_symmetry_cell_setting 'monoclinic'
loop_
_space_group_symop_operation_xyz
x,y,z
-x,y,-z
-x,-y,-z
x,-y,z
1/2+x,1/2+y,z
1/2-x,1/2+y,-z
1/2-x,1/2-y,-z
1/2+x,1/2-y,z
loop_
_atom_site_type_symbol
_atom_site_label
_atom_site_fract_x
_atom_site_fract_y
_atom_site_fract_z
Si Si1 0.000000 0.889250 0.000000
Si Si2 0.500000 0.000000 0.000000
Si Si3 0.369477 0.273955 0.150447
Si Si4 0.216838 0.078262 0.313369
Si Si5 0.230631 0.825019 0.567972
Si Si6 0.516509 0.876358 0.756906
O O1 0.881604 0.925344 0.864586
O O2 0.066342 0.839153 0.905647
O O3 0.521194 0.937184 0.881297
O O4 0.327858 0.302671 0.295504
O O5 0.460432 0.204597 0.187497
O O6 0.250000 0.250000 0.000000
O O7 0.155164 0.127774 0.418328
O O8 0.359613 0.108392 0.308557
O O9 0.235934 0.000000 0.377773
O O10 0.250000 0.750000 0.500000
O O11 0.366042 0.870545 0.639926
#
# Coordination Sequence:
#
# PCOD9222676 Si02
#       6
#     4   2   8   8   8   8
#     4  12  26  48  72 102 150 200 250 312 367 451
#     4  12  26  44  74 116 150 204 244 310 396 450
#     4  12  23  46  75 108 142 190 257 305 368 446
#     4  12  27  48  70 108 153 198 245 311 384 454
#     4  12  26  45  75 109 149 192 249 316 379 446
#     4  12  25  43  74 110 150 190 250 313 376 454
#
# _framework density 22.048220000000001
#
# number of rings (size 3 to 8) (size 9 to 14) (size 15 to 20)
#    0.000    0.000    5.263    5.368    1.474    3.368 
#    0.000    3.158    0.000    0.000    0.000    0.000 
#    0.000    0.000    0.000    0.000    0.000    0.000 
#
# Total GULP energy -105852.588821 kJ/mol
# GULP energy per Si atom -5571.188885 kJ/mol
# Density = 2.199804 g / cm^3
# Si number density = 22.048220 Si / 1000 Ang^3
#
#
#
# Elastic Constant Matrix: (Units=GPa)
#
#
# Indices 1 2 3 4 5 6 
#
# 1 59.0919 17.5137 45.9126 0.0000 -6.3031 0.0000
# 2 17.5137 145.5568 55.0322 0.0000 -15.9922 0.0000
# 3 45.9126 55.0322 155.1329 0.0000 -32.9184 0.0000
# 4 0.0000 0.0000 0.0000 73.6990 0.0000 46.6857
# 5 -6.3031 -15.9922 -32.9184 0.0000 44.7889 0.0000
# 6 0.0000 0.0000 0.0000 46.6857 0.0000 144.5614
#
#
#
# Elastic Compliance Matrix: (Units=1/GPa)
#
#
# Indices 1 2 3 4 5 6 
#
# 1 0.022139 -0.000286 -0.006885 0.000000 -0.002047 0.000000
# 2 -0.000286 0.007969 -0.002544 0.000000 0.000936 0.000000
# 3 -0.006885 -0.002544 0.010649 0.000000 0.005949 0.000000
# 4 0.000000 0.000000 0.000000 0.017058 0.000000 -0.005509
# 5 -0.002047 0.000936 0.005949 0.000000 0.026745 0.000000
# 6 0.000000 0.000000 0.000000 -0.005509 0.000000 0.008697
#
#
# Mechanical properties :
#
#
# Convention : Reuss Voigt Hill
#
# Bulk Modulus (GPa) = 46.88853 66.29985 56.59419
# Shear Modulus (GPa) = 41.73799 68.69805 55.21802
#
# Velocity S-wave (km/s) = 4.35562 5.58800 5.00985
# Velocity P-wave (km/s) = 6.82699 8.47172 7.69343
#
# Compressibility (1/GPa) = 0.02132718
#
# Stress axis : x y z
#
# Youngs Moduli (GPa) = 45.17000 125.48409 93.90912
#
# Poissons Ratio (x) = 0.03583 0.64657
# Poissons Ratio (y) = 0.01290 0.23890
# Poissons Ratio (z) = 0.31100 0.31923
#
# Static dielectric constant tensor:
#      x y z
#    x 1.652690 0.000000 0.328350 
#    y 0.000000 1.418450 0.000000 
#    z 0.328350 0.000000 1.602410 
# 
# From -- ./inp_files/47197.got.cif
#   From: 2010.05.17/outbox.cif.g08.bks.cpg/sg12_24_cif.got.tgz:47197.got - 2010.06.03 13:09:07.
