data_PCOD9222837
_publ_section_title
;
Structure prediction by ZEFSAII (Michael W. Deem and Ramdas Pophale) SiO2 
 PCOD9222837
Probable space group: C 2/M
;
_chemical_formula_sum "Si O2"
_cell_formula_units_Z 64
_cell_length_a 6.781840
_cell_length_b 14.739225
_cell_length_c 22.585641
_cell_angle_alpha 90.000000
_cell_angle_beta 85.820756
_cell_angle_gamma 90.000000
_cell_volume 2251.636380
_symmetry_space_group_name_H-M "C 2/M"
_symmetry_group_IT_number 12
_symmetry_cell_setting 'monoclinic'
loop_
_space_group_symop_operation_xyz
x,y,z
-x,y,-z
-x,-y,-z
x,-y,z
1/2+x,1/2+y,z
1/2-x,1/2+y,-z
1/2-x,1/2-y,-z
1/2+x,1/2-y,z
loop_
_atom_site_type_symbol
_atom_site_label
_atom_site_fract_x
_atom_site_fract_y
_atom_site_fract_z
Si Si1 0.902675 0.644118 0.864836
Si Si2 0.222756 0.103373 0.504466
Si Si3 0.874086 0.129124 0.365210
Si Si4 0.728231 0.140421 0.009806
Si Si5 0.465061 0.148614 0.260297
Si Si6 0.491044 0.367048 0.759442
Si Si7 0.640929 0.363078 0.115480
Si Si8 0.672687 0.840583 0.616452
O O1 0.890521 0.617660 0.795846
O O2 0.129081 0.618889 0.874359
O O3 0.762428 0.612491 0.921516
O O4 0.887234 0.753667 0.875273
O O5 0.243792 0.096746 0.574565
O O6 0.357669 0.153710 0.453389
O O7 0.000000 0.140243 0.500000
O O8 0.231319 0.000000 0.482533
O O9 0.819965 0.235181 0.367369
O O10 0.879207 0.095960 0.297497
O O11 0.108348 0.119782 0.377128
O O12 0.500000 0.118755 0.000000
O O13 0.750000 0.250000 0.000000
O O14 0.865241 0.107640 0.952938
O O15 0.474542 0.257883 0.248757
O O16 0.240843 0.119445 0.251167
O O17 0.478341 0.123868 0.329805
O O18 0.493196 0.397346 0.827636
#
# Coordination Sequence:
#
# PCOD9222837 Si02
#       8
#     8   8   8   8   8   8   8   8
#     4   8  12  17  24  35  53  76 102 130 158 190
#     4   9  17  28  41  57  76  97 120 146 178 215
#     4   9  16  26  41  58  74  94 120 149 179 211
#     4   8  12  16  22  32  48  74 103 127 153 187
#     4   8  13  20  30  45  63  82 106 137 169 198
#     4   8  13  20  30  45  63  82 106 137 169 198
#     4   8  12  17  24  35  53  76 102 130 158 190
#     4   9  16  26  41  58  74  94 120 149 179 211
#
# _framework density 28.423774000000002
#
# number of rings (size 3 to 8) (size 9 to 14) (size 15 to 20)
#    0.000    3.625    0.000    0.375    0.000    0.000 
#    0.000    0.000    0.000    1.500    0.000    0.000 
#    0.000    0.000    0.000    1.125    0.000   37.250 
#
# Total GULP energy -178509.712019 kJ/mol
# GULP energy per Si atom -5578.428501 kJ/mol
# Density = 2.835908 g / cm^3
# Si number density = 28.423774 Si / 1000 Ang^3
#
#
#
# Elastic Constant Matrix: (Units=GPa)
#
#
# Indices 1 2 3 4 5 6 
#
# 1 101.3483 5.9739 82.4217 0.0000 -34.0553 0.0000
# 2 5.9739 68.2795 40.7310 0.0000 -10.5852 0.0000
# 3 82.4217 40.7310 467.0541 0.0000 -22.2837 0.0000
# 4 0.0000 0.0000 0.0000 -51.0251 0.0000 13.9439
# 5 -34.0553 -10.5852 -22.2837 0.0000 74.6032 0.0000
# 6 0.0000 0.0000 0.0000 13.9439 0.0000 -22.7539
#
#
#
# Elastic Compliance Matrix: (Units=1/GPa)
#
#
# Indices 1 2 3 4 5 6 
#
# 1 0.013493 0.001007 -0.002200 0.000000 0.005645 0.000000
# 2 0.001007 0.015771 -0.001445 0.000000 0.002266 0.000000
# 3 -0.002200 -0.001445 0.002635 0.000000 -0.000422 0.000000
# 4 0.000000 0.000000 0.000000 -0.023540 0.000000 -0.014426
# 5 0.005645 0.002266 -0.000422 0.000000 0.016177 0.000000
# 6 0.000000 0.000000 0.000000 -0.014426 0.000000 -0.052789
#
#
# Mechanical properties :
#
#
# Convention : Reuss Voigt Hill
#
# Bulk Modulus (GPa) = 37.56033 99.43722 68.49878
# Shear Modulus (GPa) = -354.53305 34.00185 -160.26560
#
# Velocity S-wave (km/s) = -11.18043 3.46243 -7.51710
# Velocity P-wave (km/s) = 12.38653 7.14453 7.15478
#
# Compressibility (1/GPa) = 0.02662383
#
# Stress axis : x y z
#
# Youngs Moduli (GPa) = 74.10989 63.40838 379.48775
#
# Poissons Ratio (x) = -0.06384 0.83475
# Poissons Ratio (y) = -0.07461 0.54833
# Poissons Ratio (z) = 0.16302 0.09162
#
# Static dielectric constant tensor:
#      x y z
#    x 2.294850 0.000000 0.141310 
#    y 0.000000 2.180620 0.000000 
#    z 0.141310 0.000000 2.273620 
# 
# From -- ./inp_files/336178.got.cif
#   From: 2010.05.17/outbox.cif.g08.bks.cpg/sg12_169_cif.got.tgz:336178.got - 2010.06.03 13:09:07.
