data_PCOD9222254
_publ_section_title
;
Structure prediction by ZEFSAII (Michael W. Deem and Ramdas Pophale) SiO2 
 PCOD9222254
Probable space group: C 2/M
;
_chemical_formula_sum "Si O2"
_cell_formula_units_Z 56
_cell_length_a 27.796582
_cell_length_b 17.035264
_cell_length_c 8.948896
_cell_angle_alpha 90.000000
_cell_angle_beta 38.564725
_cell_angle_gamma 90.000000
_cell_volume 2641.650484
_symmetry_space_group_name_H-M "C 2/M"
_symmetry_group_IT_number 12
_symmetry_cell_setting 'monoclinic'
loop_
_space_group_symop_operation_xyz
x,y,z
-x,y,-z
-x,-y,-z
x,-y,z
1/2+x,1/2+y,z
1/2-x,1/2+y,-z
1/2-x,1/2-y,-z
1/2+x,1/2-y,z
loop_
_atom_site_type_symbol
_atom_site_label
_atom_site_fract_x
_atom_site_fract_y
_atom_site_fract_z
Si Si1 0.217941 0.834751 0.025525
Si Si2 0.928205 0.500000 0.461915
Si Si3 0.045159 0.189805 0.739168
Si Si4 0.807982 0.908483 0.598769
Si Si5 0.393749 0.000000 0.882274
Si Si6 0.431972 0.719575 0.766982
Si Si7 0.638396 0.152221 0.527515
Si Si8 0.166762 0.345358 0.810088
O O1 0.277344 0.857300 0.751173
O O2 0.250000 0.750000 0.000000
O O3 0.219733 0.891100 0.164431
O O4 0.130248 0.826910 0.180682
O O5 0.883245 0.500000 0.729434
O O6 0.909379 0.577468 0.413290
O O7 0.016557 0.500000 0.295250
O O8 0.104056 0.119299 0.620875
O O9 0.095996 0.267679 0.578364
O O10 0.982888 0.172185 0.762424
O O11 0.000000 0.208326 0.000000
O O12 0.758702 0.848932 0.613916
O O13 0.799622 0.000000 0.580596
O O14 0.358649 0.075635 0.045324
O O15 0.500000 0.758202 0.500000
O O16 0.379030 0.778463 0.990600
O O17 0.645999 0.154733 0.687305
#
# Coordination Sequence:
#
# PCOD9222254 Si02
#       8
#     8   4   8   8   4   8   8   8
#     4  12  24  45  72 101 138 187 241 291 354 431
#     4  11  27  41  71  99 150 185 230 289 368 440
#     4  12  26  46  73 104 138 189 240 303 363 418
#     4  12  27  49  73 102 146 193 245 294 360 430
#     4  11  25  41  63 105 137 192 227 278 367 436
#     4  12  24  42  71 105 133 179 242 296 353 423
#     4  12  26  45  67 107 146 188 234 298 362 439
#     4  12  25  42  72 102 142 184 232 297 360 430
#
# _framework density 21.198868000000001
#
# number of rings (size 3 to 8) (size 9 to 14) (size 15 to 20)
#    0.000    0.143    6.429    2.143    7.000    2.000 
#    0.000    1.429    0.000    0.000    0.000    0.000 
#    0.000    0.000    0.000    0.000    0.000    0.000 
#
# Total GULP energy -156639.408961 kJ/mol
# GULP energy per Si atom -5594.264606 kJ/mol
# Density = 2.115062 g / cm^3
# Si number density = 21.198868 Si / 1000 Ang^3
#
#
#
# Elastic Constant Matrix: (Units=GPa)
#
#
# Indices 1 2 3 4 5 6 
#
# 1 153.8770 13.6708 23.4130 0.0000 -12.8889 0.0000
# 2 13.6708 43.9827 3.5146 0.0000 -10.9625 0.0000
# 3 23.4130 3.5146 64.3479 0.0000 -13.0624 0.0000
# 4 0.0000 0.0000 0.0000 12.1886 0.0000 -4.4140
# 5 -12.8889 -10.9625 -13.0624 0.0000 44.7141 0.0000
# 6 0.0000 0.0000 0.0000 -4.4140 0.0000 27.0833
#
#
#
# Elastic Compliance Matrix: (Units=1/GPa)
#
#
# Indices 1 2 3 4 5 6 
#
# 1 0.007084 -0.001786 -0.002290 0.000000 0.000935 0.000000
# 2 -0.001786 0.024667 0.000452 0.000000 0.005665 0.000000
# 3 -0.002290 0.000452 0.017261 0.000000 0.004493 0.000000
# 4 0.000000 0.000000 0.000000 0.087190 0.000000 0.014210
# 5 0.000935 0.005665 0.004493 0.000000 0.025335 0.000000
# 6 0.000000 0.000000 0.000000 0.014210 0.000000 0.039239
#
#
# Mechanical properties :
#
#
# Convention : Reuss Voigt Hill
#
# Bulk Modulus (GPa) = 23.94328 38.15604 31.04966
# Shear Modulus (GPa) = 22.52803 31.57114 27.04959
#
# Velocity S-wave (km/s) = 3.26344 3.86331 3.57598
# Velocity P-wave (km/s) = 5.05165 6.15942 5.63283
#
# Compressibility (1/GPa) = 0.04176537
#
# Stress axis : x y z
#
# Youngs Moduli (GPa) = 141.16033 40.53980 57.93336
#
# Poissons Ratio (x) = 0.07240 0.13268
# Poissons Ratio (y) = 0.25209 -0.02621
# Poissons Ratio (z) = 0.32328 -0.01834
#
# Static dielectric constant tensor:
#      x y z
#    x 1.775170 0.000000 -0.029330 
#    y 0.000000 1.724560 0.000000 
#    z -0.029330 0.000000 1.808230 
# 
# From -- ./inp_files/105994.got.cif
#   From: 2010.05.17/outbox.cif.g08.bks.cpg/sg12_53_cif.got.tgz:105994.got - 2010.06.03 13:09:07.
