data_PCOD9222036
_publ_section_title
;
Structure prediction by ZEFSAII (Michael W. Deem and Ramdas Pophale) SiO2 
 PCOD9222036
Probable space group: C 2/M
;
_chemical_formula_sum "Si O2"
_cell_formula_units_Z 40
_cell_length_a 14.808355
_cell_length_b 26.084485
_cell_length_c 14.420739
_cell_angle_alpha 90.000000
_cell_angle_beta 159.582956
_cell_angle_gamma 90.000000
_cell_volume 1943.195001
_symmetry_space_group_name_H-M "C 2/M"
_symmetry_group_IT_number 12
_symmetry_cell_setting 'monoclinic'
loop_
_space_group_symop_operation_xyz
x,y,z
-x,y,-z
-x,-y,-z
x,-y,z
1/2+x,1/2+y,z
1/2-x,1/2+y,-z
1/2-x,1/2-y,-z
1/2+x,1/2-y,z
loop_
_atom_site_type_symbol
_atom_site_label
_atom_site_fract_x
_atom_site_fract_y
_atom_site_fract_z
Si Si1 0.591165 0.208741 0.407099
Si Si2 0.500000 0.166629 0.000000
Si Si3 0.000000 0.767429 0.500000
Si Si4 0.360333 0.559905 0.623805
Si Si5 0.771363 0.121757 0.707673
Si Si6 0.381714 0.879348 0.079800
O O1 0.750000 0.250000 0.500000
O O2 0.448022 0.235957 0.355521
O O3 0.775264 0.168523 0.638238
O O4 0.414779 0.173152 0.171314
O O5 0.394693 0.134400 0.984663
O O6 0.741575 0.200022 0.268552
O O7 0.386823 0.500000 0.630394
O O8 0.298093 0.571010 0.671701
O O9 0.124898 0.585193 0.340854
O O10 0.621871 0.590574 0.853432
O O11 0.500000 0.122820 0.500000
O O12 0.000000 0.126641 0.000000
#
# Coordination Sequence:
#
# PCOD9222036 Si02
#       6
#     8   4   4   8   8   8
#     4  11  24  43  65 101 140 183 219 269 326 398
#     4  12  26  44  65 100 134 180 229 276 330 390
#     4  12  26  40  68  98 138 188 224 264 328 406
#     4  11  25  46  71  97 130 174 222 284 349 399
#     4  11  24  42  65  97 134 173 220 277 329 398
#     4  11  25  45  68  98 139 173 225 282 332 395
#
# _framework density 20.584655000000001
#
# number of rings (size 3 to 8) (size 9 to 14) (size 15 to 20)
#    0.000    0.800    3.000    4.200    4.200    3.200 
#    0.000    3.000    0.000    0.000    0.000    0.000 
#    0.000    0.000    0.000    0.000    0.000    0.000 
#
# Total GULP energy -111912.712955 kJ/mol
# GULP energy per Si atom -5595.635648 kJ/mol
# Density = 2.053780 g / cm^3
# Si number density = 20.584655 Si / 1000 Ang^3
#
#
#
# Elastic Constant Matrix: (Units=GPa)
#
#
# Indices 1 2 3 4 5 6 
#
# 1 135.4366 71.3279 40.2667 -0.0016 -6.9299 -0.0020
# 2 71.3279 103.6596 42.0215 0.0009 30.6721 0.0020
# 3 40.2667 42.0215 130.7046 -0.0066 16.9911 -0.0027
# 4 -0.0016 0.0009 -0.0066 14.1755 -0.0033 19.9215
# 5 -6.9299 30.6721 16.9911 -0.0033 29.3912 -0.0033
# 6 -0.0020 0.0020 -0.0027 19.9215 -0.0033 32.9919
#
#
#
# Elastic Compliance Matrix: (Units=1/GPa)
#
#
# Indices 1 2 3 4 5 6 
#
# 1 0.022269 -0.023234 -0.003487 0.000011 0.031513 -0.000001
# 2 -0.023234 0.039218 0.000629 -0.000025 -0.046769 0.000007
# 3 -0.003487 0.000629 0.009423 0.000017 -0.006926 -0.000011
# 4 0.000011 -0.000025 0.000017 0.465904 0.000040 -0.281326
# 5 0.031513 -0.046769 -0.006926 0.000040 0.094265 -0.000010
# 6 -0.000001 0.000007 -0.000011 -0.281326 -0.000010 0.200183
#
#
# Mechanical properties :
#
#
# Convention : Reuss Voigt Hill
#
# Bulk Modulus (GPa) = 53.40334 75.22587 64.31460
# Shear Modulus (GPa) = 5.61994 29.72405 17.67199
#
# Velocity S-wave (km/s) = 1.65411 3.80411 2.93320
# Velocity P-wave (km/s) = 5.44497 7.47790 6.54090
#
# Compressibility (1/GPa) = 0.01872542
#
# Stress axis : x y z
#
# Youngs Moduli (GPa) = 44.90518 25.49855 106.11909
#
# Poissons Ratio (x) = 0.59244 0.37008
# Poissons Ratio (y) = 1.04334 -0.06676
# Poissons Ratio (z) = 0.15660 -0.01604
#
# Static dielectric constant tensor:
#      x y z
#    x 1.729880 0.000000 -0.006920 
#    y 0.000000 1.751070 0.000000 
#    z -0.006920 0.000000 1.702890 
# 
# From -- ./inp_files/219208.got.cif
#   From: 2010.05.17/outbox.cif.g08.bks.cpg/sg12_110_cif.got.tgz:219208.got - 2010.06.03 13:09:07.
