data_PCOD9222203
_publ_section_title
;
Structure prediction by ZEFSAII (Michael W. Deem and Ramdas Pophale) SiO2 
 PCOD9222203
Probable space group: C 2/M
;
_chemical_formula_sum "Si O2"
_cell_formula_units_Z 30
_cell_length_a 8.040163
_cell_length_b 14.165722
_cell_length_c 12.123536
_cell_angle_alpha 90.000000
_cell_angle_beta 117.615406
_cell_angle_gamma 90.000000
_cell_volume 1223.503752
_symmetry_space_group_name_H-M "C 2/M"
_symmetry_group_IT_number 12
_symmetry_cell_setting 'monoclinic'
loop_
_space_group_symop_operation_xyz
x,y,z
-x,y,-z
-x,-y,-z
x,-y,z
1/2+x,1/2+y,z
1/2-x,1/2+y,-z
1/2-x,1/2-y,-z
1/2+x,1/2-y,z
loop_
_atom_site_type_symbol
_atom_site_label
_atom_site_fract_x
_atom_site_fract_y
_atom_site_fract_z
Si Si1 0.817060 0.500000 0.089570
Si Si2 0.500000 0.154295 0.000000
Si Si3 0.000000 0.500000 0.500000
Si Si4 0.360447 0.681376 0.240223
Si Si5 0.034848 0.000000 0.184361
Si Si6 0.651960 0.169607 0.396927
O O1 0.739737 0.500000 0.190234
O O2 0.935035 0.588115 0.081608
O O3 0.630320 0.500000 0.957147
O O4 0.686571 0.202854 0.103787
O O5 0.100486 0.582176 0.455402
O O6 0.493883 0.597472 0.235703
O O7 0.969887 0.722643 0.293356
O O8 0.281576 0.646169 0.332628
O O9 0.750000 0.250000 0.500000
#
# Coordination Sequence:
#
# PCOD9222203 Si02
#       6
#     4   4   2   8   4   8
#     4   8  16  37  66 112 159 204 257 286 397 466
#     4   9  20  40  72 111 164 208 242 321 386 479
#     4  12  26  52  86 100 154 206 252 352 396 440
#     4  11  24  45  73 113 159 199 266 316 390 478
#     4   9  19  39  73 110 153 205 250 327 366 465
#     4  12  26  51  77 113 149 205 273 327 392 464
#
# _framework density 24.519746000000001
#
# number of rings (size 3 to 8) (size 9 to 14) (size 15 to 20)
#    0.000    1.600    2.667    1.600    0.000    4.267 
#    4.800    5.333    0.000    0.800    0.000    0.000 
#    0.000    0.000    0.000    0.000    0.000    0.000 
#
# Total GULP energy -83795.814282 kJ/mol
# GULP energy per Si atom -5586.387619 kJ/mol
# Density = 2.446394 g / cm^3
# Si number density = 24.519746 Si / 1000 Ang^3
#
#
#
# Elastic Constant Matrix: (Units=GPa)
#
#
# Indices 1 2 3 4 5 6 
#
# 1 170.9240 78.5238 52.2469 0.0000 -45.4412 0.0000
# 2 78.5238 184.0253 65.8765 0.0000 -9.7017 0.0000
# 3 52.2469 65.8765 94.9259 0.0000 3.9353 0.0000
# 4 0.0000 0.0000 0.0000 12.1767 0.0000 -25.8146
# 5 -45.4412 -9.7017 3.9353 0.0000 67.6256 0.0000
# 6 0.0000 0.0000 0.0000 -25.8146 0.0000 17.9532
#
#
#
# Elastic Compliance Matrix: (Units=1/GPa)
#
#
# Indices 1 2 3 4 5 6 
#
# 1 0.009968 -0.002454 -0.004056 0.000000 0.006582 0.000000
# 2 -0.002454 0.007956 -0.004160 0.000000 -0.000266 0.000000
# 3 -0.004056 -0.004160 0.015829 0.000000 -0.004243 0.000000
# 4 0.000000 0.000000 0.000000 -0.040094 0.000000 -0.057650
# 5 0.006582 -0.000266 -0.004243 0.000000 0.019419 0.000000
# 6 0.000000 0.000000 0.000000 -0.057650 0.000000 -0.027193
#
#
# Mechanical properties :
#
#
# Convention : Reuss Voigt Hill
#
# Bulk Modulus (GPa) = 80.55485 93.68552 87.12018
# Shear Modulus (GPa) = 440.04053 36.43297 238.23675
#
# Velocity S-wave (km/s) = 13.41094 3.85887 9.86773
# Velocity P-wave (km/s) = 16.51450 7.62533 12.86224
#
# Compressibility (1/GPa) = 0.01241390
#
# Stress axis : x y z
#
# Youngs Moduli (GPa) = 100.32505 125.68567 63.17357
#
# Poissons Ratio (x) = 0.30848 0.25621
# Poissons Ratio (y) = 0.24623 0.26278
# Poissons Ratio (z) = 0.40689 0.52281
#
# Static dielectric constant tensor:
#      x y z
#    x 1.996510 0.000000 0.040390 
#    y 0.000000 1.871240 0.000000 
#    z 0.040390 0.000000 2.052920 
# 
# From -- ./inp_files/118718.got.cif
#   From: 2010.05.17/outbox.cif.g08.bks.cpg/sg12_60_cif.got.tgz:118718.got - 2010.06.03 13:09:07.
