data_PCOD9222974
_publ_section_title
;
Structure prediction by ZEFSAII (Michael W. Deem and Ramdas Pophale) SiO2 
 PCOD9222974
Probable space group: C 2/M
;
_chemical_formula_sum "Si O2"
_cell_formula_units_Z 48
_cell_length_a 20.857134
_cell_length_b 7.506430
_cell_length_c 22.042863
_cell_angle_alpha 90.000000
_cell_angle_beta 45.036714
_cell_angle_gamma 90.000000
_cell_volume 2441.851129
_symmetry_space_group_name_H-M "C 2/M"
_symmetry_group_IT_number 12
_symmetry_cell_setting 'monoclinic'
loop_
_space_group_symop_operation_xyz
x,y,z
-x,y,-z
-x,-y,-z
x,-y,z
1/2+x,1/2+y,z
1/2-x,1/2+y,-z
1/2-x,1/2-y,-z
1/2+x,1/2-y,z
loop_
_atom_site_type_symbol
_atom_site_label
_atom_site_fract_x
_atom_site_fract_y
_atom_site_fract_z
Si Si1 0.351889 0.718045 0.098412
Si Si2 0.355939 0.786989 0.429181
Si Si3 0.854726 0.717406 0.764749
Si Si4 0.998851 0.717504 0.431625
Si Si5 0.498952 0.786367 0.236907
Si Si6 0.499043 0.288132 0.095044
O O1 0.348608 0.500000 0.100631
O O2 0.248521 0.779587 0.166872
O O3 0.410122 0.775905 0.118182
O O4 0.411508 0.775956 0.000481
O O5 0.250000 0.750000 0.500000
O O6 0.411106 0.724035 0.451594
O O7 0.411045 0.721175 0.333210
O O8 0.364971 0.000000 0.423240
O O9 0.853243 0.500000 0.766219
O O10 0.913424 0.769553 0.666590
O O11 0.912626 0.775199 0.784808
O O12 0.998094 0.500000 0.433526
O O13 0.000000 0.779445 0.500000
O O14 0.498663 0.744491 0.166482
O O15 0.499097 0.000000 0.241023
O O16 0.499107 0.500000 0.086580
#
# Coordination Sequence:
#
# PCOD9222974 Si02
#       6
#     8   8   8   8   8   8
#     4   8  15  28  44  64  90 117 147 184 222 256
#     4   9  18  31  46  66  91 116 144 181 222 262
#     4   8  14  26  43  61  86 119 147 176 217 258
#     4   8  14  25  42  65  88 110 145 187 216 248
#     4   9  18  31  45  64  91 119 146 178 218 264
#     4   9  17  29  46  68  91 114 145 185 222 258
#
# _framework density 19.657216999999999
#
# number of rings (size 3 to 8) (size 9 to 14) (size 15 to 20)
#    0.000    3.500    0.000    3.000    0.000    2.667 
#    0.000    5.000    0.000    1.500    0.000    0.000 
#    0.000    0.000    0.000    0.000    0.000    0.000 
#
# Total GULP energy -133759.980949 kJ/mol
# GULP energy per Si atom -5573.332540 kJ/mol
# Density = 1.961248 g / cm^3
# Si number density = 19.657217 Si / 1000 Ang^3
#
#
#
# Elastic Constant Matrix: (Units=GPa)
#
#
# Indices 1 2 3 4 5 6 
#
# 1 194.9394 4.0351 171.3112 -0.0002 -8.0795 0.0001
# 2 4.0351 46.5872 2.6251 0.0000 -2.0941 0.0004
# 3 171.3112 2.6251 186.7282 0.0000 2.9864 0.0000
# 4 -0.0002 0.0000 0.0000 14.0014 0.0001 5.4825
# 5 -8.0795 -2.0941 2.9864 0.0001 47.4127 -0.0002
# 6 0.0001 0.0004 0.0000 5.4825 -0.0002 8.9963
#
#
#
# Elastic Compliance Matrix: (Units=1/GPa)
#
#
# Indices 1 2 3 4 5 6 
#
# 1 0.028350 -0.000695 -0.026103 0.000001 0.006445 -0.000001
# 2 -0.000695 0.021544 0.000322 0.000000 0.000813 -0.000001
# 3 -0.026103 0.000322 0.029399 -0.000001 -0.006286 0.000001
# 4 0.000001 0.000000 -0.000001 0.093807 0.000000 -0.057168
# 5 0.006445 0.000813 -0.006286 0.000000 0.022621 0.000000
# 6 -0.000001 -0.000001 0.000001 -0.057168 0.000000 0.145997
#
#
# Mechanical properties :
#
#
# Convention : Reuss Voigt Hill
#
# Bulk Modulus (GPa) = 37.96384 87.13308 62.54846
# Shear Modulus (GPa) = 12.39307 30.76763 21.58035
#
# Velocity S-wave (km/s) = 2.51362 3.96056 3.31695
# Velocity P-wave (km/s) = 5.27060 8.08314 6.82336
#
# Compressibility (1/GPa) = 0.02634085
#
# Stress axis : x y z
#
# Youngs Moduli (GPa) = 35.27295 46.41724 34.01460
#
# Poissons Ratio (x) = 0.03226 0.88788
# Poissons Ratio (y) = 0.02451 -0.01094
# Poissons Ratio (z) = 0.92073 -0.01493
#
# Static dielectric constant tensor:
#      x y z
#    x 1.674460 0.000000 -0.001010 
#    y 0.000000 1.770620 0.000000 
#    z -0.001010 0.000000 1.683680 
# 
# From -- ./inp_files/222399.got.cif
#   From: 2010.05.17/outbox.cif.g08.bks.cpg/sg12_112_cif.got.tgz:222399.got - 2010.06.03 13:09:07.
