data_PCOD9222142
_publ_section_title
;
Structure prediction by ZEFSAII (Michael W. Deem and Ramdas Pophale) SiO2 
 PCOD9222142
Probable space group: C 2/M
;
_chemical_formula_sum "Si O2"
_cell_formula_units_Z 32
_cell_length_a 14.867254
_cell_length_b 7.785303
_cell_length_c 16.306226
_cell_angle_alpha 90.000000
_cell_angle_beta 127.908937
_cell_angle_gamma 90.000000
_cell_volume 1489.121996
_symmetry_space_group_name_H-M "C 2/M"
_symmetry_group_IT_number 12
_symmetry_cell_setting 'monoclinic'
loop_
_space_group_symop_operation_xyz
x,y,z
-x,y,-z
-x,-y,-z
x,-y,z
1/2+x,1/2+y,z
1/2-x,1/2+y,-z
1/2-x,1/2-y,-z
1/2+x,1/2-y,z
loop_
_atom_site_type_symbol
_atom_site_label
_atom_site_fract_x
_atom_site_fract_y
_atom_site_fract_z
Si Si1 0.659102 0.301437 0.701812
Si Si2 0.321367 0.500000 0.856538
Si Si3 0.739550 0.295494 0.399278
Si Si4 0.069717 0.000000 0.910355
Si Si5 0.985440 0.696469 0.236876
O O1 0.685379 0.500000 0.733232
O O2 0.751883 0.168419 0.790111
O O3 0.662193 0.271855 0.606045
O O4 0.545607 0.250634 0.687519
O O5 0.443683 0.500000 0.880497
O O6 0.343137 0.500000 0.965821
O O7 0.733192 0.500000 0.387375
O O8 0.750000 0.250000 0.500000
O O9 0.620558 0.215978 0.301764
O O10 0.076044 0.831533 0.857076
O O11 0.951618 0.500000 0.203946
#
# Coordination Sequence:
#
# PCOD9222142 Si02
#       5
#     8   4   8   4   8
#     4  12  23  43  67  95 135 173 214 273 324 384
#     4  11  24  44  68  94 132 176 218 271 326 385
#     4  12  24  44  68  98 131 171 220 268 326 393
#     4  11  24  44  68  94 132 176 218 271 326 385
#     4  12  23  43  67  95 135 173 214 273 324 384
#
# _framework density 21.489173999999998
#
# number of rings (size 3 to 8) (size 9 to 14) (size 15 to 20)
#    0.000    0.250    7.500    2.250    0.000    3.000 
#    0.000    7.500    0.000    0.000    0.000    0.000 
#    0.000    0.000    0.000    0.000    0.000    0.000 
#
# Total GULP energy -89520.287456 kJ/mol
# GULP energy per Si atom -5595.017966 kJ/mol
# Density = 2.144026 g / cm^3
# Si number density = 21.489174 Si / 1000 Ang^3
#
#
#
# Elastic Constant Matrix: (Units=GPa)
#
#
# Indices 1 2 3 4 5 6 
#
# 1 92.9563 19.7505 2.6636 0.0000 -33.1860 0.0000
# 2 19.7505 209.7715 32.2956 0.0000 -15.8307 0.0000
# 3 2.6636 32.2956 78.2630 0.0000 -32.8900 0.0000
# 4 0.0000 0.0000 0.0000 27.0434 0.0000 -10.2631
# 5 -33.1860 -15.8307 -32.8900 0.0000 37.7626 0.0000
# 6 0.0000 0.0000 0.0000 -10.2631 0.0000 33.5751
#
#
#
# Elastic Compliance Matrix: (Units=1/GPa)
#
#
# Indices 1 2 3 4 5 6 
#
# 1 0.020546 -0.001636 0.011476 0.000000 0.027366 0.000000
# 2 -0.001636 0.005226 -0.002815 0.000000 -0.001698 0.000000
# 3 0.011476 -0.002815 0.027274 0.000000 0.032660 0.000000
# 4 0.000000 0.000000 0.000000 0.041830 0.000000 0.012787
# 5 0.027366 -0.001698 0.032660 0.000000 0.078265 0.000000
# 6 0.000000 0.000000 0.000000 0.012787 0.000000 0.033693
#
#
# Mechanical properties :
#
#
# Convention : Reuss Voigt Hill
#
# Bulk Modulus (GPa) = 14.90367 54.49004 34.69686
# Shear Modulus (GPa) = 23.23975 41.42828 32.33402
#
# Velocity S-wave (km/s) = 3.29213 4.39551 3.88321
# Velocity P-wave (km/s) = 4.62615 7.15351 6.02387
#
# Compressibility (1/GPa) = 0.06709755
#
# Stress axis : x y z
#
# Youngs Moduli (GPa) = 48.67042 191.33955 36.66520
#
# Poissons Ratio (x) = 0.31306 -0.42079
# Poissons Ratio (y) = 0.07963 0.10320
# Poissons Ratio (z) = -0.55856 0.53858
#
# Static dielectric constant tensor:
#      x y z
#    x 1.803170 0.000000 -0.033260 
#    y 0.000000 1.736460 0.000000 
#    z -0.033260 0.000000 1.770100 
# 
# From -- ./inp_files/211028.got.cif
#   From: 2010.05.17/outbox.cif.g08.bks.cpg/sg12_106_cif.got.tgz:211028.got - 2010.06.03 13:09:07.
