data_PCOD9222052
_publ_section_title
;
Structure prediction by ZEFSAII (Michael W. Deem and Ramdas Pophale) SiO2 
 PCOD9222052
Probable space group: C 2/M
;
_chemical_formula_sum "Si O2"
_cell_formula_units_Z 48
_cell_length_a 29.498795
_cell_length_b 8.529580
_cell_length_c 16.281661
_cell_angle_alpha 90.000000
_cell_angle_beta 36.002443
_cell_angle_gamma 90.000000
_cell_volume 2408.101577
_symmetry_space_group_name_H-M "C 2/M"
_symmetry_group_IT_number 12
_symmetry_cell_setting 'monoclinic'
loop_
_space_group_symop_operation_xyz
x,y,z
-x,y,-z
-x,-y,-z
x,-y,z
1/2+x,1/2+y,z
1/2-x,1/2+y,-z
1/2-x,1/2-y,-z
1/2+x,1/2-y,z
loop_
_atom_site_type_symbol
_atom_site_label
_atom_site_fract_x
_atom_site_fract_y
_atom_site_fract_z
Si Si1 0.166035 0.184011 0.105480
Si Si2 0.670586 0.186758 0.576717
Si Si3 0.197706 0.812944 0.355847
Si Si4 0.011805 0.817322 0.884922
Si Si5 0.357838 0.815239 0.036822
Si Si6 0.413112 0.814585 0.624404
O O1 0.114998 0.281845 0.242815
O O2 0.160882 0.000000 0.131637
O O3 0.250000 0.250000 0.000000
O O4 0.147960 0.217255 0.037842
O O5 0.750000 0.250000 0.500000
O O6 0.672403 0.232456 0.477703
O O7 0.595024 0.257663 0.732060
O O8 0.668381 0.000000 0.588841
O O9 0.285966 0.771316 0.201304
O O10 0.142261 0.765512 0.361482
O O11 0.194377 0.000000 0.372326
O O12 0.003895 0.000000 0.872199
O O13 0.000000 0.807986 0.000000
O O14 0.941383 0.718343 0.951354
O O15 0.348771 0.000000 0.031601
O O16 0.500000 0.753619 0.500000
O O17 0.413003 0.000000 0.606600
#
# Coordination Sequence:
#
# PCOD9222052 Si02
#       6
#     8   8   8   8   8   8
#     4  12  24  41  66  95 131 174 222 273 325 386
#     4  12  26  45  70  98 134 173 216 268 326 390
#     4  11  24  43  68  97 132 173 220 269 327 390
#     4  11  25  45  70 100 132 169 216 268 326 388
#     4  11  24  42  67  98 132 171 218 269 327 389
#     4  11  25  43  65  94 133 175 221 272 328 389
#
# _framework density 19.932713
#
# number of rings (size 3 to 8) (size 9 to 14) (size 15 to 20)
#    0.000    0.667    1.667    6.000    2.333    7.333 
#    0.000    0.000    0.000    0.000    0.000    0.000 
#    0.000    0.000    0.000    0.000    0.000    0.000 
#
# Total GULP energy -134227.345499 kJ/mol
# GULP energy per Si atom -5592.806062 kJ/mol
# Density = 1.988735 g / cm^3
# Si number density = 19.932713 Si / 1000 Ang^3
#
#
#
# Elastic Constant Matrix: (Units=GPa)
#
#
# Indices 1 2 3 4 5 6 
#
# 1 54.7894 14.9804 34.2611 0.0016 -9.9521 -0.0008
# 2 14.9804 45.3490 7.8927 0.0010 -3.5348 -0.0011
# 3 34.2611 7.8927 156.9728 0.0015 -16.4102 -0.0009
# 4 0.0016 0.0010 0.0015 26.6879 -0.0009 4.2123
# 5 -9.9521 -3.5348 -16.4102 -0.0009 39.6070 0.0005
# 6 -0.0008 -0.0011 -0.0009 4.2123 0.0005 34.2648
#
#
#
# Elastic Compliance Matrix: (Units=1/GPa)
#
#
# Indices 1 2 3 4 5 6 
#
# 1 0.023486 -0.006718 -0.004426 -0.000001 0.003468 0.000000
# 2 -0.006718 0.024264 0.000310 -0.000001 0.000606 0.000001
# 3 -0.004426 0.000310 0.007534 0.000000 0.002037 0.000000
# 4 -0.000001 -0.000001 0.000000 0.038212 0.000001 -0.004697
# 5 0.003468 0.000606 0.002037 0.000001 0.027018 0.000000
# 6 0.000000 0.000001 0.000000 -0.004697 0.000000 0.029762
#
#
# Mechanical properties :
#
#
# Convention : Reuss Voigt Hill
#
# Bulk Modulus (GPa) = 29.74796 41.26440 35.50618
# Shear Modulus (GPa) = 27.30041 33.44374 30.37207
#
# Velocity S-wave (km/s) = 3.70486 4.10058 3.90773
# Velocity P-wave (km/s) = 5.76697 6.57012 6.18160
#
# Compressibility (1/GPa) = 0.03361575
#
# Stress axis : x y z
#
# Youngs Moduli (GPa) = 42.57870 41.21399 132.73356
#
# Poissons Ratio (x) = 0.27686 0.58744
# Poissons Ratio (y) = 0.28603 -0.04109
# Poissons Ratio (z) = 0.18844 -0.01276
#
# Static dielectric constant tensor:
#      x y z
#    x 1.653980 0.000000 0.011380 
#    y 0.000000 1.663560 0.000000 
#    z 0.011380 0.000000 1.611210 
# 
# From -- ./inp_files/244605.got.cif
#   From: 2010.05.17/outbox.cif.g08.bks.cpg/sg12_123_cif.got.tgz:244605.got - 2010.06.03 13:09:07.
