data_PCOD9222229
_publ_section_title
;
Structure prediction by ZEFSAII (Michael W. Deem and Ramdas Pophale) SiO2 
 PCOD9222229
Probable space group: C 2/M
;
_chemical_formula_sum "Si O2"
_cell_formula_units_Z 40
_cell_length_a 14.056178
_cell_length_b 23.701972
_cell_length_c 5.082371
_cell_angle_alpha 90.000000
_cell_angle_beta 108.933016
_cell_angle_gamma 90.000000
_cell_volume 1601.631686
_symmetry_space_group_name_H-M "C 2/M"
_symmetry_group_IT_number 12
_symmetry_cell_setting 'monoclinic'
loop_
_space_group_symop_operation_xyz
x,y,z
-x,y,-z
-x,-y,-z
x,-y,z
1/2+x,1/2+y,z
1/2-x,1/2+y,-z
1/2-x,1/2-y,-z
1/2+x,1/2-y,z
loop_
_atom_site_type_symbol
_atom_site_label
_atom_site_fract_x
_atom_site_fract_y
_atom_site_fract_z
Si Si1 0.819618 0.500000 0.738606
Si Si2 0.113558 0.269200 0.135266
Si Si3 0.397133 0.887998 0.569506
Si Si4 0.685390 0.500000 0.110030
Si Si5 0.432509 0.610261 0.182811
Si Si6 0.243882 0.824675 0.138495
O O1 0.881052 0.442892 0.732884
O O2 0.781058 0.500000 0.000509
O O3 0.725313 0.500000 0.446545
O O4 0.104802 0.327476 0.287282
O O5 0.182518 0.216207 0.279738
O O6 0.167137 0.289164 0.914265
O O7 0.000000 0.250400 0.000000
O O8 0.500000 0.893193 0.500000
O O9 0.297625 0.879590 0.303605
O O10 0.617685 0.553071 0.966980
O O11 0.500000 0.603081 0.500000
O O12 0.500000 0.629932 0.000000
O O13 0.340163 0.653566 0.140558
#
# Coordination Sequence:
#
# PCOD9222229 Si02
#       6
#     4   8   8   4   8   8
#     4  12  27  45  82 108 153 199 254 309 383 442
#     4  11  24  47  72 106 145 198 248 310 378 447
#     4  12  25  47  74 109 147 200 248 315 374 451
#     4  12  24  49  73 106 153 201 244 320 377 439
#     4  12  26  46  74 110 149 199 255 308 379 449
#     4  11  25  46  72 104 149 193 248 312 375 444
#
# _framework density 24.974533000000001
#
# number of rings (size 3 to 8) (size 9 to 14) (size 15 to 20)
#    0.000    0.400    4.000    4.500    2.800    0.000 
#    7.200    1.500    0.000    0.000    0.000    0.000 
#    0.000    0.000    0.000    0.000    0.000    0.000 
#
# Total GULP energy -111981.508768 kJ/mol
# GULP energy per Si atom -5599.075438 kJ/mol
# Density = 2.491769 g / cm^3
# Si number density = 24.974533 Si / 1000 Ang^3
#
#
#
# Elastic Constant Matrix: (Units=GPa)
#
#
# Indices 1 2 3 4 5 6 
#
# 1 152.6662 45.4749 14.8250 0.0000 8.4427 0.0000
# 2 45.4749 136.1125 2.8247 0.0000 7.4581 0.0000
# 3 14.8250 2.8247 68.9643 0.0000 15.0528 0.0000
# 4 0.0000 0.0000 0.0000 45.3809 0.0000 8.0229
# 5 8.4427 7.4581 15.0528 0.0000 37.0477 0.0000
# 6 0.0000 0.0000 0.0000 8.0229 0.0000 58.3517
#
#
#
# Elastic Compliance Matrix: (Units=1/GPa)
#
#
# Indices 1 2 3 4 5 6 
#
# 1 0.007440 -0.002421 -0.001357 0.000000 -0.000657 0.000000
# 2 -0.002421 0.008217 0.000466 0.000000 -0.001292 0.000000
# 3 -0.001357 0.000466 0.016159 0.000000 -0.006350 0.000000
# 4 0.000000 0.000000 0.000000 0.022585 0.000000 -0.003105
# 5 -0.000657 -0.001292 -0.006350 0.000000 0.029982 0.000000
# 6 0.000000 0.000000 0.000000 -0.003105 0.000000 0.017564
#
#
# Mechanical properties :
#
#
# Convention : Reuss Voigt Hill
#
# Bulk Modulus (GPa) = 39.69695 53.77693 46.73694
# Shear Modulus (GPa) = 42.74674 47.79727 45.27200
#
# Velocity S-wave (km/s) = 4.14165 4.37949 4.26223
# Velocity P-wave (km/s) = 6.22901 6.86678 6.55566
#
# Compressibility (1/GPa) = 0.02519085
#
# Stress axis : x y z
#
# Youngs Moduli (GPa) = 134.41632 121.69952 61.88556
#
# Poissons Ratio (x) = 0.29468 0.08396
# Poissons Ratio (y) = 0.32548 -0.02883
# Poissons Ratio (z) = 0.18237 -0.05670
#
# Static dielectric constant tensor:
#      x y z
#    x 1.963870 0.000000 0.062810 
#    y 0.000000 1.994630 0.000000 
#    z 0.062810 0.000000 2.062830 
# 
# From -- ./inp_files/11718.got.cif
#   From: 2010.05.17/outbox.cif.g08.bks.cpg/sg12_6_cif.got.tgz:11718.got - 2010.06.03 13:09:07.
