data_PCOD9222231
_publ_section_title
;
Structure prediction by ZEFSAII (Michael W. Deem and Ramdas Pophale) SiO2 
 PCOD9222231
Probable space group: C 2/M
;
_chemical_formula_sum "Si O2"
_cell_formula_units_Z 48
_cell_length_a 13.358995
_cell_length_b 13.652042
_cell_length_c 10.348686
_cell_angle_alpha 90.000000
_cell_angle_beta 74.579988
_cell_angle_gamma 90.000000
_cell_volume 1819.427753
_symmetry_space_group_name_H-M "C 2/M"
_symmetry_group_IT_number 12
_symmetry_cell_setting 'monoclinic'
loop_
_space_group_symop_operation_xyz
x,y,z
-x,y,-z
-x,-y,-z
x,-y,z
1/2+x,1/2+y,z
1/2-x,1/2+y,-z
1/2-x,1/2-y,-z
1/2+x,1/2-y,z
loop_
_atom_site_type_symbol
_atom_site_label
_atom_site_fract_x
_atom_site_fract_y
_atom_site_fract_z
Si Si1 0.097443 0.603750 0.637611
Si Si2 0.898571 0.174635 0.358386
Si Si3 0.880416 0.820865 0.079828
Si Si4 0.862619 0.605337 0.683617
Si Si5 0.712496 0.108058 0.930973
Si Si6 0.644292 0.671249 0.337195
O O1 0.137749 0.500000 0.673251
O O2 0.132620 0.712269 0.655686
O O3 0.975284 0.605709 0.712389
O O4 0.112379 0.601181 0.478104
O O5 0.021627 0.165383 0.344533
O O6 0.873408 0.133059 0.227168
O O7 0.675010 0.216478 0.291256
O O8 0.861856 0.702681 0.063268
O O9 0.791809 0.868863 0.021069
O O10 0.000000 0.839424 0.000000
O O11 0.814190 0.500000 0.731315
O O12 0.653301 0.645918 0.487022
O O13 0.787490 0.107963 0.780641
O O14 0.664448 0.000000 0.964574
#
# Coordination Sequence:
#
# PCOD9222231 Si02
#       6
#     8   8   8   8   8   8
#     4   7  10  18  38  74 118 159 202 248 311 383
#     4   9  17  33  64 100 134 181 226 282 346 411
#     4  11  24  47  74 100 137 186 239 288 349 422
#     4   7  10  19  41  76 119 161 198 247 314 384
#     4  11  26  47  71 101 140 184 236 295 351 417
#     4   9  17  35  62 101 141 177 222 288 349 412
#
# _framework density 26.381921999999999
#
# number of rings (size 3 to 8) (size 9 to 14) (size 15 to 20)
#    0.000    3.000    1.667    3.000    0.000    2.000 
#    0.000    5.833    0.000    0.000    0.000    0.000 
#    0.000    0.000    0.000    0.000    0.000    0.000 
#
# Total GULP energy -134034.392440 kJ/mol
# GULP energy per Si atom -5584.766352 kJ/mol
# Density = 2.632188 g / cm^3
# Si number density = 26.381922 Si / 1000 Ang^3
#
#
#
# Elastic Constant Matrix: (Units=GPa)
#
#
# Indices 1 2 3 4 5 6 
#
# 1 85.9272 -4.6092 35.8412 0.0000 12.0667 0.0000
# 2 -4.6092 106.2908 18.2244 0.0000 -1.9144 0.0000
# 3 35.8412 18.2244 181.2215 0.0000 29.6074 0.0000
# 4 0.0000 0.0000 0.0000 17.0090 0.0000 -3.7662
# 5 12.0667 -1.9144 29.6074 0.0000 33.6513 0.0000
# 6 0.0000 0.0000 0.0000 -3.7662 0.0000 18.4144
#
#
#
# Elastic Compliance Matrix: (Units=1/GPa)
#
#
# Indices 1 2 3 4 5 6 
#
# 1 0.012986 0.000897 -0.002226 0.000000 -0.002647 0.000000
# 2 0.000897 0.009712 -0.001392 0.000000 0.001455 0.000000
# 3 -0.002226 -0.001392 0.006985 0.000000 -0.005426 0.000000
# 4 0.000000 0.000000 0.000000 0.061581 0.000000 0.012595
# 5 -0.002647 0.001455 -0.005426 0.000000 0.035523 0.000000
# 6 0.000000 0.000000 0.000000 0.012595 0.000000 0.056881
#
#
# Mechanical properties :
#
#
# Convention : Reuss Voigt Hill
#
# Bulk Modulus (GPa) = 41.25200 52.48360 46.86780
# Shear Modulus (GPa) = 25.35623 35.41382 30.38503
#
# Velocity S-wave (km/s) = 3.10356 3.66779 3.39741
# Velocity P-wave (km/s) = 5.33977 6.15417 5.76138
#
# Compressibility (1/GPa) = 0.02424125
#
# Stress axis : x y z
#
# Youngs Moduli (GPa) = 77.00522 102.96627 143.16566
#
# Poissons Ratio (x) = -0.09238 0.31870
# Poissons Ratio (y) = -0.06908 0.19927
# Poissons Ratio (z) = 0.17142 0.14332
#
# Static dielectric constant tensor:
#      x y z
#    x 2.192720 0.000000 0.010940 
#    y 0.000000 2.043310 0.000000 
#    z 0.010940 0.000000 2.106080 
# 
# From -- ./inp_files/204452.got.cif
#   From: 2010.05.17/outbox.cif.g08.bks.cpg/sg12_103_cif.got.tgz:204452.got - 2010.06.03 13:09:07.
