data_PCOD9222271
_publ_section_title
;
Structure prediction by ZEFSAII (Michael W. Deem and Ramdas Pophale) SiO2 
 PCOD9222271
Probable space group: C 2/M
;
_chemical_formula_sum "Si O2"
_cell_formula_units_Z 44
_cell_length_a 12.432652
_cell_length_b 22.355042
_cell_length_c 9.521986
_cell_angle_alpha 90.000000
_cell_angle_beta 64.273742
_cell_angle_gamma 90.000000
_cell_volume 2384.146165
_symmetry_space_group_name_H-M "C 2/M"
_symmetry_group_IT_number 12
_symmetry_cell_setting 'monoclinic'
loop_
_space_group_symop_operation_xyz
x,y,z
-x,y,-z
-x,-y,-z
x,-y,z
1/2+x,1/2+y,z
1/2-x,1/2+y,-z
1/2-x,1/2-y,-z
1/2+x,1/2-y,z
loop_
_atom_site_type_symbol
_atom_site_label
_atom_site_fract_x
_atom_site_fract_y
_atom_site_fract_z
Si Si1 0.279040 0.180664 0.946097
Si Si2 0.884646 0.931426 0.462299
Si Si3 0.457897 0.218527 0.235820
Si Si4 0.411611 0.648266 0.167178
Si Si5 0.222138 0.153057 0.272771
Si Si6 0.000000 0.233451 0.500000
O O1 0.422197 0.181282 0.859394
O O2 0.214148 0.161439 0.839536
O O3 0.250000 0.250000 0.000000
O O4 0.226536 0.141754 0.104182
O O5 0.900829 0.890520 0.314736
O O6 0.784365 0.902927 0.619586
O O7 0.000000 0.929989 0.500000
O O8 0.862478 0.000000 0.435317
O O9 0.465672 0.286502 0.174573
O O10 0.341636 0.189501 0.236661
O O11 0.444934 0.226619 0.409297
O O12 0.500000 0.620962 0.000000
O O13 0.106602 0.193309 0.376518
#
# Coordination Sequence:
#
# PCOD9222271 Si02
#       6
#     8   8   8   8   8   4
#     4  12  22  36  57  94 131 159 193 237 308 383
#     4  11  25  43  62  85 116 163 217 259 298 343
#     4  12  22  34  58  93 130 161 190 238 313 382
#     4  12  21  36  61  90 128 157 194 253 307 366
#     4  12  22  38  60  87 126 164 197 247 306 366
#     4  12  20  32  55  94 123 158 194 242 302 372
#
# _framework density 18.455244
#
# number of rings (size 3 to 8) (size 9 to 14) (size 15 to 20)
#    0.000    0.182    8.182    2.182    2.545    0.364 
#    0.000    0.909    0.000    4.364    0.000    0.000 
#    0.000    0.000    0.000    0.000    0.000    0.000 
#
# Total GULP energy -122907.831406 kJ/mol
# GULP energy per Si atom -5586.719609 kJ/mol
# Density = 1.841324 g / cm^3
# Si number density = 18.455244 Si / 1000 Ang^3
#
#
#
# Elastic Constant Matrix: (Units=GPa)
#
#
# Indices 1 2 3 4 5 6 
#
# 1 116.7692 22.7760 41.4280 0.0000 3.6864 0.0000
# 2 22.7760 74.2990 44.2964 0.0000 6.8716 0.0000
# 3 41.4280 44.2964 113.3279 0.0000 19.3668 0.0000
# 4 0.0000 0.0000 0.0000 11.3550 0.0000 4.9794
# 5 3.6864 6.8716 19.3668 0.0000 41.7026 0.0000
# 6 0.0000 0.0000 0.0000 4.9794 0.0000 15.2815
#
#
#
# Elastic Compliance Matrix: (Units=1/GPa)
#
#
# Indices 1 2 3 4 5 6 
#
# 1 0.009942 -0.001138 -0.003336 0.000000 0.000858 0.000000
# 2 -0.001138 0.017683 -0.006533 0.000000 0.000221 0.000000
# 3 -0.003336 -0.006533 0.013429 0.000000 -0.004865 0.000000
# 4 0.000000 0.000000 0.000000 0.102749 0.000000 -0.033480
# 5 0.000858 0.000221 -0.004865 0.000000 0.026126 0.000000
# 6 0.000000 0.000000 0.000000 -0.033480 0.000000 0.076348
#
#
# Mechanical properties :
#
#
# Convention : Reuss Voigt Hill
#
# Bulk Modulus (GPa) = 52.52590 57.93300 55.22945
# Shear Modulus (GPa) = 18.20579 26.72753 22.46666
#
# Velocity S-wave (km/s) = 3.14424 3.80970 3.49285
# Velocity P-wave (km/s) = 6.45792 7.12818 6.80131
#
# Compressibility (1/GPa) = 0.01903823
#
# Stress axis : x y z
#
# Youngs Moduli (GPa) = 100.57843 56.55249 74.46782
#
# Poissons Ratio (x) = 0.06436 0.24845
# Poissons Ratio (y) = 0.11447 0.48652
# Poissons Ratio (z) = 0.33556 0.36948
#
# Static dielectric constant tensor:
#      x y z
#    x 1.664180 0.000000 0.017920 
#    y 0.000000 1.628270 0.000000 
#    z 0.017920 0.000000 1.714790 
# 
# From -- ./inp_files/51193.got.cif
#   From: 2010.05.17/outbox.cif.g08.bks.cpg/sg12_26_cif.got.tgz:51193.got - 2010.06.03 13:09:07.
