data_PCOD9222772
_publ_section_title
;
Structure prediction by ZEFSAII (Michael W. Deem and Ramdas Pophale) SiO2 
 PCOD9222772
Probable space group: C 2/M
;
_chemical_formula_sum "Si O2"
_cell_formula_units_Z 40
_cell_length_a 9.543930
_cell_length_b 15.360339
_cell_length_c 21.299121
_cell_angle_alpha 90.000000
_cell_angle_beta 140.893289
_cell_angle_gamma 90.000000
_cell_volume 1969.511336
_symmetry_space_group_name_H-M "C 2/M"
_symmetry_group_IT_number 12
_symmetry_cell_setting 'monoclinic'
loop_
_space_group_symop_operation_xyz
x,y,z
-x,y,-z
-x,-y,-z
x,-y,z
1/2+x,1/2+y,z
1/2-x,1/2+y,-z
1/2-x,1/2-y,-z
1/2+x,1/2-y,z
loop_
_atom_site_type_symbol
_atom_site_label
_atom_site_fract_x
_atom_site_fract_y
_atom_site_fract_z
Si Si1 0.572259 0.000000 0.596788
Si Si2 0.639657 0.663367 0.691314
Si Si3 0.350107 0.326634 0.713961
Si Si4 0.007885 0.106166 0.107034
Si Si5 0.855910 0.604433 0.121768
Si Si6 0.077321 0.000000 0.455977
O O1 0.500000 0.000000 0.500000
O O2 0.715271 0.084558 0.659572
O O3 0.342255 0.000000 0.553042
O O4 0.507707 0.684921 0.708952
O O5 0.676189 0.748312 0.661468
O O6 0.514012 0.584758 0.612519
O O7 0.892973 0.635593 0.793957
O O8 0.484730 0.341855 0.825529
O O9 0.224331 0.128788 0.139880
O O10 0.007233 0.000000 0.116708
O O11 0.796562 0.129376 0.990499
O O12 0.858548 0.500000 0.122920
O O13 0.000000 0.000000 0.500000
#
# Coordination Sequence:
#
# PCOD9222772 Si02
#       6
#     4   8   8   8   8   4
#     4  12  26  52  71  96 133 171 220 283 332 398
#     4  12  26  45  67 104 134 174 223 274 329 399
#     4  12  26  43  71  99 137 175 221 274 333 392
#     4   9  19  38  67 101 133 182 216 268 330 387
#     4   9  19  38  67  99 139 173 224 267 322 398
#     4  12  30  48  75  98 129 175 222 275 342 392
#
# _framework density 20.309607
#
# number of rings (size 3 to 8) (size 9 to 14) (size 15 to 20)
#    0.000    1.200    4.000    2.400    5.600    3.200 
#    0.000    2.000    0.000    0.000    0.000    0.000 
#    0.000    0.000    0.000    0.000    0.000    0.000 
#
# Total GULP energy -111817.041464 kJ/mol
# GULP energy per Si atom -5590.852073 kJ/mol
# Density = 2.026338 g / cm^3
# Si number density = 20.309607 Si / 1000 Ang^3
#
#
#
# Elastic Constant Matrix: (Units=GPa)
#
#
# Indices 1 2 3 4 5 6 
#
# 1 158.9086 32.1177 33.6530 0.0000 2.9790 0.0000
# 2 32.1177 98.1000 22.4327 0.0000 -0.7631 0.0000
# 3 33.6530 22.4327 52.7813 -0.0001 6.8529 0.0000
# 4 0.0000 0.0000 -0.0001 -15.9492 0.0000 3.6887
# 5 2.9790 -0.7631 6.8529 0.0000 44.5938 0.0000
# 6 0.0000 0.0000 0.0000 3.6887 0.0000 27.6009
#
#
#
# Elastic Compliance Matrix: (Units=1/GPa)
#
#
# Indices 1 2 3 4 5 6 
#
# 1 0.007471 -0.001498 -0.004141 0.000000 0.000112 0.000000
# 2 -0.001498 0.011631 -0.004109 0.000000 0.000931 0.000000
# 3 -0.004141 -0.004109 0.023780 0.000000 -0.003448 0.000000
# 4 0.000000 0.000000 0.000000 -0.060819 0.000000 0.008128
# 5 0.000112 0.000931 -0.003448 0.000000 0.022963 0.000000
# 6 0.000000 0.000000 0.000000 0.008128 0.000000 0.035144
#
#
# Mechanical properties :
#
#
# Convention : Reuss Voigt Hill
#
# Bulk Modulus (GPa) = 42.76075 54.02187 48.39131
# Shear Modulus (GPa) = 74.11629 26.02154 50.06892
#
# Velocity S-wave (km/s) = 6.04752 3.58333 4.97055
# Velocity P-wave (km/s) = 8.35843 6.61644 7.53793
#
# Compressibility (1/GPa) = 0.02338593
#
# Stress axis : x y z
#
# Youngs Moduli (GPa) = 133.85854 85.97725 42.05132
#
# Poissons Ratio (x) = 0.12880 0.17413
# Poissons Ratio (y) = 0.20053 0.17279
# Poissons Ratio (z) = 0.55431 0.35328
#
# Static dielectric constant tensor:
#      x y z
#    x 1.670470 0.000000 -0.056080 
#    y 0.000000 1.729950 0.000000 
#    z -0.056080 0.000000 1.732120 
# 
# From -- ./inp_files/300991.got.cif
#   From: 2010.05.17/outbox.cif.g08.bks.cpg/sg12_151_cif.got.tgz:300991.got - 2010.06.03 13:09:07.
