data_PCOD9222443
_publ_section_title
;
Structure prediction by ZEFSAII (Michael W. Deem and Ramdas Pophale) SiO2 
 PCOD9222443
Probable space group: C 2/M
;
_chemical_formula_sum "Si O2"
_cell_formula_units_Z 34
_cell_length_a 7.678351
_cell_length_b 13.910412
_cell_length_c 14.144672
_cell_angle_alpha 90.000000
_cell_angle_beta 115.543718
_cell_angle_gamma 90.000000
_cell_volume 1363.109894
_symmetry_space_group_name_H-M "C 2/M"
_symmetry_group_IT_number 12
_symmetry_cell_setting 'monoclinic'
loop_
_space_group_symop_operation_xyz
x,y,z
-x,y,-z
-x,-y,-z
x,-y,z
1/2+x,1/2+y,z
1/2-x,1/2+y,-z
1/2-x,1/2-y,-z
1/2+x,1/2-y,z
loop_
_atom_site_type_symbol
_atom_site_label
_atom_site_fract_x
_atom_site_fract_y
_atom_site_fract_z
Si Si1 0.315323 0.333334 0.585470
Si Si2 0.820435 0.783729 0.915433
Si Si3 0.722682 0.382718 0.757621
Si Si4 0.000000 0.000000 0.500000
Si Si5 0.435875 0.113254 0.298517
O O1 0.250000 0.250000 0.500000
O O2 0.512958 0.332769 0.696206
O O3 0.379517 0.418771 0.531868
O O4 0.856375 0.347965 0.379096
O O5 0.834799 0.681706 0.861288
O O6 0.700258 0.848579 0.816967
O O7 0.750000 0.750000 0.000000
O O8 0.000000 0.842256 0.000000
O O9 0.705643 0.500000 0.769281
O O10 0.848088 0.371008 0.691349
O O11 0.414977 0.000000 0.302075
#
# Coordination Sequence:
#
# PCOD9222443 Si02
#       5
#     8   8   8   2   8
#     4  12  29  52  84 118 164 224 280 355 430 504
#     4  12  25  45  79 122 162 212 276 341 418 503
#     4  11  26  51  83 114 165 214 275 345 417 505
#     4  12  28  56  82 126 168 216 302 352 422 522
#     4  11  26  51  82 117 162 221 278 338 429 510
#
# _framework density 24.942962999999999
#
# number of rings (size 3 to 8) (size 9 to 14) (size 15 to 20)
#    0.000    0.471    4.706    1.412    3.294    2.824 
#    0.000    1.176    0.000    0.000    0.000    0.000 
#    0.000    0.000    0.000    0.000    0.000    0.000 
#
# Total GULP energy -94674.909602 kJ/mol
# GULP energy per Si atom -5569.112330 kJ/mol
# Density = 2.488619 g / cm^3
# Si number density = 24.942963 Si / 1000 Ang^3
#
#
#
# Elastic Constant Matrix: (Units=GPa)
#
#
# Indices 1 2 3 4 5 6 
#
# 1 133.6259 40.3827 36.1008 0.0000 -41.5152 0.0000
# 2 40.3827 125.5207 42.7441 0.0000 -8.9056 0.0000
# 3 36.1008 42.7441 152.7845 0.0000 -12.6003 0.0000
# 4 0.0000 0.0000 0.0000 -21.0729 0.0000 -29.1500
# 5 -41.5152 -8.9056 -12.6003 0.0000 57.9619 0.0000
# 6 0.0000 0.0000 0.0000 -29.1500 0.0000 37.0946
#
#
#
# Elastic Compliance Matrix: (Units=1/GPa)
#
#
# Indices 1 2 3 4 5 6 
#
# 1 0.010784 -0.002541 -0.001255 0.000000 0.007061 0.000000
# 2 -0.002541 0.009444 -0.002110 0.000000 -0.000828 0.000000
# 3 -0.001255 -0.002110 0.007465 0.000000 0.000400 0.000000
# 4 0.000000 0.000000 0.000000 -0.022738 0.000000 -0.017868
# 5 0.007061 -0.000828 0.000400 0.000000 0.022270 0.000000
# 6 0.000000 0.000000 0.000000 -0.017868 0.000000 0.012917
#
#
# Mechanical properties :
#
#
# Convention : Reuss Voigt Hill
#
# Bulk Modulus (GPa) = 62.96747 72.26516 67.61631
# Shear Modulus (GPa) = 87.33836 34.31028 60.82432
#
# Velocity S-wave (km/s) = 5.92379 3.71286 4.94351
# Velocity P-wave (km/s) = 8.49045 6.88589 7.72992
#
# Compressibility (1/GPa) = 0.01588122
#
# Stress axis : x y z
#
# Youngs Moduli (GPa) = 92.72717 105.88536 133.95930
#
# Poissons Ratio (x) = 0.26908 0.16811
# Poissons Ratio (y) = 0.23564 0.28265
# Poissons Ratio (z) = 0.11636 0.22342
#
# Static dielectric constant tensor:
#      x y z
#    x 2.035840 0.000000 0.088790 
#    y 0.000000 1.943940 0.000000 
#    z 0.088790 0.000000 1.980670 
# 
# From -- ./inp_files/175934.got.cif
#   From: 2010.05.17/outbox.cif.g08.bks.cpg/sg12_88_cif.got.tgz:175934.got - 2010.06.03 13:09:07.
