data_PCOD9222626
_publ_section_title
;
Structure prediction by ZEFSAII (Michael W. Deem and Ramdas Pophale) SiO2 
 PCOD9222626
Probable space group: C 2/M
;
_chemical_formula_sum "Si O2"
_cell_formula_units_Z 56
_cell_length_a 12.348703
_cell_length_b 26.561155
_cell_length_c 8.993392
_cell_angle_alpha 90.000000
_cell_angle_beta 61.149055
_cell_angle_gamma 90.000000
_cell_volume 2583.660424
_symmetry_space_group_name_H-M "C 2/M"
_symmetry_group_IT_number 12
_symmetry_cell_setting 'monoclinic'
loop_
_space_group_symop_operation_xyz
x,y,z
-x,y,-z
-x,-y,-z
x,-y,z
1/2+x,1/2+y,z
1/2-x,1/2+y,-z
1/2-x,1/2-y,-z
1/2+x,1/2-y,z
loop_
_atom_site_type_symbol
_atom_site_label
_atom_site_fract_x
_atom_site_fract_y
_atom_site_fract_z
Si Si1 0.601642 0.202362 0.303563
Si Si2 0.508179 0.722763 0.818015
Si Si3 0.397867 0.642807 0.450113
Si Si4 0.829939 0.941177 0.960876
Si Si5 0.625524 0.137566 0.008592
Si Si6 0.271521 0.777356 0.271459
Si Si7 0.624561 0.558126 0.724043
O O1 0.500000 0.200679 0.500000
O O2 0.602480 0.254945 0.206238
O O3 0.599140 0.155489 0.195124
O O4 0.733222 0.217838 0.287345
O O5 0.536107 0.669065 0.733182
O O6 0.603291 0.767944 0.717823
O O7 0.500000 0.721228 0.000000
O O8 0.500000 0.625416 0.500000
O O9 0.322950 0.687766 0.576850
O O10 0.323139 0.596328 0.432875
O O11 0.732582 0.904671 0.944314
O O12 0.833127 0.929794 0.136179
O O13 0.794926 0.000000 0.965763
O O14 0.974133 0.937519 0.817382
O O15 0.500000 0.124296 0.000000
O O16 0.679955 0.187681 0.894512
O O17 0.655477 0.500000 0.674376
#
# Coordination Sequence:
#
# PCOD9222626 Si02
#       7
#     8   8   8   8   8   8   8
#     4  12  24  41  58  89 129 167 209 258 306 362
#     4  12  24  39  56  86 128 169 211 250 301 369
#     4  12  24  37  60  94 126 165 205 258 320 372
#     4   9  21  42  69  95 122 160 207 264 322 378
#     4  12  25  42  64  94 128 169 214 255 311 374
#     4  12  23  38  59  86 131 168 211 247 300 371
#     4   9  21  42  66  97 126 154 207 266 323 380
#
# _framework density 21.674674
#
# number of rings (size 3 to 8) (size 9 to 14) (size 15 to 20)
#    0.000    0.857    5.714    2.571    4.000    0.571 
#    0.000    0.714    0.000    0.429    0.000    0.000 
#    0.000    0.000    0.000    0.000    0.000    0.000 
#
# Total GULP energy -156185.982495 kJ/mol
# GULP energy per Si atom -5578.070803 kJ/mol
# Density = 2.162534 g / cm^3
# Si number density = 21.674674 Si / 1000 Ang^3
#
#
#
# Elastic Constant Matrix: (Units=GPa)
#
#
# Indices 1 2 3 4 5 6 
#
# 1 55.6790 25.5968 4.3616 0.0000 0.8316 0.0000
# 2 25.5968 79.6172 14.1437 0.0000 13.1435 0.0000
# 3 4.3616 14.1437 77.0309 0.0000 21.0501 0.0000
# 4 0.0000 0.0000 0.0000 32.2433 0.0000 13.7372
# 5 0.8316 13.1435 21.0501 0.0000 22.2325 0.0000
# 6 0.0000 0.0000 0.0000 13.7372 0.0000 42.5792
#
#
#
# Elastic Compliance Matrix: (Units=1/GPa)
#
#
# Indices 1 2 3 4 5 6 
#
# 1 0.021404 -0.007453 -0.001118 0.000000 0.004664 0.000000
# 2 -0.007453 0.016523 -0.000025 0.000000 -0.009466 0.000000
# 3 -0.001118 -0.000025 0.017584 0.000000 -0.016592 0.000000
# 4 0.000000 0.000000 0.000000 0.035957 0.000000 -0.011601
# 5 0.004664 -0.009466 -0.016592 0.000000 0.066110 0.000000
# 6 0.000000 0.000000 0.000000 -0.011601 0.000000 0.027228
#
#
# Mechanical properties :
#
#
# Convention : Reuss Voigt Hill
#
# Bulk Modulus (GPa) = 26.09653 33.39236 29.74445
# Shear Modulus (GPa) = 23.28059 30.62602 26.95331
#
# Velocity S-wave (km/s) = 3.28089 3.76305 3.53021
# Velocity P-wave (km/s) = 5.13990 5.85836 5.51085
#
# Compressibility (1/GPa) = 0.03831927
#
# Stress axis : x y z
#
# Youngs Moduli (GPa) = 46.71976 60.52077 56.87069
#
# Poissons Ratio (x) = 0.45105 0.06358
# Poissons Ratio (y) = 0.34819 0.00143
# Poissons Ratio (z) = 0.05223 0.00153
#
# Static dielectric constant tensor:
#      x y z
#    x 1.838640 0.000000 -0.039290 
#    y 0.000000 1.752280 0.000000 
#    z -0.039290 0.000000 1.880290 
# 
# From -- ./inp_files/53140.got.cif
#   From: 2010.05.17/outbox.cif.g08.bks.cpg/sg12_27_cif.got.tgz:53140.got - 2010.06.03 13:09:07.
