data_PCOD9222202
_publ_section_title
;
Structure prediction by ZEFSAII (Michael W. Deem and Ramdas Pophale) SiO2 
 PCOD9222202
Probable space group: C 2/M
;
_chemical_formula_sum "Si O2"
_cell_formula_units_Z 64
_cell_length_a 29.819400
_cell_length_b 17.179550
_cell_length_c 11.887176
_cell_angle_alpha 90.000000
_cell_angle_beta 30.187621
_cell_angle_gamma 90.000000
_cell_volume 3062.057389
_symmetry_space_group_name_H-M "C 2/M"
_symmetry_group_IT_number 12
_symmetry_cell_setting 'monoclinic'
loop_
_space_group_symop_operation_xyz
x,y,z
-x,y,-z
-x,-y,-z
x,-y,z
1/2+x,1/2+y,z
1/2-x,1/2+y,-z
1/2-x,1/2-y,-z
1/2+x,1/2-y,z
loop_
_atom_site_type_symbol
_atom_site_label
_atom_site_fract_x
_atom_site_fract_y
_atom_site_fract_z
Si Si1 0.205573 0.680390 0.165036
Si Si2 0.392122 0.907877 0.225149
Si Si3 0.092438 0.591750 0.230528
Si Si4 0.447744 0.406962 0.441208
Si Si5 0.532382 0.311019 0.813419
Si Si6 0.632139 0.592575 0.154551
Si Si7 0.813781 0.705970 0.558901
Si Si8 0.626192 0.797065 0.941579
O O1 0.163064 0.620999 0.170033
O O2 0.148377 0.710236 0.394246
O O3 0.250000 0.750000 0.000000
O O4 0.279937 0.634035 0.074720
O O5 0.334891 0.877054 0.455943
O O6 0.380820 0.000000 0.236823
O O7 0.500000 0.893579 0.000000
O O8 0.359675 0.860671 0.186761
O O9 0.104740 0.500000 0.172282
O O10 0.100392 0.652448 0.109367
O O11 0.000000 0.597957 0.500000
O O12 0.446663 0.500000 0.439787
O O13 0.433386 0.371950 0.351927
O O14 0.381609 0.384359 0.685109
O O15 0.545259 0.382884 0.275074
O O16 0.616353 0.258076 0.662577
O O17 0.454264 0.259026 0.925518
O O18 0.500000 0.347614 0.000000
O O19 0.638426 0.500000 0.134766
O O20 0.716903 0.746723 0.760914
#
# Coordination Sequence:
#
# PCOD9222202 Si02
#       8
#     8   8   8   8   8   8   8   8
#     4  12  23  40  61  98 129 166 211 260 324 394
#     4  11  24  45  72  99 130 178 231 280 341 397
#     4  11  26  44  67 100 138 175 215 275 339 397
#     4   9  20  38  63  91 123 167 208 254 318 388
#     4  12  24  42  65  92 128 173 218 278 332 386
#     4   9  19  39  62  88 124 162 203 253 312 381
#     4  12  24  43  69  98 132 172 226 276 332 401
#     4  12  23  46  69  96 137 174 223 277 336 402
#
# _framework density 20.900980000000001
#
# number of rings (size 3 to 8) (size 9 to 14) (size 15 to 20)
#    0.000    1.000    3.750    4.125    0.000    1.250 
#    0.000    1.250    0.000    0.000    0.000    0.000 
#    0.000    0.000    0.000    0.000    0.000    0.000 
#
# Total GULP energy -178600.611251 kJ/mol
# GULP energy per Si atom -5581.269102 kJ/mol
# Density = 2.085341 g / cm^3
# Si number density = 20.900980 Si / 1000 Ang^3
#
#
#
# Elastic Constant Matrix: (Units=GPa)
#
#
# Indices 1 2 3 4 5 6 
#
# 1 78.1922 45.0416 22.5938 0.0000 13.0825 0.0000
# 2 45.0416 78.4144 36.8470 0.0000 2.6537 0.0000
# 3 22.5938 36.8470 61.6845 0.0000 0.5805 0.0000
# 4 0.0000 0.0000 0.0000 40.0586 0.0000 6.9404
# 5 13.0825 2.6537 0.5805 0.0000 46.1060 0.0000
# 6 0.0000 0.0000 0.0000 6.9404 0.0000 39.4196
#
#
#
# Elastic Compliance Matrix: (Units=1/GPa)
#
#
# Indices 1 2 3 4 5 6 
#
# 1 0.020260 -0.011122 -0.000729 0.000000 -0.005099 0.000000
# 2 -0.011122 0.023871 -0.010204 0.000000 0.001910 0.000000
# 3 -0.000729 -0.010204 0.022569 0.000000 0.000510 0.000000
# 4 0.000000 0.000000 0.000000 0.025749 0.000000 -0.004533
# 5 -0.005099 0.001910 0.000510 0.000000 0.023020 0.000000
# 6 0.000000 0.000000 0.000000 -0.004533 0.000000 0.026166
#
#
# Mechanical properties :
#
#
# Convention : Reuss Voigt Hill
#
# Bulk Modulus (GPa) = 44.26657 47.47288 45.86973
# Shear Modulus (GPa) = 25.86997 32.70409 29.28703
#
# Velocity S-wave (km/s) = 3.52197 3.95994 3.74736
# Velocity P-wave (km/s) = 6.14526 6.60838 6.38102
#
# Compressibility (1/GPa) = 0.02259041
#
# Stress axis : x y z
#
# Youngs Moduli (GPa) = 49.35948 41.89106 44.30879
#
# Poissons Ratio (x) = 0.46592 0.03230
# Poissons Ratio (y) = 0.54898 0.45211
# Poissons Ratio (z) = 0.03598 0.42744
#
# Static dielectric constant tensor:
#      x y z
#    x 1.772930 0.000000 0.011350 
#    y 0.000000 1.743670 0.000000 
#    z 0.011350 0.000000 1.791680 
# 
# From -- ./inp_files/190037.got.cif
#   From: 2010.05.17/outbox.cif.g08.bks.cpg/sg12_96_cif.got.tgz:190037.got - 2010.06.03 13:09:07.
