data_PCOD9222522
_publ_section_title
;
Structure prediction by ZEFSAII (Michael W. Deem and Ramdas Pophale) SiO2 
 PCOD9222522
Probable space group: C 2/M
;
_chemical_formula_sum "Si O2"
_cell_formula_units_Z 40
_cell_length_a 10.540082
_cell_length_b 26.339264
_cell_length_c 11.198441
_cell_angle_alpha 90.000000
_cell_angle_beta 134.550969
_cell_angle_gamma 90.000000
_cell_volume 2215.477039
_symmetry_space_group_name_H-M "C 2/M"
_symmetry_group_IT_number 12
_symmetry_cell_setting 'monoclinic'
loop_
_space_group_symop_operation_xyz
x,y,z
-x,y,-z
-x,-y,-z
x,-y,z
1/2+x,1/2+y,z
1/2-x,1/2+y,-z
1/2-x,1/2-y,-z
1/2+x,1/2-y,z
loop_
_atom_site_type_symbol
_atom_site_label
_atom_site_fract_x
_atom_site_fract_y
_atom_site_fract_z
Si Si1 0.508899 0.709792 0.205445
Si Si2 0.202507 0.405650 0.801660
Si Si3 0.505150 0.594119 0.203624
Si Si4 0.049050 0.000000 0.395075
Si Si5 0.035245 0.500000 0.381983
Si Si6 0.701478 0.790207 0.795853
O O1 0.517079 0.651955 0.257199
O O2 0.446736 0.750168 0.262327
O O3 0.691892 0.721408 0.255797
O O4 0.354744 0.710227 0.000588
O O5 0.316773 0.416027 0.756931
O O6 0.132429 0.348082 0.745569
O O7 0.058729 0.448878 0.725740
O O8 0.344206 0.407467 0.002676
O O9 0.480848 0.550656 0.284232
O O10 0.260638 0.000000 0.517298
O O11 0.000000 0.000000 0.500000
O O12 0.000000 0.500000 0.500000
#
# Coordination Sequence:
#
# PCOD9222522 Si02
#       6
#     8   8   8   4   4   8
#     4   8  14  26  48  75 103 131 164 205 252 300
#     4   9  17  32  59  84  99 129 184 223 241 296
#     4   9  17  34  57  79 105 138 172 212 260 304
#     4  12  25  39  51  73 110 143 165 212 277 320
#     4  12  21  35  57  79  98 134 181 222 256 299
#     4   8  14  26  46  77 106 128 160 208 255 296
#
# _framework density 18.054803
#
# number of rings (size 3 to 8) (size 9 to 14) (size 15 to 20)
#    0.000    2.800    2.000    3.000    0.000    1.600 
#    3.600    2.000    0.000    2.400    0.000    0.000 
#    0.000    0.000    0.000    0.000    0.000    0.000 
#
# Total GULP energy -111512.920413 kJ/mol
# GULP energy per Si atom -5575.646021 kJ/mol
# Density = 1.801371 g / cm^3
# Si number density = 18.054803 Si / 1000 Ang^3
#
#
#
# Elastic Constant Matrix: (Units=GPa)
#
#
# Indices 1 2 3 4 5 6 
#
# 1 106.5637 92.6791 24.5952 0.0000 -9.6082 0.0000
# 2 92.6791 155.0082 32.7122 0.0000 -7.9908 0.0000
# 3 24.5952 32.7122 14.1377 0.0000 -1.4341 0.0000
# 4 0.0000 0.0000 0.0000 -22.3618 0.0000 2.8237
# 5 -9.6082 -7.9908 -1.4341 0.0000 22.9997 0.0000
# 6 0.0000 0.0000 0.0000 2.8237 0.0000 32.5663
#
#
#
# Elastic Compliance Matrix: (Units=1/GPa)
#
#
# Indices 1 2 3 4 5 6 
#
# 1 0.021489 -0.009410 -0.015127 0.000000 0.004765 0.000000
# 2 -0.009410 0.016882 -0.022638 0.000000 0.000523 0.000000
# 3 -0.015127 -0.022638 0.148934 0.000000 -0.004898 0.000000
# 4 0.000000 0.000000 0.000000 -0.044235 0.000000 0.003835
# 5 0.004765 0.000523 -0.004898 0.000000 0.045345 0.000000
# 6 0.000000 0.000000 0.000000 0.003835 0.000000 0.030374
#
#
# Mechanical properties :
#
#
# Convention : Reuss Voigt Hill
#
# Bulk Modulus (GPa) = 10.75806 63.96472 37.36139
# Shear Modulus (GPa) = 14.52953 15.02238 14.77596
#
# Velocity S-wave (km/s) = 2.83988 2.88765 2.86386
# Velocity P-wave (km/s) = 4.08959 6.82810 5.62795
#
# Compressibility (1/GPa) = 0.09295359
#
# Stress axis : x y z
#
# Youngs Moduli (GPa) = 46.53459 59.23416 6.71438
#
# Poissons Ratio (x) = 0.55742 0.10157
# Poissons Ratio (y) = 0.43791 0.15200
# Poissons Ratio (z) = 0.70395 1.34096
#
# Static dielectric constant tensor:
#      x y z
#    x 1.588080 0.000000 0.005840 
#    y 0.000000 1.630660 0.000000 
#    z 0.005840 0.000000 1.634510 
# 
# From -- ./inp_files/52122.got.cif
#   From: 2010.05.17/outbox.cif.g08.bks.cpg/sg12_27_cif.got.tgz:52122.got - 2010.06.03 13:09:07.
