data_PCOD9222711
_publ_section_title
;
Structure prediction by ZEFSAII (Michael W. Deem and Ramdas Pophale) SiO2 
 PCOD9222711
Probable space group: C 2/M
;
_chemical_formula_sum "Si O2"
_cell_formula_units_Z 44
_cell_length_a 8.381874
_cell_length_b 29.714930
_cell_length_c 7.634827
_cell_angle_alpha 90.000000
_cell_angle_beta 114.422241
_cell_angle_gamma 90.000000
_cell_volume 1731.434522
_symmetry_space_group_name_H-M "C 2/M"
_symmetry_group_IT_number 12
_symmetry_cell_setting 'monoclinic'
loop_
_space_group_symop_operation_xyz
x,y,z
-x,y,-z
-x,-y,-z
x,-y,z
1/2+x,1/2+y,z
1/2-x,1/2+y,-z
1/2-x,1/2-y,-z
1/2+x,1/2-y,z
loop_
_atom_site_type_symbol
_atom_site_label
_atom_site_fract_x
_atom_site_fract_y
_atom_site_fract_z
Si Si1 0.040797 0.180076 0.705929
Si Si2 0.080982 0.500000 0.318175
Si Si3 0.000000 0.327812 0.500000
Si Si4 0.422361 0.096743 0.683488
Si Si5 0.718160 0.500000 0.960896
Si Si6 0.719509 0.401166 0.957111
Si Si7 0.749578 0.237074 0.793436
O O1 0.100917 0.142563 0.873443
O O2 0.192252 0.214039 0.700266
O O3 0.000000 0.156830 0.500000
O O4 0.906177 0.212924 0.754748
O O5 0.121601 0.548151 0.418271
O O6 0.183823 0.500000 0.181522
O O7 0.875908 0.500000 0.173567
O O8 0.871370 0.362294 0.538138
O O9 0.907935 0.296968 0.316393
O O10 0.327017 0.098542 0.824426
O O11 0.629788 0.101844 0.826027
O O12 0.631851 0.450679 0.929910
O O13 0.750000 0.250000 0.000000
#
# Coordination Sequence:
#
# PCOD9222711 Si02
#       7
#     8   4   4   8   4   8   8
#     4  12  25  45  68  97 133 180 234 293 346 406
#     4   7  12  27  52  91 133 170 218 267 337 392
#     4  12  24  41  64  96 132 171 234 284 342 412
#     4   9  18  33  61  96 132 176 222 281 331 410
#     4   7  12  28  57  95 129 171 219 274 320 415
#     4   9  18  36  65  95 133 176 227 272 346 396
#     4  12  28  47  68  94 134 181 230 286 356 414
#
# _framework density 25.412452999999999
#
# number of rings (size 3 to 8) (size 9 to 14) (size 15 to 20)
#    0.000    2.000    0.909    5.455    2.545    0.364 
#    0.000    0.455    0.000    2.182    0.000    6.364 
#    0.000    0.000    0.000    0.000    0.000    1.000 
#
# Total GULP energy -122646.984762 kJ/mol
# GULP energy per Si atom -5574.862944 kJ/mol
# Density = 2.535461 g / cm^3
# Si number density = 25.412453 Si / 1000 Ang^3
#
#
#
# Elastic Constant Matrix: (Units=GPa)
#
#
# Indices 1 2 3 4 5 6 
#
# 1 115.8672 51.5742 39.3790 0.0000 -24.3435 0.0000
# 2 51.5742 232.0075 40.4172 0.0000 -0.4112 0.0000
# 3 39.3790 40.4172 88.7186 0.0000 -33.8259 0.0000
# 4 0.0000 0.0000 0.0000 8.3104 0.0000 53.0917
# 5 -24.3435 -0.4112 -33.8259 0.0000 24.6050 0.0000
# 6 0.0000 0.0000 0.0000 53.0917 0.0000 -444.9048
#
#
#
# Elastic Compliance Matrix: (Units=1/GPa)
#
#
# Indices 1 2 3 4 5 6 
#
# 1 0.012459 -0.002922 0.001013 0.000000 0.013671 0.000000
# 2 -0.002922 0.005830 -0.005094 0.000000 -0.009796 0.000000
# 3 0.001013 -0.005094 0.028354 0.000000 0.039898 0.000000
# 4 0.000000 0.000000 0.000000 0.068278 0.000000 0.008148
# 5 0.013671 -0.009796 0.039898 0.000000 0.108853 0.000000
# 6 0.000000 0.000000 0.000000 0.008148 0.000000 -0.001275
#
#
# Mechanical properties :
#
#
# Convention : Reuss Voigt Hill
#
# Bulk Modulus (GPa) = 30.63931 77.70381 54.17156
# Shear Modulus (GPa) = 20.21150 -62.04970 -20.91910
#
# Velocity S-wave (km/s) = 2.82323 -4.94672 -2.87223
# Velocity P-wave (km/s) = 4.76555 1.40829 3.21926
#
# Compressibility (1/GPa) = 0.03263782
#
# Stress axis : x y z
#
# Youngs Moduli (GPa) = 80.26359 171.53323 35.26793
#
# Poissons Ratio (x) = 0.50120 -0.03574
# Poissons Ratio (y) = 0.23452 0.17966
# Poissons Ratio (z) = -0.08133 0.87380
#
# Static dielectric constant tensor:
#      x y z
#    x 2.098750 0.000000 0.105490 
#    y 0.000000 2.026030 0.000000 
#    z 0.105490 0.000000 1.914590 
# 
# From -- ./inp_files/51926.got.cif
#   From: 2010.05.17/outbox.cif.g08.bks.cpg/sg12_26_cif.got.tgz:51926.got - 2010.06.03 13:09:07.
