data_PCOD9222418
_publ_section_title
;
Structure prediction by ZEFSAII (Michael W. Deem and Ramdas Pophale) SiO2 
 PCOD9222418
Probable space group: C 2/M
;
_chemical_formula_sum "Si O2"
_cell_formula_units_Z 34
_cell_length_a 22.438652
_cell_length_b 12.580437
_cell_length_c 5.026496
_cell_angle_alpha 90.000000
_cell_angle_beta 81.204662
_cell_angle_gamma 90.000000
_cell_volume 1402.234420
_symmetry_space_group_name_H-M "C 2/M"
_symmetry_group_IT_number 12
_symmetry_cell_setting 'monoclinic'
loop_
_space_group_symop_operation_xyz
x,y,z
-x,y,-z
-x,-y,-z
x,-y,z
1/2+x,1/2+y,z
1/2-x,1/2+y,-z
1/2-x,1/2-y,-z
1/2+x,1/2-y,z
loop_
_atom_site_type_symbol
_atom_site_label
_atom_site_fract_x
_atom_site_fract_y
_atom_site_fract_z
Si Si1 0.168461 0.294030 0.057710
Si Si2 0.000000 0.500000 0.500000
Si Si3 0.869768 0.878898 0.549608
Si Si4 0.266966 0.881935 0.469639
Si Si5 0.942004 0.693194 0.204586
O O1 0.148539 0.175563 0.157707
O O2 0.193259 0.351805 0.303253
O O3 0.217128 0.307698 0.791146
O O4 0.108404 0.344000 0.972466
O O5 0.038482 0.594541 0.629249
O O6 0.804981 0.883101 0.445314
O O7 0.913607 0.792640 0.384555
O O8 0.892243 0.000000 0.555465
O O9 0.283981 0.000000 0.372070
O O10 0.000000 0.729711 0.000000
#
# Coordination Sequence:
#
# PCOD9222418 Si02
#       5
#     8   2   8   8   8
#     4  12  25  48  79 116 164 213 269 327 402 480
#     4  12  30  60  78 118 156 210 272 356 390 482
#     4  11  27  51  79 119 166 213 265 332 400 486
#     4  11  26  45  80 123 167 209 264 330 408 484
#     4  12  29  50  84 114 160 211 277 335 404 472
#
# _framework density 24.247017
#
# number of rings (size 3 to 8) (size 9 to 14) (size 15 to 20)
#    0.000    0.471    2.353    3.882    6.588    1.412 
#    2.118    4.118    2.588    0.000    0.000    0.000 
#    0.000    0.000    0.000    0.000    0.000    0.000 
#
# Total GULP energy -94913.397657 kJ/mol
# GULP energy per Si atom -5583.141039 kJ/mol
# Density = 2.419183 g / cm^3
# Si number density = 24.247017 Si / 1000 Ang^3
#
#
#
# Elastic Constant Matrix: (Units=GPa)
#
#
# Indices 1 2 3 4 5 6 
#
# 1 146.8768 68.1134 62.6927 0.0000 -6.7987 0.0000
# 2 68.1134 243.2032 85.9806 0.0000 2.9945 0.0000
# 3 62.6927 85.9806 140.0366 0.0000 10.4326 0.0000
# 4 0.0000 0.0000 0.0000 4.8581 0.0000 10.8443
# 5 -6.7987 2.9945 10.4326 0.0000 55.3199 0.0000
# 6 0.0000 0.0000 0.0000 10.8443 0.0000 31.1619
#
#
#
# Elastic Compliance Matrix: (Units=1/GPa)
#
#
# Indices 1 2 3 4 5 6 
#
# 1 0.008928 -0.001357 -0.003298 0.000000 0.001793 0.000000
# 2 -0.001357 0.005464 -0.002752 0.000000 0.000056 0.000000
# 3 -0.003298 -0.002752 0.010473 0.000000 -0.002231 0.000000
# 4 0.000000 0.000000 0.000000 0.922218 0.000000 -0.320929
# 5 0.001793 0.000056 -0.002231 0.000000 0.018715 0.000000
# 6 0.000000 0.000000 0.000000 -0.320929 0.000000 0.143773
#
#
# Mechanical properties :
#
#
# Convention : Reuss Voigt Hill
#
# Bulk Modulus (GPa) = 99.47056 107.07667 103.27361
# Shear Modulus (GPa) = 4.43367 39.15664 21.79516
#
# Velocity S-wave (km/s) = 1.35370 4.02295 3.00139
# Velocity P-wave (km/s) = 6.59972 8.11390 7.39566
#
# Compressibility (1/GPa) = 0.01005323
#
# Stress axis : x y z
#
# Youngs Moduli (GPa) = 112.00596 183.02163 95.48479
#
# Poissons Ratio (x) = 0.24832 0.31486
# Poissons Ratio (y) = 0.15197 0.26273
# Poissons Ratio (z) = 0.36934 0.50359
#
# Static dielectric constant tensor:
#      x y z
#    x 1.986240 0.000000 -0.041890 
#    y 0.000000 1.927050 0.000000 
#    z -0.041890 0.000000 1.988050 
# 
# From -- ./inp_files/23611.got.cif
#   From: 2010.05.17/outbox.cif.g08.bks.cpg/sg12_12_cif.got.tgz:23611.got - 2010.06.03 13:09:07.
