data_PCOD9222201
_publ_section_title
;
Structure prediction by ZEFSAII (Michael W. Deem and Ramdas Pophale) SiO2 
 PCOD9222201
Probable space group: C 2/M
;
_chemical_formula_sum "Si O2"
_cell_formula_units_Z 42
_cell_length_a 14.229167
_cell_length_b 18.686475
_cell_length_c 8.455941
_cell_angle_alpha 90.000000
_cell_angle_beta 121.475102
_cell_angle_gamma 90.000000
_cell_volume 1917.565400
_symmetry_space_group_name_H-M "C 2/M"
_symmetry_group_IT_number 12
_symmetry_cell_setting 'monoclinic'
loop_
_space_group_symop_operation_xyz
x,y,z
-x,y,-z
-x,-y,-z
x,-y,z
1/2+x,1/2+y,z
1/2-x,1/2+y,-z
1/2-x,1/2-y,-z
1/2+x,1/2-y,z
loop_
_atom_site_type_symbol
_atom_site_label
_atom_site_fract_x
_atom_site_fract_y
_atom_site_fract_z
Si Si1 0.271647 0.500000 0.671344
Si Si2 0.111877 0.354472 0.049928
Si Si3 0.000000 0.124099 0.500000
Si Si4 0.674297 0.000000 0.235167
Si Si5 0.000000 0.000000 0.000000
Si Si6 0.307451 0.271524 0.386990
Si Si7 0.115260 0.000000 0.789766
Si Si8 0.382842 0.879757 0.319120
O O1 0.233233 0.500000 0.454660
O O2 0.213154 0.431457 0.701316
O O3 0.404475 0.500000 0.778021
O O4 0.112584 0.376366 0.867038
O O5 0.111232 0.425913 0.157378
O O6 0.218045 0.308830 0.193813
O O7 0.000000 0.313670 0.000000
O O8 0.907563 0.173288 0.499218
O O9 0.939491 0.071728 0.325853
O O10 0.762237 0.000000 0.170110
O O11 0.898983 0.000000 0.037370
O O12 0.250000 0.250000 0.500000
O O13 0.355946 0.200222 0.352576
O O14 0.500000 0.901890 0.500000
#
# Coordination Sequence:
#
# PCOD9222201 Si02
#       8
#     4   8   4   4   2   8   4   8
#     4  12  27  46  74 102 143 185 238 299 357 436
#     4  12  26  46  71 106 142 189 237 296 361 434
#     4  11  24  46  78 103 148 192 240 297 362 438
#     4  12  23  48  73 103 141 188 243 293 360 429
#     4  12  28  44  70 116 142 184 242 302 360 438
#     4  12  26  46  73 107 146 190 238 296 365 437
#     4  11  24  45  72 105 144 188 239 294 362 421
#     4  12  26  49  72 103 139 186 242 298 358 429
#
# _framework density 21.902773
#
# number of rings (size 3 to 8) (size 9 to 14) (size 15 to 20)
#    0.000    0.190    2.857    7.429    2.667    0.000 
#    1.714    0.000    0.000    0.000    0.000    0.000 
#    0.000    0.000    0.000    0.000    0.000    0.000 
#
# Total GULP energy -117345.398397 kJ/mol
# GULP energy per Si atom -5587.876114 kJ/mol
# Density = 2.185292 g / cm^3
# Si number density = 21.902773 Si / 1000 Ang^3
#
#
#
# Elastic Constant Matrix: (Units=GPa)
#
#
# Indices 1 2 3 4 5 6 
#
# 1 122.2722 18.1636 31.4790 0.0000 12.2210 0.0000
# 2 18.1636 101.1995 3.8908 0.0000 15.5996 0.0000
# 3 31.4790 3.8908 106.9284 0.0000 1.7149 0.0000
# 4 0.0000 0.0000 0.0000 -8.4435 0.0000 -92.6810
# 5 12.2210 15.5996 1.7149 0.0000 61.6550 0.0000
# 6 0.0000 0.0000 0.0000 -92.6810 0.0000 -298.9332
#
#
#
# Elastic Compliance Matrix: (Units=1/GPa)
#
#
# Indices 1 2 3 4 5 6 
#
# 1 0.009196 -0.001331 -0.002636 0.000000 -0.001413 0.000000
# 2 -0.001331 0.010487 0.000049 0.000000 -0.002391 0.000000
# 3 -0.002636 0.000049 0.010123 0.000000 0.000229 0.000000
# 4 0.000000 0.000000 0.000000 0.049282 0.000000 -0.015279
# 5 -0.001413 -0.002391 0.000229 0.000000 0.017098 0.000000
# 6 0.000000 0.000000 0.000000 -0.015279 0.000000 0.001392
#
#
# Mechanical properties :
#
#
# Convention : Reuss Voigt Hill
#
# Bulk Modulus (GPa) = 45.52050 48.60743 47.06397
# Shear Modulus (GPa) = 44.35041 -30.68655 6.83193
#
# Velocity S-wave (km/s) = 4.50474 -3.74710 1.76804
# Velocity P-wave (km/s) = 6.91990 1.87604 5.06974
#
# Compressibility (1/GPa) = 0.02196812
#
# Stress axis : x y z
#
# Youngs Moduli (GPa) = 108.74129 95.35518 98.78804
#
# Poissons Ratio (x) = 0.12696 0.26042
# Poissons Ratio (y) = 0.14478 -0.00481
# Poissons Ratio (z) = 0.28666 -0.00465
#
# Static dielectric constant tensor:
#      x y z
#    x 1.787860 0.000000 0.019760 
#    y 0.000000 1.790060 0.000000 
#    z 0.019760 0.000000 1.800820 
# 
# From -- ./inp_files/61888.got.cif
#   From: 2010.05.17/outbox.cif.g08.bks.cpg/sg12_31_cif.got.tgz:61888.got - 2010.06.03 13:09:07.
