data_PCOD9222966
_publ_section_title
;
Structure prediction by ZEFSAII (Michael W. Deem and Ramdas Pophale) SiO2 
 PCOD9222966
Probable space group: C 2/M
;
_chemical_formula_sum "Si O2"
_cell_formula_units_Z 48
_cell_length_a 22.109638
_cell_length_b 14.263452
_cell_length_c 7.914810
_cell_angle_alpha 90.000000
_cell_angle_beta 85.962489
_cell_angle_gamma 90.000000
_cell_volume 2489.817900
_symmetry_space_group_name_H-M "C 2/M"
_symmetry_group_IT_number 12
_symmetry_cell_setting 'monoclinic'
loop_
_space_group_symop_operation_xyz
x,y,z
-x,y,-z
-x,-y,-z
x,-y,z
1/2+x,1/2+y,z
1/2-x,1/2+y,-z
1/2-x,1/2-y,-z
1/2+x,1/2-y,z
loop_
_atom_site_type_symbol
_atom_site_label
_atom_site_fract_x
_atom_site_fract_y
_atom_site_fract_z
Si Si1 0.760580 0.605243 0.780427
Si Si2 0.191330 0.105183 0.155987
Si Si3 0.799867 0.712429 0.299111
Si Si4 0.975121 0.608565 0.775022
Si Si5 0.596042 0.108477 0.565620
Si Si6 0.869349 0.712776 0.927107
O O1 0.763909 0.500000 0.710557
O O2 0.727914 0.683993 0.673730
O O3 0.825779 0.642825 0.828684
O O4 0.722229 0.602583 0.963397
O O5 0.243943 0.143751 0.268310
O O6 0.139878 0.184371 0.151622
O O7 0.172037 0.000000 0.203442
O O8 0.845726 0.673748 0.428765
O O9 0.839963 0.714136 0.118683
O O10 0.972026 0.500000 0.830175
O O11 0.938318 0.614615 0.605199
O O12 0.937211 0.674801 0.904925
O O13 0.044128 0.631347 0.713870
O O14 0.614090 0.000000 0.589593
#
# Coordination Sequence:
#
# PCOD9222966 Si02
#       6
#     8   8   8   8   8   8
#     4   8  14  25  41  63  91 115 132 161 209 252
#     4   8  14  25  41  63  91 115 132 161 209 252
#     4   9  16  26  44  67  85 107 141 173 200 238
#     4   9  18  31  44  59  83 113 138 165 210 257
#     4   9  18  31  44  59  83 113 138 165 210 257
#     4   9  16  26  44  67  85 107 141 173 200 238
#
# _framework density 19.278517999999998
#
# number of rings (size 3 to 8) (size 9 to 14) (size 15 to 20)
#    0.000    3.333    0.000    4.000    0.000    2.667 
#    0.000    5.000    0.000    4.000    0.000    7.000 
#    0.000    0.000    0.000    0.000    0.000    0.000 
#
# Total GULP energy -133938.938109 kJ/mol
# GULP energy per Si atom -5580.789088 kJ/mol
# Density = 1.923464 g / cm^3
# Si number density = 19.278518 Si / 1000 Ang^3
#
#
#
# Elastic Constant Matrix: (Units=GPa)
#
#
# Indices 1 2 3 4 5 6 
#
# 1 77.1647 36.7882 22.9757 0.0000 -3.7269 0.0000
# 2 36.7882 104.7843 18.7114 0.0000 1.9950 0.0000
# 3 22.9757 18.7114 57.9569 0.0000 4.1020 0.0000
# 4 0.0000 0.0000 0.0000 8.7730 0.0000 -0.4940
# 5 -3.7269 1.9950 4.1020 0.0000 35.3197 0.0000
# 6 0.0000 0.0000 0.0000 -0.4940 0.0000 6.4839
#
#
#
# Elastic Compliance Matrix: (Units=1/GPa)
#
#
# Indices 1 2 3 4 5 6 
#
# 1 0.017111 -0.005108 -0.005326 0.000000 0.002713 0.000000
# 2 -0.005108 0.011653 -0.001666 0.000000 -0.001004 0.000000
# 3 -0.005326 -0.001666 0.020102 0.000000 -0.002803 0.000000
# 4 0.000000 0.000000 0.000000 0.114477 0.000000 0.008721
# 5 0.002713 -0.001004 -0.002803 0.000000 0.028981 0.000000
# 6 0.000000 0.000000 0.000000 0.008721 0.000000 0.154892
#
#
# Mechanical properties :
#
#
# Convention : Reuss Voigt Hill
#
# Bulk Modulus (GPa) = 40.54238 44.09517 42.31878
# Shear Modulus (GPa) = 13.17037 20.87737 17.02387
#
# Velocity S-wave (km/s) = 2.61657 3.29437 2.97484
# Velocity P-wave (km/s) = 5.49582 6.11497 5.81364
#
# Compressibility (1/GPa) = 0.02466554
#
# Stress axis : x y z
#
# Youngs Moduli (GPa) = 58.44025 85.81136 49.74634
#
# Poissons Ratio (x) = 0.43834 0.26496
# Poissons Ratio (y) = 0.29852 0.08289
# Poissons Ratio (z) = 0.31127 0.14299
#
# Static dielectric constant tensor:
#      x y z
#    x 1.641570 0.000000 -0.018080 
#    y 0.000000 1.667920 0.000000 
#    z -0.018080 0.000000 1.766700 
# 
# From -- ./inp_files/64422.got.cif
#   From: 2010.05.17/outbox.cif.g08.bks.cpg/sg12_33_cif.got.tgz:64422.got - 2010.06.03 13:09:07.
