data_PCOD9222983
_publ_section_title
;
Structure prediction by ZEFSAII (Michael W. Deem and Ramdas Pophale) SiO2 
 PCOD9222983
Probable space group: C 2/M
;
_chemical_formula_sum "Si O2"
_cell_formula_units_Z 40
_cell_length_a 15.160584
_cell_length_b 13.917460
_cell_length_c 8.891350
_cell_angle_alpha 90.000000
_cell_angle_beta 79.113143
_cell_angle_gamma 90.000000
_cell_volume 1842.281620
_symmetry_space_group_name_H-M "C 2/M"
_symmetry_group_IT_number 12
_symmetry_cell_setting 'monoclinic'
loop_
_space_group_symop_operation_xyz
x,y,z
-x,y,-z
-x,-y,-z
x,-y,z
1/2+x,1/2+y,z
1/2-x,1/2+y,-z
1/2-x,1/2-y,-z
1/2+x,1/2-y,z
loop_
_atom_site_type_symbol
_atom_site_label
_atom_site_fract_x
_atom_site_fract_y
_atom_site_fract_z
Si Si1 0.153797 0.000000 0.966367
Si Si2 0.234117 0.395334 0.721092
Si Si3 0.109883 0.143367 0.548113
Si Si4 0.899600 0.637285 0.517037
Si Si5 0.000078 0.000000 0.755457
Si Si6 0.755667 0.171500 0.216533
O O1 0.075909 0.000000 0.862134
O O2 0.209442 0.098619 0.922836
O O3 0.095211 0.000000 0.135584
O O4 0.220502 0.500000 0.804188
O O5 0.329621 0.398451 0.604456
O O6 0.159226 0.393639 0.609962
O O7 0.235463 0.288806 0.801800
O O8 0.089469 0.250583 0.513978
O O9 0.024453 0.089535 0.642707
O O10 0.179588 0.149017 0.664109
O O11 0.840380 0.634510 0.688991
O O12 0.000000 0.597656 0.500000
#
# Coordination Sequence:
#
# PCOD9222983 Si02
#       6
#     4   8   8   8   4   8
#     4   9  16  26  43  70  86 104 149 190 222 245
#     4   9  15  26  44  64  92 121 139 171 224 270
#     4   8  14  26  42  62  88 113 138 180 227 260
#     4   9  17  26  39  62  94 118 144 175 215 263
#     4   9  14  24  47  66  82 104 145 200 222 239
#     4   8  16  27  41  61  94 116 139 179 222 263
#
# _framework density 21.712206999999999
#
# number of rings (size 3 to 8) (size 9 to 14) (size 15 to 20)
#    0.000    3.400    1.000    2.400    4.200    0.400 
#    0.000    0.500    0.000    1.200    0.000   25.200 
#    0.000    0.000    0.000    0.000    0.000    0.800 
#
# Total GULP energy -111362.667697 kJ/mol
# GULP energy per Si atom -5568.133385 kJ/mol
# Density = 2.166279 g / cm^3
# Si number density = 21.712207 Si / 1000 Ang^3
#
#
#
# Elastic Constant Matrix: (Units=GPa)
#
#
# Indices 1 2 3 4 5 6 
#
# 1 117.8903 22.1076 43.6781 0.0000 -25.3385 0.0000
# 2 22.1076 208.3643 79.9150 0.0000 -20.3209 0.0000
# 3 43.6781 79.9150 116.7128 0.0000 -29.9909 0.0000
# 4 0.0000 0.0000 0.0000 36.3705 0.0000 2.7524
# 5 -25.3385 -20.3209 -29.9909 0.0000 40.8955 0.0000
# 6 0.0000 0.0000 0.0000 2.7524 0.0000 17.1381
#
#
#
# Elastic Compliance Matrix: (Units=1/GPa)
#
#
# Indices 1 2 3 4 5 6 
#
# 1 0.010509 0.000527 -0.003146 0.000000 0.004466 0.000000
# 2 0.000527 0.006535 -0.004625 0.000000 0.000182 0.000000
# 3 -0.003146 -0.004625 0.014566 0.000000 0.006434 0.000000
# 4 0.000000 0.000000 0.000000 0.027833 0.000000 -0.004470
# 5 0.004466 0.000182 0.006434 0.000000 0.032029 0.000000
# 6 0.000000 0.000000 0.000000 -0.004470 0.000000 0.059068
#
#
# Mechanical properties :
#
#
# Convention : Reuss Voigt Hill
#
# Bulk Modulus (GPa) = 58.40609 81.59654 70.00132
# Shear Modulus (GPa) = 29.28517 38.69860 33.99188
#
# Velocity S-wave (km/s) = 3.67657 4.22636 3.96102
# Velocity P-wave (km/s) = 6.70682 7.84084 7.29589
#
# Compressibility (1/GPa) = 0.01712150
#
# Stress axis : x y z
#
# Youngs Moduli (GPa) = 95.15485 153.02200 68.65406
#
# Poissons Ratio (x) = -0.08068 0.21601
# Poissons Ratio (y) = -0.05017 0.31754
# Poissons Ratio (z) = 0.29939 0.70775
#
# Static dielectric constant tensor:
#      x y z
#    x 1.868380 0.000000 0.011070 
#    y 0.000000 1.849970 0.000000 
#    z 0.011070 0.000000 1.763910 
# 
# From -- ./inp_files/142231.got.cif
#   From: 2010.05.17/outbox.cif.g08.bks.cpg/sg12_72_cif.got.tgz:142231.got - 2010.06.03 13:09:07.
