data_PCOD9222520
_publ_section_title
;
Structure prediction by ZEFSAII (Michael W. Deem and Ramdas Pophale) SiO2 
 PCOD9222520
Probable space group: C 2/M
;
_chemical_formula_sum "Si O2"
_cell_formula_units_Z 48
_cell_length_a 7.045359
_cell_length_b 13.909948
_cell_length_c 19.243389
_cell_angle_alpha 90.000000
_cell_angle_beta 63.304322
_cell_angle_gamma 90.000000
_cell_volume 1684.840167
_symmetry_space_group_name_H-M "C 2/M"
_symmetry_group_IT_number 12
_symmetry_cell_setting 'monoclinic'
loop_
_space_group_symop_operation_xyz
x,y,z
-x,y,-z
-x,-y,-z
x,-y,z
1/2+x,1/2+y,z
1/2-x,1/2+y,-z
1/2-x,1/2-y,-z
1/2+x,1/2-y,z
loop_
_atom_site_type_symbol
_atom_site_label
_atom_site_fract_x
_atom_site_fract_y
_atom_site_fract_z
Si Si1 0.765297 0.709634 0.795398
Si Si2 0.306952 0.383538 0.478764
Si Si3 0.067170 0.386330 0.099831
Si Si4 0.898871 0.111809 0.689384
Si Si5 0.009155 0.611363 0.641831
Si Si6 0.651208 0.385725 0.073855
O O1 0.919362 0.664991 0.828958
O O2 0.847061 0.814904 0.759113
O O3 0.044776 0.824695 0.866579
O O4 0.813445 0.655640 0.715191
O O5 0.500000 0.364097 0.500000
O O6 0.286585 0.500000 0.479249
O O7 0.391709 0.357414 0.388737
O O8 0.098736 0.347636 0.554147
O O9 0.075872 0.500000 0.111506
O O10 0.857688 0.369477 0.088228
O O11 0.265101 0.361867 0.017124
O O12 0.707321 0.115559 0.663898
O O13 0.913612 0.000000 0.709572
O O14 0.960961 0.500000 0.637722
O O15 0.600956 0.500000 0.083892
#
# Coordination Sequence:
#
# PCOD9222520 Si02
#       6
#     8   8   8   8   8   8
#     4  12  21  34  69 112 145 184 245 311 366 433
#     4   7  12  29  58  89 133 192 245 289 357 437
#     4   9  19  38  67 107 155 198 236 294 373 452
#     4   9  20  39  61  95 146 202 248 296 360 431
#     4   9  18  35  62 101 142 184 237 306 374 430
#     4   9  19  38  67 108 154 196 239 293 370 456
#
# _framework density 28.489348
#
# number of rings (size 3 to 8) (size 9 to 14) (size 15 to 20)
#    0.000    2.833    0.000    5.000    0.000    2.000 
#    3.000    0.000    0.000    9.000    0.000    5.833 
#    0.000   28.000    0.000    0.500    0.000    0.000 
#
# Total GULP energy -134610.490356 kJ/mol
# GULP energy per Si atom -5608.770431 kJ/mol
# Density = 2.842450 g / cm^3
# Si number density = 28.489348 Si / 1000 Ang^3
#
#
#
# Elastic Constant Matrix: (Units=GPa)
#
#
# Indices 1 2 3 4 5 6 
#
# 1 114.2314 40.9135 80.2200 0.0000 -17.7424 0.0000
# 2 40.9135 171.5779 111.5986 0.0000 -6.2847 0.0000
# 3 80.2200 111.5986 313.0789 -0.0001 -26.3829 0.0000
# 4 0.0000 0.0000 -0.0001 232.7187 0.0000 41.0534
# 5 -17.7424 -6.2847 -26.3829 0.0000 72.3670 0.0000
# 6 0.0000 0.0000 0.0000 41.0534 0.0000 32.3641
#
#
#
# Elastic Compliance Matrix: (Units=1/GPa)
#
#
# Indices 1 2 3 4 5 6 
#
# 1 0.011024 -0.001072 -0.002293 0.000000 0.001774 0.000000
# 2 -0.001072 0.007700 -0.002513 0.000000 -0.000510 0.000000
# 3 -0.002293 -0.002513 0.004758 0.000000 0.000954 0.000000
# 4 0.000000 0.000000 0.000000 0.005536 0.000000 -0.007022
# 5 0.001774 -0.000510 0.000954 0.000000 0.014557 0.000000
# 6 0.000000 0.000000 0.000000 -0.007022 0.000000 0.039806
#
#
# Mechanical properties :
#
#
# Convention : Reuss Voigt Hill
#
# Bulk Modulus (GPa) = 85.28705 118.26139 101.77422
# Shear Modulus (GPa) = 50.48238 91.90036 71.19137
#
# Velocity S-wave (km/s) = 4.21405 5.68576 5.00430
# Velocity P-wave (km/s) = 7.32660 9.20351 8.31816
#
# Compressibility (1/GPa) = 0.01172511
#
# Stress axis : x y z
#
# Youngs Moduli (GPa) = 90.71135 129.87559 210.18470
#
# Poissons Ratio (x) = 0.13927 0.48194
# Poissons Ratio (y) = 0.09727 0.52816
# Poissons Ratio (z) = 0.20800 0.32636
#
# Static dielectric constant tensor:
#      x y z
#    x 2.483340 0.000000 -0.045830 
#    y 0.000000 2.232320 0.000000 
#    z -0.045830 0.000000 2.154420 
# 
# From -- ./inp_files/261716.got.cif
#   From: 2010.05.17/outbox.cif.g08.bks.cpg/sg12_131_cif.got.tgz:261716.got - 2010.06.03 13:09:07.
