data_PCOD9222330
_publ_section_title
;
Structure prediction by ZEFSAII (Michael W. Deem and Ramdas Pophale) SiO2 
 PCOD9222330
Probable space group: C 2/M
;
_chemical_formula_sum "Si O2"
_cell_formula_units_Z 32
_cell_length_a 8.796604
_cell_length_b 19.367702
_cell_length_c 11.566177
_cell_angle_alpha 90.000000
_cell_angle_beta 42.770114
_cell_angle_gamma 90.000000
_cell_volume 1338.104880
_symmetry_space_group_name_H-M "C 2/M"
_symmetry_group_IT_number 12
_symmetry_cell_setting 'monoclinic'
loop_
_space_group_symop_operation_xyz
x,y,z
-x,y,-z
-x,-y,-z
x,-y,z
1/2+x,1/2+y,z
1/2-x,1/2+y,-z
1/2-x,1/2-y,-z
1/2+x,1/2-y,z
loop_
_atom_site_type_symbol
_atom_site_label
_atom_site_fract_x
_atom_site_fract_y
_atom_site_fract_z
Si Si1 0.328165 0.123177 0.248196
Si Si2 0.996829 0.772233 0.123606
Si Si3 0.637505 0.376928 0.606085
Si Si4 0.305313 0.500000 0.267329
Si Si5 0.165631 0.500000 0.084875
O O1 0.368386 0.200195 0.179837
O O2 0.282065 0.133808 0.410547
O O3 0.103170 0.098203 0.310126
O O4 0.528055 0.068239 0.122856
O O5 0.903056 0.812662 0.285888
O O6 0.250000 0.750000 0.000000
O O7 0.000000 0.813662 0.000000
O O8 0.742690 0.434065 0.628581
O O9 0.180037 0.500000 0.215984
O O10 0.575855 0.500000 0.096533
#
# Coordination Sequence:
#
# PCOD9222330 Si02
#       5
#     8   8   8   4   4
#     4  11  25  46  68  99 135 177 218 270 334 393
#     4  12  25  44  69  98 133 176 223 272 326 389
#     4  11  25  45  70  98 135 175 220 272 330 395
#     4  11  26  43  68 102 133 171 222 274 330 392
#     4  11  26  43  70 100 134 172 220 276 331 390
#
# _framework density 23.91442
#
# number of rings (size 3 to 8) (size 9 to 14) (size 15 to 20)
#    0.000    0.750    2.500    3.750    7.000    5.000 
#    0.000    0.000    0.000    0.000    0.000    0.000 
#    0.000    0.000    0.000    0.000    0.000    0.000 
#
# Total GULP energy -89615.659924 kJ/mol
# GULP energy per Si atom -5600.978745 kJ/mol
# Density = 2.385999 g / cm^3
# Si number density = 23.914420 Si / 1000 Ang^3
#
#
#
# Elastic Constant Matrix: (Units=GPa)
#
#
# Indices 1 2 3 4 5 6 
#
# 1 94.6344 22.5088 28.7572 0.0000 21.7067 0.0000
# 2 22.5088 96.7436 20.7463 0.0000 10.4137 0.0000
# 3 28.7572 20.7463 118.1524 0.0000 28.5053 0.0000
# 4 0.0000 0.0000 0.0000 25.9253 0.0000 7.7377
# 5 21.7067 10.4137 28.5053 0.0000 52.8424 0.0000
# 6 0.0000 0.0000 0.0000 7.7377 0.0000 49.3826
#
#
#
# Elastic Compliance Matrix: (Units=1/GPa)
#
#
# Indices 1 2 3 4 5 6 
#
# 1 0.012466 -0.002120 -0.001756 0.000000 -0.003756 0.000000
# 2 -0.002120 0.011175 -0.001293 0.000000 -0.000634 0.000000
# 3 -0.001756 -0.001293 0.010212 0.000000 -0.004532 0.000000
# 4 0.000000 0.000000 0.000000 0.040465 0.000000 -0.006340
# 5 -0.003756 -0.000634 -0.004532 0.000000 0.023037 0.000000
# 6 0.000000 0.000000 0.000000 -0.006340 0.000000 0.021244
#
#
# Mechanical properties :
#
#
# Convention : Reuss Voigt Hill
#
# Bulk Modulus (GPa) = 42.52524 50.39502 46.46013
# Shear Modulus (GPa) = 36.55649 41.46458 39.01053
#
# Velocity S-wave (km/s) = 3.91402 4.16850 4.04326
# Velocity P-wave (km/s) = 6.18441 6.65487 6.42395
#
# Compressibility (1/GPa) = 0.02351545
#
# Stress axis : x y z
#
# Youngs Moduli (GPa) = 80.21677 89.48254 97.92794
#
# Poissons Ratio (x) = 0.18967 0.17194
# Poissons Ratio (y) = 0.17003 0.12666
# Poissons Ratio (z) = 0.14084 0.11574
#
# Static dielectric constant tensor:
#      x y z
#    x 1.876400 0.000000 -0.006680 
#    y 0.000000 1.929110 0.000000 
#    z -0.006680 0.000000 1.857170 
# 
# From -- ./inp_files/119921.got.cif
#   From: 2010.05.17/outbox.cif.g08.bks.cpg/sg12_60_cif.got.tgz:119921.got - 2010.06.03 13:09:07.
