data_PCOD9222440
_publ_section_title
;
Structure prediction by ZEFSAII (Michael W. Deem and Ramdas Pophale) SiO2 
 PCOD9222440
Probable space group: C 2/M
;
_chemical_formula_sum "Si O2"
_cell_formula_units_Z 44
_cell_length_a 8.409917
_cell_length_b 29.118784
_cell_length_c 8.759388
_cell_angle_alpha 90.000000
_cell_angle_beta 102.542363
_cell_angle_gamma 90.000000
_cell_volume 2093.866119
_symmetry_space_group_name_H-M "C 2/M"
_symmetry_group_IT_number 12
_symmetry_cell_setting 'monoclinic'
loop_
_space_group_symop_operation_xyz
x,y,z
-x,y,-z
-x,-y,-z
x,-y,z
1/2+x,1/2+y,z
1/2-x,1/2+y,-z
1/2-x,1/2-y,-z
1/2+x,1/2-y,z
loop_
_atom_site_type_symbol
_atom_site_label
_atom_site_fract_x
_atom_site_fract_y
_atom_site_fract_z
Si Si1 0.321676 0.807091 0.725977
Si Si2 0.164553 0.603539 0.086000
Si Si3 0.500000 0.142970 0.500000
Si Si4 0.776870 0.883169 0.771134
Si Si5 0.548103 0.554267 0.685894
Si Si6 0.974857 0.792150 0.811270
O O1 0.382626 0.847766 0.849315
O O2 0.374313 0.826055 0.571856
O O3 0.406826 0.758275 0.764471
O O4 0.134936 0.800626 0.741030
O O5 0.282853 0.577674 0.227622
O O6 0.256257 0.613273 0.947684
O O7 0.000000 0.578177 0.000000
O O8 0.390742 0.113761 0.359118
O O9 0.851330 0.833233 0.750916
O O10 0.904733 0.921585 0.749334
O O11 0.500000 0.562337 0.500000
O O12 0.556625 0.500000 0.715028
O O13 0.000000 0.794089 0.000000
#
# Coordination Sequence:
#
# PCOD9222440 Si02
#       6
#     8   8   4   8   8   8
#     4  12  25  43  66 104 144 194 244 297 362 429
#     4  12  24  46  74 106 143 188 242 294 360 432
#     4  12  28  44  65 104 150 190 245 308 358 424
#     4  12  25  44  72 103 141 191 240 302 360 426
#     4  11  26  50  77 108 145 186 234 299 376 441
#     4  12  24  41  70  99 140 190 250 301 356 427
#
# _framework density 21.013760999999999
#
# number of rings (size 3 to 8) (size 9 to 14) (size 15 to 20)
#    0.000    0.182    5.455    3.818    0.000    4.727 
#    0.000    0.455    0.000    0.000    0.000    0.000 
#    0.000    0.000    0.000    0.000    0.000    0.000 
#
# Total GULP energy -123017.943658 kJ/mol
# GULP energy per Si atom -5591.724712 kJ/mol
# Density = 2.096593 g / cm^3
# Si number density = 21.013761 Si / 1000 Ang^3
#
#
#
# Elastic Constant Matrix: (Units=GPa)
#
#
# Indices 1 2 3 4 5 6 
#
# 1 95.2861 44.9607 51.8533 0.0000 0.0817 0.0000
# 2 44.9607 75.3893 60.0118 0.0000 7.8955 0.0000
# 3 51.8533 60.0118 112.8468 0.0000 6.8675 0.0000
# 4 0.0000 0.0000 0.0000 35.4626 0.0000 -2.7137
# 5 0.0817 7.8955 6.8675 0.0000 55.5096 0.0000
# 6 0.0000 0.0000 0.0000 -2.7137 0.0000 20.7711
#
#
#
# Elastic Compliance Matrix: (Units=1/GPa)
#
#
# Indices 1 2 3 4 5 6 
#
# 1 0.015603 -0.006372 -0.003864 0.000000 0.001361 0.000000
# 2 -0.006372 0.025778 -0.010638 0.000000 -0.002341 0.000000
# 3 -0.003864 -0.010638 0.016325 0.000000 -0.000501 0.000000
# 4 0.000000 0.000000 0.000000 0.028484 0.000000 0.003721
# 5 0.001361 -0.002341 -0.000501 0.000000 0.018408 0.000000
# 6 0.000000 0.000000 0.000000 0.003721 0.000000 0.048630
#
#
# Mechanical properties :
#
#
# Convention : Reuss Voigt Hill
#
# Bulk Modulus (GPa) = 62.66623 66.35265 64.50944
# Shear Modulus (GPa) = 24.96317 30.79509 27.87913
#
# Velocity S-wave (km/s) = 3.45040 3.83230 3.64635
# Velocity P-wave (km/s) = 6.76461 7.15726 6.96370
#
# Compressibility (1/GPa) = 0.01595756
#
# Stress axis : x y z
#
# Youngs Moduli (GPa) = 64.09102 38.79223 61.25621
#
# Poissons Ratio (x) = 0.24719 0.23667
# Poissons Ratio (y) = 0.40840 0.65167
# Poissons Ratio (z) = 0.24762 0.41269
#
# Static dielectric constant tensor:
#      x y z
#    x 1.844470 0.000000 0.022870 
#    y 0.000000 1.712570 0.000000 
#    z 0.022870 0.000000 1.787750 
# 
# From -- ./inp_files/41840.got.cif
#   From: 2010.05.17/outbox.cif.g08.bks.cpg/sg12_21_cif.got.tgz:41840.got - 2010.06.03 13:09:07.
