data_PCOD9222284
_publ_section_title
;
Structure prediction by ZEFSAII (Michael W. Deem and Ramdas Pophale) SiO2 
 PCOD9222284
Probable space group: C 2/M
;
_chemical_formula_sum "Si O2"
_cell_formula_units_Z 40
_cell_length_a 18.096130
_cell_length_b 21.179228
_cell_length_c 10.069836
_cell_angle_alpha 90.000000
_cell_angle_beta 152.528607
_cell_angle_gamma 90.000000
_cell_volume 1780.356752
_symmetry_space_group_name_H-M "C 2/M"
_symmetry_group_IT_number 12
_symmetry_cell_setting 'monoclinic'
loop_
_space_group_symop_operation_xyz
x,y,z
-x,y,-z
-x,-y,-z
x,-y,z
1/2+x,1/2+y,z
1/2-x,1/2+y,-z
1/2-x,1/2-y,-z
1/2+x,1/2-y,z
loop_
_atom_site_type_symbol
_atom_site_label
_atom_site_fract_x
_atom_site_fract_y
_atom_site_fract_z
Si Si1 0.838192 0.571914 0.153187
Si Si2 0.690710 0.296006 0.292319
Si Si3 0.364027 0.925243 0.886125
Si Si4 0.322283 0.569712 0.656493
Si Si5 0.691760 0.798811 0.800092
O O1 0.769722 0.500000 0.043079
O O2 0.743903 0.629968 0.070122
O O3 0.000000 0.567075 0.500000
O O4 0.863349 0.594137 0.039246
O O5 0.750000 0.250000 0.500000
O O6 0.754707 0.367943 0.404587
O O7 0.748017 0.272633 0.242899
O O8 0.500000 0.298918 0.000000
O O9 0.200507 0.919269 0.538371
O O10 0.392941 0.000000 0.942517
O O11 0.500000 0.899812 0.000000
O O12 0.250711 0.500000 0.571746
O O13 0.500000 0.567163 0.000000
O O14 0.500000 0.802177 0.500000
O O15 0.750000 0.750000 0.000000
#
# Coordination Sequence:
#
# PCOD9222284 Si02
#       5
#     8   8   8   8   8
#     4   9  20  38  62  95 132 167 214 271 327 382
#     4  11  25  44  68  95 126 173 221 265 321 387
#     4   9  18  32  59  95 127 166 211 264 321 377
#     4   9  20  38  62  93 130 164 211 267 321 377
#     4  11  25  44  66  95 131 173 211 266 334 385
#
# _framework density 22.467409
#
# number of rings (size 3 to 8) (size 9 to 14) (size 15 to 20)
#    0.000    2.200    0.000    1.200    8.400    1.600 
#    0.000    0.000    0.000    0.600    0.000    0.000 
#    0.000    0.000    0.000    0.000    0.000    0.000 
#
# Total GULP energy -111472.634524 kJ/mol
# GULP energy per Si atom -5573.631726 kJ/mol
# Density = 2.241627 g / cm^3
# Si number density = 22.467409 Si / 1000 Ang^3
#
#
#
# Elastic Constant Matrix: (Units=GPa)
#
#
# Indices 1 2 3 4 5 6 
#
# 1 125.9511 24.5939 50.4807 0.0000 -43.0221 0.0000
# 2 24.5939 137.2073 32.9728 0.0000 -16.9635 0.0000
# 3 50.4807 32.9728 131.0154 0.0000 -31.8836 0.0000
# 4 0.0000 0.0000 0.0000 30.1668 0.0000 -6.9231
# 5 -43.0221 -16.9635 -31.8836 0.0000 47.4488 0.0000
# 6 0.0000 0.0000 0.0000 -6.9231 0.0000 30.7826
#
#
#
# Elastic Compliance Matrix: (Units=1/GPa)
#
#
# Indices 1 2 3 4 5 6 
#
# 1 0.012121 -0.000474 -0.002292 0.000000 0.009280 0.000000
# 2 -0.000474 0.007899 -0.001462 0.000000 0.001412 0.000000
# 3 -0.002292 -0.001462 0.009864 0.000000 0.004027 0.000000
# 4 0.000000 0.000000 0.000000 0.034953 0.000000 0.007861
# 5 0.009280 0.001412 0.004027 0.000000 0.032700 0.000000
# 6 0.000000 0.000000 0.000000 0.007861 0.000000 0.034254
#
#
# Mechanical properties :
#
#
# Convention : Reuss Voigt Hill
#
# Bulk Modulus (GPa) = 46.67055 67.80762 57.23909
# Shear Modulus (GPa) = 33.92358 40.75474 37.33916
#
# Velocity S-wave (km/s) = 3.88996 4.26367 4.08109
# Velocity P-wave (km/s) = 6.40261 7.38136 6.90934
#
# Compressibility (1/GPa) = 0.02142679
#
# Stress axis : x y z
#
# Youngs Moduli (GPa) = 82.50225 126.59735 101.38061
#
# Poissons Ratio (x) = 0.06006 0.23241
# Poissons Ratio (y) = 0.03914 0.14818
# Poissons Ratio (z) = 0.18913 0.18504
#
# Static dielectric constant tensor:
#      x y z
#    x 1.872240 0.000000 0.038560 
#    y 0.000000 1.881710 0.000000 
#    z 0.038560 0.000000 1.926320 
# 
# From -- ./inp_files/79317.got.cif
#   From: 2010.05.17/outbox.cif.g08.bks.cpg/sg12_40_cif.got.tgz:79317.got - 2010.06.03 13:09:07.
