data_PCOD9222392
_publ_section_title
;
Structure prediction by ZEFSAII (Michael W. Deem and Ramdas Pophale) SiO2 
 PCOD9222392
Probable space group: C 2/M
;
_chemical_formula_sum "Si O2"
_cell_formula_units_Z 28
_cell_length_a 15.545836
_cell_length_b 15.039714
_cell_length_c 9.230050
_cell_angle_alpha 90.000000
_cell_angle_beta 30.507783
_cell_angle_gamma 90.000000
_cell_volume 1095.536179
_symmetry_space_group_name_H-M "C 2/M"
_symmetry_group_IT_number 12
_symmetry_cell_setting 'monoclinic'
loop_
_space_group_symop_operation_xyz
x,y,z
-x,y,-z
-x,-y,-z
x,-y,z
1/2+x,1/2+y,z
1/2-x,1/2+y,-z
1/2-x,1/2-y,-z
1/2+x,1/2-y,z
loop_
_atom_site_type_symbol
_atom_site_label
_atom_site_fract_x
_atom_site_fract_y
_atom_site_fract_z
Si Si1 0.770800 0.500000 0.513896
Si Si2 0.671872 0.838402 0.344412
Si Si3 0.190594 0.659469 0.766548
Si Si4 0.664982 0.396773 0.163073
O O1 0.800370 0.422122 0.593778
O O2 0.747734 0.578436 0.422265
O O3 0.500000 0.842551 0.500000
O O4 0.696809 0.747692 0.396020
O O5 0.815241 0.840559 0.009936
O O6 0.186985 0.622935 0.936937
O O7 0.000000 0.681652 0.000000
O O8 0.500000 0.379989 0.500000
O O9 0.667751 0.500000 0.117759
#
# Coordination Sequence:
#
# PCOD9222392 Si02
#       4
#     4   8   8   8
#     4  12  26  46  79 116 156 204 257 324 395 464
#     4  12  27  50  83 116 154 208 271 318 386 476
#     4  12  27  49  77 115 163 205 257 328 399 458
#     4  11  25  49  77 110 155 210 260 315 385 470
#
# _framework density 25.558259
#
# number of rings (size 3 to 8) (size 9 to 14) (size 15 to 20)
#    0.000    0.286    2.857    5.143    4.000    4.571 
#    0.000    2.143    0.000    0.000    0.000    0.000 
#    0.000    0.000    0.000    0.000    0.000    0.000 
#
# Total GULP energy -78018.685615 kJ/mol
# GULP energy per Si atom -5572.763258 kJ/mol
# Density = 2.550009 g / cm^3
# Si number density = 25.558259 Si / 1000 Ang^3
#
#
#
# Elastic Constant Matrix: (Units=GPa)
#
#
# Indices 1 2 3 4 5 6 
#
# 1 147.2289 92.7442 51.6652 -0.0009 36.5587 0.0004
# 2 92.7442 255.9095 58.2546 -0.0014 34.3258 0.0009
# 3 51.6652 58.2546 78.7230 -0.0013 22.3103 0.0008
# 4 -0.0009 -0.0014 -0.0013 6.4943 0.0015 20.3485
# 5 36.5587 34.3258 22.3103 0.0015 25.7285 -0.0009
# 6 0.0004 0.0009 0.0008 20.3485 -0.0009 57.3350
#
#
#
# Elastic Compliance Matrix: (Units=1/GPa)
#
#
# Indices 1 2 3 4 5 6 
#
# 1 0.012114 -0.002121 -0.003055 -0.000034 -0.011734 0.000012
# 2 -0.002121 0.005462 -0.001908 -0.000012 -0.002619 0.000004
# 3 -0.003055 -0.001908 0.018784 -0.000055 -0.009402 0.000019
# 4 -0.000034 -0.000012 -0.000055 -1.374618 0.000209 0.487860
# 5 -0.011734 -0.002619 -0.009402 0.000209 0.067189 -0.000073
# 6 0.000012 0.000004 0.000019 0.487860 -0.000073 -0.155703
#
#
# Mechanical properties :
#
#
# Convention : Reuss Voigt Hill
#
# Bulk Modulus (GPa) = 45.06033 98.57662 71.81848
# Shear Modulus (GPa) = -3.55819 36.52472 16.48326
#
# Velocity S-wave (km/s) = -1.18119 3.78441 2.54230
# Velocity P-wave (km/s) = 3.97598 7.59927 6.06454
#
# Compressibility (1/GPa) = 0.02219247
#
# Stress axis : x y z
#
# Youngs Moduli (GPa) = 82.54840 183.09059 53.23648
#
# Poissons Ratio (x) = 0.38829 0.16266
# Poissons Ratio (y) = 0.17507 0.10155
# Poissons Ratio (z) = 0.25222 0.34925
#
# Static dielectric constant tensor:
#      x y z
#    x 2.031590 0.000000 -0.091530 
#    y 0.000000 1.926110 0.000000 
#    z -0.091530 0.000000 2.091620 
# 
# From -- ./inp_files/58874.got.cif
#   From: 2010.05.17/outbox.cif.g08.bks.cpg/sg12_30_cif.got.tgz:58874.got - 2010.06.03 13:09:07.
