data_PCOD9222119
_publ_section_title
;
Structure prediction by ZEFSAII (Michael W. Deem and Ramdas Pophale) SiO2 
 PCOD9222119
Probable space group: C 2/M
;
_chemical_formula_sum "Si O2"
_cell_formula_units_Z 48
_cell_length_a 14.991209
_cell_length_b 25.578404
_cell_length_c 11.771591
_cell_angle_alpha 90.000000
_cell_angle_beta 149.123273
_cell_angle_gamma 90.000000
_cell_volume 2316.464836
_symmetry_space_group_name_H-M "C 2/M"
_symmetry_group_IT_number 12
_symmetry_cell_setting 'monoclinic'
loop_
_space_group_symop_operation_xyz
x,y,z
-x,y,-z
-x,-y,-z
x,-y,z
1/2+x,1/2+y,z
1/2-x,1/2+y,-z
1/2-x,1/2-y,-z
1/2+x,1/2-y,z
loop_
_atom_site_type_symbol
_atom_site_label
_atom_site_fract_x
_atom_site_fract_y
_atom_site_fract_z
Si Si1 0.057844 0.109016 0.315434
Si Si2 0.553801 0.110128 0.331943
Si Si3 0.038094 0.000000 0.906140
Si Si4 0.369225 0.181995 0.962807
Si Si5 0.500000 0.641681 0.500000
Si Si6 0.617271 0.702848 0.014185
Si Si7 0.053444 0.500000 0.690864
Si Si8 0.500000 0.173145 0.500000
O O1 0.261048 0.121185 0.522309
O O2 0.017099 0.108006 0.404198
O O3 0.032011 0.053863 0.223895
O O4 0.943879 0.155300 0.132776
O O5 0.515885 0.050185 0.317953
O O6 0.552706 0.137865 0.451663
O O7 0.409318 0.136180 0.094783
O O8 0.239856 0.000000 0.093680
O O9 0.000000 0.000000 0.000000
O O10 0.173136 0.176271 0.704237
O O11 0.408481 0.238555 0.061513
O O12 0.500000 0.177027 0.000000
O O13 0.820888 0.700706 0.268360
O O14 0.500000 0.698469 0.000000
O O15 0.000000 0.500000 0.500000
#
# Coordination Sequence:
#
# PCOD9222119 Si02
#       8
#     8   8   4   8   4   8   4   4
#     4  12  26  46  71 104 141 187 234 290 349 417
#     4  12  25  45  70 104 141 178 231 289 351 418
#     4  12  26  45  74 105 144 178 231 295 350 416
#     4  11  25  46  70 100 141 189 237 286 340 418
#     4  12  25  47  72  98 144 187 239 280 350 418
#     4  11  24  43  70 103 140 184 237 290 351 410
#     4  12  24  44  71 106 135 176 222 284 353 408
#     4  12  23  41  70 102 142 179 229 286 356 416
#
# _framework density 20.721229999999998
#
# number of rings (size 3 to 8) (size 9 to 14) (size 15 to 20)
#    0.000    0.333    4.167    5.500    0.000    5.000 
#    0.000    1.250    0.000    0.000    0.000    0.000 
#    0.000    0.000    0.000    0.000    0.000    0.000 
#
# Total GULP energy -134235.903917 kJ/mol
# GULP energy per Si atom -5593.162663 kJ/mol
# Density = 2.067407 g / cm^3
# Si number density = 20.721230 Si / 1000 Ang^3
#
#
#
# Elastic Constant Matrix: (Units=GPa)
#
#
# Indices 1 2 3 4 5 6 
#
# 1 142.1765 45.2731 38.7982 0.0000 -3.1343 0.0000
# 2 45.2731 152.2394 47.5277 0.0000 -27.3419 0.0000
# 3 38.7982 47.5277 123.6943 0.0000 13.5537 0.0000
# 4 0.0000 0.0000 0.0000 19.7181 0.0000 4.4076
# 5 -3.1343 -27.3419 13.5537 0.0000 48.2084 0.0000
# 6 0.0000 0.0000 0.0000 4.4076 0.0000 66.1778
#
#
#
# Elastic Compliance Matrix: (Units=1/GPa)
#
#
# Indices 1 2 3 4 5 6 
#
# 1 0.008122 -0.001840 -0.001841 0.000000 0.000002 0.000000
# 2 -0.001840 0.009402 -0.003721 0.000000 0.006259 0.000000
# 3 -0.001841 -0.003721 0.010664 0.000000 -0.005228 0.000000
# 4 0.000000 0.000000 0.000000 0.051481 0.000000 -0.003429
# 5 0.000002 0.006259 -0.005228 0.000000 0.025763 0.000000
# 6 0.000000 0.000000 0.000000 -0.003429 0.000000 0.015339
#
#
# Mechanical properties :
#
#
# Convention : Reuss Voigt Hill
#
# Bulk Modulus (GPa) = 74.71597 75.70091 75.20844
# Shear Modulus (GPa) = 35.70504 45.92162 40.81333
#
# Velocity S-wave (km/s) = 4.15554 4.71272 4.44288
# Velocity P-wave (km/s) = 7.69160 8.13789 7.91789
#
# Compressibility (1/GPa) = 0.01338402
#
# Stress axis : x y z
#
# Youngs Moduli (GPa) = 123.12482 106.36497 93.77018
#
# Poissons Ratio (x) = 0.19575 0.17259
# Poissons Ratio (y) = 0.22659 0.34892
# Poissons Ratio (z) = 0.22662 0.39578
#
# Static dielectric constant tensor:
#      x y z
#    x 1.705770 0.000000 -0.007600 
#    y 0.000000 1.757770 0.000000 
#    z -0.007600 0.000000 1.785880 
# 
# From -- ./inp_files/149941.got.cif
#   From: 2010.05.17/outbox.cif.g08.bks.cpg/sg12_75_cif.got.tgz:149941.got - 2010.06.03 13:09:07.
