data_PCOD9222183
_publ_section_title
;
Structure prediction by ZEFSAII (Michael W. Deem and Ramdas Pophale) SiO2 
 PCOD9222183
Probable space group: C 2/M
;
_chemical_formula_sum "Si O2"
_cell_formula_units_Z 42
_cell_length_a 14.596477
_cell_length_b 7.384548
_cell_length_c 24.458947
_cell_angle_alpha 90.000000
_cell_angle_beta 132.582571
_cell_angle_gamma 90.000000
_cell_volume 1941.182038
_symmetry_space_group_name_H-M "C 2/M"
_symmetry_group_IT_number 12
_symmetry_cell_setting 'monoclinic'
loop_
_space_group_symop_operation_xyz
x,y,z
-x,y,-z
-x,-y,-z
x,-y,z
1/2+x,1/2+y,z
1/2-x,1/2+y,-z
1/2-x,1/2-y,-z
1/2+x,1/2-y,z
loop_
_atom_site_type_symbol
_atom_site_label
_atom_site_fract_x
_atom_site_fract_y
_atom_site_fract_z
Si Si1 0.112494 0.219831 0.583873
Si Si2 0.105017 0.781211 0.185193
Si Si3 0.387861 0.210550 0.684802
Si Si4 0.125067 0.785878 0.984002
Si Si5 0.500000 0.000000 0.000000
Si Si6 0.120832 0.288983 0.714747
O O1 0.248895 0.285154 0.619861
O O2 0.096363 0.277647 0.640063
O O3 0.000000 0.279091 0.500000
O O4 0.114504 0.000000 0.584770
O O5 0.087851 0.720916 0.240653
O O6 0.240385 0.713833 0.220564
O O7 0.991498 0.726298 0.101262
O O8 0.107365 0.000000 0.186863
O O9 0.504374 0.291977 0.699857
O O10 0.380463 0.000000 0.665250
O O11 0.104509 0.659636 0.027706
O O12 0.117579 0.000000 0.993146
O O13 0.250000 0.750000 0.000000
O O14 0.128711 0.500000 0.734218
#
# Coordination Sequence:
#
# PCOD9222183 Si02
#       6
#     8   8   8   8   2   8
#     4   9  18  32  48  72 108 146 184 234 289 348
#     4   9  20  37  57  83 116 147 191 253 304 362
#     4   9  18  32  54  78 104 148 191 234 298 360
#     4  11  24  45  68  98 136 174 221 274 333 404
#     4  12  26  44  72 100 132 180 216 272 332 404
#     4   9  18  34  52  77 109 140 189 242 288 353
#
# _framework density 21.636303000000002
#
# number of rings (size 3 to 8) (size 9 to 14) (size 15 to 20)
#    0.000    2.476    0.952    0.286    1.333    3.429 
#    0.000    1.905    0.000    0.000    0.000    0.000 
#    0.000    0.000    0.000    0.000    0.000    0.000 
#
# Total GULP energy -116972.242622 kJ/mol
# GULP energy per Si atom -5570.106792 kJ/mol
# Density = 2.158706 g / cm^3
# Si number density = 21.636303 Si / 1000 Ang^3
#
#
#
# Elastic Constant Matrix: (Units=GPa)
#
#
# Indices 1 2 3 4 5 6 
#
# 1 188.0647 15.7206 55.6171 0.0000 46.2276 0.0000
# 2 15.7206 114.5222 -5.9999 0.0000 7.9964 0.0000
# 3 55.6171 -5.9999 120.2500 0.0000 29.6340 0.0000
# 4 0.0000 0.0000 0.0000 10.1823 0.0000 25.2703
# 5 46.2276 7.9964 29.6340 0.0000 18.7300 0.0000
# 6 0.0000 0.0000 0.0000 25.2703 0.0000 398.6470
#
#
#
# Elastic Compliance Matrix: (Units=1/GPa)
#
#
# Indices 1 2 3 4 5 6 
#
# 1 0.014470 0.001152 0.003749 0.000000 -0.042136 0.000000
# 2 0.001152 0.009493 0.002689 0.000000 -0.011151 0.000000
# 3 0.003749 0.002689 0.015210 0.000000 -0.034465 0.000000
# 4 0.000000 0.000000 0.000000 0.116544 0.000000 -0.007388
# 5 -0.042136 -0.011151 -0.034465 0.000000 0.216679 0.000000
# 6 0.000000 0.000000 0.000000 -0.007388 0.000000 0.002977
#
#
# Mechanical properties :
#
#
# Convention : Reuss Voigt Hill
#
# Bulk Modulus (GPa) = 18.39835 61.50140 39.94988
# Shear Modulus (GPa) = 13.21667 109.34511 61.28089
#
# Velocity S-wave (km/s) = 2.47423 7.11671 5.32773
# Velocity P-wave (km/s) = 4.08465 9.79882 7.50670
#
# Compressibility (1/GPa) = 0.05435269
#
# Stress axis : x y z
#
# Youngs Moduli (GPa) = 69.10979 105.33843 65.74741
#
# Poissons Ratio (x) = -0.12138 -0.24649
# Poissons Ratio (y) = -0.07963 -0.17678
# Poissons Ratio (z) = -0.25910 -0.28322
#
# Static dielectric constant tensor:
#      x y z
#    x 1.796070 0.000000 0.011970 
#    y 0.000000 1.810700 0.000000 
#    z 0.011970 0.000000 1.812270 
# 
# From -- ./inp_files/267080.got.cif
#   From: 2010.05.17/outbox.cif.g08.bks.cpg/sg12_134_cif.got.tgz:267080.got - 2010.06.03 13:09:07.
