data_PCOD9222166
_publ_section_title
;
Structure prediction by ZEFSAII (Michael W. Deem and Ramdas Pophale) SiO2 
 PCOD9222166
Probable space group: C 2/M
;
_chemical_formula_sum "Si O2"
_cell_formula_units_Z 48
_cell_length_a 15.076982
_cell_length_b 18.930854
_cell_length_c 11.315617
_cell_angle_alpha 90.000000
_cell_angle_beta 40.583771
_cell_angle_gamma 90.000000
_cell_volume 2101.114098
_symmetry_space_group_name_H-M "C 2/M"
_symmetry_group_IT_number 12
_symmetry_cell_setting 'monoclinic'
loop_
_space_group_symop_operation_xyz
x,y,z
-x,y,-z
-x,-y,-z
x,-y,z
1/2+x,1/2+y,z
1/2-x,1/2+y,-z
1/2-x,1/2-y,-z
1/2+x,1/2-y,z
loop_
_atom_site_type_symbol
_atom_site_label
_atom_site_fract_x
_atom_site_fract_y
_atom_site_fract_z
Si Si1 0.497980 0.103436 0.247757
Si Si2 0.101513 0.841840 0.130017
Si Si3 0.122804 0.257377 0.715643
Si Si4 0.683396 0.000000 0.913556
Si Si5 0.500000 0.145019 0.500000
Si Si6 0.451244 0.500000 0.762726
Si Si7 0.776020 0.500000 0.398419
Si Si8 0.284445 0.251745 0.777250
O O1 0.481517 0.183614 0.225586
O O2 0.529639 0.100290 0.354048
O O3 0.350284 0.067338 0.380675
O O4 0.610913 0.065229 0.053720
O O5 0.092049 0.926187 0.133271
O O6 0.132225 0.810854 0.232174
O O7 0.961478 0.814169 0.214122
O O8 0.216752 0.802916 0.937224
O O9 0.250000 0.250000 0.500000
O O10 0.173733 0.278500 0.794826
O O11 0.663347 0.000000 0.795158
O O12 0.846694 0.000000 0.758984
O O13 0.378194 0.200327 0.603482
O O14 0.613050 0.500000 0.573325
#
# Coordination Sequence:
#
# PCOD9222166 Si02
#       8
#     8   8   8   4   4   4   4   8
#     4  11  24  45  77 106 141 192 253 309 369 444
#     4  11  26  46  71 108 147 190 245 306 378 451
#     4  12  23  44  75 107 141 190 246 309 371 446
#     4  11  27  49  69 108 150 196 245 311 367 461
#     4  12  22  45  76 101 140 186 246 312 364 443
#     4  12  27  48  71 106 154 201 240 303 390 448
#     4  11  27  47  69 108 154 194 249 307 379 453
#     4  11  24  44  72 109 143 187 247 308 372 434
#
# _framework density 22.845022
#
# number of rings (size 3 to 8) (size 9 to 14) (size 15 to 20)
#    0.000    0.667    3.333    3.750    4.667    2.667 
#    3.000    3.333    0.000    0.000    0.000    0.000 
#    0.000    0.000    0.000    0.000    0.000    0.000 
#
# Total GULP energy -134139.114541 kJ/mol
# GULP energy per Si atom -5589.129773 kJ/mol
# Density = 2.279303 g / cm^3
# Si number density = 22.845022 Si / 1000 Ang^3
#
#
#
# Elastic Constant Matrix: (Units=GPa)
#
#
# Indices 1 2 3 4 5 6 
#
# 1 115.5685 8.2470 32.0079 0.0000 9.7798 0.0000
# 2 8.2470 113.7868 25.9772 0.0000 5.7275 0.0000
# 3 32.0079 25.9772 87.7864 -0.0001 -9.7346 0.0000
# 4 0.0000 0.0000 -0.0001 22.5961 0.0000 -6.8381
# 5 9.7798 5.7275 -9.7346 0.0000 46.8350 0.0000
# 6 0.0000 0.0000 0.0000 -6.8381 0.0000 24.5901
#
#
#
# Elastic Compliance Matrix: (Units=1/GPa)
#
#
# Indices 1 2 3 4 5 6 
#
# 1 0.010012 0.000358 -0.004087 0.000000 -0.002984 0.000000
# 2 0.000358 0.009584 -0.003178 0.000000 -0.001907 0.000000
# 3 -0.004087 -0.003178 0.014289 0.000000 0.004212 0.000000
# 4 0.000000 0.000000 0.000000 0.048322 0.000000 0.013438
# 5 -0.002984 -0.001907 0.004212 0.000000 0.023083 0.000000
# 6 0.000000 0.000000 0.000000 0.013438 0.000000 0.044403
#
#
# Mechanical properties :
#
#
# Convention : Reuss Voigt Hill
#
# Bulk Modulus (GPa) = 49.82577 49.95619 49.89098
# Shear Modulus (GPa) = 29.37747 35.53155 32.45451
#
# Velocity S-wave (km/s) = 3.58990 3.94805 3.77322
# Velocity P-wave (km/s) = 6.24827 6.53434 6.39291
#
# Compressibility (1/GPa) = 0.02006994
#
# Stress axis : x y z
#
# Youngs Moduli (GPa) = 99.88180 104.34110 69.98416
#
# Poissons Ratio (x) = -0.03732 0.28603
# Poissons Ratio (y) = -0.03572 0.22240
# Poissons Ratio (z) = 0.40823 0.33159
#
# Static dielectric constant tensor:
#      x y z
#    x 1.898030 0.000000 -0.034980 
#    y 0.000000 1.924170 0.000000 
#    z -0.034980 0.000000 1.880020 
# 
# From -- ./inp_files/147991.got.cif
#   From: 2010.05.17/outbox.cif.g08.bks.cpg/sg12_74_cif.got.tgz:147991.got - 2010.06.03 13:09:07.
