data_PCOD9222868
_publ_section_title
;
Structure prediction by ZEFSAII (Michael W. Deem and Ramdas Pophale) SiO2 
 PCOD9222868
Probable space group: C 2/M
;
_chemical_formula_sum "Si O2"
_cell_formula_units_Z 64
_cell_length_a 14.570185
_cell_length_b 7.368907
_cell_length_c 23.595012
_cell_angle_alpha 90.000000
_cell_angle_beta 75.528643
_cell_angle_gamma 90.000000
_cell_volume 2452.934921
_symmetry_space_group_name_H-M "C 2/M"
_symmetry_group_IT_number 12
_symmetry_cell_setting 'monoclinic'
loop_
_space_group_symop_operation_xyz
x,y,z
-x,y,-z
-x,-y,-z
x,-y,z
1/2+x,1/2+y,z
1/2-x,1/2+y,-z
1/2-x,1/2-y,-z
1/2+x,1/2-y,z
loop_
_atom_site_type_symbol
_atom_site_label
_atom_site_fract_x
_atom_site_fract_y
_atom_site_fract_z
Si Si1 0.008891 0.791098 0.248125
Si Si2 0.727750 0.704344 0.248529
Si Si3 0.859082 0.783952 0.002832
Si Si4 0.359757 0.716451 0.501337
Si Si5 0.443376 0.293021 0.878812
Si Si6 0.731891 0.290172 0.876993
Si Si7 0.933714 0.205421 0.377408
Si Si8 0.724053 0.277662 0.375892
O O1 0.120269 0.798587 0.243724
O O2 0.004063 0.712932 0.184888
O O3 0.969532 0.708490 0.312820
O O4 0.972041 0.000000 0.251302
O O5 0.763466 0.500000 0.250470
O O6 0.785714 0.782536 0.187164
O O7 0.719682 0.785058 0.311983
O O8 0.851819 0.722290 0.069242
O O9 0.877259 0.000000 0.999984
O O10 0.750000 0.750000 0.000000
O O11 0.929994 0.710736 0.943777
O O12 0.375902 0.500000 0.498499
O O13 0.250000 0.750000 0.500000
O O14 0.429828 0.787566 0.441510
O O15 0.357703 0.776320 0.567193
O O16 0.479261 0.500000 0.878984
O O17 0.331818 0.303145 0.876740
O O18 0.748280 0.500000 0.888822
O O19 0.822073 0.198736 0.382683
O O20 0.976199 0.000000 0.373507
O O21 0.727394 0.500000 0.376687
#
# Coordination Sequence:
#
# PCOD9222868 Si02
#       8
#     8   8   8   8   8   8   8   8
#     4   8  14  25  41  60  82 108 134 159 193 239
#     4   9  17  29  42  56  80 112 138 160 195 243
#     4   8  13  20  32  51  74 101 131 162 194 229
#     4   8  14  25  41  60  80 101 128 163 199 232
#     4   8  13  23  37  52  76 109 136 157 191 239
#     4   9  15  22  34  55  80 102 130 168 202 230
#     4   9  16  27  44  64  83 103 130 165 202 236
#     4   9  17  29  44  61  80 105 137 167 195 234
#
# _framework density 26.091194000000002
#
# number of rings (size 3 to 8) (size 9 to 14) (size 15 to 20)
#    0.000    3.500    0.000    1.125    0.000    1.000 
#    0.000    3.125    0.000    3.750    0.000    0.875 
#    0.000   21.000    0.000    0.000    0.000    0.000 
#
# Total GULP energy -178156.661686 kJ/mol
# GULP energy per Si atom -5567.395678 kJ/mol
# Density = 2.603181 g / cm^3
# Si number density = 26.091194 Si / 1000 Ang^3
#
#
#
# Elastic Constant Matrix: (Units=GPa)
#
#
# Indices 1 2 3 4 5 6 
#
# 1 63.3580 -5.9713 8.0954 0.0000 -15.5685 0.0000
# 2 -5.9713 98.5203 19.3526 0.0000 -1.7748 0.0000
# 3 8.0954 19.3526 370.8196 0.0000 -31.9662 0.0000
# 4 0.0000 0.0000 0.0000 -1.3462 0.0000 0.0748
# 5 -15.5685 -1.7748 -31.9662 0.0000 24.7281 0.0000
# 6 0.0000 0.0000 0.0000 0.0748 0.0000 -3.0854
#
#
#
# Elastic Compliance Matrix: (Units=1/GPa)
#
#
# Indices 1 2 3 4 5 6 
#
# 1 0.018980 0.001259 0.000628 0.000001 0.012851 0.000000
# 2 0.001259 0.010339 -0.000489 0.000000 0.000902 0.000000
# 3 0.000628 -0.000489 0.003083 0.000000 0.004346 0.000000
# 4 0.000001 0.000000 0.000000 -0.743862 0.000001 -0.018039
# 5 0.012851 0.000902 0.004346 0.000001 0.054213 0.000000
# 6 0.000000 0.000000 0.000000 -0.018039 0.000000 -0.324543
#
#
# Mechanical properties :
#
#
# Convention : Reuss Voigt Hill
#
# Bulk Modulus (GPa) = 28.41261 63.96124 46.18693
# Shear Modulus (GPa) = -5.13952 38.14073 16.50060
#
# Velocity S-wave (km/s) = -1.40503 3.82753 2.51753
# Velocity P-wave (km/s) = 2.87771 6.64086 5.11773
#
# Compressibility (1/GPa) = 0.03519564
#
# Stress axis : x y z
#
# Youngs Moduli (GPa) = 52.68830 96.72270 324.34008
#
# Poissons Ratio (x) = -0.12173 -0.20362
# Poissons Ratio (y) = -0.06631 0.15870
# Poissons Ratio (z) = -0.03308 0.04733
#
# Static dielectric constant tensor:
#      x y z
#    x 2.018690 0.000000 0.039190 
#    y 0.000000 2.403940 0.000000 
#    z 0.039190 0.000000 2.222460 
# 
# From -- ./inp_files/348325.got.cif
#   From: 2010.05.17/outbox.cif.g08.bks.cpg/sg12_175_cif.got.tgz:348325.got - 2010.06.03 13:09:07.
