data_PCOD9222318
_publ_section_title
;
Structure prediction by ZEFSAII (Michael W. Deem and Ramdas Pophale) SiO2 
 PCOD9222318
Probable space group: C 2/M
;
_chemical_formula_sum "Si O2"
_cell_formula_units_Z 48
_cell_length_a 9.421129
_cell_length_b 18.595778
_cell_length_c 14.947202
_cell_angle_alpha 90.000000
_cell_angle_beta 68.414299
_cell_angle_gamma 90.000000
_cell_volume 2434.998301
_symmetry_space_group_name_H-M "C 2/M"
_symmetry_group_IT_number 12
_symmetry_cell_setting 'monoclinic'
loop_
_space_group_symop_operation_xyz
x,y,z
-x,y,-z
-x,-y,-z
x,-y,z
1/2+x,1/2+y,z
1/2-x,1/2+y,-z
1/2-x,1/2-y,-z
1/2+x,1/2-y,z
loop_
_atom_site_type_symbol
_atom_site_label
_atom_site_fract_x
_atom_site_fract_y
_atom_site_fract_z
Si Si1 0.398454 0.325095 0.789921
Si Si2 0.317381 0.324617 0.520154
Si Si3 0.341420 0.678113 0.999169
Si Si4 0.678646 0.913941 0.190021
Si Si5 0.390843 0.818705 0.258732
Si Si6 0.839867 0.914693 0.341277
O O1 0.377412 0.355375 0.894437
O O2 0.503740 0.253106 0.759852
O O3 0.231403 0.308065 0.791413
O O4 0.490367 0.384067 0.712738
O O5 0.500000 0.321457 0.500000
O O6 0.250000 0.250000 0.500000
O O7 0.215808 0.335835 0.631571
O O8 0.286863 0.380592 0.447041
O O9 0.500000 0.704324 0.000000
O O10 0.250000 0.750000 0.000000
O O11 0.268397 0.625584 0.089026
O O12 0.507617 0.884147 0.220935
O O13 0.745305 0.893141 0.273247
O O14 0.688886 0.000000 0.179912
O O15 0.836613 0.000000 0.347412
#
# Coordination Sequence:
#
# PCOD9222318 Si02
#       6
#     8   8   8   8   8   8
#     4  12  23  42  70 101 133 182 224 284 334 405
#     4  12  25  42  71 102 133 180 230 284 335 406
#     4  12  24  41  73 102 133 176 232 279 336 407
#     4  11  27  47  68 100 141 181 226 283 344 404
#     4  12  24  43  70 100 139 176 233 279 342 395
#     4  11  25  45  67  99 137 180 227 278 343 405
#
# _framework density 19.712539
#
# number of rings (size 3 to 8) (size 9 to 14) (size 15 to 20)
#    0.000    0.333    6.667    2.000    2.333    2.667 
#    0.000    2.500    0.000    0.000    0.000    0.000 
#    0.000    0.000    0.000    0.000    0.000    0.000 
#
# Total GULP energy -134060.289245 kJ/mol
# GULP energy per Si atom -5585.845385 kJ/mol
# Density = 1.966767 g / cm^3
# Si number density = 19.712539 Si / 1000 Ang^3
#
#
#
# Elastic Constant Matrix: (Units=GPa)
#
#
# Indices 1 2 3 4 5 6 
#
# 1 164.0933 56.5086 59.4513 0.0000 0.9449 0.0000
# 2 56.5086 92.7505 38.6377 0.0000 8.4241 0.0000
# 3 59.4513 38.6377 143.0687 0.0000 5.7319 0.0000
# 4 0.0000 0.0000 0.0000 35.7997 0.0000 1.8786
# 5 0.9449 8.4241 5.7319 0.0000 32.7401 0.0000
# 6 0.0000 0.0000 0.0000 1.8786 0.0000 26.2245
#
#
#
# Elastic Compliance Matrix: (Units=1/GPa)
#
#
# Indices 1 2 3 4 5 6 
#
# 1 0.008419 -0.004243 -0.002403 0.000000 0.001270 0.000000
# 2 -0.004243 0.014506 -0.002024 0.000000 -0.003256 0.000000
# 3 -0.002403 -0.002024 0.008571 0.000000 -0.000911 0.000000
# 4 0.000000 0.000000 0.000000 0.028039 0.000000 -0.002009
# 5 0.001270 -0.003256 -0.000911 0.000000 0.031504 0.000000
# 6 0.000000 0.000000 0.000000 -0.002009 0.000000 0.038276
#
#
# Mechanical properties :
#
#
# Convention : Reuss Voigt Hill
#
# Bulk Modulus (GPa) = 70.64613 78.78976 74.71794
# Shear Modulus (GPa) = 33.03089 35.30718 34.16904
#
# Velocity S-wave (km/s) = 4.09789 4.23673 4.16789
# Velocity P-wave (km/s) = 7.63585 7.99933 7.81970
#
# Compressibility (1/GPa) = 0.01415506
#
# Stress axis : x y z
#
# Youngs Moduli (GPa) = 118.78237 68.93896 116.66810
#
# Poissons Ratio (x) = 0.29253 0.28038
# Poissons Ratio (y) = 0.50403 0.23610
# Poissons Ratio (z) = 0.28546 0.13951
#
# Static dielectric constant tensor:
#      x y z
#    x 1.695200 0.000000 0.002530 
#    y 0.000000 1.689530 0.000000 
#    z 0.002530 0.000000 1.659860 
# 
# From -- ./inp_files/196898.got.cif
#   From: 2010.05.17/outbox.cif.g08.bks.cpg/sg12_99_cif.got.tgz:196898.got - 2010.06.03 13:09:07.
