data_PCOD9222451
_publ_section_title
;
Structure prediction by ZEFSAII (Michael W. Deem and Ramdas Pophale) SiO2 
 PCOD9222451
Probable space group: C 2/M
;
_chemical_formula_sum "Si O2"
_cell_formula_units_Z 56
_cell_length_a 17.178440
_cell_length_b 20.392090
_cell_length_c 20.406609
_cell_angle_alpha 90.000000
_cell_angle_beta 158.428525
_cell_angle_gamma 90.000000
_cell_volume 2628.237412
_symmetry_space_group_name_H-M "C 2/M"
_symmetry_group_IT_number 12
_symmetry_cell_setting 'monoclinic'
loop_
_space_group_symop_operation_xyz
x,y,z
-x,y,-z
-x,-y,-z
x,-y,z
1/2+x,1/2+y,z
1/2-x,1/2+y,-z
1/2-x,1/2-y,-z
1/2+x,1/2-y,z
loop_
_atom_site_type_symbol
_atom_site_label
_atom_site_fract_x
_atom_site_fract_y
_atom_site_fract_z
Si Si1 0.898237 0.370347 0.243483
Si Si2 0.051342 0.071829 0.887971
Si Si3 0.400791 0.389882 0.630281
Si Si4 0.217976 0.655502 0.703129
Si Si5 0.886449 0.926523 0.339816
Si Si6 0.298464 0.728075 0.110739
Si Si7 0.877684 0.704015 0.842945
O O1 0.789976 0.374753 0.230258
O O2 0.854033 0.294657 0.191699
O O3 0.147750 0.386653 0.440991
O O4 0.784695 0.412931 0.098183
O O5 0.011127 0.074190 0.778580
O O6 0.909101 0.127166 0.810483
O O7 0.985890 0.000000 0.860226
O O8 0.466178 0.416203 0.609330
O O9 0.504850 0.318413 0.720394
O O10 0.232652 0.735062 0.709105
O O11 0.000000 0.634550 0.500000
O O12 0.735836 0.862781 0.225446
O O13 0.000000 0.925274 0.500000
O O14 0.790412 0.000000 0.258481
O O15 0.250000 0.750000 0.000000
O O16 0.078677 0.690742 0.954807
O O17 0.000000 0.734469 0.000000
#
# Coordination Sequence:
#
# PCOD9222451 Si02
#       7
#     8   8   8   8   8   8   8
#     4  12  25  44  73 105 144 190 239 297 368 428
#     4  12  27  47  71 103 146 195 242 298 365 438
#     4  12  25  48  72 108 144 190 243 308 359 440
#     4  12  23  45  72 107 144 187 239 298 360 437
#     4  11  27  48  70 102 143 190 244 299 363 437
#     4  12  24  43  74 109 143 182 241 305 365 426
#     4  12  22  43  72 101 138 183 236 295 358 426
#
# _framework density 21.307054999999998
#
# number of rings (size 3 to 8) (size 9 to 14) (size 15 to 20)
#    0.000    0.143    7.143    1.714    2.000    2.857 
#    0.000    1.429    0.000    0.000    0.000    0.000 
#    0.000    0.000    0.000    0.000    0.000    0.000 
#
# Total GULP energy -156210.919248 kJ/mol
# GULP energy per Si atom -5578.961402 kJ/mol
# Density = 2.125856 g / cm^3
# Si number density = 21.307055 Si / 1000 Ang^3
#
#
#
# Elastic Constant Matrix: (Units=GPa)
#
#
# Indices 1 2 3 4 5 6 
#
# 1 102.1530 21.4038 47.3844 0.0032 -7.4335 0.0214
# 2 21.4038 101.8028 16.3800 0.1000 -1.4145 0.0123
# 3 47.3844 16.3800 116.8848 0.0178 -8.3208 0.1123
# 4 0.0032 0.1000 0.0178 -70.6739 0.0366 56.0902
# 5 -7.4335 -1.4145 -8.3208 0.0366 35.2772 0.0546
# 6 0.0214 0.0123 0.1123 56.0902 0.0546 -19.4991
#
#
#
# Elastic Compliance Matrix: (Units=1/GPa)
#
#
# Indices 1 2 3 4 5 6 
#
# 1 0.012455 -0.001844 -0.004688 0.000008 0.001445 0.000014
# 2 -0.001844 0.010323 -0.000709 -0.000011 -0.000142 -0.000032
# 3 -0.004688 -0.000709 0.010662 -0.000039 0.001499 -0.000052
# 4 0.000008 -0.000011 -0.000039 0.011029 -0.000068 0.031725
# 5 0.001445 -0.000142 0.001499 -0.000068 0.028999 -0.000105
# 6 0.000014 -0.000032 -0.000052 0.031725 -0.000105 0.039974
#
#
# Mechanical properties :
#
#
# Convention : Reuss Voigt Hill
#
# Bulk Modulus (GPa) = 52.74971 54.57525 53.66248
# Shear Modulus (GPa) = 37.24545 4.73232 20.98888
#
# Velocity S-wave (km/s) = 4.18549 1.49192 3.14198
# Velocity P-wave (km/s) = 6.94034 5.35136 6.19699
#
# Compressibility (1/GPa) = 0.01895745
#
# Stress axis : x y z
#
# Youngs Moduli (GPa) = 80.28647 96.87290 93.79064
#
# Poissons Ratio (x) = 0.17867 0.43969
# Poissons Ratio (y) = 0.14808 0.06650
# Poissons Ratio (z) = 0.37639 0.06868
#
# Static dielectric constant tensor:
#      x y z
#    x 1.767800 -0.000240 0.061170 
#    y -0.000240 1.746830 -0.000050 
#    z 0.061170 -0.000050 1.777020 
# 
# From -- ./inp_files/318047.got.cif
#   From: 2010.05.17/outbox.cif.g08.bks.cpg/sg12_160_cif.got.tgz:318047.got - 2010.06.03 13:09:07.
