data_PCOD9222098
_publ_section_title
;
Structure prediction by ZEFSAII (Michael W. Deem and Ramdas Pophale) SiO2 
 PCOD9222098
Probable space group: C 2/M
;
_chemical_formula_sum "Si O2"
_cell_formula_units_Z 40
_cell_length_a 9.834772
_cell_length_b 9.584519
_cell_length_c 21.201226
_cell_angle_alpha 90.000000
_cell_angle_beta 88.142865
_cell_angle_gamma 90.000000
_cell_volume 1997.410908
_symmetry_space_group_name_H-M "C 2/M"
_symmetry_group_IT_number 12
_symmetry_cell_setting 'monoclinic'
loop_
_space_group_symop_operation_xyz
x,y,z
-x,y,-z
-x,-y,-z
x,-y,z
1/2+x,1/2+y,z
1/2-x,1/2+y,-z
1/2-x,1/2-y,-z
1/2+x,1/2-y,z
loop_
_atom_site_type_symbol
_atom_site_label
_atom_site_fract_x
_atom_site_fract_y
_atom_site_fract_z
Si Si1 0.262857 0.243041 0.343565
Si Si2 0.325058 0.000000 0.438153
Si Si3 0.556226 0.835868 0.861024
Si Si4 0.352524 0.000000 0.579771
Si Si5 0.979633 0.837003 0.739429
Si Si6 0.226793 0.664873 0.064552
O O1 0.187995 0.369951 0.377696
O O2 0.406304 0.293862 0.313503
O O3 0.168332 0.184889 0.288977
O O4 0.278078 0.131161 0.398477
O O5 0.282053 0.000000 0.511904
O O6 0.487614 0.000000 0.433828
O O7 0.503073 0.765197 0.797803
O O8 0.680422 0.743912 0.885354
O O9 0.430469 0.829103 0.911935
O O10 0.591813 0.000000 0.852057
O O11 0.997525 0.000000 0.756389
O O12 0.262990 0.500000 0.058201
O O13 0.250000 0.750000 0.000000
#
# Coordination Sequence:
#
# PCOD9222098 Si02
#       6
#     8   4   8   4   8   8
#     4  12  24  43  65  96 126 171 216 269 327 392
#     4  11  24  43  67  97 127 171 214 266 335 394
#     4  11  26  43  66  99 130 175 222 269 320 385
#     4  11  24  43  67  95 133 165 214 274 327 392
#     4  12  26  42  65  93 133 168 217 269 324 387
#     4  11  24  44  69 100 137 173 218 269 324 382
#
# _framework density 20.025925000000001
#
# number of rings (size 3 to 8) (size 9 to 14) (size 15 to 20)
#    0.000    0.600    4.000    3.600    2.800    8.800 
#    0.000    1.000    0.000    0.000    0.000    0.000 
#    0.000    0.000    0.000    0.000    0.000    0.000 
#
# Total GULP energy -111856.849762 kJ/mol
# GULP energy per Si atom -5592.842488 kJ/mol
# Density = 1.998035 g / cm^3
# Si number density = 20.025925 Si / 1000 Ang^3
#
#
#
# Elastic Constant Matrix: (Units=GPa)
#
#
# Indices 1 2 3 4 5 6 
#
# 1 46.7640 10.8393 -20.6959 0.0000 8.3916 0.0000
# 2 10.8393 152.3886 18.0664 0.0000 1.7495 0.0000
# 3 -20.6959 18.0664 61.5636 0.0000 7.4757 0.0000
# 4 0.0000 0.0000 0.0000 -110.0581 0.0000 58.8277
# 5 8.3916 1.7495 7.4757 0.0000 37.7346 0.0000
# 6 0.0000 0.0000 0.0000 58.8277 0.0000 6.4323
#
#
#
# Elastic Compliance Matrix: (Units=1/GPa)
#
#
# Indices 1 2 3 4 5 6 
#
# 1 0.028900 -0.003349 0.011742 0.000000 -0.008598 0.000000
# 2 -0.003349 0.007187 -0.003366 0.000000 0.001078 0.000000
# 3 0.011742 -0.003366 0.022006 0.000000 -0.006815 0.000000
# 4 0.000000 0.000000 0.000000 -0.001543 0.000000 0.014112
# 5 -0.008598 0.001078 -0.006815 0.000000 0.029713 0.000000
# 6 0.000000 0.000000 0.000000 0.014112 0.000000 0.026402
#
#
# Mechanical properties :
#
#
# Convention : Reuss Voigt Hill
#
# Bulk Modulus (GPa) = 14.67413 30.79285 22.73349
# Shear Modulus (GPa) = 39.89608 3.65550 21.77579
#
# Velocity S-wave (km/s) = 4.46827 1.35253 3.30112
# Velocity P-wave (km/s) = 5.82787 4.22481 5.08985
#
# Compressibility (1/GPa) = 0.06814716
#
# Stress axis : x y z
#
# Youngs Moduli (GPa) = 34.60245 139.13923 45.44213
#
# Poissons Ratio (x) = 0.46598 -0.53359
# Poissons Ratio (y) = 0.11588 0.15295
# Poissons Ratio (z) = -0.40630 0.46833
#
# Static dielectric constant tensor:
#      x y z
#    x 1.686520 0.000000 0.008350 
#    y 0.000000 1.646400 0.000000 
#    z 0.008350 0.000000 1.701050 
# 
# From -- ./inp_files/331768.got.cif
#   From: 2010.05.17/outbox.cif.g08.bks.cpg/sg12_166_cif.got.tgz:331768.got - 2010.06.03 13:09:07.
