data_PCOD9222199
_publ_section_title
;
Structure prediction by ZEFSAII (Michael W. Deem and Ramdas Pophale) SiO2 
 PCOD9222199
Probable space group: C 2/M
;
_chemical_formula_sum "Si O2"
_cell_formula_units_Z 34
_cell_length_a 21.254013
_cell_length_b 8.125246
_cell_length_c 18.265328
_cell_angle_alpha 90.000000
_cell_angle_beta 153.463470
_cell_angle_gamma 90.000000
_cell_volume 1409.247558
_symmetry_space_group_name_H-M "C 2/M"
_symmetry_group_IT_number 12
_symmetry_cell_setting 'monoclinic'
loop_
_space_group_symop_operation_xyz
x,y,z
-x,y,-z
-x,-y,-z
x,-y,z
1/2+x,1/2+y,z
1/2-x,1/2+y,-z
1/2-x,1/2-y,-z
1/2+x,1/2-y,z
loop_
_atom_site_type_symbol
_atom_site_label
_atom_site_fract_x
_atom_site_fract_y
_atom_site_fract_z
Si Si1 0.406947 0.186704 0.163240
Si Si2 0.317582 0.686235 0.493554
Si Si3 0.072650 0.315241 0.987056
Si Si4 0.000000 0.000000 0.000000
Si Si5 0.833850 0.307526 0.345608
O O1 0.515422 0.298837 0.318895
O O2 0.417954 0.000000 0.204066
O O3 0.250000 0.250000 0.000000
O O4 0.442269 0.187685 0.114941
O O5 0.270337 0.500000 0.436309
O O6 0.250000 0.750000 0.500000
O O7 0.301745 0.769673 0.397347
O O8 0.024360 0.500000 0.956017
O O9 0.231426 0.293486 0.185058
O O10 0.997422 0.150207 0.936292
O O11 0.794091 0.500000 0.292004
O O12 0.000000 0.285633 0.500000
#
# Coordination Sequence:
#
# PCOD9222199 Si02
#       5
#     8   8   8   2   8
#     4  11  25  45  71 101 138 181 230 286 344 416
#     4  12  27  44  69 101 141 180 228 289 348 410
#     4  11  26  44  70 103 136 180 233 283 341 410
#     4  12  26  44  70  98 140 184 228 286 340 406
#     4  11  24  45  72 101 137 182 228 282 347 415
#
# _framework density 24.126349999999999
#
# number of rings (size 3 to 8) (size 9 to 14) (size 15 to 20)
#    0.000    0.706    1.176    5.294    6.588    5.647 
#    0.000    0.000    0.000    0.000    0.000    0.000 
#    0.000    0.000    0.000    0.000    0.000    0.000 
#
# Total GULP energy -94826.160168 kJ/mol
# GULP energy per Si atom -5578.009422 kJ/mol
# Density = 2.407144 g / cm^3
# Si number density = 24.126350 Si / 1000 Ang^3
#
#
#
# Elastic Constant Matrix: (Units=GPa)
#
#
# Indices 1 2 3 4 5 6 
#
# 1 65.6576 45.0251 14.9352 0.0000 1.0246 0.0000
# 2 45.0251 185.9437 22.2226 0.0000 7.7595 0.0000
# 3 14.9352 22.2226 154.1300 0.0000 -5.6721 0.0000
# 4 0.0000 0.0000 0.0000 55.7445 0.0000 -0.5771
# 5 1.0246 7.7595 -5.6721 0.0000 25.8005 0.0000
# 6 0.0000 0.0000 0.0000 -0.5771 0.0000 34.7918
#
#
#
# Elastic Compliance Matrix: (Units=1/GPa)
#
#
# Indices 1 2 3 4 5 6 
#
# 1 0.018469 -0.004348 -0.001151 0.000000 0.000321 0.000000
# 2 -0.004348 0.006583 -0.000599 0.000000 -0.001939 0.000000
# 3 -0.001151 -0.000599 0.006749 0.000000 0.001710 0.000000
# 4 0.000000 0.000000 0.000000 0.017942 0.000000 0.000298
# 5 0.000321 -0.001939 0.001710 0.000000 0.039705 0.000000
# 6 0.000000 0.000000 0.000000 0.000298 0.000000 0.028747
#
#
# Mechanical properties :
#
#
# Convention : Reuss Voigt Hill
#
# Bulk Modulus (GPa) = 51.00770 63.34413 57.17592
# Shear Modulus (GPa) = 36.51575 44.83724 40.67649
#
# Velocity S-wave (km/s) = 3.89462 4.31563 4.11052
# Velocity P-wave (km/s) = 6.43521 7.15158 6.80283
#
# Compressibility (1/GPa) = 0.01960488
#
# Stress axis : x y z
#
# Youngs Moduli (GPa) = 54.14478 151.89840 148.17301
#
# Poissons Ratio (x) = 0.66046 0.17054
# Poissons Ratio (y) = 0.23542 0.08879
# Poissons Ratio (z) = 0.06232 0.09102
#
# Static dielectric constant tensor:
#      x y z
#    x 1.928490 0.000000 0.142030 
#    y 0.000000 1.783660 0.000000 
#    z 0.142030 0.000000 2.024650 
# 
# From -- ./inp_files/282334.got.cif
#   From: 2010.05.17/outbox.cif.g08.bks.cpg/sg12_142_cif.got.tgz:282334.got - 2010.06.03 13:09:07.
