data_PCOD9222615
_publ_section_title
;
Structure prediction by ZEFSAII (Michael W. Deem and Ramdas Pophale) SiO2 
 PCOD9222615
Probable space group: C 2/M
;
_chemical_formula_sum "Si O2"
_cell_formula_units_Z 48
_cell_length_a 17.451195
_cell_length_b 15.765274
_cell_length_c 17.455250
_cell_angle_alpha 90.000000
_cell_angle_beta 31.296533
_cell_angle_gamma 90.000000
_cell_volume 2494.658324
_symmetry_space_group_name_H-M "C 2/M"
_symmetry_group_IT_number 12
_symmetry_cell_setting 'monoclinic'
loop_
_space_group_symop_operation_xyz
x,y,z
-x,y,-z
-x,-y,-z
x,-y,z
1/2+x,1/2+y,z
1/2-x,1/2+y,-z
1/2-x,1/2-y,-z
1/2+x,1/2-y,z
loop_
_atom_site_type_symbol
_atom_site_label
_atom_site_fract_x
_atom_site_fract_y
_atom_site_fract_z
Si Si1 0.291378 0.500000 0.403964
Si Si2 0.692258 0.000000 0.649911
Si Si3 0.151899 0.000000 0.325178
Si Si4 0.786648 0.345858 0.842730
Si Si5 0.459981 0.000000 0.622821
Si Si6 0.994855 0.149158 0.817138
Si Si7 0.984225 0.658896 0.826663
Si Si8 0.206693 0.846852 0.164610
O O1 0.310816 0.500000 0.479885
O O2 0.374292 0.581993 0.299282
O O3 0.116779 0.500000 0.534275
O O4 0.600576 0.914418 0.716756
O O5 0.734665 0.000000 0.702044
O O6 0.167665 0.082900 0.259508
O O7 0.000000 0.000000 0.500000
O O8 0.861958 0.418022 0.728128
O O9 0.881788 0.340607 0.839279
O O10 0.795622 0.250067 0.803150
O O11 0.621951 0.366589 0.014104
O O12 0.500000 0.000000 0.500000
O O13 0.047056 0.246370 0.781318
O O14 0.901682 0.144649 0.816796
O O15 0.872251 0.639684 0.991472
#
# Coordination Sequence:
#
# PCOD9222615 Si02
#       8
#     4   4   4   8   4   8   8   8
#     4  12  23  39  58  92 116 150 194 251 298 353
#     4  12  23  36  59  88 129 156 190 242 302 352
#     4  12  25  38  50  88 132 166 191 231 305 366
#     4   9  18  41  65  85 113 158 199 242 284 353
#     4  12  25  41  58  84 116 151 195 242 313 353
#     4   9  19  37  67  89 113 152 205 243 284 339
#     4   9  18  37  63  91 109 153 204 243 282 343
#     4   9  19  37  63  87 117 157 203 233 283 349
#
# _framework density 19.241112000000001
#
# number of rings (size 3 to 8) (size 9 to 14) (size 15 to 20)
#    0.000    2.000    1.667    4.500    0.000    5.333 
#    6.000    1.667    0.000    0.000    0.000    0.000 
#    0.000    0.000    0.000    0.000    0.000    0.000 
#
# Total GULP energy -133930.434821 kJ/mol
# GULP energy per Si atom -5580.434784 kJ/mol
# Density = 1.919732 g / cm^3
# Si number density = 19.241112 Si / 1000 Ang^3
#
#
#
# Elastic Constant Matrix: (Units=GPa)
#
#
# Indices 1 2 3 4 5 6 
#
# 1 35.0574 29.3313 20.6480 -0.0002 16.8075 -0.0001
# 2 29.3313 164.7200 114.1629 -0.0012 22.8453 -0.0006
# 3 20.6480 114.1629 113.9098 -0.0025 23.3726 -0.0011
# 4 -0.0002 -0.0012 -0.0025 -159.5332 0.0011 -45.6752
# 5 16.8075 22.8453 23.3726 0.0011 29.9793 0.0005
# 6 -0.0001 -0.0006 -0.0011 -45.6752 0.0005 -2.2074
#
#
#
# Elastic Compliance Matrix: (Units=1/GPa)
#
#
# Indices 1 2 3 4 5 6 
#
# 1 0.042635 -0.007568 0.004259 0.000000 -0.021456 0.000001
# 2 -0.007568 0.021228 -0.020779 0.000000 0.004266 0.000000
# 3 0.004259 -0.020779 0.031038 -0.000001 -0.010751 0.000001
# 4 0.000000 0.000000 -0.000001 0.001273 0.000001 -0.026340
# 5 -0.021456 0.004266 -0.010751 0.000001 0.050517 -0.000001
# 6 0.000001 0.000000 0.000001 -0.026340 -0.000001 0.091999
#
#
# Mechanical properties :
#
#
# Convention : Reuss Voigt Hill
#
# Bulk Modulus (GPa) = 21.40181 71.33018 46.36599
# Shear Modulus (GPa) = 16.53225 -16.38261 0.07482
#
# Velocity S-wave (km/s) = 2.93442 -2.92111 0.19741
# Velocity P-wave (km/s) = 4.75691 5.07692 4.91952
#
# Compressibility (1/GPa) = 0.04672502
#
# Stress axis : x y z
#
# Youngs Moduli (GPa) = 23.45514 47.10778 32.21888
#
# Poissons Ratio (x) = 0.35650 -0.13721
# Poissons Ratio (y) = 0.17750 0.66946
# Poissons Ratio (z) = -0.09989 0.97883
#
# Static dielectric constant tensor:
#      x y z
#    x 1.462480 0.000000 0.086670 
#    y 0.000000 1.659880 0.000000 
#    z 0.086670 0.000000 1.615060 
# 
# From -- ./inp_files/278092.got.cif
#   From: 2010.05.17/outbox.cif.g08.bks.cpg/sg12_140_cif.got.tgz:278092.got - 2010.06.03 13:09:07.
