data_PCOD9222519
_publ_section_title
;
Structure prediction by ZEFSAII (Michael W. Deem and Ramdas Pophale) SiO2 
 PCOD9222519
Probable space group: C 2/M
;
_chemical_formula_sum "Si O2"
_cell_formula_units_Z 46
_cell_length_a 26.018015
_cell_length_b 20.934598
_cell_length_c 11.372909
_cell_angle_alpha 90.000000
_cell_angle_beta 20.430206
_cell_angle_gamma 90.000000
_cell_volume 2162.310508
_symmetry_space_group_name_H-M "C 2/M"
_symmetry_group_IT_number 12
_symmetry_cell_setting 'monoclinic'
loop_
_space_group_symop_operation_xyz
x,y,z
-x,y,-z
-x,-y,-z
x,-y,z
1/2+x,1/2+y,z
1/2-x,1/2+y,-z
1/2-x,1/2-y,-z
1/2+x,1/2-y,z
loop_
_atom_site_type_symbol
_atom_site_label
_atom_site_fract_x
_atom_site_fract_y
_atom_site_fract_z
Si Si1 0.370149 0.927952 0.557827
Si Si2 0.000000 0.000000 0.000000
Si Si3 0.156344 0.100981 0.799593
Si Si4 0.339189 0.876182 0.173604
Si Si5 0.500000 0.219390 0.000000
Si Si6 0.626905 0.205794 0.323262
Si Si7 0.913912 0.200193 0.374241
O O1 0.262934 0.920503 0.675086
O O2 0.335498 0.865947 0.712994
O O3 0.351570 0.000000 0.646703
O O4 0.538362 0.919691 0.150977
O O5 0.975136 0.945671 0.951468
O O6 0.250490 0.096612 0.476407
O O7 0.071345 0.165526 0.018507
O O8 0.432846 0.822331 0.040675
O O9 0.223579 0.848255 0.326934
O O10 0.615731 0.263457 0.685016
O O11 0.500000 0.198745 0.500000
O O12 0.579453 0.249299 0.535826
O O13 0.750000 0.250000 0.000000
#
# Coordination Sequence:
#
# PCOD9222519 Si02
#       7
#     8   2   8   8   4   8   8
#     4  12  27  43  69  99 138 181 231 286 344 412
#     4  12  22  40  62 100 154 190 228 248 348 432
#     4  12  23  40  63 102 148 189 220 268 338 432
#     4  12  22  37  61 106 142 183 215 272 348 417
#     4  12  21  34  67 101 143 166 222 282 348 411
#     4  12  27  50  74  96 131 182 241 299 348 398
#     4  12  24  41  69 102 137 179 237 287 339 412
#
# _framework density 21.273539
#
# number of rings (size 3 to 8) (size 9 to 14) (size 15 to 20)
#    0.000    0.000    7.826    2.609    3.652    1.043 
#    0.000    0.000    1.913    1.565    0.000    0.000 
#    0.000    0.000    0.000    0.000    0.000    0.000 
#
# Total GULP energy -128095.164487 kJ/mol
# GULP energy per Si atom -5569.354978 kJ/mol
# Density = 2.122512 g / cm^3
# Si number density = 21.273539 Si / 1000 Ang^3
#
#
#
# Elastic Constant Matrix: (Units=GPa)
#
#
# Indices 1 2 3 4 5 6 
#
# 1 111.9534 48.7412 21.6422 0.0019 -10.3674 -0.0010
# 2 48.7412 140.1951 40.5325 0.0019 9.2690 -0.0007
# 3 21.6422 40.5325 67.1004 0.0064 1.1023 -0.0014
# 4 0.0019 0.0019 0.0064 136.2702 -0.0006 -48.8619
# 5 -10.3674 9.2690 1.1023 -0.0006 39.7382 0.0010
# 6 -0.0010 -0.0007 -0.0014 -48.8619 0.0010 49.6986
#
#
#
# Elastic Compliance Matrix: (Units=1/GPa)
#
#
# Indices 1 2 3 4 5 6 
#
# 1 0.011186 -0.003733 -0.001416 0.000000 0.003828 0.000000
# 2 -0.003733 0.010029 -0.004802 0.000000 -0.003180 0.000000
# 3 -0.001416 -0.004802 0.018256 -0.000001 0.000244 -0.000001
# 4 0.000000 0.000000 -0.000001 0.011334 0.000000 0.011143
# 5 0.003828 -0.003180 0.000244 0.000000 0.026898 -0.000001
# 6 0.000000 0.000000 -0.000001 0.011143 -0.000001 0.031077
#
#
# Mechanical properties :
#
#
# Convention : Reuss Voigt Hill
#
# Bulk Modulus (GPa) = 51.09854 60.12006 55.60930
# Shear Modulus (GPa) = 36.98091 59.03025 48.00558
#
# Velocity S-wave (km/s) = 4.17388 5.27337 4.75551
# Velocity P-wave (km/s) = 6.87752 8.08701 7.50666
#
# Compressibility (1/GPa) = 0.01957003
#
# Stress axis : x y z
#
# Youngs Moduli (GPa) = 89.40091 99.70875 54.77516
#
# Poissons Ratio (x) = 0.37217 0.07756
# Poissons Ratio (y) = 0.33370 0.26304
# Poissons Ratio (z) = 0.12659 0.47881
#
# Static dielectric constant tensor:
#      x y z
#    x 1.724700 0.000000 0.032250 
#    y 0.000000 1.829250 0.000000 
#    z 0.032250 0.000000 1.956750 
# 
# From -- ./inp_files/184811.got.cif
#   From: 2010.05.17/outbox.cif.g08.bks.cpg/sg12_93_cif.got.tgz:184811.got - 2010.06.03 13:09:07.
