data_PCOD9222518
_publ_section_title
;
Structure prediction by ZEFSAII (Michael W. Deem and Ramdas Pophale) SiO2 
 PCOD9222518
Probable space group: C 2/M
;
_chemical_formula_sum "Si O2"
_cell_formula_units_Z 48
_cell_length_a 20.535052
_cell_length_b 15.679748
_cell_length_c 16.513236
_cell_angle_alpha 90.000000
_cell_angle_beta 29.472524
_cell_angle_gamma 90.000000
_cell_volume 2615.999066
_symmetry_space_group_name_H-M "C 2/M"
_symmetry_group_IT_number 12
_symmetry_cell_setting 'monoclinic'
loop_
_space_group_symop_operation_xyz
x,y,z
-x,y,-z
-x,-y,-z
x,-y,z
1/2+x,1/2+y,z
1/2-x,1/2+y,-z
1/2-x,1/2-y,-z
1/2+x,1/2-y,z
loop_
_atom_site_type_symbol
_atom_site_label
_atom_site_fract_x
_atom_site_fract_y
_atom_site_fract_z
Si Si1 0.973305 0.841673 0.255293
Si Si2 0.662648 0.500000 0.831029
Si Si3 0.230467 0.348310 0.392190
Si Si4 0.961411 0.648564 0.253422
Si Si5 0.164628 0.500000 0.014042
Si Si6 0.161588 0.000000 0.017864
Si Si7 0.159395 0.000000 0.334670
Si Si8 0.715983 0.653930 0.393291
O O1 0.851945 0.844943 0.323844
O O2 0.019323 0.744067 0.198185
O O3 0.910327 0.858228 0.411326
O O4 0.074802 0.915152 0.124923
O O5 0.726418 0.418434 0.718398
O O6 0.500000 0.500000 0.000000
O O7 0.703228 0.500000 0.880146
O O8 0.106754 0.369612 0.585148
O O9 0.214031 0.254054 0.371958
O O10 0.844797 0.644187 0.312016
O O11 0.071575 0.582184 0.109241
O O12 0.227478 0.500000 0.034674
O O13 0.274204 0.500000 0.825441
O O14 0.207417 0.916213 0.332653
O O15 0.000000 0.000000 0.500000
#
# Coordination Sequence:
#
# PCOD9222518 Si02
#       8
#     8   4   8   8   4   4   4   8
#     4   9  17  36  62  87 111 151 190 241 286 344
#     4  12  21  34  59  92 115 144 186 237 290 342
#     4   9  18  37  62  91 114 143 192 244 294 339
#     4   9  20  38  62  85 117 149 195 235 289 346
#     4  12  26  39  53  82 117 163 191 238 292 345
#     4  12  24  36  53  82 120 150 196 233 290 346
#     4  12  25  41  58  84 120 158 201 239 289 348
#     4   9  19  37  64  88 112 152 194 241 289 337
#
# _framework density 18.34863
#
# number of rings (size 3 to 8) (size 9 to 14) (size 15 to 20)
#    0.000    2.000    1.667    4.500    0.000    6.000 
#    0.000    5.000    0.000    0.000    0.000    0.000 
#    0.000    0.000    0.000    0.000    0.000    0.000 
#
# Total GULP energy -133895.609430 kJ/mol
# GULP energy per Si atom -5578.983726 kJ/mol
# Density = 1.830687 g / cm^3
# Si number density = 18.348630 Si / 1000 Ang^3
#
#
#
# Elastic Constant Matrix: (Units=GPa)
#
#
# Indices 1 2 3 4 5 6 
#
# 1 73.4507 46.4166 36.3232 0.0000 20.0904 0.0001
# 2 46.4166 120.5621 78.4217 0.0001 21.5876 0.0000
# 3 36.3232 78.4217 99.0096 0.0001 14.5468 -0.0001
# 4 0.0000 0.0001 0.0001 -57.1920 -0.0001 29.4943
# 5 20.0904 21.5876 14.5468 -0.0001 23.9808 0.0000
# 6 0.0001 0.0000 -0.0001 29.4943 0.0000 216.1802
#
#
#
# Elastic Compliance Matrix: (Units=1/GPa)
#
#
# Indices 1 2 3 4 5 6 
#
# 1 0.020845 -0.004202 -0.002535 0.000000 -0.012143 0.000000
# 2 -0.004202 0.019431 -0.012951 0.000000 -0.006116 0.000000
# 3 -0.002535 -0.012951 0.021148 0.000000 0.000954 0.000000
# 4 0.000000 0.000000 0.000000 -0.016336 0.000000 0.002229
# 5 -0.012143 -0.006116 0.000954 0.000000 0.056800 0.000000
# 6 0.000000 0.000000 0.000000 0.002229 0.000000 0.004322
#
#
# Mechanical properties :
#
#
# Convention : Reuss Voigt Hill
#
# Bulk Modulus (GPa) = 45.35447 68.37170 56.86309
# Shear Modulus (GPa) = 32.69361 45.38452 39.03907
#
# Velocity S-wave (km/s) = 4.22572 4.97878 4.61763
# Velocity P-wave (km/s) = 6.96999 8.39014 7.71282
#
# Compressibility (1/GPa) = 0.02204854
#
# Stress axis : x y z
#
# Youngs Moduli (GPa) = 47.97301 51.46297 47.28678
#
# Poissons Ratio (x) = 0.21626 0.11986
# Poissons Ratio (y) = 0.20160 0.61240
# Poissons Ratio (z) = 0.12160 0.66648
#
# Static dielectric constant tensor:
#      x y z
#    x 1.620100 0.000000 0.003520 
#    y 0.000000 1.671950 0.000000 
#    z 0.003520 0.000000 1.615800 
# 
# From -- ./inp_files/226809.got.cif
#   From: 2010.05.17/outbox.cif.g08.bks.cpg/sg12_114_cif.got.tgz:226809.got - 2010.06.03 13:09:07.
