data_PCOD9222176
_publ_section_title
;
Structure prediction by ZEFSAII (Michael W. Deem and Ramdas Pophale) SiO2 
 PCOD9222176
Probable space group: C 2/M
;
_chemical_formula_sum "Si O2"
_cell_formula_units_Z 24
_cell_length_a 8.745997
_cell_length_b 14.922711
_cell_length_c 11.712745
_cell_angle_alpha 90.000000
_cell_angle_beta 43.070728
_cell_angle_gamma 90.000000
_cell_volume 1043.934539
_symmetry_space_group_name_H-M "C 2/M"
_symmetry_group_IT_number 12
_symmetry_cell_setting 'monoclinic'
loop_
_space_group_symop_operation_xyz
x,y,z
-x,y,-z
-x,-y,-z
x,-y,z
1/2+x,1/2+y,z
1/2-x,1/2+y,-z
1/2-x,1/2-y,-z
1/2+x,1/2-y,z
loop_
_atom_site_type_symbol
_atom_site_label
_atom_site_fract_x
_atom_site_fract_y
_atom_site_fract_z
Si Si1 0.430036 0.184475 0.344723
Si Si2 0.614607 0.000000 0.746978
Si Si3 0.147332 0.000000 0.139758
Si Si4 0.588134 0.326695 0.823972
O O1 0.250000 0.250000 0.500000
O O2 0.493638 0.237163 0.193951
O O3 0.644707 0.174331 0.307837
O O4 0.346056 0.087820 0.350536
O O5 0.238352 0.000000 0.218720
O O6 0.358080 0.000000 0.935862
O O7 0.002363 0.911965 0.194661
O O8 0.500000 0.332462 0.000000
#
# Coordination Sequence:
#
# PCOD9222176 Si02
#       4
#     8   4   4   8
#     4  12  27  46  73 109 153 195 239 305 371 440
#     4  11  25  47  74 110 148 190 248 299 374 431
#     4  11  24  44  79 112 143 188 247 316 351 435
#     4  12  24  45  73 109 146 194 249 297 365 433
#
# _framework density 22.989947999999998
#
# number of rings (size 3 to 8) (size 9 to 14) (size 15 to 20)
#    0.000    0.333    3.333    5.500    4.667    1.333 
#    0.000    8.333    0.000    0.000    0.000    0.000 
#    0.000    0.000    0.000    0.000    0.000    0.000 
#
# Total GULP energy -67292.961793 kJ/mol
# GULP energy per Si atom -5607.746816 kJ/mol
# Density = 2.293762 g / cm^3
# Si number density = 22.989948 Si / 1000 Ang^3
#
#
#
# Elastic Constant Matrix: (Units=GPa)
#
#
# Indices 1 2 3 4 5 6 
#
# 1 164.3679 85.6175 56.6989 -0.0002 -19.8388 0.0000
# 2 85.6175 226.1026 43.5569 0.0002 -5.1348 0.0001
# 3 56.6989 43.5569 97.6317 0.0010 -19.3138 0.0004
# 4 -0.0002 0.0002 0.0010 32.9639 -0.0001 -0.7223
# 5 -19.8388 -5.1348 -19.3138 -0.0001 29.6564 -0.0001
# 6 0.0000 0.0001 0.0004 -0.7223 -0.0001 46.2400
#
#
#
# Elastic Compliance Matrix: (Units=1/GPa)
#
#
# Indices 1 2 3 4 5 6 
#
# 1 0.009072 -0.002705 -0.003391 0.000000 0.003392 0.000000
# 2 -0.002705 0.005656 -0.001282 0.000000 -0.001665 0.000000
# 3 -0.003391 -0.001282 0.014109 0.000000 0.006698 0.000000
# 4 0.000000 0.000000 0.000000 0.030347 0.000000 0.000474
# 5 0.003392 -0.001665 0.006698 0.000000 0.040063 0.000000
# 6 0.000000 0.000000 0.000000 0.000474 0.000000 0.021634
#
#
# Mechanical properties :
#
#
# Convention : Reuss Voigt Hill
#
# Bulk Modulus (GPa) = 71.01415 95.53877 83.27646
# Shear Modulus (GPa) = 35.63065 41.92066 38.77566
#
# Velocity S-wave (km/s) = 3.94107 4.27480 4.11132
# Velocity P-wave (km/s) = 7.18788 8.12479 7.67065
#
# Compressibility (1/GPa) = 0.01408170
#
# Stress axis : x y z
#
# Youngs Moduli (GPa) = 110.22967 176.79687 70.87884
#
# Poissons Ratio (x) = 0.47824 0.24032
# Poissons Ratio (y) = 0.29818 0.09086
# Poissons Ratio (z) = 0.37375 0.22663
#
# Static dielectric constant tensor:
#      x y z
#    x 1.806460 0.000000 0.000530 
#    y 0.000000 1.794230 0.000000 
#    z 0.000530 0.000000 1.964500 
# 
# From -- ./inp_files/204097.got.cif
#   From: 2010.05.17/outbox.cif.g08.bks.cpg/sg12_103_cif.got.tgz:204097.got - 2010.06.03 13:09:07.
