data_PCOD9222239
_publ_section_title
;
Structure prediction by ZEFSAII (Michael W. Deem and Ramdas Pophale) SiO2 
 PCOD9222239
Probable space group: C 2/M
;
_chemical_formula_sum "Si O2"
_cell_formula_units_Z 40
_cell_length_a 7.160082
_cell_length_b 23.309266
_cell_length_c 9.565007
_cell_angle_alpha 90.000000
_cell_angle_beta 111.737501
_cell_angle_gamma 90.000000
_cell_volume 1482.847009
_symmetry_space_group_name_H-M "C 2/M"
_symmetry_group_IT_number 12
_symmetry_cell_setting 'monoclinic'
loop_
_space_group_symop_operation_xyz
x,y,z
-x,y,-z
-x,-y,-z
x,-y,z
1/2+x,1/2+y,z
1/2-x,1/2+y,-z
1/2-x,1/2-y,-z
1/2+x,1/2-y,z
loop_
_atom_site_type_symbol
_atom_site_label
_atom_site_fract_x
_atom_site_fract_y
_atom_site_fract_z
Si Si1 0.267935 0.000000 0.615087
Si Si2 0.760863 0.500000 0.293404
Si Si3 0.045245 0.292712 0.851072
Si Si4 0.694807 0.101742 0.157626
Si Si5 0.612040 0.700744 0.400472
Si Si6 0.142282 0.123060 0.182851
O O1 0.247108 0.945985 0.713652
O O2 0.173160 0.000000 0.430455
O O3 0.501405 0.000000 0.640321
O O4 0.707201 0.557416 0.192626
O O5 0.881643 0.342476 0.779571
O O6 0.022741 0.237545 0.747131
O O7 0.251530 0.327328 0.880609
O O8 0.000000 0.278327 0.000000
O O9 0.500000 0.088022 0.000000
O O10 0.900715 0.116267 0.131663
O O11 0.500000 0.675395 0.500000
O O12 0.750000 0.750000 0.500000
O O13 0.716482 0.648782 0.351684
#
# Coordination Sequence:
#
# PCOD9222239 Si02
#       6
#     4   4   8   8   8   8
#     4  11  24  48  76 113 161 205 266 332 395 482
#     4  11  27  46  81 118 156 213 263 336 402 474
#     4  11  27  51  77 118 163 213 267 331 405 478
#     4  11  26  48  75 111 156 208 261 331 396 476
#     4  12  26  48  81 119 163 212 269 337 400 486
#     4  12  27  51  80 118 160 211 274 327 408 480
#
# _framework density 26.975135999999999
#
# number of rings (size 3 to 8) (size 9 to 14) (size 15 to 20)
#    0.000    0.600    4.000    2.100    5.600    4.800 
#    3.600    1.500    0.000    0.000    0.000    0.000 
#    0.000    0.000    0.000    0.000    0.000    0.000 
#
# Total GULP energy -111798.027052 kJ/mol
# GULP energy per Si atom -5589.901353 kJ/mol
# Density = 2.691374 g / cm^3
# Si number density = 26.975136 Si / 1000 Ang^3
#
#
#
# Elastic Constant Matrix: (Units=GPa)
#
#
# Indices 1 2 3 4 5 6 
#
# 1 158.7858 39.0846 41.0260 0.0000 -13.2046 0.0000
# 2 39.0846 172.0386 40.1799 0.0000 0.4840 0.0000
# 3 41.0260 40.1799 139.1412 0.0000 -16.9635 0.0000
# 4 0.0000 0.0000 0.0000 50.9022 0.0000 2.0260
# 5 -13.2046 0.4840 -16.9635 0.0000 37.5984 0.0000
# 6 0.0000 0.0000 0.0000 2.0260 0.0000 45.6850
#
#
#
# Elastic Compliance Matrix: (Units=1/GPa)
#
#
# Indices 1 2 3 4 5 6 
#
# 1 0.007157 -0.001277 -0.001517 0.000000 0.001846 0.000000
# 2 -0.001277 0.006493 -0.001654 0.000000 -0.001278 0.000000
# 3 -0.001517 -0.001654 0.008518 0.000000 0.003332 0.000000
# 4 0.000000 0.000000 0.000000 0.019680 0.000000 -0.000873
# 5 0.001846 -0.001278 0.003332 0.000000 0.028765 0.000000
# 6 0.000000 0.000000 0.000000 -0.000873 0.000000 0.021928
#
#
# Mechanical properties :
#
#
# Convention : Reuss Voigt Hill
#
# Bulk Modulus (GPa) = 75.34387 78.94963 77.14675
# Shear Modulus (GPa) = 47.23176 50.14878 48.69027
#
# Velocity S-wave (km/s) = 4.18896 4.31638 4.25314
# Velocity P-wave (km/s) = 7.16854 7.36020 7.26500
#
# Compressibility (1/GPa) = 0.01327248
#
# Stress axis : x y z
#
# Youngs Moduli (GPa) = 139.71382 154.01859 117.39846
#
# Poissons Ratio (x) = 0.19669 0.17804
# Poissons Ratio (y) = 0.17842 0.19420
# Poissons Ratio (z) = 0.21189 0.25478
#
# Static dielectric constant tensor:
#      x y z
#    x 2.264150 0.000000 0.039820 
#    y 0.000000 11.156410 0.000000 
#    z 0.039820 0.000000 2.319960 
# 
# From -- ./inp_files/49967.got.cif
#   From: 2010.05.17/outbox.cif.g08.bks.cpg/sg12_25_cif.got.tgz:49967.got - 2010.06.03 13:09:07.
