data_PCOD9222009
_publ_section_title
;
Structure prediction by ZEFSAII (Michael W. Deem and Ramdas Pophale) SiO2 
 PCOD9222009
Probable space group: C 2/M
;
_chemical_formula_sum "Si O2"
_cell_formula_units_Z 40
_cell_length_a 4.887779
_cell_length_b 25.635428
_cell_length_c 14.322665
_cell_angle_alpha 90.000000
_cell_angle_beta 110.939391
_cell_angle_gamma 90.000000
_cell_volume 1676.114863
_symmetry_space_group_name_H-M "C 2/M"
_symmetry_group_IT_number 12
_symmetry_cell_setting 'monoclinic'
loop_
_space_group_symop_operation_xyz
x,y,z
-x,y,-z
-x,-y,-z
x,-y,z
1/2+x,1/2+y,z
1/2-x,1/2+y,-z
1/2-x,1/2-y,-z
1/2+x,1/2-y,z
loop_
_atom_site_type_symbol
_atom_site_label
_atom_site_fract_x
_atom_site_fract_y
_atom_site_fract_z
Si Si1 0.437305 0.716983 0.284706
Si Si2 0.664934 0.059374 0.304505
Si Si3 0.785433 0.056705 0.100121
Si Si4 0.755036 0.384445 0.391103
Si Si5 0.661530 0.670157 0.931347
O O1 0.139173 0.731963 0.299797
O O2 0.608931 0.671584 0.358119
O O3 0.379813 0.698294 0.171905
O O4 0.684717 0.062483 0.194922
O O5 0.418911 0.096080 0.317925
O O6 0.984706 0.077062 0.378330
O O7 0.601488 0.000000 0.324159
O O8 0.948627 0.110162 0.094671
O O9 0.941071 0.000000 0.110140
O O10 0.500000 0.054456 0.000000
O O11 0.000000 0.384377 0.500000
O O12 0.500000 0.695133 0.000000
O O13 0.000000 0.667851 0.000000
#
# Coordination Sequence:
#
# PCOD9222009 Si02
#       5
#     8   8   8   8   8
#     4  12  27  46  71  97 133 175 232 290 343 397
#     4  11  24  44  72 105 142 180 220 269 336 412
#     4   9  20  38  66 103 140 179 216 260 324 408
#     4  12  27  47  71 100 135 176 231 287 343 400
#     4  11  24  41  68  99 137 180 220 270 331 405
#
# _framework density 23.864712999999998
#
# number of rings (size 3 to 8) (size 9 to 14) (size 15 to 20)
#    0.000    1.000    2.000    3.600    5.600    6.000 
#    0.000    0.000    0.000    0.000    0.000    0.000 
#    0.000    0.000    0.000    0.000    0.000    0.000 
#
# Total GULP energy -112109.854219 kJ/mol
# GULP energy per Si atom -5605.492711 kJ/mol
# Density = 2.381040 g / cm^3
# Si number density = 23.864713 Si / 1000 Ang^3
#
#
#
# Elastic Constant Matrix: (Units=GPa)
#
#
# Indices 1 2 3 4 5 6 
#
# 1 62.9229 -3.4509 7.6569 0.0000 10.5874 0.0000
# 2 -3.4509 86.8225 21.4894 0.0000 11.0895 0.0000
# 3 7.6569 21.4894 106.5429 0.0000 22.9336 0.0000
# 4 0.0000 0.0000 0.0000 51.5656 0.0000 -36.0255
# 5 10.5874 11.0895 22.9336 0.0000 35.5188 0.0000
# 6 0.0000 0.0000 0.0000 -36.0255 0.0000 97.9634
#
#
#
# Elastic Compliance Matrix: (Units=1/GPa)
#
#
# Indices 1 2 3 4 5 6 
#
# 1 0.016899 0.001434 -0.000375 0.000000 -0.005243 0.000000
# 2 0.001434 0.012449 -0.001957 0.000000 -0.003050 0.000000
# 3 -0.000375 -0.001957 0.011210 0.000000 -0.006515 0.000000
# 4 0.000000 0.000000 0.000000 0.026098 0.000000 0.009597
# 5 -0.005243 -0.003050 -0.006515 0.000000 0.034876 0.000000
# 6 0.000000 0.000000 0.000000 0.009597 0.000000 0.013737
#
#
# Mechanical properties :
#
#
# Convention : Reuss Voigt Hill
#
# Bulk Modulus (GPa) = 25.79916 34.18656 29.99286
# Shear Modulus (GPa) = 38.46575 52.38243 45.42409
#
# Velocity S-wave (km/s) = 4.01911 4.69014 4.36753
# Velocity P-wave (km/s) = 5.68961 6.60955 6.16676
#
# Compressibility (1/GPa) = 0.03876095
#
# Stress axis : x y z
#
# Youngs Moduli (GPa) = 59.17541 80.32882 89.20574
#
# Poissons Ratio (x) = -0.11521 0.03347
# Poissons Ratio (y) = -0.08487 0.17461
# Poissons Ratio (z) = 0.02221 0.15723
#
# Static dielectric constant tensor:
#      x y z
#    x 1.892310 0.000000 0.008780 
#    y 0.000000 1.945740 0.000000 
#    z 0.008780 0.000000 1.873300 
# 
# From -- ./inp_files/192005.got.cif
#   From: 2010.05.17/outbox.cif.g08.bks.cpg/sg12_97_cif.got.tgz:192005.got - 2010.06.03 13:09:07.
