data_PCOD9222616
_publ_section_title
;
Structure prediction by ZEFSAII (Michael W. Deem and Ramdas Pophale) SiO2 
 PCOD9222616
Probable space group: C 2/M
;
_chemical_formula_sum "Si O2"
_cell_formula_units_Z 28
_cell_length_a 8.674601
_cell_length_b 19.911472
_cell_length_c 9.161838
_cell_angle_alpha 90.000000
_cell_angle_beta 44.212693
_cell_angle_gamma 90.000000
_cell_volume 1103.494157
_symmetry_space_group_name_H-M "C 2/M"
_symmetry_group_IT_number 12
_symmetry_cell_setting 'monoclinic'
loop_
_space_group_symop_operation_xyz
x,y,z
-x,y,-z
-x,-y,-z
x,-y,z
1/2+x,1/2+y,z
1/2-x,1/2+y,-z
1/2-x,1/2-y,-z
1/2+x,1/2-y,z
loop_
_atom_site_type_symbol
_atom_site_label
_atom_site_fract_x
_atom_site_fract_y
_atom_site_fract_z
Si Si1 0.752565 0.712580 0.845288
Si Si2 0.000000 0.183046 0.500000
Si Si3 0.358402 0.926483 0.776708
Si Si4 0.967825 0.072659 0.275722
O O1 0.808960 0.766448 0.682911
O O2 0.929590 0.651423 0.727972
O O3 0.500000 0.687105 0.000000
O O4 0.750000 0.750000 0.000000
O O5 0.049542 0.133664 0.601425
O O6 0.226608 0.928510 0.712613
O O7 0.472940 0.000000 0.711730
O O8 0.191094 0.925248 0.028066
O O9 0.969639 0.000000 0.349780
#
# Coordination Sequence:
#
# PCOD9222616 Si02
#       4
#     8   4   8   8
#     4  12  24  41  62  94 128 161 205 255 313 366
#     4  12  23  36  63  94 126 158 200 262 313 360
#     4   9  17  36  61  82 117 165 207 245 295 365
#     4   9  17  33  60  88 114 161 212 244 294 367
#
# _framework density 25.373944000000002
#
# number of rings (size 3 to 8) (size 9 to 14) (size 15 to 20)
#    0.000    1.714    5.714    2.143    0.000    4.571 
#    0.000    0.714    0.000    7.714    0.000    0.000 
#    0.000    0.000    0.000    0.000    0.000    0.000 
#
# Total GULP energy -78173.138636 kJ/mol
# GULP energy per Si atom -5583.795617 kJ/mol
# Density = 2.531619 g / cm^3
# Si number density = 25.373944 Si / 1000 Ang^3
#
#
#
# Elastic Constant Matrix: (Units=GPa)
#
#
# Indices 1 2 3 4 5 6 
#
# 1 33.7145 29.0273 36.6179 0.0000 6.3838 0.0000
# 2 29.0273 262.7319 74.9344 0.0000 17.0666 0.0000
# 3 36.6179 74.9344 142.6861 0.0000 16.6232 0.0000
# 4 0.0000 0.0000 0.0000 59.0733 0.0000 23.2429
# 5 6.3838 17.0666 16.6232 0.0000 32.8150 0.0000
# 6 0.0000 0.0000 0.0000 23.2429 0.0000 25.1503
#
#
#
# Elastic Compliance Matrix: (Units=1/GPa)
#
#
# Indices 1 2 3 4 5 6 
#
# 1 0.042040 -0.001754 -0.009587 0.000000 -0.002410 0.000000
# 2 -0.001754 0.004595 -0.001833 0.000000 -0.001120 0.000000
# 3 -0.009587 -0.001833 0.010737 0.000000 -0.002621 0.000000
# 4 0.000000 0.000000 0.000000 0.026601 0.000000 -0.024583
# 5 -0.002410 -0.001120 -0.002621 0.000000 0.032853 0.000000
# 6 0.000000 0.000000 0.000000 -0.024583 0.000000 0.062480
#
#
# Mechanical properties :
#
#
# Convention : Reuss Voigt Hill
#
# Bulk Modulus (GPa) = 32.23256 80.03240 56.13248
# Shear Modulus (GPa) = 23.14884 43.31125 33.23004
#
# Velocity S-wave (km/s) = 3.02372 4.13597 3.62278
# Velocity P-wave (km/s) = 4.99210 7.37685 6.29838
#
# Compressibility (1/GPa) = 0.03102453
#
# Stress axis : x y z
#
# Youngs Moduli (GPa) = 23.78709 217.60736 93.13985
#
# Poissons Ratio (x) = 0.38164 0.89293
# Poissons Ratio (y) = 0.04172 0.17070
# Poissons Ratio (z) = 0.22805 0.39882
#
# Static dielectric constant tensor:
#      x y z
#    x 2.023910 0.000000 -0.110530 
#    y 0.000000 2.045040 0.000000 
#    z -0.110530 0.000000 2.047730 
# 
# From -- ./inp_files/37938.got.cif
#   From: 2010.05.17/outbox.cif.g08.bks.cpg/sg12_19_cif.got.tgz:37938.got - 2010.06.03 13:09:07.
