data_PCOD9222326
_publ_section_title
;
Structure prediction by ZEFSAII (Michael W. Deem and Ramdas Pophale) SiO2 
 PCOD9222326
Probable space group: C 2/M
;
_chemical_formula_sum "Si O2"
_cell_formula_units_Z 64
_cell_length_a 13.663253
_cell_length_b 25.769528
_cell_length_c 9.097858
_cell_angle_alpha 90.000000
_cell_angle_beta 87.114897
_cell_angle_gamma 90.000000
_cell_volume 3199.255322
_symmetry_space_group_name_H-M "C 2/M"
_symmetry_group_IT_number 12
_symmetry_cell_setting 'monoclinic'
loop_
_space_group_symop_operation_xyz
x,y,z
-x,y,-z
-x,-y,-z
x,-y,z
1/2+x,1/2+y,z
1/2-x,1/2+y,-z
1/2-x,1/2-y,-z
1/2+x,1/2-y,z
loop_
_atom_site_type_symbol
_atom_site_label
_atom_site_fract_x
_atom_site_fract_y
_atom_site_fract_z
Si Si1 0.984987 0.728462 0.162949
Si Si2 0.613055 0.370311 0.517242
Si Si3 0.722357 0.861907 0.979572
Si Si4 0.804142 0.798848 0.234291
Si Si5 0.144351 0.440490 0.187425
Si Si6 0.799065 0.560181 0.473759
Si Si7 0.665676 0.292071 0.265459
Si Si8 0.943482 0.621312 0.246115
O O1 0.894162 0.767360 0.159050
O O2 0.968760 0.681376 0.277470
O O3 0.077032 0.761999 0.199461
O O4 0.000000 0.705659 0.000000
O O5 0.500000 0.387368 0.500000
O O6 0.649674 0.344584 0.669038
O O7 0.692332 0.413800 0.465871
O O8 0.626748 0.322631 0.406681
O O9 0.732582 0.821949 0.114614
O O10 0.725301 0.915544 0.072408
O O11 0.792529 0.834633 0.853393
O O12 0.627877 0.873141 0.887711
O O13 0.743073 0.751722 0.310091
O O14 0.125933 0.500000 0.148301
O O15 0.178437 0.438279 0.354257
O O16 0.042575 0.408618 0.197170
O O17 0.801060 0.500000 0.425746
O O18 0.881241 0.592400 0.377524
#
# Coordination Sequence:
#
# PCOD9222326 Si02
#       8
#     8   8   8   8   8   8   8   8
#     4  12  23  38  66  99 138 182 215 265 331 396
#     4  12  25  45  68  97 126 171 231 282 326 391
#     4  12  23  41  67  94 136 179 218 269 319 399
#     4  12  23  42  64  93 138 180 219 267 327 399
#     4  11  25  45  69  98 135 176 220 276 341 394
#     4  11  25  48  72  94 132 177 221 284 340 382
#     4  12  24  41  62  98 136 176 224 265 330 392
#     4  12  24  41  67 104 134 175 224 264 327 407
#
# _framework density 20.004653999999999
#
# number of rings (size 3 to 8) (size 9 to 14) (size 15 to 20)
#    0.000    0.250    6.250    4.125    0.000    2.750 
#    2.250    0.000    0.000    0.000    0.000    3.500 
#    0.000    0.000    0.000    0.000    0.000    0.000 
#
# Total GULP energy -178445.583908 kJ/mol
# GULP energy per Si atom -5576.424497 kJ/mol
# Density = 1.995912 g / cm^3
# Si number density = 20.004654 Si / 1000 Ang^3
#
#
#
# Elastic Constant Matrix: (Units=GPa)
#
#
# Indices 1 2 3 4 5 6 
#
# 1 81.9668 36.4572 2.5023 0.0000 14.1408 0.0000
# 2 36.4572 103.2163 13.4766 0.0000 1.8280 0.0000
# 3 2.5023 13.4766 37.1884 0.0000 8.4359 0.0000
# 4 0.0000 0.0000 0.0000 28.4410 0.0000 -6.2625
# 5 14.1408 1.8280 8.4359 0.0000 18.7237 0.0000
# 6 0.0000 0.0000 0.0000 -6.2625 0.0000 46.2342
#
#
#
# Elastic Compliance Matrix: (Units=1/GPa)
#
#
# Indices 1 2 3 4 5 6 
#
# 1 0.017468 -0.006498 0.004487 0.000000 -0.014580 0.000000
# 2 -0.006498 0.012596 -0.005526 0.000000 0.006167 0.000000
# 3 0.004487 -0.005526 0.032565 0.000000 -0.017521 0.000000
# 4 0.000000 0.000000 0.000000 0.036241 0.000000 0.004909
# 5 -0.014580 0.006167 -0.017521 0.000000 0.071711 0.000000
# 6 0.000000 0.000000 0.000000 0.004909 0.000000 0.022294
#
#
# Mechanical properties :
#
#
# Convention : Reuss Voigt Hill
#
# Bulk Modulus (GPa) = 21.02836 36.36039 28.69438
# Shear Modulus (GPa) = 22.34111 30.00883 26.17497
#
# Velocity S-wave (km/s) = 3.34547 3.87730 3.62117
# Velocity P-wave (km/s) = 5.04554 6.18547 5.64436
#
# Compressibility (1/GPa) = 0.04755482
#
# Stress axis : x y z
#
# Youngs Moduli (GPa) = 57.24628 79.39186 30.70739
#
# Poissons Ratio (x) = 0.51586 -0.13777
# Poissons Ratio (y) = 0.37196 0.16970
# Poissons Ratio (z) = -0.25684 0.43875
#
# Static dielectric constant tensor:
#      x y z
#    x 1.745200 0.000000 0.008620 
#    y 0.000000 1.727630 0.000000 
#    z 0.008620 0.000000 1.742980 
# 
# From -- ./inp_files/65896.got.cif
#   From: 2010.05.17/outbox.cif.g08.bks.cpg/sg12_33_cif.got.tgz:65896.got - 2010.06.03 13:09:07.
