data_PCOD9222210
_publ_section_title
;
Structure prediction by ZEFSAII (Michael W. Deem and Ramdas Pophale) SiO2 
 PCOD9222210
Probable space group: C 2/M
;
_chemical_formula_sum "Si O2"
_cell_formula_units_Z 44
_cell_length_a 8.494705
_cell_length_b 27.575649
_cell_length_c 11.704956
_cell_angle_alpha 90.000000
_cell_angle_beta 46.177473
_cell_angle_gamma 90.000000
_cell_volume 1978.212615
_symmetry_space_group_name_H-M "C 2/M"
_symmetry_group_IT_number 12
_symmetry_cell_setting 'monoclinic'
loop_
_space_group_symop_operation_xyz
x,y,z
-x,y,-z
-x,-y,-z
x,-y,z
1/2+x,1/2+y,z
1/2-x,1/2+y,-z
1/2-x,1/2-y,-z
1/2+x,1/2-y,z
loop_
_atom_site_type_symbol
_atom_site_label
_atom_site_fract_x
_atom_site_fract_y
_atom_site_fract_z
Si Si1 0.500000 0.160522 0.000000
Si Si2 0.089769 0.000000 0.320186
Si Si3 0.687592 0.917174 0.214740
Si Si4 0.360427 0.418726 0.879872
Si Si5 0.003240 0.256357 0.168378
Si Si6 0.884361 0.311112 0.678869
Si Si7 0.611460 0.000000 0.561566
O O1 0.710675 0.128506 0.929848
O O2 0.577639 0.196950 0.861400
O O3 0.187995 0.953111 0.206184
O O4 0.000000 0.000000 0.500000
O O5 0.850292 0.000000 0.395374
O O6 0.619497 0.861149 0.250061
O O7 0.878874 0.916564 0.217734
O O8 0.477414 0.951480 0.335469
O O9 0.776877 0.934630 0.047363
O O10 0.999594 0.270628 0.302283
O O11 0.859409 0.209467 0.215508
O O12 0.250000 0.250000 0.000000
O O13 0.000000 0.318238 0.500000
O O14 0.500000 0.000000 0.500000
#
# Coordination Sequence:
#
# PCOD9222210 Si02
#       7
#     4   4   8   8   8   8   4
#     4  12  24  43  72 100 138 185 246 292 350 426
#     4  12  29  46  70 109 153 187 224 305 367 433
#     4  11  24  45  76 101 135 187 251 298 346 442
#     4  11  25  45  71 103 134 190 244 287 354 435
#     4  12  24  46  71  99 142 195 242 297 358 442
#     4  12  26  43  70 108 142 186 243 310 371 420
#     4  12  23  47  69 101 143 180 228 296 366 419
#
# _framework density 22.242298999999999
#
# number of rings (size 3 to 8) (size 9 to 14) (size 15 to 20)
#    0.000    0.364    5.455    2.727    5.091    1.818 
#    0.000    0.000    0.000    0.000    0.000    0.000 
#    0.000    0.000    0.000    0.000    0.000    0.000 
#
# Total GULP energy -122482.497028 kJ/mol
# GULP energy per Si atom -5567.386229 kJ/mol
# Density = 2.219167 g / cm^3
# Si number density = 22.242299 Si / 1000 Ang^3
#
#
#
# Elastic Constant Matrix: (Units=GPa)
#
#
# Indices 1 2 3 4 5 6 
#
# 1 34.4771 8.7663 -0.2552 0.0000 13.4837 0.0000
# 2 8.7663 121.3960 33.9800 0.0000 -7.7498 0.0000
# 3 -0.2552 33.9800 91.3705 0.0000 12.5171 0.0000
# 4 0.0000 0.0000 0.0000 -0.1340 0.0000 47.4343
# 5 13.4837 -7.7498 12.5171 0.0000 45.4501 0.0000
# 6 0.0000 0.0000 0.0000 47.4343 0.0000 -37.6956
#
#
#
# Elastic Compliance Matrix: (Units=1/GPa)
#
#
# Indices 1 2 3 4 5 6 
#
# 1 0.034763 -0.004194 0.003292 0.000000 -0.011935 0.000000
# 2 -0.004194 0.010008 -0.004300 0.000000 0.004135 0.000000
# 3 0.003292 -0.004300 0.013288 0.000000 -0.005369 0.000000
# 4 0.000000 0.000000 0.000000 0.016791 0.000000 0.021129
# 5 -0.011935 0.004135 -0.005369 0.000000 0.027727 0.000000
# 6 0.000000 0.000000 0.000000 0.021129 0.000000 0.000060
#
#
# Mechanical properties :
#
#
# Convention : Reuss Voigt Hill
#
# Bulk Modulus (GPa) = 20.98407 36.91398 28.94902
# Shear Modulus (GPa) = 38.78204 15.17427 26.97815
#
# Velocity S-wave (km/s) = 4.18019 2.61478 3.48648
# Velocity P-wave (km/s) = 5.72307 5.07429 5.40841
#
# Compressibility (1/GPa) = 0.04765521
#
# Stress axis : x y z
#
# Youngs Moduli (GPa) = 28.76631 99.92092 75.25384
#
# Poissons Ratio (x) = 0.41902 -0.24771
# Poissons Ratio (y) = 0.12063 0.32359
# Poissons Ratio (z) = -0.09469 0.42966
#
# Static dielectric constant tensor:
#      x y z
#    x 1.884180 0.000000 0.048000 
#    y 0.000000 1.868060 0.000000 
#    z 0.048000 0.000000 1.826570 
# 
# From -- ./inp_files/124109.got.cif
#   From: 2010.05.17/outbox.cif.g08.bks.cpg/sg12_63_cif.got.tgz:124109.got - 2010.06.03 13:09:07.
