data_PCOD9222091
_publ_section_title
;
Structure prediction by ZEFSAII (Michael W. Deem and Ramdas Pophale) SiO2 
 PCOD9222091
Probable space group: C 2/M
;
_chemical_formula_sum "Si O2"
_cell_formula_units_Z 32
_cell_length_a 7.241633
_cell_length_b 19.384241
_cell_length_c 14.113535
_cell_angle_alpha 90.000000
_cell_angle_beta 38.651191
_cell_angle_gamma 90.000000
_cell_volume 1237.392615
_symmetry_space_group_name_H-M "C 2/M"
_symmetry_group_IT_number 12
_symmetry_cell_setting 'monoclinic'
loop_
_space_group_symop_operation_xyz
x,y,z
-x,y,-z
-x,-y,-z
x,-y,z
1/2+x,1/2+y,z
1/2-x,1/2+y,-z
1/2-x,1/2-y,-z
1/2+x,1/2-y,z
loop_
_atom_site_type_symbol
_atom_site_label
_atom_site_fract_x
_atom_site_fract_y
_atom_site_fract_z
Si Si1 0.493035 0.000000 0.717006
Si Si2 0.628773 0.350930 0.244100
Si Si3 0.569312 0.500000 0.622701
Si Si4 0.325553 0.856884 0.855224
Si Si5 0.860489 0.282778 0.654827
O O1 0.793211 0.000000 0.659504
O O2 0.310755 0.933908 0.820447
O O3 0.622369 0.000000 0.558660
O O4 0.482149 0.426697 0.304766
O O5 0.481292 0.308264 0.217823
O O6 0.566003 0.297176 0.355849
O O7 0.977700 0.358713 0.127704
O O8 0.468507 0.818977 0.707157
O O9 0.000000 0.827626 0.000000
O O10 0.000000 0.306131 0.500000
#
# Coordination Sequence:
#
# PCOD9222091 Si02
#       5
#     4   8   4   8   8
#     4   9  19  39  68  97 133 179 224 278 336 404
#     4  11  24  43  67 102 138 177 222 284 335 400
#     4   9  20  37  70 100 134 168 226 282 344 386
#     4  11  25  44  67  99 140 185 225 273 337 406
#     4  12  25  41  71 101 136 173 226 283 342 394
#
# _framework density 25.86083
#
# number of rings (size 3 to 8) (size 9 to 14) (size 15 to 20)
#    0.000    1.250    2.500    2.625    7.000    3.000 
#    0.000    2.500    0.000    6.000    0.000    0.000 
#    0.000    0.000    0.000    0.000    0.000    0.000 
#
# Total GULP energy -89238.447366 kJ/mol
# GULP energy per Si atom -5577.402960 kJ/mol
# Density = 2.580197 g / cm^3
# Si number density = 25.860830 Si / 1000 Ang^3
#
#
#
# Elastic Constant Matrix: (Units=GPa)
#
#
# Indices 1 2 3 4 5 6 
#
# 1 161.8826 22.7972 19.8686 0.0000 -1.1259 0.0000
# 2 22.7972 155.0134 7.7925 0.0000 4.1421 0.0000
# 3 19.8686 7.7925 75.2067 -0.0001 -8.4236 0.0000
# 4 0.0000 0.0000 -0.0001 9.4463 0.0000 -21.3261
# 5 -1.1259 4.1421 -8.4236 0.0000 31.5800 0.0000
# 6 0.0000 0.0000 0.0000 -21.3261 0.0000 6.8634
#
#
#
# Elastic Compliance Matrix: (Units=1/GPa)
#
#
# Indices 1 2 3 4 5 6 
#
# 1 0.006500 -0.000871 -0.001637 0.000000 -0.000091 0.000000
# 2 -0.000871 0.006636 -0.000576 0.000000 -0.001055 0.000000
# 3 -0.001637 -0.000576 0.014215 0.000000 0.003809 0.000000
# 4 0.000000 0.000000 0.000000 -0.017600 0.000000 -0.054687
# 5 -0.000091 -0.001055 0.003809 0.000000 0.032817 0.000000
# 6 0.000000 0.000000 0.000000 -0.054687 0.000000 -0.024223
#
#
# Mechanical properties :
#
#
# Convention : Reuss Voigt Hill
#
# Bulk Modulus (GPa) = 47.20539 54.77991 50.99265
# Shear Modulus (GPa) = 158.35338 32.35423 95.35381
#
# Velocity S-wave (km/s) = 7.83364 3.54091 6.07881
# Velocity P-wave (km/s) = 10.00572 6.16003 8.30844
#
# Compressibility (1/GPa) = 0.02118402
#
# Stress axis : x y z
#
# Youngs Moduli (GPa) = 153.83862 150.68603 70.34584
#
# Poissons Ratio (x) = 0.13129 0.11517
# Poissons Ratio (y) = 0.13403 0.04049
# Poissons Ratio (z) = 0.25186 0.08674
#
# Static dielectric constant tensor:
#      x y z
#    x 2.168790 0.000000 -0.146650 
#    y 0.000000 2.052700 0.000000 
#    z -0.146650 0.000000 2.091400 
# 
# From -- ./inp_files/37607.got.cif
#   From: 2010.05.17/outbox.cif.g08.bks.cpg/sg12_19_cif.got.tgz:37607.got - 2010.06.03 13:09:07.
