data_PCOD9222306
_publ_section_title
;
Structure prediction by ZEFSAII (Michael W. Deem and Ramdas Pophale) SiO2 
 PCOD9222306
Probable space group: C 2/M
;
_chemical_formula_sum "Si O2"
_cell_formula_units_Z 42
_cell_length_a 9.268380
_cell_length_b 14.739788
_cell_length_c 15.577815
_cell_angle_alpha 90.000000
_cell_angle_beta 110.670876
_cell_angle_gamma 90.000000
_cell_volume 1991.144467
_symmetry_space_group_name_H-M "C 2/M"
_symmetry_group_IT_number 12
_symmetry_cell_setting 'monoclinic'
loop_
_space_group_symop_operation_xyz
x,y,z
-x,y,-z
-x,-y,-z
x,-y,z
1/2+x,1/2+y,z
1/2-x,1/2+y,-z
1/2-x,1/2-y,-z
1/2+x,1/2-y,z
loop_
_atom_site_type_symbol
_atom_site_label
_atom_site_fract_x
_atom_site_fract_y
_atom_site_fract_z
Si Si1 0.323288 0.654334 0.489336
Si Si2 0.533945 0.732293 0.188678
Si Si3 0.288919 0.819546 0.930784
Si Si4 0.052101 0.398860 0.315324
Si Si5 0.256183 0.598288 0.661542
Si Si6 0.000000 0.500000 0.000000
O O1 0.500000 0.662115 0.500000
O O2 0.250000 0.750000 0.500000
O O3 0.220022 0.616071 0.390488
O O4 0.305218 0.599428 0.573354
O O5 0.600561 0.765354 0.111928
O O6 0.378789 0.673636 0.149434
O O7 0.507391 0.824402 0.236515
O O8 0.659451 0.676020 0.268181
O O9 0.250000 0.750000 0.000000
O O10 0.366104 0.916670 0.968595
O O11 0.041372 0.500000 0.275774
O O12 0.927502 0.390571 0.365711
O O13 0.294828 0.500000 0.707912
#
# Coordination Sequence:
#
# PCOD9222306 Si02
#       6
#     8   8   8   8   8   2
#     4  12  25  42  66  99 144 200 250 301 366 426
#     4  12  25  47  74 109 148 188 238 313 370 438
#     4  12  27  52  78 111 152 190 245 309 382 467
#     4  11  25  44  71 104 145 196 248 303 365 438
#     4  11  25  45  68 103 147 192 243 298 367 436
#     4  12  28  52  86 114 144 206 238 304 396 474
#
# _framework density 21.093398000000001
#
# number of rings (size 3 to 8) (size 9 to 14) (size 15 to 20)
#    0.000    0.381    5.714    2.286    5.333    3.048 
#    1.714    0.952    0.000    0.000    0.000    0.000 
#    0.000    0.000    0.000    0.000    0.000    0.000 
#
# Total GULP energy -117100.901841 kJ/mol
# GULP energy per Si atom -5576.233421 kJ/mol
# Density = 2.104539 g / cm^3
# Si number density = 21.093398 Si / 1000 Ang^3
#
#
#
# Elastic Constant Matrix: (Units=GPa)
#
#
# Indices 1 2 3 4 5 6 
#
# 1 162.0938 47.3121 40.3888 0.0000 12.1744 0.0000
# 2 47.3121 163.0243 40.4069 0.0000 6.3434 0.0000
# 3 40.3888 40.4069 67.0258 0.0000 6.8889 0.0000
# 4 0.0000 0.0000 0.0000 9.9723 0.0000 2.2203
# 5 12.1744 6.3434 6.8889 0.0000 48.7556 0.0000
# 6 0.0000 0.0000 0.0000 2.2203 0.0000 22.4118
#
#
#
# Elastic Compliance Matrix: (Units=1/GPa)
#
#
# Indices 1 2 3 4 5 6 
#
# 1 0.007534 -0.001229 -0.003676 0.000000 -0.001202 0.000000
# 2 -0.001229 0.007417 -0.003717 0.000000 -0.000133 0.000000
# 3 -0.003676 -0.003717 0.019515 0.000000 -0.001356 0.000000
# 4 0.000000 0.000000 0.000000 0.102539 0.000000 -0.010158
# 5 -0.001202 -0.000133 -0.001356 0.000000 0.021020 0.000000
# 6 0.000000 0.000000 0.000000 -0.010158 0.000000 0.045626
#
#
# Mechanical properties :
#
#
# Convention : Reuss Voigt Hill
#
# Bulk Modulus (GPa) = 58.06307 72.03996 65.05152
# Shear Modulus (GPa) = 22.06190 33.83034 27.94612
#
# Velocity S-wave (km/s) = 3.23757 4.00914 3.64383
# Velocity P-wave (km/s) = 6.44688 7.46042 6.97209
#
# Compressibility (1/GPa) = 0.01722265
#
# Stress axis : x y z
#
# Youngs Moduli (GPa) = 132.73090 134.82152 51.24270
#
# Poissons Ratio (x) = 0.16565 0.18835
# Poissons Ratio (y) = 0.16308 0.19049
# Poissons Ratio (z) = 0.48787 0.50119
#
# Static dielectric constant tensor:
#      x y z
#    x 1.767140 0.000000 0.009050 
#    y 0.000000 1.841920 0.000000 
#    z 0.009050 0.000000 1.826860 
# 
# From -- ./inp_files/255299.got.cif
#   From: 2010.05.17/outbox.cif.g08.bks.cpg/sg12_128_cif.got.tgz:255299.got - 2010.06.03 13:09:07.
