data_PCOD9222619
_publ_section_title
;
Structure prediction by ZEFSAII (Michael W. Deem and Ramdas Pophale) SiO2 
 PCOD9222619
Probable space group: C 2/M
;
_chemical_formula_sum "Si O2"
_cell_formula_units_Z 64
_cell_length_a 27.414667
_cell_length_b 19.702630
_cell_length_c 8.844791
_cell_angle_alpha 90.000000
_cell_angle_beta 130.185225
_cell_angle_gamma 90.000000
_cell_volume 3649.780647
_symmetry_space_group_name_H-M "C 2/M"
_symmetry_group_IT_number 12
_symmetry_cell_setting 'monoclinic'
loop_
_space_group_symop_operation_xyz
x,y,z
-x,y,-z
-x,-y,-z
x,-y,z
1/2+x,1/2+y,z
1/2-x,1/2+y,-z
1/2-x,1/2-y,-z
1/2+x,1/2-y,z
loop_
_atom_site_type_symbol
_atom_site_label
_atom_site_fract_x
_atom_site_fract_y
_atom_site_fract_z
Si Si1 0.766047 0.922038 0.460937
Si Si2 0.688849 0.712039 0.948281
Si Si3 0.811151 0.212039 0.692885
Si Si4 0.112966 0.422393 0.796489
Si Si5 0.067098 0.286187 0.563669
Si Si6 0.112966 0.422393 0.155376
Si Si7 0.766047 0.922037 0.103251
Si Si8 0.567098 0.213813 0.204723
O O1 0.802477 0.866457 0.630870
O O2 0.689520 0.915239 0.330734
O O3 0.777523 0.910146 0.305046
O O4 0.782936 0.000000 0.529232
O O5 0.625422 0.744103 0.750864
O O6 0.697523 0.633543 0.920963
O O7 0.750000 0.750000 0.000000
O O8 0.688711 0.721707 0.127422
O O9 0.750000 0.250000 0.500000
O O10 0.874578 0.244103 0.749177
O O11 0.095495 0.500000 0.722896
O O12 0.078669 0.364627 0.633245
O O13 0.100810 0.412324 0.951620
O O14 0.189520 0.415238 0.927347
O O15 0.066630 0.279332 0.383259
O O16 0.000000 0.264092 0.500000
O O17 0.095494 0.500000 0.159082
O O18 0.078669 0.364626 0.181432
O O19 0.782935 0.000000 0.102512
O O20 0.500000 0.235909 0.000000
#
# Coordination Sequence:
#
# PCOD9222619 Si02
#       8
#     8   8   8   8   8   8   8   8
#     4   9  18  34  58  87 118 150 187 234 285 336
#     4  12  23  37  59  87 117 151 193 239 285 339
#     4  12  23  37  59  87 117 151 193 239 285 339
#     4   9  18  34  56  82 115 153 192 234 280 335
#     4  12  25  40  58  82 114 154 195 240 289 343
#     4   9  18  34  56  82 115 153 192 234 280 335
#     4   9  18  34  58  87 118 150 187 234 285 336
#     4  12  25  40  58  82 114 154 195 240 289 343
#
# _framework density 17.535301
#
# number of rings (size 3 to 8) (size 9 to 14) (size 15 to 20)
#    0.000    1.500    2.500    6.000    0.000    1.500 
#    0.000    2.500    0.000    0.750    0.000    0.000 
#    0.000    0.000    0.000    0.000    0.000    0.000 
#
# Total GULP energy -178859.116552 kJ/mol
# GULP energy per Si atom -5589.347392 kJ/mol
# Density = 1.749539 g / cm^3
# Si number density = 17.535301 Si / 1000 Ang^3
#
#
#
# Elastic Constant Matrix: (Units=GPa)
#
#
# Indices 1 2 3 4 5 6 
#
# 1 129.0089 59.1486 77.9964 0.0000 -5.2583 0.0000
# 2 59.1486 81.5736 59.6016 0.0000 -5.0202 0.0000
# 3 77.9964 59.6016 129.9666 0.0000 -5.3621 0.0000
# 4 0.0000 0.0000 0.0000 26.3141 0.0000 -9.2401
# 5 -5.2583 -5.0202 -5.3621 0.0000 26.8924 0.0000
# 6 0.0000 0.0000 0.0000 -9.2401 0.0000 25.4804
#
#
#
# Elastic Compliance Matrix: (Units=1/GPa)
#
#
# Indices 1 2 3 4 5 6 
#
# 1 0.013872 -0.005956 -0.005573 0.000000 0.000489 0.000000
# 2 -0.005956 0.021078 -0.006027 0.000000 0.001568 0.000000
# 3 -0.005573 -0.006027 0.013825 0.000000 0.000542 0.000000
# 4 0.000000 0.000000 0.000000 0.043548 0.000000 0.015792
# 5 0.000489 0.001568 0.000542 0.000000 0.037682 0.000000
# 6 0.000000 0.000000 0.000000 0.015792 0.000000 0.044973
#
#
# Mechanical properties :
#
#
# Convention : Reuss Voigt Hill
#
# Bulk Modulus (GPa) = 73.19521 81.56026 77.37774
# Shear Modulus (GPa) = 23.29453 25.32421 24.30937
#
# Velocity S-wave (km/s) = 3.64873 3.80437 3.72736
# Velocity P-wave (km/s) = 7.71901 8.11853 7.92129
#
# Compressibility (1/GPa) = 0.01366210
#
# Stress axis : x y z
#
# Youngs Moduli (GPa) = 72.09025 47.44350 72.33231
#
# Poissons Ratio (x) = 0.28258 0.40311
# Poissons Ratio (y) = 0.42938 0.43594
# Poissons Ratio (z) = 0.40176 0.28594
#
# Static dielectric constant tensor:
#      x y z
#    x 1.581910 0.000000 -0.000010 
#    y 0.000000 1.608080 0.000000 
#    z -0.000010 0.000000 1.581910 
# 
# From -- ./inp_files/99098.got.cif
#   From: 2010.05.17/outbox.cif.g08.bks.cpg/sg12_50_cif.got.tgz:99098.got - 2010.06.03 13:09:07.
