data_PCOD9222903
_publ_section_title
;
Structure prediction by ZEFSAII (Michael W. Deem and Ramdas Pophale) SiO2 
 PCOD9222903
Probable space group: C 2/M
;
_chemical_formula_sum "Si O2"
_cell_formula_units_Z 56
_cell_length_a 7.135992
_cell_length_b 14.605127
_cell_length_c 21.338998
_cell_angle_alpha 90.000000
_cell_angle_beta 85.331585
_cell_angle_gamma 90.000000
_cell_volume 2216.616218
_symmetry_space_group_name_H-M "C 2/M"
_symmetry_group_IT_number 12
_symmetry_cell_setting 'monoclinic'
loop_
_space_group_symop_operation_xyz
x,y,z
-x,y,-z
-x,-y,-z
x,-y,z
1/2+x,1/2+y,z
1/2-x,1/2+y,-z
1/2-x,1/2-y,-z
1/2+x,1/2-y,z
loop_
_atom_site_type_symbol
_atom_site_label
_atom_site_fract_x
_atom_site_fract_y
_atom_site_fract_z
Si Si1 0.746741 0.637220 0.943164
Si Si2 0.420099 0.612258 0.568213
Si Si3 0.695935 0.856858 0.924869
Si Si4 0.314519 0.367426 0.188545
Si Si5 0.869706 0.346695 0.205138
Si Si6 0.596839 0.110960 0.659375
Si Si7 0.678881 0.604738 0.672778
O O1 0.717466 0.747015 0.934916
O O2 0.647989 0.599740 0.883311
O O3 0.972545 0.622063 0.933552
O O4 0.702143 0.607398 0.015372
O O5 0.500000 0.644629 0.500000
O O6 0.421091 0.500000 0.566180
O O7 0.210461 0.638196 0.594739
O O8 0.545656 0.644192 0.623543
O O9 0.743897 0.884372 0.852049
O O10 0.368904 0.260908 0.191069
O O11 0.388516 0.400405 0.253476
O O12 0.086549 0.379760 0.198784
O O13 0.805456 0.361532 0.277693
O O14 0.385469 0.148370 0.666173
O O15 0.593107 0.000000 0.662069
O O16 0.706064 0.500000 0.651966
#
# Coordination Sequence:
#
# PCOD9222903 Si02
#       7
#     8   8   8   8   8   8   8
#     4   8  13  22  36  56  85 115 148 190 228 264
#     4   9  18  32  52  76  95 117 152 190 231 276
#     4   8  13  22  36  56  85 115 148 190 228 264
#     4   9  17  27  43  68  91 121 157 190 232 275
#     4   9  17  27  43  68  91 121 157 190 232 275
#     4   9  18  32  49  71  97 123 152 190 232 274
#     4   9  18  32  49  71  97 123 152 190 232 274
#
# _framework density 25.263733999999999
#
# number of rings (size 3 to 8) (size 9 to 14) (size 15 to 20)
#    0.000    3.286    0.000    0.000    2.000    0.571 
#    0.000    2.857    0.000    1.714    0.000    6.000 
#    0.000    3.429    0.000    0.286    0.000    0.000 
#
# Total GULP energy -156143.476304 kJ/mol
# GULP energy per Si atom -5576.552725 kJ/mol
# Density = 2.520623 g / cm^3
# Si number density = 25.263734 Si / 1000 Ang^3
#
#
#
# Elastic Constant Matrix: (Units=GPa)
#
#
# Indices 1 2 3 4 5 6 
#
# 1 64.8456 -8.7239 25.0408 0.0000 9.8493 0.0000
# 2 -8.7239 67.2030 -2.7980 0.0000 1.0418 0.0000
# 3 25.0408 -2.7980 164.0385 0.0000 -10.7134 0.0000
# 4 0.0000 0.0000 0.0000 26.0235 0.0000 -1.6891
# 5 9.8493 1.0418 -10.7134 0.0000 39.7078 0.0000
# 6 0.0000 0.0000 0.0000 -1.6891 0.0000 -1.7316
#
#
#
# Elastic Compliance Matrix: (Units=1/GPa)
#
#
# Indices 1 2 3 4 5 6 
#
# 1 0.017683 0.002252 -0.003004 0.000000 -0.005256 0.000000
# 2 0.002252 0.015182 -0.000150 0.000000 -0.000997 0.000000
# 3 -0.003004 -0.000150 0.006719 0.000000 0.002562 0.000000
# 4 0.000000 0.000000 0.000000 0.036139 0.000000 -0.035253
# 5 -0.005256 -0.000997 0.002562 0.000000 0.027205 0.000000
# 6 0.000000 0.000000 0.000000 -0.035253 0.000000 -0.543125
#
#
# Mechanical properties :
#
#
# Convention : Reuss Voigt Hill
#
# Bulk Modulus (GPa) = 26.46939 35.90275 31.18607
# Shear Modulus (GPa) = -11.74259 31.63784 9.94762
#
# Velocity S-wave (km/s) = -2.15826 3.54263 1.98647
# Velocity P-wave (km/s) = 2.07103 5.56558 4.19910
#
# Compressibility (1/GPa) = 0.03777948
#
# Stress axis : x y z
#
# Youngs Moduli (GPa) = 56.55295 65.86821 148.82093
#
# Poissons Ratio (x) = -0.14833 0.44708
# Poissons Ratio (y) = -0.12735 0.02231
# Poissons Ratio (z) = 0.16989 0.00988
#
# Static dielectric constant tensor:
#      x y z
#    x 2.043270 0.000000 -0.018780 
#    y 0.000000 2.041270 0.000000 
#    z -0.018780 0.000000 2.006450 
# 
# From -- ./inp_files/257642.got.cif
#   From: 2010.05.17/outbox.cif.g08.bks.cpg/sg12_129_cif.got.tgz:257642.got - 2010.06.03 13:09:07.
