data_PCOD9222883
_publ_section_title
;
Structure prediction by ZEFSAII (Michael W. Deem and Ramdas Pophale) SiO2 
 PCOD9222883
Probable space group: C 2/M
;
_chemical_formula_sum "Si O2"
_cell_formula_units_Z 48
_cell_length_a 6.682385
_cell_length_b 14.644122
_cell_length_c 17.183433
_cell_angle_alpha 90.000000
_cell_angle_beta 81.116265
_cell_angle_gamma 90.000000
_cell_volume 1661.358495
_symmetry_space_group_name_H-M "C 2/M"
_symmetry_group_IT_number 12
_symmetry_cell_setting 'monoclinic'
loop_
_space_group_symop_operation_xyz
x,y,z
-x,y,-z
-x,-y,-z
x,-y,z
1/2+x,1/2+y,z
1/2-x,1/2+y,-z
1/2-x,1/2-y,-z
1/2+x,1/2-y,z
loop_
_atom_site_type_symbol
_atom_site_label
_atom_site_fract_x
_atom_site_fract_y
_atom_site_fract_z
Si Si1 0.542164 0.844807 0.738605
Si Si2 0.125610 0.104596 0.593510
Si Si3 0.822734 0.611174 0.432332
Si Si4 0.139293 0.356398 0.097659
Si Si5 0.992999 0.869197 0.766082
Si Si6 0.814470 0.863770 0.931316
O O1 0.537503 0.851161 0.645747
O O2 0.372556 0.880870 0.809696
O O3 0.761380 0.884462 0.748941
O O4 0.540917 0.738593 0.761253
O O5 0.300160 0.140016 0.524800
O O6 0.903578 0.140542 0.583769
O O7 0.131364 0.100124 0.686129
O O8 0.117212 0.000000 0.569163
O O9 0.854234 0.500000 0.425466
O O10 0.157330 0.246386 0.081910
O O11 0.914052 0.383191 0.083878
O O12 0.297811 0.389925 0.023088
O O13 0.967471 0.900282 0.856676
#
# Coordination Sequence:
#
# PCOD9222883 Si02
#       6
#     8   8   8   8   8   8
#     4   9  16  25  39  59  79  98 123 156 190 220
#     4   8  14  25  40  56  74  99 130 157 181 218
#     4   8  14  25  40  56  74  99 130 157 181 218
#     4   8  13  21  33  50  73  98 121 146 178 217
#     4   9  16  25  39  59  79  98 123 156 190 220
#     4   8  13  21  33  50  73  98 121 146 178 217
#
# _framework density 28.892019999999999
#
# number of rings (size 3 to 8) (size 9 to 14) (size 15 to 20)
#    0.000    3.667    0.000    1.000    0.000    0.667 
#    0.000    0.000    0.000    2.000    0.000    9.333 
#    0.000    0.000    0.000   54.000    0.000   25.333 
#
# Total GULP energy -133884.194881 kJ/mol
# GULP energy per Si atom -5578.508120 kJ/mol
# Density = 2.882626 g / cm^3
# Si number density = 28.892020 Si / 1000 Ang^3
#
#
#
# Elastic Constant Matrix: (Units=GPa)
#
#
# Indices 1 2 3 4 5 6 
#
# 1 100.3628 -6.6870 100.8082 0.0000 -33.7974 0.0000
# 2 -6.6870 85.2164 32.3726 0.0000 -7.6754 0.0000
# 3 100.8082 32.3726 474.9745 0.0000 -17.4158 0.0000
# 4 0.0000 0.0000 0.0000 52.5545 0.0000 -10.7624
# 5 -33.7974 -7.6754 -17.4158 0.0000 93.6326 0.0000
# 6 0.0000 0.0000 0.0000 -10.7624 0.0000 -22.8197
#
#
#
# Elastic Compliance Matrix: (Units=1/GPa)
#
#
# Indices 1 2 3 4 5 6 
#
# 1 0.015093 0.002863 -0.003212 0.000000 0.005085 0.000000
# 2 0.002863 0.012656 -0.001404 0.000000 0.001810 0.000000
# 3 -0.003212 -0.001404 0.002856 0.000000 -0.000743 0.000000
# 4 0.000000 0.000000 0.000000 0.017352 0.000000 -0.008184
# 5 0.005085 0.001810 -0.000743 0.000000 0.012526 0.000000
# 6 0.000000 0.000000 0.000000 -0.008184 0.000000 -0.039962
#
#
# Mechanical properties :
#
#
# Convention : Reuss Voigt Hill
#
# Bulk Modulus (GPa) = 36.90278 101.50457 69.20367
# Shear Modulus (GPa) = 151.24386 60.27750 105.76068
#
# Velocity S-wave (km/s) = 7.24304 4.57256 6.05681
# Velocity P-wave (km/s) = 9.09666 7.94270 8.53919
#
# Compressibility (1/GPa) = 0.02709823
#
# Stress axis : x y z
#
# Youngs Moduli (GPa) = 66.25428 79.01556 350.19906
#
# Poissons Ratio (x) = -0.22619 1.12486
# Poissons Ratio (y) = -0.18966 0.49160
# Poissons Ratio (z) = 0.21281 0.11092
#
# Static dielectric constant tensor:
#      x y z
#    x 2.369220 0.000000 0.104390 
#    y 0.000000 2.234190 0.000000 
#    z 0.104390 0.000000 2.274840 
# 
# From -- ./inp_files/181878.got.cif
#   From: 2010.05.17/outbox.cif.g08.bks.cpg/sg12_91_cif.got.tgz:181878.got - 2010.06.03 13:09:07.
