data_PCOD9222709
_publ_section_title
;
Structure prediction by ZEFSAII (Michael W. Deem and Ramdas Pophale) SiO2 
 PCOD9222709
Probable space group: C 2/M
;
_chemical_formula_sum "Si O2"
_cell_formula_units_Z 52
_cell_length_a 16.261315
_cell_length_b 33.269034
_cell_length_c 9.402559
_cell_angle_alpha 90.000000
_cell_angle_beta 147.615555
_cell_angle_gamma 90.000000
_cell_volume 2724.460427
_symmetry_space_group_name_H-M "C 2/M"
_symmetry_group_IT_number 12
_symmetry_cell_setting 'monoclinic'
loop_
_space_group_symop_operation_xyz
x,y,z
-x,y,-z
-x,-y,-z
x,-y,z
1/2+x,1/2+y,z
1/2-x,1/2+y,-z
1/2-x,1/2-y,-z
1/2+x,1/2-y,z
loop_
_atom_site_type_symbol
_atom_site_label
_atom_site_fract_x
_atom_site_fract_y
_atom_site_fract_z
Si Si1 0.151982 0.712743 0.919455
Si Si2 0.747195 0.410632 0.266093
Si Si3 0.239878 0.000000 0.256129
Si Si4 0.096279 0.000000 0.361625
Si Si5 0.598024 0.588585 0.362562
Si Si6 0.500000 0.147556 0.500000
Si Si7 0.419240 0.266384 0.730527
Si Si8 0.623626 0.331971 0.554671
O O1 0.109082 0.677255 0.749845
O O2 0.998877 0.733694 0.747663
O O3 0.250000 0.750000 0.000000
O O4 0.234936 0.692642 0.174856
O O5 0.811124 0.456185 0.336524
O O6 0.689365 0.407231 0.345821
O O7 0.880354 0.379708 0.415833
O O8 0.585299 0.406633 0.941521
O O9 0.182521 0.000000 0.335727
O O10 0.084067 0.000000 0.937026
O O11 0.127888 0.043987 0.469685
O O12 0.651264 0.622696 0.548026
O O13 0.250000 0.250000 0.500000
O O14 0.430244 0.308390 0.664048
O O15 0.500000 0.269399 0.000000
O O16 0.500000 0.330662 0.500000
#
# Coordination Sequence:
#
# PCOD9222709 Si02
#       8
#     8   8   4   4   8   4   8   8
#     4  12  26  45  61  83 124 166 204 258 324 380
#     4   9  19  35  58  95 121 165 202 255 299 377
#     4   7  12  29  56  83 127 156 203 243 302 355
#     4   7  12  30  55  91 115 161 200 251 297 364
#     4   9  19  35  64  87 126 159 209 250 308 368
#     4  12  26  37  62  90 126 156 210 261 322 368
#     4  12  27  43  67  93 120 161 214 262 317 381
#     4  12  24  40  64  93 124 162 209 265 318 373
#
# _framework density 19.086348000000001
#
# number of rings (size 3 to 8) (size 9 to 14) (size 15 to 20)
#    0.000    1.692    3.077    3.692    4.308    0.308 
#    0.000    0.385    0.000    1.846    0.000    3.231 
#    0.000    0.000    0.000    0.000    0.000    0.000 
#
# Total GULP energy -144980.392346 kJ/mol
# GULP energy per Si atom -5576.168936 kJ/mol
# Density = 1.904291 g / cm^3
# Si number density = 19.086348 Si / 1000 Ang^3
#
#
#
# Elastic Constant Matrix: (Units=GPa)
#
#
# Indices 1 2 3 4 5 6 
#
# 1 87.6658 51.7551 24.3622 0.0000 23.0817 0.0000
# 2 51.7551 175.7332 37.6530 0.0000 7.6712 0.0000
# 3 24.3622 37.6530 51.8398 0.0000 3.8520 0.0000
# 4 0.0000 0.0000 0.0000 63.9080 0.0000 -3.4506
# 5 23.0817 7.6712 3.8520 0.0000 27.3761 0.0000
# 6 0.0000 0.0000 0.0000 -3.4506 0.0000 34.9854
#
#
#
# Elastic Compliance Matrix: (Units=1/GPa)
#
#
# Indices 1 2 3 4 5 6 
#
# 1 0.018756 -0.003844 -0.004979 0.000000 -0.014036 0.000000
# 2 -0.003844 0.007567 -0.003813 0.000000 0.001657 0.000000
# 3 -0.004979 -0.003813 0.024262 0.000000 0.001853 0.000000
# 4 0.000000 0.000000 0.000000 0.015731 0.000000 0.001552
# 5 -0.014036 0.001657 0.001853 0.000000 0.047637 0.000000
# 6 0.000000 0.000000 0.000000 0.001552 0.000000 0.028736
#
#
# Mechanical properties :
#
#
# Convention : Reuss Voigt Hill
#
# Bulk Modulus (GPa) = 39.50642 60.30881 49.90761
# Shear Modulus (GPa) = 28.34480 38.68514 33.51497
#
# Velocity S-wave (km/s) = 3.85786 4.50694 4.19497
# Velocity P-wave (km/s) = 6.37086 7.66484 7.04761
#
# Compressibility (1/GPa) = 0.02531234
#
# Stress axis : x y z
#
# Youngs Moduli (GPa) = 53.31742 132.14919 41.21691
#
# Poissons Ratio (x) = 0.50800 0.20522
# Poissons Ratio (y) = 0.20496 0.15716
# Poissons Ratio (z) = 0.26547 0.50387
#
# Static dielectric constant tensor:
#      x y z
#    x 1.644230 0.000000 0.005730 
#    y 0.000000 1.676390 0.000000 
#    z 0.005730 0.000000 1.616020 
# 
# From -- ./inp_files/68710.got.cif
#   From: 2010.05.17/outbox.cif.g08.bks.cpg/sg12_35_cif.got.tgz:68710.got - 2010.06.03 13:09:07.
