data_PCOD9222358
_publ_section_title
;
Structure prediction by ZEFSAII (Michael W. Deem and Ramdas Pophale) SiO2 
 PCOD9222358
Probable space group: C 2/M
;
_chemical_formula_sum "Si O2"
_cell_formula_units_Z 40
_cell_length_a 8.945406
_cell_length_b 24.793858
_cell_length_c 8.475332
_cell_angle_alpha 90.000000
_cell_angle_beta 91.369167
_cell_angle_gamma 90.000000
_cell_volume 1879.216746
_symmetry_space_group_name_H-M "C 2/M"
_symmetry_group_IT_number 12
_symmetry_cell_setting 'monoclinic'
loop_
_space_group_symop_operation_xyz
x,y,z
-x,y,-z
-x,-y,-z
x,-y,z
1/2+x,1/2+y,z
1/2-x,1/2+y,-z
1/2-x,1/2-y,-z
1/2+x,1/2-y,z
loop_
_atom_site_type_symbol
_atom_site_label
_atom_site_fract_x
_atom_site_fract_y
_atom_site_fract_z
Si Si1 0.797520 0.606533 0.146318
Si Si2 0.200642 0.000000 0.647566
Si Si3 0.862749 0.000000 0.726709
Si Si4 0.360072 0.212261 0.603236
Si Si5 0.144917 0.606390 0.226041
Si Si6 0.860539 0.785316 0.892141
O O1 0.707547 0.553724 0.198023
O O2 0.719005 0.662922 0.185145
O O3 0.964423 0.606029 0.221018
O O4 0.810168 0.608199 0.956493
O O5 0.174652 0.000000 0.460007
O O6 0.292125 0.052512 0.697571
O O7 0.042559 0.000000 0.735900
O O8 0.500000 0.197365 0.500000
O O9 0.250000 0.250000 0.500000
O O10 0.294005 0.157786 0.676371
O O11 0.415242 0.246522 0.754722
O O12 0.750000 0.750000 0.000000
O O13 0.000000 0.803529 0.000000
#
# Coordination Sequence:
#
# PCOD9222358 Si02
#       6
#     8   4   4   8   8   8
#     4  11  25  46  75 101 138 186 241 287 345 421
#     4  11  28  47  70 104 147 176 230 293 362 424
#     4  11  28  47  70 108 139 182 230 295 359 417
#     4  12  27  44  69 106 145 185 234 291 354 422
#     4  11  25  47  72 103 138 186 235 290 348 424
#     4  12  25  46  72 105 143 189 236 295 353 420
#
# _framework density 21.285464000000001
#
# number of rings (size 3 to 8) (size 9 to 14) (size 15 to 20)
#    0.000    0.600    2.000    4.800    8.400    3.200 
#    0.000    0.000    0.000    0.000    0.000    0.000 
#    0.000    0.000    0.000    0.000    0.000    0.000 
#
# Total GULP energy -112011.005569 kJ/mol
# GULP energy per Si atom -5600.550278 kJ/mol
# Density = 2.123702 g / cm^3
# Si number density = 21.285464 Si / 1000 Ang^3
#
#
#
# Elastic Constant Matrix: (Units=GPa)
#
#
# Indices 1 2 3 4 5 6 
#
# 1 82.9602 45.9387 31.3789 0.0000 4.3309 0.0000
# 2 45.9387 183.6499 43.1517 0.0000 -0.1821 0.0000
# 3 31.3789 43.1517 83.0825 0.0000 -5.6491 0.0000
# 4 0.0000 0.0000 0.0000 37.7526 0.0000 27.9813
# 5 4.3309 -0.1821 -5.6491 0.0000 37.5361 0.0000
# 6 0.0000 0.0000 0.0000 27.9813 0.0000 -4.5203
#
#
#
# Elastic Compliance Matrix: (Units=1/GPa)
#
#
# Indices 1 2 3 4 5 6 
#
# 1 0.015455 -0.002799 -0.004552 0.000000 -0.002482 0.000000
# 2 -0.002799 0.006717 -0.002432 0.000000 -0.000011 0.000000
# 3 -0.004552 -0.002432 0.015209 0.000000 0.002802 0.000000
# 4 0.000000 0.000000 0.000000 0.004740 0.000000 0.029343
# 5 -0.002482 -0.000011 0.002802 0.000000 0.027349 0.000000
# 6 0.000000 0.000000 0.000000 0.029343 0.000000 -0.039589
#
#
# Mechanical properties :
#
#
# Convention : Reuss Voigt Hill
#
# Bulk Modulus (GPa) = 56.13351 65.62571 60.87961
# Shear Modulus (GPa) = 90.27525 29.43523 59.85524
#
# Velocity S-wave (km/s) = 6.51949 3.72274 5.30861
# Velocity P-wave (km/s) = 9.11596 7.02685 8.13871
#
# Compressibility (1/GPa) = 0.01781467
#
# Stress axis : x y z
#
# Youngs Moduli (GPa) = 64.70302 148.88199 65.74905
#
# Poissons Ratio (x) = 0.41670 0.29931
# Poissons Ratio (y) = 0.18109 0.15991
# Poissons Ratio (z) = 0.29455 0.36211
#
# Static dielectric constant tensor:
#      x y z
#    x 1.751040 0.000000 -0.010210 
#    y 0.000000 1.724120 0.000000 
#    z -0.010210 0.000000 1.767040 
# 
# From -- ./inp_files/39382.got.cif
#   From: 2010.05.17/outbox.cif.g08.bks.cpg/sg12_20_cif.got.tgz:39382.got - 2010.06.03 13:09:07.
