data_PCOD9222194
_publ_section_title
;
Structure prediction by ZEFSAII (Michael W. Deem and Ramdas Pophale) SiO2 
 PCOD9222194
Probable space group: C 2/M
;
_chemical_formula_sum "Si O2"
_cell_formula_units_Z 40
_cell_length_a 8.684831
_cell_length_b 27.946254
_cell_length_c 11.896075
_cell_angle_alpha 90.000000
_cell_angle_beta 138.950473
_cell_angle_gamma 90.000000
_cell_volume 1896.107976
_symmetry_space_group_name_H-M "C 2/M"
_symmetry_group_IT_number 12
_symmetry_cell_setting 'monoclinic'
loop_
_space_group_symop_operation_xyz
x,y,z
-x,y,-z
-x,-y,-z
x,-y,z
1/2+x,1/2+y,z
1/2-x,1/2+y,-z
1/2-x,1/2-y,-z
1/2+x,1/2-y,z
loop_
_atom_site_type_symbol
_atom_site_label
_atom_site_fract_x
_atom_site_fract_y
_atom_site_fract_z
Si Si1 0.528526 0.619649 0.331828
Si Si2 0.601811 0.882881 0.274065
Si Si3 0.652036 0.556062 0.970633
Si Si4 0.251656 0.284102 0.609725
Si Si5 0.532138 0.785930 0.892020
O O1 0.472801 0.584359 0.199264
O O2 0.566248 0.673208 0.306367
O O3 0.762936 0.609151 0.534042
O O4 0.309358 0.618139 0.296152
O O5 0.475834 0.830954 0.196094
O O6 0.407046 0.921537 0.135432
O O7 0.670642 0.500000 0.953695
O O8 0.500000 0.561586 0.000000
O O9 0.250000 0.250000 0.500000
O O10 0.314589 0.248317 0.744559
O O11 0.000000 0.305442 0.500000
O O12 0.500000 0.804607 0.000000
O O13 0.750000 0.750000 0.000000
#
# Coordination Sequence:
#
# PCOD9222194 Si02
#       5
#     8   8   8   8   8
#     4  11  25  44  72 101 135 190 234 282 352 413
#     4  11  24  45  70  99 139 180 232 290 341 420
#     4  11  27  48  72 104 139 175 228 297 359 419
#     4  12  24  40  63  97 142 185 228 284 336 403
#     4  12  24  38  61  95 133 180 229 273 334 400
#
# _framework density 21.095845000000001
#
# number of rings (size 3 to 8) (size 9 to 14) (size 15 to 20)
#    0.000    0.600    2.000    6.600    2.800    4.000 
#    0.000    4.000    0.000    0.000    0.000    0.000 
#    0.000    0.000    0.000    0.000    0.000    0.000 
#
# Total GULP energy -111920.672162 kJ/mol
# GULP energy per Si atom -5596.033608 kJ/mol
# Density = 2.104783 g / cm^3
# Si number density = 21.095845 Si / 1000 Ang^3
#
#
#
# Elastic Constant Matrix: (Units=GPa)
#
#
# Indices 1 2 3 4 5 6 
#
# 1 65.5397 45.6883 40.8989 0.0000 9.4375 0.0000
# 2 45.6883 161.7100 88.5049 0.0000 -3.1345 0.0000
# 3 40.8989 88.5049 161.9426 0.0000 -12.1529 0.0000
# 4 0.0000 0.0000 0.0000 35.8371 0.0000 -1.2495
# 5 9.4375 -3.1345 -12.1529 0.0000 35.2909 0.0000
# 6 0.0000 0.0000 0.0000 -1.2495 0.0000 34.5196
#
#
#
# Elastic Compliance Matrix: (Units=1/GPa)
#
#
# Indices 1 2 3 4 5 6 
#
# 1 0.021573 -0.004212 -0.003703 0.000000 -0.007418 0.000000
# 2 -0.004212 0.009673 -0.004182 0.000000 0.000546 0.000000
# 3 -0.003703 -0.004182 0.009693 0.000000 0.003957 0.000000
# 4 0.000000 0.000000 0.000000 0.027939 0.000000 0.001011
# 5 -0.007418 0.000546 0.003957 0.000000 0.031731 0.000000
# 6 0.000000 0.000000 0.000000 0.001011 0.000000 0.029006
#
#
# Mechanical properties :
#
#
# Convention : Reuss Voigt Hill
#
# Bulk Modulus (GPa) = 59.71950 82.15295 70.93622
# Shear Modulus (GPa) = 31.36933 35.40286 33.38609
#
# Velocity S-wave (km/s) = 3.86034 4.10102 3.98250
# Velocity P-wave (km/s) = 6.94548 7.83911 7.40579
#
# Compressibility (1/GPa) = 0.01674495
#
# Stress axis : x y z
#
# Youngs Moduli (GPa) = 46.35339 103.37623 103.17070
#
# Poissons Ratio (x) = 0.43545 0.38204
# Poissons Ratio (y) = 0.19525 0.43145
# Poissons Ratio (z) = 0.17165 0.43231
#
# Static dielectric constant tensor:
#      x y z
#    x 1.740910 0.000000 -0.004480 
#    y 0.000000 1.714310 0.000000 
#    z -0.004480 0.000000 1.834570 
# 
# From -- ./inp_files/125482.got.cif
#   From: 2010.05.17/outbox.cif.g08.bks.cpg/sg12_63_cif.got.tgz:125482.got - 2010.06.03 13:09:07.
