data_PCOD9222543
_publ_section_title
;
Structure prediction by ZEFSAII (Michael W. Deem and Ramdas Pophale) SiO2 
 PCOD9222543
Probable space group: C 2/M
;
_chemical_formula_sum "Si O2"
_cell_formula_units_Z 52
_cell_length_a 8.156466
_cell_length_b 23.040943
_cell_length_c 20.125850
_cell_angle_alpha 90.000000
_cell_angle_beta 141.304342
_cell_angle_gamma 90.000000
_cell_volume 2364.634529
_symmetry_space_group_name_H-M "C 2/M"
_symmetry_group_IT_number 12
_symmetry_cell_setting 'monoclinic'
loop_
_space_group_symop_operation_xyz
x,y,z
-x,y,-z
-x,-y,-z
x,-y,z
1/2+x,1/2+y,z
1/2-x,1/2+y,-z
1/2-x,1/2-y,-z
1/2+x,1/2-y,z
loop_
_atom_site_type_symbol
_atom_site_label
_atom_site_fract_x
_atom_site_fract_y
_atom_site_fract_z
Si Si1 0.048055 0.000000 0.374025
Si Si2 0.976422 0.000000 0.791768
Si Si3 0.709956 0.375150 0.880470
Si Si4 0.416126 0.285426 0.261215
Si Si5 0.549990 0.000000 0.300933
Si Si6 0.254822 0.401010 0.462406
Si Si7 0.002967 0.205149 0.927233
Si Si8 0.021309 0.282997 0.596322
O O1 0.113089 0.000000 0.315583
O O2 0.163750 0.942495 0.449305
O O3 0.732836 0.000000 0.292434
O O4 0.139242 0.941816 0.852818
O O5 0.759382 0.000000 0.782426
O O6 0.674926 0.346476 0.796889
O O7 0.527573 0.340964 0.875595
O O8 0.000000 0.366463 0.000000
O O9 0.330805 0.258008 0.303272
O O10 0.728489 0.289571 0.371188
O O11 0.266225 0.241109 0.164565
O O12 0.642111 0.055234 0.372404
O O13 0.500000 0.373657 0.500000
O O14 0.058009 0.348917 0.413269
O O15 0.250000 0.250000 0.000000
O O16 0.000000 0.178373 0.000000
O O17 0.750000 0.250000 0.500000
#
# Coordination Sequence:
#
# PCOD9222543 Si02
#       8
#     4   4   8   8   4   8   8   8
#     4   9  22  45  75  95 129 203 254 291 355 431
#     4  12  27  47  69 108 146 183 241 306 375 432
#     4  12  26  48  72 103 143 182 239 307 368 434
#     4  12  23  41  68  99 137 186 228 286 359 422
#     4   9  20  43  69  94 132 184 247 294 352 423
#     4   9  19  41  64  92 136 187 247 298 339 423
#     4  12  21  45  76 106 135 179 243 297 362 443
#     4  12  25  39  59 101 148 182 226 290 357 421
#
# _framework density 21.990715000000002
#
# number of rings (size 3 to 8) (size 9 to 14) (size 15 to 20)
#    0.000    0.923    4.615    3.462    2.154    1.231 
#    5.538    0.385    0.000    0.000    0.000    0.000 
#    0.000    0.000    0.000    0.000    0.000    0.000 
#
# Total GULP energy -144846.594216 kJ/mol
# GULP energy per Si atom -5571.022854 kJ/mol
# Density = 2.194066 g / cm^3
# Si number density = 21.990715 Si / 1000 Ang^3
#
#
#
# Elastic Constant Matrix: (Units=GPa)
#
#
# Indices 1 2 3 4 5 6 
#
# 1 70.0225 40.4998 18.4232 0.0038 17.8574 0.0058
# 2 40.4998 125.0630 20.5722 0.0007 4.4880 0.0012
# 3 18.4232 20.5722 71.6192 -0.0056 20.3544 -0.0089
# 4 0.0038 0.0007 -0.0056 36.2592 -0.0038 58.6136
# 5 17.8574 4.4880 20.3544 -0.0038 36.7396 -0.0061
# 6 0.0058 0.0012 -0.0089 58.6136 -0.0061 114.3694
#
#
#
# Elastic Compliance Matrix: (Units=1/GPa)
#
#
# Indices 1 2 3 4 5 6 
#
# 1 0.020244 -0.006079 -0.001040 -0.000004 -0.008521 0.000001
# 2 -0.006079 0.010222 -0.002204 0.000001 0.002927 0.000000
# 3 -0.001040 -0.002204 0.017380 0.000002 -0.008854 0.000000
# 4 -0.000004 0.000001 0.000002 0.160770 0.000004 -0.082394
# 5 -0.008521 0.002927 -0.008854 0.000004 0.035908 0.000000
# 6 0.000001 0.000000 0.000000 -0.082394 0.000000 0.050970
#
#
# Mechanical properties :
#
#
# Convention : Reuss Voigt Hill
#
# Bulk Modulus (GPa) = 34.24710 47.29947 40.77328
# Shear Modulus (GPa) = 15.43821 49.95427 32.69624
#
# Velocity S-wave (km/s) = 2.65246 4.77131 3.86011
# Velocity P-wave (km/s) = 4.99880 7.20482 6.20070
#
# Compressibility (1/GPa) = 0.02919955
#
# Stress axis : x y z
#
# Youngs Moduli (GPa) = 49.39848 97.82761 57.53827
#
# Poissons Ratio (x) = 0.59467 0.05982
# Poissons Ratio (y) = 0.30028 0.12684
# Poissons Ratio (z) = 0.05136 0.21566
#
# Static dielectric constant tensor:
#      x y z
#    x 1.826170 0.000000 -0.051350 
#    y 0.000000 1.763980 0.000000 
#    z -0.051350 0.000000 1.845270 
# 
# From -- ./inp_files/302397.got.cif
#   From: 2010.05.17/outbox.cif.g08.bks.cpg/sg12_152_cif.got.tgz:302397.got - 2010.06.03 13:09:07.
