data_PCOD9222783
_publ_section_title
;
Structure prediction by ZEFSAII (Michael W. Deem and Ramdas Pophale) SiO2 
 PCOD9222783
Probable space group: C 2/M
;
_chemical_formula_sum "Si O2"
_cell_formula_units_Z 18
_cell_length_a 5.332455
_cell_length_b 29.375885
_cell_length_c 5.008432
_cell_angle_alpha 90.000000
_cell_angle_beta 84.761618
_cell_angle_gamma 90.000000
_cell_volume 781.272061
_symmetry_space_group_name_H-M "C 2/M"
_symmetry_group_IT_number 12
_symmetry_cell_setting 'monoclinic'
loop_
_space_group_symop_operation_xyz
x,y,z
-x,y,-z
-x,-y,-z
x,-y,z
1/2+x,1/2+y,z
1/2-x,1/2+y,-z
1/2-x,1/2-y,-z
1/2+x,1/2-y,z
loop_
_atom_site_type_symbol
_atom_site_label
_atom_site_fract_x
_atom_site_fract_y
_atom_site_fract_z
Si Si1 0.500000 0.780625 0.000000
Si Si2 0.500000 0.845794 0.500000
Si Si3 0.669381 0.572813 0.722385
Si Si4 0.500000 0.000000 0.000000
O O1 0.454426 0.813330 0.255451
O O2 0.750000 0.750000 0.000000
O O3 0.722373 0.880234 0.399548
O O4 0.500000 0.552293 0.500000
O O5 0.500000 0.580375 0.000000
O O6 0.885441 0.539579 0.809375
#
# Coordination Sequence:
#
# PCOD9222783 Si02
#       4
#     4   4   8   2
#     4  12  29  52  84 117 156 205 258 336 401 486
#     4  12  28  51  76 114 152 198 264 313 404 466
#     4  12  27  47  78 107 158 208 258 323 383 474
#     4  12  26  50  68 122 148 210 264 310 394 454
#
# _framework density 23.039346999999999
#
# number of rings (size 3 to 8) (size 9 to 14) (size 15 to 20)
#    0.000    0.000    0.000    9.333    9.333    6.222 
#    0.000    0.000    0.000    0.000    0.000    0.000 
#    0.000    0.000    0.000    0.000    0.000    0.000 
#
# Total GULP energy -50192.079824 kJ/mol
# GULP energy per Si atom -5576.897758 kJ/mol
# Density = 2.298691 g / cm^3
# Si number density = 23.039347 Si / 1000 Ang^3
#
#
#
# Elastic Constant Matrix: (Units=GPa)
#
#
# Indices 1 2 3 4 5 6 
#
# 1 143.8297 90.4902 84.5417 0.0000 37.4248 0.0000
# 2 90.4902 210.2948 103.6726 0.0000 24.6326 0.0000
# 3 84.5417 103.6726 235.2545 0.0000 28.9538 0.0000
# 4 0.0000 0.0000 0.0000 115.2350 0.0000 57.2917
# 5 37.4248 24.6326 28.9538 0.0000 65.3060 0.0000
# 6 0.0000 0.0000 0.0000 57.2917 0.0000 -64.3265
#
#
#
# Elastic Compliance Matrix: (Units=1/GPa)
#
#
# Indices 1 2 3 4 5 6 
#
# 1 0.011441 -0.003386 -0.002083 0.000000 -0.004356 0.000000
# 2 -0.003386 0.007162 -0.001953 0.000000 0.000104 0.000000
# 3 -0.002083 -0.001953 0.005947 0.000000 -0.000706 0.000000
# 4 0.000000 0.000000 0.000000 0.006015 0.000000 0.005357
# 5 -0.004356 0.000104 -0.000706 0.000000 0.018082 0.000000
# 6 0.000000 0.000000 0.000000 0.005357 0.000000 -0.010775
#
#
# Mechanical properties :
#
#
# Convention : Reuss Voigt Hill
#
# Bulk Modulus (GPa) = 103.02007 127.42088 115.22047
# Shear Modulus (GPa) = 89.36446 43.95456 66.65951
#
# Velocity S-wave (km/s) = 6.23474 4.37258 5.38477
# Velocity P-wave (km/s) = 9.83063 8.99547 9.42230
#
# Compressibility (1/GPa) = 0.00970685
#
# Stress axis : x y z
#
# Youngs Moduli (GPa) = 87.40771 139.61697 168.16031
#
# Poissons Ratio (x) = 0.47271 0.35032
# Poissons Ratio (y) = 0.29594 0.32833
# Poissons Ratio (z) = 0.18209 0.27260
#
# Static dielectric constant tensor:
#      x y z
#    x 1.942960 0.000000 -0.034780 
#    y 0.000000 1.722990 0.000000 
#    z -0.034780 0.000000 1.820580 
# 
# From -- ./inp_files/723.got.cif
#   From: 2010.05.17/outbox.cif.g08.bks.cpg/sg12_1_cif.got.tgz:723.got - 2010.06.03 13:09:07.
