data_PCOD9222544
_publ_section_title
;
Structure prediction by ZEFSAII (Michael W. Deem and Ramdas Pophale) SiO2 
 PCOD9222544
Probable space group: C 2/M
;
_chemical_formula_sum "Si O2"
_cell_formula_units_Z 64
_cell_length_a 24.942472
_cell_length_b 27.021183
_cell_length_c 19.312215
_cell_angle_alpha 90.000000
_cell_angle_beta 161.410747
_cell_angle_gamma 90.000000
_cell_volume 4149.245110
_symmetry_space_group_name_H-M "C 2/M"
_symmetry_group_IT_number 12
_symmetry_cell_setting 'monoclinic'
loop_
_space_group_symop_operation_xyz
x,y,z
-x,y,-z
-x,-y,-z
x,-y,z
1/2+x,1/2+y,z
1/2-x,1/2+y,-z
1/2-x,1/2-y,-z
1/2+x,1/2-y,z
loop_
_atom_site_type_symbol
_atom_site_label
_atom_site_fract_x
_atom_site_fract_y
_atom_site_fract_z
Si Si1 0.254092 0.346892 0.974292
Si Si2 0.251165 0.057507 0.664867
Si Si3 0.590193 0.156066 0.184407
Si Si4 0.405430 0.229349 0.312339
Si Si5 0.344819 0.443109 0.147764
Si Si6 0.584502 0.798527 0.899936
Si Si7 0.310806 0.559910 0.259067
Si Si8 0.921999 0.221336 0.608214
O O1 0.158312 0.324033 0.791845
O O2 0.150889 0.329464 0.915646
O O3 0.284705 0.404903 0.016981
O O4 0.433550 0.319335 0.199774
O O5 0.338567 0.099923 0.727491
O O6 0.284726 0.071557 0.786961
O O7 0.048258 0.059486 0.406432
O O8 0.302255 0.000000 0.715640
O O9 0.473250 0.168674 0.106503
O O10 0.747201 0.193662 0.384286
O O11 0.500000 0.164267 0.000000
O O12 0.500000 0.228115 0.500000
O O13 0.521842 0.252039 0.394226
O O14 0.240999 0.264201 0.114192
O O15 0.303262 0.500000 0.082739
O O16 0.264029 0.428029 0.123345
O O17 0.441648 0.762007 0.693269
O O18 0.500000 0.580315 0.500000
O O19 0.321810 0.500000 0.273430
#
# Coordination Sequence:
#
# PCOD9222544 Si02
#       8
#     8   8   8   8   8   8   8   8
#     4   9  17  31  51  70  86 117 156 185 233 271
#     4   9  18  31  42  60  93 129 159 188 222 260
#     4  12  22  29  43  69  93 127 157 186 226 262
#     4   9  17  33  52  69  90 115 144 192 236 284
#     4   9  15  27  48  67  87 117 161 195 215 267
#     4   9  20  33  47  66  93 119 154 190 228 271
#     4   7  12  23  39  58  81 114 150 185 218 242
#     4   9  18  35  49  63  90 122 153 191 226 270
#
# _framework density 15.424493
#
# number of rings (size 3 to 8) (size 9 to 14) (size 15 to 20)
#    0.000    2.875    1.250    4.125    1.750    0.250 
#    0.000    0.625    0.000    0.375    0.000    0.000 
#    0.000    0.000    0.000    7.500    0.000    0.000 
#
# Total GULP energy -178235.471057 kJ/mol
# GULP energy per Si atom -5569.858471 kJ/mol
# Density = 1.538939 g / cm^3
# Si number density = 15.424493 Si / 1000 Ang^3
#
#
#
# Elastic Constant Matrix: (Units=GPa)
#
#
# Indices 1 2 3 4 5 6 
#
# 1 72.6560 37.9338 23.5132 0.0000 -7.2018 0.0000
# 2 37.9338 94.5159 30.6880 0.0000 -6.8276 0.0000
# 3 23.5132 30.6880 64.2503 0.0000 -11.7626 0.0000
# 4 0.0000 0.0000 0.0000 15.9157 0.0000 -0.3336
# 5 -7.2018 -6.8276 -11.7626 0.0000 23.5005 0.0000
# 6 0.0000 0.0000 0.0000 -0.3336 0.0000 26.8793
#
#
#
# Elastic Compliance Matrix: (Units=1/GPa)
#
#
# Indices 1 2 3 4 5 6 
#
# 1 0.018238 -0.006066 -0.003387 0.000000 0.002132 0.000000
# 2 -0.006066 0.014551 -0.004730 0.000000 0.000001 0.000000
# 3 -0.003387 -0.004730 0.020499 0.000000 0.007849 0.000000
# 4 0.000000 0.000000 0.000000 0.062848 0.000000 0.000780
# 5 0.002132 0.000001 0.007849 0.000000 0.047134 0.000000
# 6 0.000000 0.000000 0.000000 0.000780 0.000000 0.037213
#
#
# Mechanical properties :
#
#
# Convention : Reuss Voigt Hill
#
# Bulk Modulus (GPa) = 40.12383 46.18802 43.15593
# Shear Modulus (GPa) = 21.08321 22.54492 21.81407
#
# Velocity S-wave (km/s) = 3.70113 3.82728 3.76473
# Velocity P-wave (km/s) = 6.65838 7.03849 6.85107
#
# Compressibility (1/GPa) = 0.02492284
#
# Stress axis : x y z
#
# Youngs Moduli (GPa) = 54.83073 68.72567 48.78171
#
# Poissons Ratio (x) = 0.41690 0.16521
# Poissons Ratio (y) = 0.33261 0.23072
# Poissons Ratio (z) = 0.18570 0.32505
#
# Static dielectric constant tensor:
#      x y z
#    x 1.523730 0.000000 0.026980 
#    y 0.000000 1.525040 0.000000 
#    z 0.026980 0.000000 1.515450 
# 
# From -- ./inp_files/291211.got.cif
#   From: 2010.05.17/outbox.cif.g08.bks.cpg/sg12_146_cif.got.tgz:291211.got - 2010.06.03 13:09:07.
