data_PCOD9222118
_publ_section_title
;
Structure prediction by ZEFSAII (Michael W. Deem and Ramdas Pophale) SiO2 
 PCOD9222118
Probable space group: C 2/M
;
_chemical_formula_sum "Si O2"
_cell_formula_units_Z 36
_cell_length_a 19.948029
_cell_length_b 17.680532
_cell_length_c 4.725575
_cell_angle_alpha 90.000000
_cell_angle_beta 63.459667
_cell_angle_gamma 90.000000
_cell_volume 1491.037627
_symmetry_space_group_name_H-M "C 2/M"
_symmetry_group_IT_number 12
_symmetry_cell_setting 'monoclinic'
loop_
_space_group_symop_operation_xyz
x,y,z
-x,y,-z
-x,-y,-z
x,-y,z
1/2+x,1/2+y,z
1/2-x,1/2+y,-z
1/2-x,1/2-y,-z
1/2+x,1/2-y,z
loop_
_atom_site_type_symbol
_atom_site_label
_atom_site_fract_x
_atom_site_fract_y
_atom_site_fract_z
Si Si1 0.117385 0.000000 0.849179
Si Si2 0.327076 0.868474 0.080826
Si Si3 0.818512 0.734389 0.648352
Si Si4 0.217567 0.000000 0.175329
Si Si5 0.442474 0.000000 0.870713
Si Si6 0.551862 0.648969 0.680915
O O1 0.075665 0.926722 0.807348
O O2 0.197645 0.000000 0.544022
O O3 0.141251 0.000000 0.132533
O O4 0.365470 0.819515 0.764221
O O5 0.388475 0.929544 0.033896
O O6 0.302259 0.814806 0.393659
O O7 0.262439 0.921460 0.056475
O O8 0.870191 0.807146 0.507583
O O9 0.750000 0.750000 0.000000
O O10 0.500000 0.000000 0.500000
O O11 0.500000 0.000000 0.000000
O O12 0.500000 0.636112 0.500000
O O13 0.500000 0.694226 0.000000
#
# Coordination Sequence:
#
# PCOD9222118 Si02
#       6
#     4   8   8   4   4   8
#     4  12  24  46  72  99 139 186 239 294 357 435
#     4  11  25  44  69 105 145 182 242 305 363 440
#     4  12  26  46  72 106 144 191 243 301 370 445
#     4  11  24  43  72 105 137 186 235 298 361 420
#     4  11  24  43  70 102 142 196 244 296 372 447
#     4  12  27  47  71 104 143 189 241 302 372 441
#
# _framework density 24.144262000000001
#
# number of rings (size 3 to 8) (size 9 to 14) (size 15 to 20)
#    0.000    0.444    0.000    8.000    0.000   12.444 
#    0.000    1.111    0.000    0.000    0.000    0.000 
#    0.000    0.000    0.000    0.000    0.000    0.000 
#
# Total GULP energy -100390.829660 kJ/mol
# GULP energy per Si atom -5577.268314 kJ/mol
# Density = 2.408931 g / cm^3
# Si number density = 24.144262 Si / 1000 Ang^3
#
#
#
# Elastic Constant Matrix: (Units=GPa)
#
#
# Indices 1 2 3 4 5 6 
#
# 1 153.9628 68.4298 52.5023 0.0000 17.1826 0.0000
# 2 68.4298 148.9407 48.6557 0.0000 0.8367 0.0000
# 3 52.5023 48.6557 148.2174 0.0000 11.6231 0.0000
# 4 0.0000 0.0000 0.0000 -67.2899 0.0000 332.1668
# 5 17.1826 0.8367 11.6231 0.0000 55.5257 0.0000
# 6 0.0000 0.0000 0.0000 332.1668 0.0000-1058.3383
#
#
#
# Elastic Compliance Matrix: (Units=1/GPa)
#
#
# Indices 1 2 3 4 5 6 
#
# 1 0.008932 -0.003491 -0.001835 0.000000 -0.002327 0.000000
# 2 -0.003491 0.008894 -0.001787 0.000000 0.001320 0.000000
# 3 -0.001835 -0.001787 0.008069 0.000000 -0.001094 0.000000
# 4 0.000000 0.000000 0.000000 0.027054 0.000000 0.008491
# 5 -0.002327 0.001320 -0.001094 0.000000 0.018939 0.000000
# 6 0.000000 0.000000 0.000000 0.008491 0.000000 0.001720
#
#
# Mechanical properties :
#
#
# Convention : Reuss Voigt Hill
#
# Bulk Modulus (GPa) = 85.69448 87.81072 86.75260
# Shear Modulus (GPa) = 54.51021 -195.25163 -70.37071
#
# Velocity S-wave (km/s) = 4.75667 -9.00246 -5.40455
# Velocity P-wave (km/s) = 8.10787 8.46232 1.71367
#
# Compressibility (1/GPa) = 0.01166936
#
# Stress axis : x y z
#
# Youngs Moduli (GPa) = 111.95149 112.43085 123.92598
#
# Poissons Ratio (x) = 0.39253 0.22747
# Poissons Ratio (y) = 0.39085 0.22141
# Poissons Ratio (z) = 0.20549 0.20087
#
# Static dielectric constant tensor:
#      x y z
#    x 1.958950 0.000000 -0.000610 
#    y 0.000000 2.081520 0.000000 
#    z -0.000610 0.000000 1.935770 
# 
# From -- ./inp_files/15087.got.cif
#   From: 2010.05.17/outbox.cif.g08.bks.cpg/sg12_8_cif.got.tgz:15087.got - 2010.06.03 13:09:07.
