data_PCOD9222439
_publ_section_title
;
Structure prediction by ZEFSAII (Michael W. Deem and Ramdas Pophale) SiO2 
 PCOD9222439
Probable space group: C 2/M
;
_chemical_formula_sum "Si O2"
_cell_formula_units_Z 36
_cell_length_a 13.303775
_cell_length_b 24.578656
_cell_length_c 9.200481
_cell_angle_alpha 90.000000
_cell_angle_beta 144.494785
_cell_angle_gamma 90.000000
_cell_volume 1747.241773
_symmetry_space_group_name_H-M "C 2/M"
_symmetry_group_IT_number 12
_symmetry_cell_setting 'monoclinic'
loop_
_space_group_symop_operation_xyz
x,y,z
-x,y,-z
-x,-y,-z
x,-y,z
1/2+x,1/2+y,z
1/2-x,1/2+y,-z
1/2-x,1/2-y,-z
1/2+x,1/2-y,z
loop_
_atom_site_type_symbol
_atom_site_label
_atom_site_fract_x
_atom_site_fract_y
_atom_site_fract_z
Si Si1 0.074585 0.868587 0.942007
Si Si2 0.697027 0.765044 0.774636
Si Si3 0.817184 0.935366 0.203023
Si Si4 0.752411 0.191988 0.422966
Si Si5 0.000000 0.617910 0.000000
O O1 0.174866 0.905157 0.943396
O O2 0.914565 0.841895 0.667468
O O3 0.189599 0.817582 0.131319
O O4 0.000000 0.896577 0.000000
O O5 0.500000 0.777983 0.500000
O O6 0.733955 0.710689 0.727390
O O7 0.750000 0.750000 0.000000
O O8 0.657585 0.915641 0.115091
O O9 0.000000 0.924327 0.500000
O O10 0.804412 0.000000 0.166410
O O11 0.750000 0.250000 0.500000
O O12 0.582252 0.155376 0.224406
#
# Coordination Sequence:
#
# PCOD9222439 Si02
#       5
#     8   8   8   8   4
#     4  12  25  43  68 105 149 194 237 299 376 430
#     4  12  25  39  66 102 153 200 243 288 352 442
#     4  11  26  50  76 102 137 189 256 325 375 427
#     4  12  24  41  62 109 148 193 231 283 358 451
#     4  12  25  44  78 104 140 186 249 294 366 440
#
# _framework density 20.603902999999999
#
# number of rings (size 3 to 8) (size 9 to 14) (size 15 to 20)
#    0.000    0.222    6.667    3.000    3.111    0.444 
#    0.000    0.000    0.000    2.000    0.000    0.000 
#    0.000    0.000    0.000    0.000    0.000    0.000 
#
# Total GULP energy -100630.661925 kJ/mol
# GULP energy per Si atom -5590.592329 kJ/mol
# Density = 2.055701 g / cm^3
# Si number density = 20.603903 Si / 1000 Ang^3
#
#
#
# Elastic Constant Matrix: (Units=GPa)
#
#
# Indices 1 2 3 4 5 6 
#
# 1 139.5597 47.4072 50.4103 0.0000 -5.1420 0.0000
# 2 47.4072 85.5795 41.6778 0.0000 7.8818 0.0000
# 3 50.4103 41.6778 133.0107 0.0000 18.1605 0.0000
# 4 0.0000 0.0000 0.0000 24.8005 0.0000 7.7174
# 5 -5.1420 7.8818 18.1605 0.0000 47.2459 0.0000
# 6 0.0000 0.0000 0.0000 7.7174 0.0000 30.4523
#
#
#
# Elastic Compliance Matrix: (Units=1/GPa)
#
#
# Indices 1 2 3 4 5 6 
#
# 1 0.009718 -0.004321 -0.002714 0.000000 0.002822 0.000000
# 2 -0.004321 0.015731 -0.003028 0.000000 -0.001931 0.000000
# 3 -0.002714 -0.003028 0.009991 0.000000 -0.003631 0.000000
# 4 0.000000 0.000000 0.000000 0.043774 0.000000 -0.011093
# 5 0.002822 -0.001931 -0.003631 0.000000 0.023191 0.000000
# 6 0.000000 0.000000 0.000000 -0.011093 0.000000 0.035650
#
#
# Mechanical properties :
#
#
# Convention : Reuss Voigt Hill
#
# Bulk Modulus (GPa) = 65.30141 70.79339 68.04740
# Shear Modulus (GPa) = 30.62123 35.07671 32.84897
#
# Velocity S-wave (km/s) = 3.85929 4.13053 3.99721
# Velocity P-wave (km/s) = 7.18480 7.56189 7.37575
#
# Compressibility (1/GPa) = 0.01531360
#
# Stress axis : x y z
#
# Youngs Moduli (GPa) = 102.90587 63.56788 100.08653
#
# Poissons Ratio (x) = 0.27469 0.27165
# Poissons Ratio (y) = 0.44467 0.30305
# Poissons Ratio (z) = 0.27931 0.19248
#
# Static dielectric constant tensor:
#      x y z
#    x 1.850220 0.000000 -0.016030 
#    y 0.000000 1.736340 0.000000 
#    z -0.016030 0.000000 1.704910 
# 
# From -- ./inp_files/52931.got.cif
#   From: 2010.05.17/outbox.cif.g08.bks.cpg/sg12_27_cif.got.tgz:52931.got - 2010.06.03 13:09:07.
