data_PCOD9222471
_publ_section_title
;
Structure prediction by ZEFSAII (Michael W. Deem and Ramdas Pophale) SiO2 
 PCOD9222471
Probable space group: C 2/M
;
_chemical_formula_sum "Si O2"
_cell_formula_units_Z 40
_cell_length_a 17.980644
_cell_length_b 15.086878
_cell_length_c 16.198720
_cell_angle_alpha 90.000000
_cell_angle_beta 24.181479
_cell_angle_gamma 90.000000
_cell_volume 1800.010888
_symmetry_space_group_name_H-M "C 2/M"
_symmetry_group_IT_number 12
_symmetry_cell_setting 'monoclinic'
loop_
_space_group_symop_operation_xyz
x,y,z
-x,y,-z
-x,-y,-z
x,-y,z
1/2+x,1/2+y,z
1/2-x,1/2+y,-z
1/2-x,1/2-y,-z
1/2+x,1/2-y,z
loop_
_atom_site_type_symbol
_atom_site_label
_atom_site_fract_x
_atom_site_fract_y
_atom_site_fract_z
Si Si1 0.846128 0.772031 0.815912
Si Si2 0.786464 0.152769 0.497692
Si Si3 0.452312 0.100510 0.952208
Si Si4 0.354177 0.600249 0.249148
Si Si5 0.727577 0.892563 0.205642
O O1 0.886893 0.676837 0.732455
O O2 0.020078 0.834730 0.654195
O O3 0.750000 0.750000 0.000000
O O4 0.701726 0.828314 0.910560
O O5 0.750000 0.250000 0.500000
O O6 0.629693 0.121878 0.717622
O O7 0.791461 0.100792 0.406481
O O8 0.392587 0.000000 0.992427
O O9 0.500000 0.104403 0.000000
O O10 0.363599 0.500000 0.210748
O O11 0.234102 0.637670 0.295429
O O12 0.564784 0.628102 0.033602
O O13 0.686075 0.000000 0.236852
#
# Coordination Sequence:
#
# PCOD9222471 Si02
#       5
#     8   8   8   8   8
#     4  12  24  42  72 107 141 187 238 293 356 428
#     4  12  24  43  68 105 139 183 239 290 361 420
#     4  11  28  51  73 100 144 196 244 300 358 423
#     4   9  18  35  63  94 133 178 223 282 349 417
#     4   9  19  37  64 101 141 181 223 282 359 422
#
# _framework density 22.222087999999999
#
# number of rings (size 3 to 8) (size 9 to 14) (size 15 to 20)
#    0.000    1.400    4.000    1.800    5.600    3.200 
#    0.000    2.000    0.000    3.600    0.000    0.000 
#    0.000    0.000    0.000    0.000    0.000    0.000 
#
# Total GULP energy -111641.816519 kJ/mol
# GULP energy per Si atom -5582.090826 kJ/mol
# Density = 2.217151 g / cm^3
# Si number density = 22.222088 Si / 1000 Ang^3
#
#
#
# Elastic Constant Matrix: (Units=GPa)
#
#
# Indices 1 2 3 4 5 6 
#
# 1 95.8416 40.2806 39.8064 -0.0002 16.2955 0.0004
# 2 40.2806 113.2285 20.6917 0.0006 5.3607 -0.0003
# 3 39.8064 20.6917 117.2854 -0.0011 25.8629 0.0011
# 4 -0.0002 0.0006 -0.0011 -9.3605 0.0007 24.9506
# 5 16.2955 5.3607 25.8629 0.0007 33.7685 -0.0006
# 6 0.0004 -0.0003 0.0011 24.9506 -0.0006 29.3654
#
#
#
# Elastic Compliance Matrix: (Units=1/GPa)
#
#
# Indices 1 2 3 4 5 6 
#
# 1 0.014214 -0.004287 -0.003255 0.000000 -0.003686 0.000000
# 2 -0.004287 0.010421 -0.000571 0.000000 0.000852 0.000000
# 3 -0.003255 -0.000571 0.011269 -0.000001 -0.006969 0.000000
# 4 0.000000 0.000000 -0.000001 -0.032723 0.000002 0.027803
# 5 -0.003686 0.000852 -0.006969 0.000002 0.036594 -0.000001
# 6 0.000000 0.000000 0.000000 0.027803 -0.000001 0.010431
#
#
# Mechanical properties :
#
#
# Convention : Reuss Voigt Hill
#
# Bulk Modulus (GPa) = 50.82282 58.65699 54.73991
# Shear Modulus (GPa) = 68.50003 25.79313 47.14658
#
# Velocity S-wave (km/s) = 5.55807 3.41060 4.61109
# Velocity P-wave (km/s) = 8.00684 6.47786 7.28259
#
# Compressibility (1/GPa) = 0.01967620
#
# Stress axis : x y z
#
# Youngs Moduli (GPa) = 70.35093 95.96039 88.74255
#
# Poissons Ratio (x) = 0.41142 0.28888
# Poissons Ratio (y) = 0.30162 0.05070
# Poissons Ratio (z) = 0.22901 0.05482
#
# Static dielectric constant tensor:
#      x y z
#    x 1.443060 0.000160 0.057940 
#    y 0.000160 1.824140 -0.000010 
#    z 0.057940 -0.000010 1.771710 
# 
# From -- ./inp_files/225546.got.cif
#   From: 2010.05.17/outbox.cif.g08.bks.cpg/sg12_113_cif.got.tgz:225546.got - 2010.06.03 13:09:07.
