data_PCOD9222172
_publ_section_title
;
Structure prediction by ZEFSAII (Michael W. Deem and Ramdas Pophale) SiO2 
 PCOD9222172
Probable space group: C 2/M
;
_chemical_formula_sum "Si O2"
_cell_formula_units_Z 40
_cell_length_a 9.381024
_cell_length_b 16.232988
_cell_length_c 13.496978
_cell_angle_alpha 90.000000
_cell_angle_beta 115.046189
_cell_angle_gamma 90.000000
_cell_volume 1862.076576
_symmetry_space_group_name_H-M "C 2/M"
_symmetry_group_IT_number 12
_symmetry_cell_setting 'monoclinic'
loop_
_space_group_symop_operation_xyz
x,y,z
-x,y,-z
-x,-y,-z
x,-y,z
1/2+x,1/2+y,z
1/2-x,1/2+y,-z
1/2-x,1/2-y,-z
1/2+x,1/2-y,z
loop_
_atom_site_type_symbol
_atom_site_label
_atom_site_fract_x
_atom_site_fract_y
_atom_site_fract_z
Si Si1 0.136924 0.671445 0.967726
Si Si2 0.043393 0.683724 0.283949
Si Si3 0.318892 0.401633 0.472557
Si Si4 0.255356 0.838252 0.332366
Si Si5 0.205520 0.000000 0.966918
Si Si6 0.353018 0.500000 0.814045
O O1 0.209268 0.586184 0.029115
O O2 0.063904 0.654727 0.838412
O O3 0.250000 0.750000 0.000000
O O4 0.000000 0.696881 0.000000
O O5 0.190577 0.625284 0.353475
O O6 0.123476 0.769282 0.275926
O O7 0.925399 0.691091 0.342956
O O8 0.500000 0.378560 0.500000
O O9 0.315843 0.500000 0.484661
O O10 0.259385 0.359260 0.556087
O O11 0.215406 0.920172 0.259584
O O12 0.179324 0.000000 0.078212
O O13 0.041087 0.000000 0.861413
#
# Coordination Sequence:
#
# PCOD9222172 Si02
#       6
#     8   8   8   8   4   4
#     4  12  27  47  72 109 145 191 242 300 360 430
#     4  12  26  43  75 102 146 182 243 291 359 423
#     4  11  26  46  71 106 145 185 240 297 359 426
#     4  12  24  47  71 107 138 193 232 294 357 427
#     4  11  25  46  69 104 147 189 241 299 361 426
#     4  11  24  44  75 101 144 188 241 291 360 427
#
# _framework density 21.481394999999999
#
# number of rings (size 3 to 8) (size 9 to 14) (size 15 to 20)
#    0.000    0.400    3.000    5.100    5.600    2.400 
#    0.000    0.000    0.000    0.000    0.000    0.000 
#    0.000    0.000    0.000    0.000    0.000    0.000 
#
# Total GULP energy -111897.381313 kJ/mol
# GULP energy per Si atom -5594.869066 kJ/mol
# Density = 2.143250 g / cm^3
# Si number density = 21.481395 Si / 1000 Ang^3
#
#
#
# Elastic Constant Matrix: (Units=GPa)
#
#
# Indices 1 2 3 4 5 6 
#
# 1 182.9181 58.8958 27.5220 0.0000 4.9021 0.0000
# 2 58.8958 100.4652 -10.2926 0.0000 17.7776 0.0000
# 3 27.5220 -10.2926 65.0248 0.0000 10.7398 0.0000
# 4 0.0000 0.0000 0.0000 -181.3300 0.0000 -27.5067
# 5 4.9021 17.7776 10.7398 0.0000 36.2692 0.0000
# 6 0.0000 0.0000 0.0000 -27.5067 0.0000 37.5080
#
#
#
# Elastic Compliance Matrix: (Units=1/GPa)
#
#
# Indices 1 2 3 4 5 6 
#
# 1 0.007936 -0.005697 -0.004778 0.000000 0.003135 0.000000
# 2 -0.005697 0.015474 0.006294 0.000000 -0.008678 0.000000
# 3 -0.004778 0.006294 0.019767 0.000000 -0.008292 0.000000
# 4 0.000000 0.000000 0.000000 -0.004963 0.000000 -0.003639
# 5 0.003135 -0.008678 -0.008292 0.000000 0.033857 0.000000
# 6 0.000000 0.000000 0.000000 -0.003639 0.000000 0.023992
#
#
# Mechanical properties :
#
#
# Convention : Reuss Voigt Hill
#
# Bulk Modulus (GPa) = 28.72391 55.62873 42.17632
# Shear Modulus (GPa) = 43.09221 -3.35837 19.86692
#
# Velocity S-wave (km/s) = 4.48373 -1.25171 3.04442
# Velocity P-wave (km/s) = 6.34079 4.88502 5.65990
#
# Compressibility (1/GPa) = 0.03481420
#
# Stress axis : x y z
#
# Youngs Moduli (GPa) = 126.00722 64.62616 50.58934
#
# Poissons Ratio (x) = 0.36815 0.24173
# Poissons Ratio (y) = 0.71781 -0.31839
# Poissons Ratio (z) = 0.60211 -0.40674
#
# Static dielectric constant tensor:
#      x y z
#    x 1.762140 0.000000 -0.010430 
#    y 0.000000 -9.006820 0.000000 
#    z -0.010430 0.000000 1.748380 
# 
# From -- ./inp_files/194683.got.cif
#   From: 2010.05.17/outbox.cif.g08.bks.cpg/sg12_98_cif.got.tgz:194683.got - 2010.06.03 13:09:07.
