data_PCOD9222356
_publ_section_title
;
Structure prediction by ZEFSAII (Michael W. Deem and Ramdas Pophale) SiO2 
 PCOD9222356
Probable space group: C 2/M
;
_chemical_formula_sum "Si O2"
_cell_formula_units_Z 48
_cell_length_a 30.839255
_cell_length_b 17.920150
_cell_length_c 13.563347
_cell_angle_alpha 90.000000
_cell_angle_beta 162.070600
_cell_angle_gamma 90.000000
_cell_volume 2307.513797
_symmetry_space_group_name_H-M "C 2/M"
_symmetry_group_IT_number 12
_symmetry_cell_setting 'monoclinic'
loop_
_space_group_symop_operation_xyz
x,y,z
-x,y,-z
-x,-y,-z
x,-y,z
1/2+x,1/2+y,z
1/2-x,1/2+y,-z
1/2-x,1/2-y,-z
1/2+x,1/2-y,z
loop_
_atom_site_type_symbol
_atom_site_label
_atom_site_fract_x
_atom_site_fract_y
_atom_site_fract_z
Si Si1 0.073284 0.823875 0.874704
Si Si2 0.642672 0.680984 0.250427
Si Si3 0.272718 0.086916 0.173514
Si Si4 0.608036 0.088265 0.144713
Si Si5 0.922864 0.654524 0.144262
Si Si6 0.218256 0.170633 0.871529
O O1 0.124573 0.740648 0.961240
O O2 0.918747 0.823867 0.493384
O O3 0.087702 0.828799 0.021641
O O4 0.172989 0.886386 0.045279
O O5 0.750000 0.750000 0.500000
O O6 0.735713 0.610165 0.482813
O O7 0.500000 0.693602 0.000000
O O8 0.415255 0.135516 0.484029
O O9 0.306748 0.000000 0.252053
O O10 0.192494 0.111148 0.901654
O O11 0.587440 0.000000 0.089895
O O12 0.500000 0.113341 0.000000
O O13 0.594895 0.123112 0.005906
O O14 0.836734 0.633662 0.056599
O O15 0.250000 0.250000 0.000000
#
# Coordination Sequence:
#
# PCOD9222356 Si02
#       6
#     8   8   8   8   8   8
#     4  12  25  43  74 104 142 187 237 294 352 426
#     4  12  26  43  70 105 138 181 237 293 350 423
#     4  12  28  46  71 108 147 186 235 298 361 419
#     4  11  25  46  73 107 149 189 231 294 367 428
#     4  12  23  43  75 106 139 190 244 289 345 428
#     4  12  25  44  71 107 142 186 238 297 353 421
#
# _framework density 20.80161
#
# number of rings (size 3 to 8) (size 9 to 14) (size 15 to 20)
#    0.000    0.167    5.000    4.000    2.333    5.667 
#    0.000    1.667    0.000    0.000    0.000    0.000 
#    0.000    0.000    0.000    0.000    0.000    0.000 
#
# Total GULP energy -133901.865041 kJ/mol
# GULP energy per Si atom -5579.244377 kJ/mol
# Density = 2.075426 g / cm^3
# Si number density = 20.801610 Si / 1000 Ang^3
#
#
#
# Elastic Constant Matrix: (Units=GPa)
#
#
# Indices 1 2 3 4 5 6 
#
# 1 169.0419 1.7630 48.9691 0.0000 -3.4370 0.0000
# 2 1.7630 56.1219 16.9377 0.0000 -5.0611 0.0000
# 3 48.9691 16.9377 161.7394 0.0000 -15.6335 0.0000
# 4 0.0000 0.0000 0.0000 0.7390 0.0000 12.6024
# 5 -3.4370 -5.0611 -15.6335 0.0000 49.6857 0.0000
# 6 0.0000 0.0000 0.0000 12.6024 0.0000 18.3483
#
#
#
# Elastic Compliance Matrix: (Units=1/GPa)
#
#
# Indices 1 2 3 4 5 6 
#
# 1 0.006494 0.000393 -0.002022 0.000000 -0.000147 0.000000
# 2 0.000393 0.018506 -0.001931 0.000000 0.001305 0.000000
# 3 -0.002022 -0.001931 0.007183 0.000000 0.001924 0.000000
# 4 0.000000 0.000000 0.000000 -0.126311 0.000000 0.086756
# 5 -0.000147 0.001305 0.001924 0.000000 0.020855 0.000000
# 6 0.000000 0.000000 0.000000 0.086756 0.000000 -0.005087
#
#
# Mechanical properties :
#
#
# Convention : Reuss Voigt Hill
#
# Bulk Modulus (GPa) = 39.89703 58.02697 48.96200
# Shear Modulus (GPa) = -79.50903 35.03681 -22.23611
#
# Velocity S-wave (km/s) = -6.18914 4.10851 -3.27304
# Velocity P-wave (km/s) = 5.64381 7.10370 3.05040
#
# Compressibility (1/GPa) = 0.02506452
#
# Stress axis : x y z
#
# Youngs Moduli (GPa) = 153.98285 54.03526 139.21792
#
# Poissons Ratio (x) = -0.02123 0.28144
# Poissons Ratio (y) = -0.06050 0.26881
# Poissons Ratio (z) = 0.31129 0.10433
#
# Static dielectric constant tensor:
#      x y z
#    x 1.389690 0.000000 0.032570 
#    y 0.000000 1.808980 0.000000 
#    z 0.032570 0.000000 1.736880 
# 
# From -- ./inp_files/184816.got.cif
#   From: 2010.05.17/outbox.cif.g08.bks.cpg/sg12_93_cif.got.tgz:184816.got - 2010.06.03 13:09:07.
