data_PCOD9222799
_publ_section_title
;
Structure prediction by ZEFSAII (Michael W. Deem and Ramdas Pophale) SiO2 
 PCOD9222799
Probable space group: C 2/M
;
_chemical_formula_sum "Si O2"
_cell_formula_units_Z 56
_cell_length_a 15.880634
_cell_length_b 13.243907
_cell_length_c 12.292264
_cell_angle_alpha 90.000000
_cell_angle_beta 108.098081
_cell_angle_gamma 90.000000
_cell_volume 2457.422901
_symmetry_space_group_name_H-M "C 2/M"
_symmetry_group_IT_number 12
_symmetry_cell_setting 'monoclinic'
loop_
_space_group_symop_operation_xyz
x,y,z
-x,y,-z
-x,-y,-z
x,-y,z
1/2+x,1/2+y,z
1/2-x,1/2+y,-z
1/2-x,1/2-y,-z
1/2+x,1/2-y,z
loop_
_atom_site_type_symbol
_atom_site_label
_atom_site_fract_x
_atom_site_fract_y
_atom_site_fract_z
Si Si1 0.352094 0.819147 0.654909
Si Si2 0.727383 0.386405 0.431439
Si Si3 0.504172 0.720322 0.183321
Si Si4 0.591126 0.382267 0.579713
Si Si5 0.237647 0.115512 0.800134
Si Si6 0.350509 0.721173 0.956742
Si Si7 0.350670 0.500000 0.946988
Si Si8 0.488368 0.500000 0.814326
O O1 0.304281 0.708842 0.651139
O O2 0.320846 0.859565 0.525947
O O3 0.455193 0.800771 0.717720
O O4 0.309461 0.887778 0.730926
O O5 0.727692 0.500000 0.386573
O O6 0.658174 0.384018 0.504392
O O7 0.575219 0.720666 0.110880
O O8 0.509076 0.608820 0.239527
O O9 0.409958 0.736520 0.088539
O O10 0.500000 0.335191 0.500000
O O11 0.573159 0.500000 0.599553
O O12 0.649115 0.343807 0.704636
O O13 0.280681 0.192137 0.902257
O O14 0.223441 0.000000 0.833342
O O15 0.307774 0.609444 0.939496
O O16 0.401110 0.500000 0.852527
O O17 0.429943 0.500000 0.068213
#
# Coordination Sequence:
#
# PCOD9222799 Si02
#       8
#     8   8   8   8   8   8   4   4
#     4   9  16  25  36  53  81 107 129 153 194 237
#     4   9  17  27  38  55  80 104 131 167 197 233
#     4   8  13  20  32  49  73 106 132 157 182 227
#     4   8  14  26  43  59  75  98 128 164 205 236
#     4   9  16  26  39  58  85 107 128 160 195 235
#     4   8  13  22  33  52  77 102 134 157 189 226
#     4   7  10  18  30  44  69  96 126 158 181 216
#     4   7  10  16  28  44  64  94 127 160 182 199
#
# _framework density 22.788101000000001
#
# number of rings (size 3 to 8) (size 9 to 14) (size 15 to 20)
#    0.000    3.714    0.000    3.000    1.000    0.000 
#    1.286    6.429    0.000    0.000    0.000    1.500 
#    0.000    0.000    0.000    0.000    0.000    0.000 
#
# Total GULP energy -156247.266393 kJ/mol
# GULP energy per Si atom -5580.259514 kJ/mol
# Density = 2.273623 g / cm^3
# Si number density = 22.788101 Si / 1000 Ang^3
#
#
#
# Elastic Constant Matrix: (Units=GPa)
#
#
# Indices 1 2 3 4 5 6 
#
# 1 62.5860 27.4962 32.9744 0.0000 10.9526 0.0000
# 2 27.4962 127.7273 60.8384 0.0000 18.2585 0.0000
# 3 32.9744 60.8384 134.6229 0.0000 38.5959 0.0000
# 4 0.0000 0.0000 0.0000 34.9617 0.0000 3.4250
# 5 10.9526 18.2585 38.5959 0.0000 34.3845 0.0000
# 6 0.0000 0.0000 0.0000 3.4250 0.0000 15.5831
#
#
#
# Elastic Compliance Matrix: (Units=1/GPa)
#
#
# Indices 1 2 3 4 5 6 
#
# 1 0.018924 -0.002369 -0.003240 0.000000 -0.001134 0.000000
# 2 -0.002369 0.010276 -0.004004 0.000000 -0.000208 0.000000
# 3 -0.003240 -0.004004 0.013456 0.000000 -0.011946 0.000000
# 4 0.000000 0.000000 0.000000 0.029232 0.000000 -0.006425
# 5 -0.001134 -0.000208 -0.011946 0.000000 0.042963 0.000000
# 6 0.000000 0.000000 0.000000 -0.006425 0.000000 0.065584
#
#
# Mechanical properties :
#
#
# Convention : Reuss Voigt Hill
#
# Bulk Modulus (GPa) = 42.67890 63.06158 52.87024
# Shear Modulus (GPa) = 24.09969 30.56099 27.33034
#
# Velocity S-wave (km/s) = 3.25554 3.66607 3.46688
# Velocity P-wave (km/s) = 5.73590 6.75671 6.26713
#
# Compressibility (1/GPa) = 0.02343078
#
# Stress axis : x y z
#
# Youngs Moduli (GPa) = 52.84309 97.31389 74.31534
#
# Poissons Ratio (x) = 0.23050 0.24077
# Poissons Ratio (y) = 0.12516 0.29758
# Poissons Ratio (z) = 0.17120 0.38967
#
# Static dielectric constant tensor:
#      x y z
#    x 1.898350 0.000000 -0.010850 
#    y 0.000000 1.858770 0.000000 
#    z -0.010850 0.000000 1.896030 
# 
# From -- ./inp_files/288900.got.cif
#   From: 2010.05.17/outbox.cif.g08.bks.cpg/sg12_145_cif.got.tgz:288900.got - 2010.06.03 13:09:07.
