data_PCOD9222749
_publ_section_title
;
Structure prediction by ZEFSAII (Michael W. Deem and Ramdas Pophale) SiO2 
 PCOD9222749
Probable space group: C 2/M
;
_chemical_formula_sum "Si O2"
_cell_formula_units_Z 36
_cell_length_a 8.946031
_cell_length_b 14.470551
_cell_length_c 13.963226
_cell_angle_alpha 90.000000
_cell_angle_beta 62.064982
_cell_angle_gamma 90.000000
_cell_volume 1596.973462
_symmetry_space_group_name_H-M "C 2/M"
_symmetry_group_IT_number 12
_symmetry_cell_setting 'monoclinic'
loop_
_space_group_symop_operation_xyz
x,y,z
-x,y,-z
-x,-y,-z
x,-y,z
1/2+x,1/2+y,z
1/2-x,1/2+y,-z
1/2-x,1/2-y,-z
1/2+x,1/2-y,z
loop_
_atom_site_type_symbol
_atom_site_label
_atom_site_fract_x
_atom_site_fract_y
_atom_site_fract_z
Si Si1 0.176028 0.000000 0.698374
Si Si2 0.308772 0.500000 0.741574
Si Si3 0.544879 0.843212 0.877167
Si Si4 0.913191 0.310095 0.426425
Si Si5 0.792721 0.322324 0.784958
Si Si6 0.247646 0.500000 0.553519
O O1 0.247065 0.909988 0.732002
O O2 0.972891 0.000000 0.758922
O O3 0.217827 0.000000 0.571541
O O4 0.189172 0.413135 0.798687
O O5 0.367595 0.500000 0.611691
O O6 0.630261 0.741943 0.845569
O O7 0.379888 0.849434 0.859018
O O8 0.500000 0.863697 0.000000
O O9 0.750000 0.250000 0.500000
O O10 0.856586 0.406520 0.399397
O O11 0.000000 0.329831 0.500000
O O12 0.055493 0.267081 0.315568
#
# Coordination Sequence:
#
# PCOD9222749 Si02
#       6
#     4   4   8   8   8   4
#     4  12  27  45  74 107 145 189 231 281 359 430
#     4  12  27  47  72 105 142 186 240 293 350 420
#     4  12  27  49  75 103 138 186 243 301 355 407
#     4  12  25  42  70 103 142 186 230 278 350 428
#     4  12  25  48  72 104 146 184 234 295 351 421
#     4  12  25  45  70 101 149 181 229 272 351 419
#
# _framework density 22.542641
#
# number of rings (size 3 to 8) (size 9 to 14) (size 15 to 20)
#    0.000    0.000    4.444    5.667    3.111    0.000 
#    0.000    1.667    0.000    0.000    0.000    0.000 
#    0.000    0.000    0.000    0.000    0.000    0.000 
#
# Total GULP energy -100701.995285 kJ/mol
# GULP energy per Si atom -5594.555294 kJ/mol
# Density = 2.249133 g / cm^3
# Si number density = 22.542641 Si / 1000 Ang^3
#
#
#
# Elastic Constant Matrix: (Units=GPa)
#
#
# Indices 1 2 3 4 5 6 
#
# 1 172.7519 56.9788 52.2706 0.0000 35.6287 0.0000
# 2 56.9788 95.7085 34.4469 0.0000 -3.2880 0.0000
# 3 52.2706 34.4469 155.5999 0.0000 34.8708 0.0000
# 4 0.0000 0.0000 0.0000 18.5089 0.0000 3.6306
# 5 35.6287 -3.2880 34.8708 0.0000 34.2074 0.0000
# 6 0.0000 0.0000 0.0000 3.6306 0.0000 14.4275
#
#
#
# Elastic Compliance Matrix: (Units=1/GPa)
#
#
# Indices 1 2 3 4 5 6 
#
# 1 0.010332 -0.006853 0.000785 0.000000 -0.012220 0.000000
# 2 -0.006853 0.016523 -0.004292 0.000000 0.013101 0.000000
# 3 0.000785 -0.004292 0.009577 0.000000 -0.010992 0.000000
# 4 0.000000 0.000000 0.000000 0.056834 0.000000 -0.014302
# 5 -0.012220 0.013101 -0.010992 0.000000 0.054426 0.000000
# 6 0.000000 0.000000 0.000000 -0.014302 0.000000 0.072911
#
#
# Mechanical properties :
#
#
# Convention : Reuss Voigt Hill
#
# Bulk Modulus (GPa) = 63.64737 79.05033 71.34885
# Shear Modulus (GPa) = 20.27908 32.11969 26.19939
#
# Velocity S-wave (km/s) = 3.00257 3.77880 3.41283
# Velocity P-wave (km/s) = 6.34949 7.36086 6.87380
#
# Compressibility (1/GPa) = 0.01571157
#
# Stress axis : x y z
#
# Youngs Moduli (GPa) = 96.78810 60.52108 104.42094
#
# Poissons Ratio (x) = 0.41477 -0.08197
# Poissons Ratio (y) = 0.66332 0.44815
# Poissons Ratio (z) = -0.07598 0.25974
#
# Static dielectric constant tensor:
#      x y z
#    x 1.834290 0.000000 -0.017710 
#    y 0.000000 1.814430 0.000000 
#    z -0.017710 0.000000 1.838980 
# 
# From -- ./inp_files/194003.got.cif
#   From: 2010.05.17/outbox.cif.g08.bks.cpg/sg12_98_cif.got.tgz:194003.got - 2010.06.03 13:09:07.
