data_PCOD9222694
_publ_section_title
;
Structure prediction by ZEFSAII (Michael W. Deem and Ramdas Pophale) SiO2 
 PCOD9222694
Probable space group: C 2/M
;
_chemical_formula_sum "Si O2"
_cell_formula_units_Z 40
_cell_length_a 8.397535
_cell_length_b 13.752217
_cell_length_c 14.212917
_cell_angle_alpha 90.000000
_cell_angle_beta 97.495833
_cell_angle_gamma 90.000000
_cell_volume 1627.348179
_symmetry_space_group_name_H-M "C 2/M"
_symmetry_group_IT_number 12
_symmetry_cell_setting 'monoclinic'
loop_
_space_group_symop_operation_xyz
x,y,z
-x,y,-z
-x,-y,-z
x,-y,z
1/2+x,1/2+y,z
1/2-x,1/2+y,-z
1/2-x,1/2-y,-z
1/2+x,1/2-y,z
loop_
_atom_site_type_symbol
_atom_site_label
_atom_site_fract_x
_atom_site_fract_y
_atom_site_fract_z
Si Si1 0.400950 0.788240 0.070233
Si Si2 0.366582 0.381829 0.370103
Si Si3 0.160809 0.391584 0.737362
Si Si4 0.966968 0.892234 0.184201
Si Si5 0.738909 0.618811 0.446467
O O1 0.388289 0.842111 0.168970
O O2 0.481347 0.686612 0.105662
O O3 0.500000 0.847043 0.000000
O O4 0.250000 0.750000 0.000000
O O5 0.358790 0.500000 0.368917
O O6 0.349024 0.355364 0.259012
O O7 0.245616 0.349199 0.443224
O O8 0.551293 0.359741 0.411177
O O9 0.088104 0.500000 0.729065
O O10 0.353888 0.400686 0.761216
O O11 0.148542 0.345885 0.631029
O O12 0.916442 0.000000 0.149408
O O13 0.756398 0.500000 0.446214
#
# Coordination Sequence:
#
# PCOD9222694 Si02
#       5
#     8   8   8   8   8
#     4  12  24  38  54  77 105 136 180 230 267 301
#     4   7  10  20  43  75 103 128 164 207 247 299
#     4   9  18  34  55  78 105 139 175 212 261 316
#     4   9  18  34  56  78 103 139 178 212 257 317
#     4   7  10  20  43  74 104 130 161 205 252 300
#
# _framework density 24.579867
#
# number of rings (size 3 to 8) (size 9 to 14) (size 15 to 20)
#    0.000    3.200    2.000    3.600    0.000    1.600 
#    0.000    1.000    0.000    0.000    0.000    0.000 
#    0.000    6.400    0.000    0.000    0.000    0.000 
#
# Total GULP energy -111373.019670 kJ/mol
# GULP energy per Si atom -5568.650984 kJ/mol
# Density = 2.452392 g / cm^3
# Si number density = 24.579867 Si / 1000 Ang^3
#
#
#
# Elastic Constant Matrix: (Units=GPa)
#
#
# Indices 1 2 3 4 5 6 
#
# 1 36.6161 7.5195 34.0253 0.0000 -20.3974 0.0000
# 2 7.5195 64.1176 54.9245 0.0000 -24.4005 0.0000
# 3 34.0253 54.9245 178.3530 0.0000 -86.8439 0.0000
# 4 0.0000 0.0000 0.0000 28.0885 0.0000 -6.8674
# 5 -20.3974 -24.4005 -86.8439 0.0000 50.8754 0.0000
# 6 0.0000 0.0000 0.0000 -6.8674 0.0000 9.3291
#
#
#
# Elastic Compliance Matrix: (Units=1/GPa)
#
#
# Indices 1 2 3 4 5 6 
#
# 1 0.035287 0.001450 0.000290 0.000000 0.015338 0.000000
# 2 0.001450 0.021535 -0.009455 0.000000 -0.005229 0.000000
# 3 0.000290 -0.009455 0.037385 0.000000 0.059398 0.000000
# 4 0.000000 0.000000 0.000000 0.043416 0.000000 0.031959
# 5 0.015338 -0.005229 0.059398 0.000000 0.124690 0.000000
# 6 0.000000 0.000000 0.000000 0.031959 0.000000 0.130717
#
#
# Mechanical properties :
#
#
# Convention : Reuss Voigt Hill
#
# Bulk Modulus (GPa) = 12.69371 52.44728 32.57050
# Shear Modulus (GPa) = 11.50166 29.83309 20.66738
#
# Velocity S-wave (km/s) = 2.16552 3.48763 2.90284
# Velocity P-wave (km/s) = 3.38055 6.13204 4.95126
#
# Compressibility (1/GPa) = 0.07877918
#
# Stress axis : x y z
#
# Youngs Moduli (GPa) = 28.33870 46.43517 26.74835
#
# Poissons Ratio (x) = -0.06735 -0.00775
# Poissons Ratio (y) = -0.04110 0.25290
# Poissons Ratio (z) = -0.00821 0.43903
#
# Static dielectric constant tensor:
#      x y z
#    x 2.008030 0.000000 -0.046060 
#    y 0.000000 2.618340 0.000000 
#    z -0.046060 0.000000 1.995980 
# 
# From -- ./inp_files/194410.got.cif
#   From: 2010.05.17/outbox.cif.g08.bks.cpg/sg12_98_cif.got.tgz:194410.got - 2010.06.03 13:09:07.
