data_PCOD9222581
_publ_section_title
;
Structure prediction by ZEFSAII (Michael W. Deem and Ramdas Pophale) SiO2 
 PCOD9222581
Probable space group: C 2/M
;
_chemical_formula_sum "Si O2"
_cell_formula_units_Z 48
_cell_length_a 10.036163
_cell_length_b 28.990257
_cell_length_c 17.619730
_cell_angle_alpha 90.000000
_cell_angle_beta 29.428071
_cell_angle_gamma 90.000000
_cell_volume 2518.794703
_symmetry_space_group_name_H-M "C 2/M"
_symmetry_group_IT_number 12
_symmetry_cell_setting 'monoclinic'
loop_
_space_group_symop_operation_xyz
x,y,z
-x,y,-z
-x,-y,-z
x,-y,z
1/2+x,1/2+y,z
1/2-x,1/2+y,-z
1/2-x,1/2-y,-z
1/2+x,1/2-y,z
loop_
_atom_site_type_symbol
_atom_site_label
_atom_site_fract_x
_atom_site_fract_y
_atom_site_fract_z
Si Si1 0.618713 0.863946 0.857527
Si Si2 0.965382 0.281860 0.352167
Si Si3 0.640882 0.052960 0.256947
Si Si4 0.968764 0.735533 0.174391
Si Si5 0.747484 0.446058 0.979323
Si Si6 0.654559 0.378418 0.505695
O O1 0.590198 0.816605 0.823986
O O2 0.441548 0.907851 0.918744
O O3 0.931006 0.877073 0.683649
O O4 0.500000 0.853625 0.000000
O O5 0.750000 0.250000 0.500000
O O6 0.989657 0.265385 0.254026
O O7 0.839213 0.332613 0.414493
O O8 0.244785 0.271698 0.256462
O O9 0.690325 0.054822 0.141565
O O10 0.372350 0.081193 0.407565
O O11 0.601122 0.000000 0.298203
O O12 0.931494 0.067611 0.147543
O O13 0.250000 0.750000 0.000000
O O14 0.784117 0.500000 0.985397
O O15 0.500000 0.381641 0.500000
#
# Coordination Sequence:
#
# PCOD9222581 Si02
#       6
#     8   8   8   8   8   8
#     4  12  25  43  61  91 132 166 216 264 318 387
#     4  12  23  44  65  93 130 165 211 268 313 376
#     4   9  19  37  65  98 125 161 211 264 318 380
#     4  12  26  43  65  94 127 170 215 260 320 380
#     4   9  19  38  64  94 129 164 207 262 323 380
#     4  12  22  41  64  94 125 166 215 266 318 373
#
# _framework density 19.056735
#
# number of rings (size 3 to 8) (size 9 to 14) (size 15 to 20)
#    0.000    1.000    5.000    3.000    2.333    1.333 
#    0.000    0.833    0.000    2.000    0.000    0.000 
#    0.000    0.000    0.000    0.000    0.000    0.000 
#
# Total GULP energy -133939.369052 kJ/mol
# GULP energy per Si atom -5580.807044 kJ/mol
# Density = 1.901336 g / cm^3
# Si number density = 19.056735 Si / 1000 Ang^3
#
#
#
# Elastic Constant Matrix: (Units=GPa)
#
#
# Indices 1 2 3 4 5 6 
#
# 1 113.6867 32.9006 82.2084 0.0000 1.9076 0.0001
# 2 32.9006 75.9000 62.9507 0.0000 -20.2338 0.0000
# 3 82.2084 62.9507 210.7085 -0.0001 -11.7366 0.0001
# 4 0.0000 0.0000 -0.0001 45.5972 0.0000 -5.9225
# 5 1.9076 -20.2338 -11.7366 0.0000 42.0812 0.0000
# 6 0.0001 0.0000 0.0001 -5.9225 0.0000 18.2748
#
#
#
# Elastic Compliance Matrix: (Units=1/GPa)
#
#
# Indices 1 2 3 4 5 6 
#
# 1 0.012786 -0.002784 -0.004331 0.000000 -0.003126 0.000000
# 2 -0.002784 0.020471 -0.004545 0.000000 0.008702 0.000000
# 3 -0.004331 -0.004545 0.007804 0.000000 0.000187 0.000000
# 4 0.000000 0.000000 0.000000 0.022895 0.000000 0.007420
# 5 -0.003126 0.008702 0.000187 0.000000 0.028142 0.000000
# 6 0.000000 0.000000 0.000000 0.007420 0.000000 0.057125
#
#
# Mechanical properties :
#
#
# Convention : Reuss Voigt Hill
#
# Bulk Modulus (GPa) = 56.36463 84.04607 70.20535
# Shear Modulus (GPa) = 28.01811 36.00634 32.01223
#
# Velocity S-wave (km/s) = 3.83854 4.35147 4.10303
# Velocity P-wave (km/s) = 7.02049 8.33342 7.70497
#
# Compressibility (1/GPa) = 0.01774162
#
# Stress axis : x y z
#
# Youngs Moduli (GPa) = 78.21130 48.84864 128.13982
#
# Poissons Ratio (x) = 0.13598 0.55496
# Poissons Ratio (y) = 0.21771 0.58243
# Poissons Ratio (z) = 0.33873 0.22203
#
# Static dielectric constant tensor:
#      x y z
#    x 1.668230 0.000000 -0.010200 
#    y 0.000000 1.669540 0.000000 
#    z -0.010200 0.000000 1.657170 
# 
# From -- ./inp_files/260236.got.cif
#   From: 2010.05.17/outbox.cif.g08.bks.cpg/sg12_131_cif.got.tgz:260236.got - 2010.06.03 13:09:07.
