data_PCOD9222048
_publ_section_title
;
Structure prediction by ZEFSAII (Michael W. Deem and Ramdas Pophale) SiO2 
 PCOD9222048
Probable space group: C 2/M
;
_chemical_formula_sum "Si O2"
_cell_formula_units_Z 56
_cell_length_a 11.039062
_cell_length_b 30.936340
_cell_length_c 14.603732
_cell_angle_alpha 90.000000
_cell_angle_beta 28.764691
_cell_angle_gamma 90.000000
_cell_volume 2399.953394
_symmetry_space_group_name_H-M "C 2/M"
_symmetry_group_IT_number 12
_symmetry_cell_setting 'monoclinic'
loop_
_space_group_symop_operation_xyz
x,y,z
-x,y,-z
-x,-y,-z
x,-y,z
1/2+x,1/2+y,z
1/2-x,1/2+y,-z
1/2-x,1/2-y,-z
1/2+x,1/2-y,z
loop_
_atom_site_type_symbol
_atom_site_label
_atom_site_fract_x
_atom_site_fract_y
_atom_site_fract_z
Si Si1 0.492073 0.907017 0.398722
Si Si2 0.251107 0.050088 0.930733
Si Si3 0.727036 0.185368 0.488383
Si Si4 0.021806 0.051557 0.263619
Si Si5 0.039082 0.257038 0.776696
Si Si6 0.731934 0.169659 0.776263
Si Si7 0.737572 0.076232 0.716548
O O1 0.500000 0.918712 0.500000
O O2 0.711326 0.923349 0.186813
O O3 0.434530 0.856582 0.426921
O O4 0.245319 0.931827 0.525791
O O5 0.508281 0.053077 0.819896
O O6 0.199913 0.000000 0.943706
O O7 0.060823 0.067629 0.133844
O O8 0.569737 0.215864 0.661805
O O9 0.817984 0.212539 0.340061
O O10 0.994045 0.171384 0.358408
O O11 0.227733 0.068358 0.198271
O O12 0.031495 0.000000 0.255242
O O13 0.183486 0.285996 0.754989
O O14 0.750000 0.250000 0.000000
O O15 0.713928 0.128102 0.721902
O O16 0.500000 0.165261 0.000000
O O17 0.000000 0.061042 0.500000
#
# Coordination Sequence:
#
# PCOD9222048 Si02
#       7
#     8   8   8   8   8   8   8
#     4  12  27  47  68  97 136 190 242 295 344 416
#     4  11  24  42  67 101 139 180 229 291 354 415
#     4  11  25  45  68  98 137 179 230 284 350 413
#     4  11  24  43  70 104 141 182 232 288 352 425
#     4  11  24  43  68 101 136 173 227 282 350 424
#     4  12  22  40  70 100 138 183 221 279 349 419
#     4  12  22  38  69 108 144 180 224 286 356 427
#
# _framework density 23.333786
#
# number of rings (size 3 to 8) (size 9 to 14) (size 15 to 20)
#    0.000    0.571    4.286    4.286    0.000    6.857 
#    0.000    1.429    0.000    0.000    0.000    0.000 
#    0.000    0.000    0.000    0.000    0.000    0.000 
#
# Total GULP energy -156770.268060 kJ/mol
# GULP energy per Si atom -5598.938145 kJ/mol
# Density = 2.328068 g / cm^3
# Si number density = 23.333786 Si / 1000 Ang^3
#
#
#
# Elastic Constant Matrix: (Units=GPa)
#
#
# Indices 1 2 3 4 5 6 
#
# 1 77.9312 8.1157 14.5642 0.0000 13.1169 0.0000
# 2 8.1157 67.5601 17.7925 0.0000 13.1357 0.0000
# 3 14.5642 17.7925 153.3425 0.0000 16.2449 0.0000
# 4 0.0000 0.0000 0.0000 26.1570 0.0000 27.6721
# 5 13.1169 13.1357 16.2449 0.0000 38.2195 0.0000
# 6 0.0000 0.0000 0.0000 27.6721 0.0000 25.2298
#
#
#
# Elastic Compliance Matrix: (Units=1/GPa)
#
#
# Indices 1 2 3 4 5 6 
#
# 1 0.013746 -0.000633 -0.000791 0.000000 -0.004164 0.000000
# 2 -0.000633 0.016151 -0.001308 0.000000 -0.004778 0.000000
# 3 -0.000791 -0.001308 0.006986 0.000000 -0.002249 0.000000
# 4 0.000000 0.000000 0.000000 -0.238441 0.000000 0.261523
# 5 -0.004164 -0.004778 -0.002249 0.000000 0.030192 0.000000
# 6 0.000000 0.000000 0.000000 0.261523 0.000000 -0.247204
#
#
# Mechanical properties :
#
#
# Convention : Reuss Voigt Hill
#
# Bulk Modulus (GPa) = 31.82717 42.19762 37.01239
# Shear Modulus (GPa) = -12.41830 35.14534 11.36352
#
# Velocity S-wave (km/s) = -2.30945 3.88519 2.20920
# Velocity P-wave (km/s) = 2.56088 6.18465 4.73329
#
# Compressibility (1/GPa) = 0.03141969
#
# Stress axis : x y z
#
# Youngs Moduli (GPa) = 72.74605 61.91548 143.13464
#
# Poissons Ratio (x) = 0.03922 0.11322
# Poissons Ratio (y) = 0.04608 0.18718
# Poissons Ratio (z) = 0.05754 0.08097
#
# Static dielectric constant tensor:
#      x y z
#    x 1.881840 0.000000 0.066980 
#    y 0.000000 1.844560 0.000000 
#    z 0.066980 0.000000 1.825710 
# 
# From -- ./inp_files/209987.got.cif
#   From: 2010.05.17/outbox.cif.g08.bks.cpg/sg12_105_cif.got.tgz:209987.got - 2010.06.03 13:09:07.
