data_PCOD9222331
_publ_section_title
;
Structure prediction by ZEFSAII (Michael W. Deem and Ramdas Pophale) SiO2 
 PCOD9222331
Probable space group: C 2/M
;
_chemical_formula_sum "Si O2"
_cell_formula_units_Z 20
_cell_length_a 10.084679
_cell_length_b 10.248762
_cell_length_c 8.863768
_cell_angle_alpha 90.000000
_cell_angle_beta 124.672452
_cell_angle_gamma 90.000000
_cell_volume 753.432402
_symmetry_space_group_name_H-M "C 2/M"
_symmetry_group_IT_number 12
_symmetry_cell_setting 'monoclinic'
loop_
_space_group_symop_operation_xyz
x,y,z
-x,y,-z
-x,-y,-z
x,-y,z
1/2+x,1/2+y,z
1/2-x,1/2+y,-z
1/2-x,1/2-y,-z
1/2+x,1/2-y,z
loop_
_atom_site_type_symbol
_atom_site_label
_atom_site_fract_x
_atom_site_fract_y
_atom_site_fract_z
Si Si1 0.869353 0.500000 0.238688
Si Si2 0.642907 0.713683 0.785825
Si Si3 0.173302 0.500000 0.286413
Si Si4 0.613120 0.500000 0.286408
O O1 0.906414 0.352512 0.312808
O O2 0.679308 0.500000 0.158425
O O3 0.979129 0.500000 0.158421
O O4 0.747543 0.625567 0.740835
O O5 0.493285 0.625568 0.740849
O O6 0.750000 0.750000 0.000000
O O7 0.233969 0.500000 0.500000
#
# Coordination Sequence:
#
# PCOD9222331 Si02
#       4
#     4   8   4   4
#     4  12  25  40  72 106 137 184 240 286 345 418
#     4  11  25  45  71 101 141 189 237 288 349 418
#     4  11  26  47  70 103 146 185 229 291 355 415
#     4  11  26  47  70 103 146 185 229 291 355 415
#
# _framework density 26.545182
#
# number of rings (size 3 to 8) (size 9 to 14) (size 15 to 20)
#    0.000    0.800    0.000    7.800    0.000   19.200 
#    0.000    0.000    0.000    0.000    0.000    0.000 
#    0.000    0.000    0.000    0.000    0.000    0.000 
#
# Total GULP energy -55908.555516 kJ/mol
# GULP energy per Si atom -5590.855552 kJ/mol
# Density = 2.648476 g / cm^3
# Si number density = 26.545182 Si / 1000 Ang^3
#
#
#
# Elastic Constant Matrix: (Units=GPa)
#
#
# Indices 1 2 3 4 5 6 
#
# 1 244.3228 104.3148 20.3155 0.0000 39.9299 0.0000
# 2 104.3148 300.2182 38.6946 0.0000 14.0229 0.0000
# 3 20.3155 38.6946 137.1542 0.0000 -17.0328 0.0000
# 4 0.0000 0.0000 0.0000 12.0550 0.0000 6.8486
# 5 39.9299 14.0229 -17.0328 0.0000 30.7398 0.0000
# 6 0.0000 0.0000 0.0000 6.8486 0.0000 44.0853
#
#
#
# Elastic Compliance Matrix: (Units=1/GPa)
#
#
# Indices 1 2 3 4 5 6 
#
# 1 0.006237 -0.001592 -0.001494 0.000000 -0.008204 0.000000
# 2 -0.001592 0.004017 -0.000933 0.000000 -0.000282 0.000000
# 3 -0.001494 -0.000933 0.008666 0.000000 0.007167 0.000000
# 4 0.000000 0.000000 0.000000 0.090983 0.000000 -0.014134
# 5 -0.008204 -0.000282 0.007167 0.000000 0.047288 0.000000
# 6 0.000000 0.000000 0.000000 -0.014134 0.000000 0.024879
#
#
# Mechanical properties :
#
#
# Convention : Reuss Voigt Hill
#
# Bulk Modulus (GPa) = 91.87439 112.03834 101.95637
# Shear Modulus (GPa) = 25.80861 51.93402 38.87132
#
# Velocity S-wave (km/s) = 3.12148 4.42796 3.83083
# Velocity P-wave (km/s) = 6.90487 8.27289 7.61964
#
# Compressibility (1/GPa) = 0.01088443
#
# Stress axis : x y z
#
# Youngs Moduli (GPa) = 160.32243 248.92327 115.39998
#
# Poissons Ratio (x) = 0.39618 0.17237
# Poissons Ratio (y) = 0.25516 0.10763
# Poissons Ratio (z) = 0.23947 0.23216
#
# Static dielectric constant tensor:
#      x y z
#    x 2.009480 0.000000 -0.033380 
#    y 0.000000 1.974510 0.000000 
#    z -0.033380 0.000000 2.165840 
# 
# From -- ./inp_files/71079.got.cif
#   From: 2010.05.17/outbox.cif.g08.bks.cpg/sg12_36_cif.got.tgz:71079.got - 2010.06.03 13:09:07.
