data_PCOD9222811
_publ_section_title
;
Structure prediction by ZEFSAII (Michael W. Deem and Ramdas Pophale) SiO2 
 PCOD9222811
Probable space group: C 2/M
;
_chemical_formula_sum "Si O2"
_cell_formula_units_Z 64
_cell_length_a 13.639323
_cell_length_b 7.370836
_cell_length_c 22.682432
_cell_angle_alpha 90.000000
_cell_angle_beta 93.610131
_cell_angle_gamma 90.000000
_cell_volume 2275.812688
_symmetry_space_group_name_H-M "C 2/M"
_symmetry_group_IT_number 12
_symmetry_cell_setting 'monoclinic'
loop_
_space_group_symop_operation_xyz
x,y,z
-x,y,-z
-x,-y,-z
x,-y,z
1/2+x,1/2+y,z
1/2-x,1/2+y,-z
1/2-x,1/2-y,-z
1/2+x,1/2-y,z
loop_
_atom_site_type_symbol
_atom_site_label
_atom_site_fract_x
_atom_site_fract_y
_atom_site_fract_z
Si Si1 0.718971 0.778465 0.635790
Si Si2 0.417031 0.282458 0.859947
Si Si3 0.531723 0.217140 0.262905
Si Si4 0.566478 0.205753 0.393456
Si Si5 0.313548 0.215908 0.233099
Si Si6 0.617636 0.283687 0.015612
Si Si7 0.363317 0.783214 0.484519
Si Si8 0.857251 0.216710 0.109508
O O1 0.816946 0.695638 0.613816
O O2 0.719584 0.717551 0.703769
O O3 0.633956 0.727539 0.584949
O O4 0.723996 0.000000 0.634660
O O5 0.415869 0.500000 0.864700
O O6 0.394454 0.250171 0.789167
O O7 0.365881 0.209570 0.917819
O O8 0.530922 0.217142 0.872766
O O9 0.539035 0.291922 0.329470
O O10 0.426199 0.283378 0.238034
O O11 0.530443 0.000000 0.269034
O O12 0.568898 0.287858 0.459269
O O13 0.525718 0.000000 0.393851
O O14 0.288784 0.244170 0.163335
O O15 0.310197 0.000000 0.239486
O O16 0.633829 0.500000 0.017997
O O17 0.500000 0.260476 0.000000
O O18 0.667470 0.213212 0.957179
O O19 0.250000 0.750000 0.500000
O O20 0.377729 0.000000 0.486533
O O21 0.863354 0.000000 0.105778
#
# Coordination Sequence:
#
# PCOD9222811 Si02
#       8
#     8   8   8   8   8   8   8   8
#     4   9  17  29  45  63  82 106 137 171 204 239
#     4   8  13  22  37  56  78 106 138 168 198 235
#     4   9  17  28  40  58  87 115 134 160 203 248
#     4   9  17  29  45  63  82 106 137 171 204 239
#     4   9  17  28  40  58  87 115 134 160 203 248
#     4   7  10  18  33  53  76 101 132 169 201 229
#     4   8  14  26  43  61  79 101 133 170 204 236
#     4   8  13  22  37  56  78 106 138 168 198 235
#
# _framework density 28.121822999999999
#
# number of rings (size 3 to 8) (size 9 to 14) (size 15 to 20)
#    0.000    3.625    0.000    1.500    0.000    1.000 
#    0.000    1.250    0.000    7.500    0.000    0.875 
#    0.000   14.000    0.000    0.000    0.000    0.000 
#
# Total GULP energy -178454.766508 kJ/mol
# GULP energy per Si atom -5576.711453 kJ/mol
# Density = 2.805782 g / cm^3
# Si number density = 28.121823 Si / 1000 Ang^3
#
#
#
# Elastic Constant Matrix: (Units=GPa)
#
#
# Indices 1 2 3 4 5 6 
#
# 1 51.8040 -1.4949 67.0799 0.0000 -22.4565 0.0000
# 2 -1.4949 113.5717 16.4757 0.0000 -4.1044 0.0000
# 3 67.0799 16.4757 376.6950 0.0000 -26.5843 0.0000
# 4 0.0000 0.0000 0.0000 31.1196 0.0000 -9.7910
# 5 -22.4565 -4.1044 -26.5843 0.0000 79.8407 0.0000
# 6 0.0000 0.0000 0.0000 -9.7910 0.0000 2.0587
#
#
#
# Elastic Compliance Matrix: (Units=1/GPa)
#
#
# Indices 1 2 3 4 5 6 
#
# 1 0.028090 0.001270 -0.004604 0.000000 0.006433 0.000000
# 2 0.001270 0.008927 -0.000572 0.000000 0.000626 0.000000
# 3 -0.004604 -0.000572 0.003488 0.000000 -0.000163 0.000000
# 4 0.000000 0.000000 0.000000 -0.064746 0.000000 -0.307921
# 5 0.006433 0.000626 -0.000163 0.000000 0.014312 0.000000
# 6 0.000000 0.000000 0.000000 -0.307921 0.000000 -0.978691
#
#
# Mechanical properties :
#
#
# Convention : Reuss Voigt Hill
#
# Bulk Modulus (GPa) = 30.58726 78.46578 54.52652
# Shear Modulus (GPa) = -5.15512 53.27114 24.05801
#
# Velocity S-wave (km/s) = -1.35540 4.35708 2.92805
# Velocity P-wave (km/s) = 2.90703 7.29896 5.55543
#
# Compressibility (1/GPa) = 0.03269335
#
# Stress axis : x y z
#
# Youngs Moduli (GPa) = 35.59969 112.01484 286.69627
#
# Poissons Ratio (x) = -0.14227 1.31986
# Poissons Ratio (y) = -0.04521 0.16413
# Poissons Ratio (z) = 0.16389 0.06413
#
# Static dielectric constant tensor:
#      x y z
#    x 2.293240 0.000000 0.024920 
#    y 0.000000 1.930850 0.000000 
#    z 0.024920 0.000000 2.380540 
# 
# From -- ./inp_files/319206.got.cif
#   From: 2010.05.17/outbox.cif.g08.bks.cpg/sg12_160_cif.got.tgz:319206.got - 2010.06.03 13:09:07.
