data_PCOD9222137
_publ_section_title
;
Structure prediction by ZEFSAII (Michael W. Deem and Ramdas Pophale) SiO2 
 PCOD9222137
Probable space group: C 2/M
;
_chemical_formula_sum "Si O2"
_cell_formula_units_Z 48
_cell_length_a 13.827368
_cell_length_b 29.489822
_cell_length_c 13.863989
_cell_angle_alpha 90.000000
_cell_angle_beta 157.811418
_cell_angle_gamma 90.000000
_cell_volume 2134.993599
_symmetry_space_group_name_H-M "C 2/M"
_symmetry_group_IT_number 12
_symmetry_cell_setting 'monoclinic'
loop_
_space_group_symop_operation_xyz
x,y,z
-x,y,-z
-x,-y,-z
x,-y,z
1/2+x,1/2+y,z
1/2-x,1/2+y,-z
1/2-x,1/2-y,-z
1/2+x,1/2-y,z
loop_
_atom_site_type_symbol
_atom_site_label
_atom_site_fract_x
_atom_site_fract_y
_atom_site_fract_z
Si Si1 0.732125 0.855662 0.025009
Si Si2 0.635642 0.350488 0.221352
Si Si3 0.446763 0.213128 0.640824
Si Si4 0.128684 0.549029 0.874000
Si Si5 0.198599 0.950229 0.310350
Si Si6 0.783209 0.216202 0.220176
O O1 0.509112 0.822876 0.780795
O O2 0.634086 0.906624 0.944874
O O3 0.838072 0.831072 0.216465
O O4 0.936693 0.854676 0.126616
O O5 0.845296 0.316539 0.457353
O O6 0.726774 0.402143 0.282831
O O7 0.500000 0.333297 0.000000
O O8 0.250000 0.250000 0.500000
O O9 0.686998 0.242862 0.828435
O O10 0.099791 0.500000 0.895963
O O11 0.901476 0.552811 0.585596
O O12 0.405606 0.548700 0.077058
O O13 0.238840 0.000000 0.299543
O O14 0.000000 0.223290 0.500000
O O15 0.500000 0.215345 0.000000
#
# Coordination Sequence:
#
# PCOD9222137 Si02
#       6
#     8   8   8   8   8   8
#     4  11  24  44  67  96 136 173 225 279 338 404
#     4  11  25  40  65  99 135 179 225 276 335 399
#     4  12  25  44  67  94 136 181 229 284 337 398
#     4   9  18  36  67  96 126 169 216 268 335 399
#     4   9  18  37  60  91 131 172 216 265 323 397
#     4  12  29  45  70  99 133 180 232 286 344 402
#
# _framework density 22.482502
#
# number of rings (size 3 to 8) (size 9 to 14) (size 15 to 20)
#    0.000    1.333    3.333    1.500    4.667    0.333 
#    0.000    0.000    0.000    6.000    0.000    0.000 
#    0.000    0.667    0.000    0.000    0.000    0.000 
#
# Total GULP energy -134270.866151 kJ/mol
# GULP energy per Si atom -5594.619423 kJ/mol
# Density = 2.243133 g / cm^3
# Si number density = 22.482502 Si / 1000 Ang^3
#
#
#
# Elastic Constant Matrix: (Units=GPa)
#
#
# Indices 1 2 3 4 5 6 
#
# 1 53.7308 28.9774 13.6796 0.0010 9.4004 -0.0076
# 2 28.9774 178.6825 23.8264 -0.0001 -10.9138 0.0036
# 3 13.6796 23.8264 92.7150 0.0055 2.1345 -0.0288
# 4 0.0010 -0.0001 0.0055 36.3658 0.0023 14.8787
# 5 9.4004 -10.9138 2.1345 0.0023 35.6171 -0.0165
# 6 -0.0076 0.0036 -0.0288 14.8787 -0.0165 -156.8746
#
#
#
# Elastic Compliance Matrix: (Units=1/GPa)
#
#
# Indices 1 2 3 4 5 6 
#
# 1 0.022412 -0.003768 -0.002179 0.000000 -0.006939 0.000000
# 2 -0.003768 0.006555 -0.001199 0.000000 0.003075 0.000000
# 3 -0.002179 -0.001199 0.011426 -0.000001 -0.000477 -0.000002
# 4 0.000000 0.000000 -0.000001 0.026471 0.000000 0.002511
# 5 -0.006939 0.003075 -0.000477 0.000000 0.030879 -0.000003
# 6 0.000000 0.000000 -0.000002 0.002511 -0.000003 -0.006136
#
#
# Mechanical properties :
#
#
# Convention : Reuss Voigt Hill
#
# Bulk Modulus (GPa) = 38.31186 50.89945 44.60565
# Shear Modulus (GPa) = 43.62992 0.26465 21.94729
#
# Velocity S-wave (km/s) = 4.41002 0.34347 3.12780
# Velocity P-wave (km/s) = 6.55811 4.77975 5.73824
#
# Compressibility (1/GPa) = 0.02610158
#
# Stress axis : x y z
#
# Youngs Moduli (GPa) = 44.61875 152.54735 87.51637
#
# Poissons Ratio (x) = 0.57479 0.19067
# Poissons Ratio (y) = 0.16812 0.10497
# Poissons Ratio (z) = 0.09721 0.18298
#
# Static dielectric constant tensor:
#      x y z
#    x 1.833200 0.000000 0.049530 
#    y 0.000000 1.867670 0.000000 
#    z 0.049530 0.000000 1.950500 
# 
# From -- ./inp_files/12925.got.cif
#   From: 2010.05.17/outbox.cif.g08.bks.cpg/sg12_7_cif.got.tgz:12925.got - 2010.06.03 13:09:07.
