data_PCOD9222045
_publ_section_title
;
Structure prediction by ZEFSAII (Michael W. Deem and Ramdas Pophale) SiO2 
 PCOD9222045
Probable space group: C 2/M
;
_chemical_formula_sum "Si O2"
_cell_formula_units_Z 28
_cell_length_a 11.065378
_cell_length_b 23.434848
_cell_length_c 7.781397
_cell_angle_alpha 90.000000
_cell_angle_beta 39.123058
_cell_angle_gamma 90.000000
_cell_volume 1273.230738
_symmetry_space_group_name_H-M "C 2/M"
_symmetry_group_IT_number 12
_symmetry_cell_setting 'monoclinic'
loop_
_space_group_symop_operation_xyz
x,y,z
-x,y,-z
-x,-y,-z
x,-y,z
1/2+x,1/2+y,z
1/2-x,1/2+y,-z
1/2-x,1/2-y,-z
1/2+x,1/2-y,z
loop_
_atom_site_type_symbol
_atom_site_label
_atom_site_fract_x
_atom_site_fract_y
_atom_site_fract_z
Si Si1 0.000000 0.256801 0.000000
Si Si2 0.607249 0.852257 0.654483
Si Si3 0.917343 0.934915 0.398732
Si Si4 0.707215 0.655452 0.927256
O O1 0.856858 0.298538 0.260784
O O2 0.901080 0.215878 0.968037
O O3 0.700524 0.848351 0.363684
O O4 0.380129 0.850968 0.870682
O O5 0.705468 0.907715 0.627143
O O6 0.000000 0.933972 0.500000
O O7 0.916868 0.000000 0.336779
O O8 0.055660 0.893826 0.136440
#
# Coordination Sequence:
#
# PCOD9222045 Si02
#       4
#     4   8   8   8
#     4  12  22  44  66  98 140 170 212 266 322 392
#     4  11  24  42  67 101 131 172 216 265 326 384
#     4  11  25  46  69  94 129 172 220 271 324 384
#     4  11  24  42  67 100 132 172 215 266 326 384
#
# _framework density 21.991299000000001
#
# number of rings (size 3 to 8) (size 9 to 14) (size 15 to 20)
#    0.000    0.857    2.857    3.429    0.000    3.429 
#    0.000    6.429    0.000    0.000    0.000    0.000 
#    0.000    0.000    0.000    0.000    0.000    0.000 
#
# Total GULP energy -78232.795832 kJ/mol
# GULP energy per Si atom -5588.056845 kJ/mol
# Density = 2.194125 g / cm^3
# Si number density = 21.991299 Si / 1000 Ang^3
#
#
#
# Elastic Constant Matrix: (Units=GPa)
#
#
# Indices 1 2 3 4 5 6 
#
# 1 109.3820 64.9589 40.3475 0.0000 -19.9400 0.0000
# 2 64.9589 199.6779 68.0554 0.0000 -9.9903 0.0000
# 3 40.3475 68.0554 86.0513 0.0000 0.3771 0.0000
# 4 0.0000 0.0000 0.0000 30.8886 0.0000 9.6770
# 5 -19.9400 -9.9903 0.3771 0.0000 43.7961 0.0000
# 6 0.0000 0.0000 0.0000 9.6770 0.0000 24.6547
#
#
#
# Elastic Compliance Matrix: (Units=1/GPa)
#
#
# Indices 1 2 3 4 5 6 
#
# 1 0.013222 -0.002611 -0.004159 0.000000 0.005460 0.000000
# 2 -0.002611 0.007487 -0.004700 0.000000 0.000560 0.000000
# 3 -0.004159 -0.004700 0.017301 0.000000 -0.003114 0.000000
# 4 0.000000 0.000000 0.000000 0.036914 0.000000 -0.014489
# 5 0.005460 0.000560 -0.003114 0.000000 0.025474 0.000000
# 6 0.000000 0.000000 0.000000 -0.014489 0.000000 0.046247
#
#
# Mechanical properties :
#
#
# Convention : Reuss Voigt Hill
#
# Bulk Modulus (GPa) = 66.34675 82.42610 74.38642
# Shear Modulus (GPa) = 28.63567 34.65117 31.64342
#
# Velocity S-wave (km/s) = 3.61243 3.97379 3.79741
# Velocity P-wave (km/s) = 6.90178 7.65619 7.28875
#
# Compressibility (1/GPa) = 0.01507233
#
# Stress axis : x y z
#
# Youngs Moduli (GPa) = 75.63065 133.56125 57.79891
#
# Poissons Ratio (x) = 0.34871 0.24037
# Poissons Ratio (y) = 0.19746 0.27164
# Poissons Ratio (z) = 0.31452 0.62770
#
# Static dielectric constant tensor:
#      x y z
#    x 1.874010 0.000000 -0.021220 
#    y 0.000000 1.772410 0.000000 
#    z -0.021220 0.000000 1.818740 
# 
# From -- ./inp_files/48154.got.cif
#   From: 2010.05.17/outbox.cif.g08.bks.cpg/sg12_25_cif.got.tgz:48154.got - 2010.06.03 13:09:07.
