data_PCOD9222496
_publ_section_title
;
Structure prediction by ZEFSAII (Michael W. Deem and Ramdas Pophale) SiO2 
 PCOD9222496
Probable space group: C 2/M
;
_chemical_formula_sum "Si O2"
_cell_formula_units_Z 42
_cell_length_a 32.789509
_cell_length_b 7.504209
_cell_length_c 17.497009
_cell_angle_alpha 90.000000
_cell_angle_beta 22.374470
_cell_angle_gamma 90.000000
_cell_volume 1638.849380
_symmetry_space_group_name_H-M "C 2/M"
_symmetry_group_IT_number 12
_symmetry_cell_setting 'monoclinic'
loop_
_space_group_symop_operation_xyz
x,y,z
-x,y,-z
-x,-y,-z
x,-y,z
1/2+x,1/2+y,z
1/2-x,1/2+y,-z
1/2-x,1/2-y,-z
1/2+x,1/2-y,z
loop_
_atom_site_type_symbol
_atom_site_label
_atom_site_fract_x
_atom_site_fract_y
_atom_site_fract_z
Si Si1 0.327887 0.707129 0.105399
Si Si2 0.646336 0.000000 0.818589
Si Si3 0.000000 0.500000 0.500000
Si Si4 0.185702 0.788642 0.035249
Si Si5 0.111372 0.500000 0.707252
Si Si6 0.912766 0.205127 0.369202
Si Si7 0.058782 0.785290 0.508703
O O1 0.301793 0.500000 0.163126
O O2 0.313659 0.828732 0.203919
O O3 0.279783 0.781538 0.108214
O O4 0.457120 0.713885 0.865076
O O5 0.667119 0.000000 0.692600
O O6 0.516623 0.000000 0.053895
O O7 0.922110 0.656449 0.595475
O O8 0.065264 0.725773 0.260570
O O9 0.177559 0.000000 0.039049
O O10 0.250000 0.750000 0.000000
O O11 0.133635 0.331385 0.615084
O O12 0.889811 0.254118 0.497460
O O13 0.884718 0.000000 0.406037
O O14 0.061926 0.000000 0.488713
#
# Coordination Sequence:
#
# PCOD9222496 Si02
#       7
#     8   4   2   8   4   8   8
#     4   8  15  26  36  52  76 109 141 174 216 250
#     4   9  16  22  34  50  80 106 138 180 208 257
#     4  12  20  28  50  62  88 126 150 184 226 280
#     4   9  18  29  45  64  86 114 157 198 215 252
#     4   9  15  22  33  57  72 104 148 173 207 250
#     4   8  14  26  40  51  77 107 138 178 211 251
#     4   9  19  32  43  65  89 117 153 186 225 262
#
# _framework density 25.627737
#
# number of rings (size 3 to 8) (size 9 to 14) (size 15 to 20)
#    0.000    3.238    0.000    3.143    2.667    2.286 
#    0.000    3.810    0.000    0.000    0.000    0.000 
#    0.000    0.000    0.000    6.857    3.810    5.524 
#
# Total GULP energy -117325.514222 kJ/mol
# GULP energy per Si atom -5586.929249 kJ/mol
# Density = 2.556941 g / cm^3
# Si number density = 25.627737 Si / 1000 Ang^3
#
#
#
# Elastic Constant Matrix: (Units=GPa)
#
#
# Indices 1 2 3 4 5 6 
#
# 1 268.5146 109.5847 54.6341 0.0000 42.3597 0.0000
# 2 109.5847 162.8195 31.2068 0.0001 38.3293 0.0000
# 3 54.6341 31.2068 85.0102 0.0000 28.3103 0.0000
# 4 0.0000 0.0001 0.0000 13.2452 0.0000 -0.0858
# 5 42.3597 38.3293 28.3103 0.0000 53.4862 0.0000
# 6 0.0000 0.0000 0.0000 -0.0858 0.0000 42.9585
#
#
#
# Elastic Compliance Matrix: (Units=1/GPa)
#
#
# Indices 1 2 3 4 5 6 
#
# 1 0.005588 -0.003103 -0.002087 0.000000 -0.001098 0.000000
# 2 -0.003103 0.009205 -0.000008 0.000000 -0.004135 0.000000
# 3 -0.002087 -0.000008 0.015242 0.000000 -0.006409 0.000000
# 4 0.000000 0.000000 0.000000 0.075500 0.000000 0.000151
# 5 -0.001098 -0.004135 -0.006409 0.000000 0.025921 0.000000
# 6 0.000000 0.000000 0.000000 0.000151 0.000000 0.023279
#
#
# Mechanical properties :
#
#
# Convention : Reuss Voigt Hill
#
# Bulk Modulus (GPa) = 50.91725 100.79949 75.85837
# Shear Modulus (GPa) = 29.12450 43.33256 36.22853
#
# Velocity S-wave (km/s) = 3.37478 4.11645 3.76393
# Velocity P-wave (km/s) = 5.92424 7.87471 6.96806
#
# Compressibility (1/GPa) = 0.01963971
#
# Stress axis : x y z
#
# Youngs Moduli (GPa) = 178.94694 108.63657 65.60925
#
# Poissons Ratio (x) = 0.33707 0.13692
# Poissons Ratio (y) = 0.55523 0.00053
# Poissons Ratio (z) = 0.37344 0.00087
#
# Static dielectric constant tensor:
#      x y z
#    x 2.027760 0.000000 -0.069970 
#    y 0.000000 1.937460 0.000000 
#    z -0.069970 0.000000 2.305630 
# 
# From -- ./inp_files/243510.got.cif
#   From: 2010.05.17/outbox.cif.g08.bks.cpg/sg12_122_cif.got.tgz:243510.got - 2010.06.03 13:09:07.
