data_PCOD9222005
_publ_section_title
;
Structure prediction by ZEFSAII (Michael W. Deem and Ramdas Pophale) SiO2 
 PCOD9222005
Probable space group: C 2/M
;
_chemical_formula_sum "Si O2"
_cell_formula_units_Z 36
_cell_length_a 11.416868
_cell_length_b 25.910976
_cell_length_c 5.264799
_cell_angle_alpha 90.000000
_cell_angle_beta 74.465036
_cell_angle_gamma 90.000000
_cell_volume 1500.546573
_symmetry_space_group_name_H-M "C 2/M"
_symmetry_group_IT_number 12
_symmetry_cell_setting 'monoclinic'
loop_
_space_group_symop_operation_xyz
x,y,z
-x,y,-z
-x,-y,-z
x,-y,z
1/2+x,1/2+y,z
1/2-x,1/2+y,-z
1/2-x,1/2-y,-z
1/2+x,1/2-y,z
loop_
_atom_site_type_symbol
_atom_site_label
_atom_site_fract_x
_atom_site_fract_y
_atom_site_fract_z
Si Si1 0.000000 0.746173 0.500000
Si Si2 0.784354 0.441627 0.299844
Si Si3 0.826504 0.802622 0.935518
Si Si4 0.388485 0.161232 0.258741
Si Si5 0.642302 0.409651 0.870712
O O1 0.047480 0.782625 0.251205
O O2 0.099596 0.705027 0.535923
O O3 0.829548 0.500000 0.280497
O O4 0.888528 0.399571 0.310644
O O5 0.685494 0.433044 0.580146
O O6 0.723027 0.431691 0.058262
O O7 0.744633 0.831465 0.776005
O O8 0.750000 0.750000 0.000000
O O9 0.839011 0.847018 0.137714
O O10 0.500000 0.172047 0.000000
O O11 0.500000 0.419451 0.000000
#
# Coordination Sequence:
#
# PCOD9222005 Si02
#       5
#     4   8   8   8   8
#     4  12  24  42  73  98 143 190 226 286 352 416
#     4  11  26  48  72 101 141 184 235 300 356 405
#     4  11  24  41  67 102 141 186 228 282 349 415
#     4  11  25  44  67 103 139 184 241 286 338 428
#     4  11  26  44  72 107 140 181 240 291 346 427
#
# _framework density 23.991258999999999
#
# number of rings (size 3 to 8) (size 9 to 14) (size 15 to 20)
#    0.000    0.889    2.222    3.333   12.444    3.111 
#    0.000    0.556    0.000    0.000    0.000    0.000 
#    0.000    0.000    0.000    0.000    0.000    0.000 
#
# Total GULP energy -100536.918236 kJ/mol
# GULP energy per Si atom -5585.384346 kJ/mol
# Density = 2.393665 g / cm^3
# Si number density = 23.991259 Si / 1000 Ang^3
#
#
#
# Elastic Constant Matrix: (Units=GPa)
#
#
# Indices 1 2 3 4 5 6 
#
# 1 35.3634 3.5237 2.8544 0.0000 12.9589 0.0000
# 2 3.5237 170.5125 22.7943 0.0000 2.9495 0.0000
# 3 2.8544 22.7943 91.0446 0.0000 -6.0024 0.0000
# 4 0.0000 0.0000 0.0000 34.0935 0.0000 6.8834
# 5 12.9589 2.9495 -6.0024 0.0000 28.2275 0.0000
# 6 0.0000 0.0000 0.0000 6.8834 0.0000 39.1392
#
#
#
# Elastic Compliance Matrix: (Units=1/GPa)
#
#
# Indices 1 2 3 4 5 6 
#
# 1 0.034411 -0.000148 -0.002112 0.000000 -0.016231 0.000000
# 2 -0.000148 0.006095 -0.001581 0.000000 -0.000905 0.000000
# 3 -0.002112 -0.001581 0.011684 0.000000 0.003619 0.000000
# 4 0.000000 0.000000 0.000000 0.030411 0.000000 -0.005348
# 5 -0.016231 -0.000905 0.003619 0.000000 0.043742 0.000000
# 6 0.000000 0.000000 0.000000 -0.005348 0.000000 0.026490
#
#
# Mechanical properties :
#
#
# Convention : Reuss Voigt Hill
#
# Bulk Modulus (GPa) = 22.46773 39.47394 30.97083
# Shear Modulus (GPa) = 28.51420 38.14192 33.32806
#
# Velocity S-wave (km/s) = 3.45124 3.99159 3.73121
# Velocity P-wave (km/s) = 5.02660 6.14271 5.61247
#
# Compressibility (1/GPa) = 0.04450829
#
# Stress axis : x y z
#
# Youngs Moduli (GPa) = 29.06049 164.07626 85.58525
#
# Poissons Ratio (x) = 0.02429 0.18075
# Poissons Ratio (y) = 0.00430 0.13530
# Poissons Ratio (z) = 0.06137 0.25939
#
# Static dielectric constant tensor:
#      x y z
#    x 1.937020 0.000000 -0.008840 
#    y 0.000000 2.178110 0.000000 
#    z -0.008840 0.000000 1.941570 
# 
# From -- ./inp_files/6930.got.cif
#   From: 2010.05.17/outbox.cif.g08.bks.cpg/sg12_4_cif.got.tgz:6930.got - 2010.06.03 13:09:07.
