data_PCOD9222808
_publ_section_title
;
Structure prediction by ZEFSAII (Michael W. Deem and Ramdas Pophale) SiO2 
 PCOD9222808
Probable space group: C 2/M
;
_chemical_formula_sum "Si O2"
_cell_formula_units_Z 64
_cell_length_a 14.118561
_cell_length_b 13.779885
_cell_length_c 21.328344
_cell_angle_alpha 90.000000
_cell_angle_beta 40.122426
_cell_angle_gamma 90.000000
_cell_volume 2674.017105
_symmetry_space_group_name_H-M "C 2/M"
_symmetry_group_IT_number 12
_symmetry_cell_setting 'monoclinic'
loop_
_space_group_symop_operation_xyz
x,y,z
-x,y,-z
-x,-y,-z
x,-y,z
1/2+x,1/2+y,z
1/2-x,1/2+y,-z
1/2-x,1/2-y,-z
1/2+x,1/2-y,z
loop_
_atom_site_type_symbol
_atom_site_label
_atom_site_fract_x
_atom_site_fract_y
_atom_site_fract_z
Si Si1 0.557441 0.674763 0.762173
Si Si2 0.145379 0.883550 0.843747
Si Si3 0.735146 0.885612 0.815342
Si Si4 0.932252 0.391320 0.226955
Si Si5 0.735182 0.109097 0.949454
Si Si6 0.688610 0.617374 0.956839
Si Si7 0.213435 0.390327 0.572773
Si Si8 0.549426 0.698817 0.630141
O O1 0.669985 0.659286 0.762314
O O2 0.503572 0.786161 0.788975
O O3 0.412149 0.611427 0.848813
O O4 0.614042 0.656946 0.663582
O O5 0.978583 0.850622 0.944876
O O6 0.149386 0.000000 0.835428
O O7 0.233683 0.860258 0.862643
O O8 0.618154 0.883591 0.819175
O O9 0.679663 0.849382 0.911570
O O10 0.878423 0.826657 0.721482
O O11 0.775320 0.000000 0.802537
O O12 0.000665 0.500000 0.201881
O O13 0.799009 0.391301 0.345314
O O14 0.719285 0.147113 0.028220
O O15 0.677451 0.000000 0.980849
O O16 0.677757 0.500000 0.964717
O O17 0.183164 0.500000 0.567062
O O18 0.368555 0.353616 0.468139
O O19 0.094754 0.311984 0.607498
#
# Coordination Sequence:
#
# PCOD9222808 Si02
#       8
#     8   8   8   8   8   8   8   8
#     4   9  15  24  38  56  78 101 125 155 187 223
#     4   8  12  18  32  55  79  99 119 149 190 230
#     4   9  16  26  41  60  80  99 124 159 192 222
#     4   9  18  29  39  54  76 103 132 159 187 218
#     4   8  13  22  39  62  82  98 119 152 194 233
#     4   7  10  17  30  53  81  99 115 145 188 232
#     4   9  17  29  43  59  79 100 124 155 189 226
#     4   9  17  27  41  61  77  97 127 156 190 224
#
# _framework density 23.934028000000001
#
# number of rings (size 3 to 8) (size 9 to 14) (size 15 to 20)
#    0.000    3.500    0.000    2.250    0.000    2.000 
#    0.000    1.875    0.000    2.250    0.000   14.875 
#    0.000    0.000    0.000    0.000    0.000    0.000 
#
# Total GULP energy -178402.177882 kJ/mol
# GULP energy per Si atom -5575.068059 kJ/mol
# Density = 2.387955 g / cm^3
# Si number density = 23.934028 Si / 1000 Ang^3
#
#
#
# Elastic Constant Matrix: (Units=GPa)
#
#
# Indices 1 2 3 4 5 6 
#
# 1 85.9144 20.8017 33.0738 -0.0001 19.5101 0.0000
# 2 20.8017 109.1572 17.0935 -0.0001 2.7512 0.0000
# 3 33.0738 17.0935 93.7071 -0.0003 23.9900 0.0002
# 4 -0.0001 -0.0001 -0.0003 21.6565 0.0001 -0.5505
# 5 19.5101 2.7512 23.9900 0.0001 32.8273 -0.0001
# 6 0.0000 0.0000 0.0002 -0.5505 -0.0001 19.9300
#
#
#
# Elastic Compliance Matrix: (Units=1/GPa)
#
#
# Indices 1 2 3 4 5 6 
#
# 1 0.014832 -0.002162 -0.003236 0.000000 -0.006269 0.000000
# 2 -0.002162 0.009754 -0.001397 0.000000 0.001489 0.000000
# 3 -0.003236 -0.001397 0.014204 0.000000 -0.008340 0.000000
# 4 0.000000 0.000000 0.000000 0.046208 0.000000 0.001276
# 5 -0.006269 0.001489 -0.008340 0.000000 0.040158 0.000000
# 6 0.000000 0.000000 0.000000 0.001276 0.000000 0.050211
#
#
# Mechanical properties :
#
#
# Convention : Reuss Voigt Hill
#
# Bulk Modulus (GPa) = 39.68189 47.85742 43.76966
# Shear Modulus (GPa) = 25.33477 29.40341 27.36909
#
# Velocity S-wave (km/s) = 3.25703 3.50883 3.38527
# Velocity P-wave (km/s) = 5.54617 6.03778 5.79719
#
# Compressibility (1/GPa) = 0.02520041
#
# Stress axis : x y z
#
# Youngs Moduli (GPa) = 67.42079 102.51807 70.40506
#
# Poissons Ratio (x) = 0.22163 0.22780
# Poissons Ratio (y) = 0.14575 0.09838
# Poissons Ratio (z) = 0.21815 0.14326
#
# Static dielectric constant tensor:
#      x y z
#    x 1.963500 0.000000 0.031360 
#    y 0.000000 1.964670 0.000000 
#    z 0.031360 0.000000 1.918220 
# 
# From -- ./inp_files/342870.got.cif
#   From: 2010.05.17/outbox.cif.g08.bks.cpg/sg12_172_cif.got.tgz:342870.got - 2010.06.03 13:09:07.
