data_PCOD9222621
_publ_section_title
;
Structure prediction by ZEFSAII (Michael W. Deem and Ramdas Pophale) SiO2 
 PCOD9222621
Probable space group: C 2/M
;
_chemical_formula_sum "Si O2"
_cell_formula_units_Z 48
_cell_length_a 18.444021
_cell_length_b 31.520843
_cell_length_c 8.106312
_cell_angle_alpha 90.000000
_cell_angle_beta 154.078266
_cell_angle_gamma 90.000000
_cell_volume 2060.156731
_symmetry_space_group_name_H-M "C 2/M"
_symmetry_group_IT_number 12
_symmetry_cell_setting 'monoclinic'
loop_
_space_group_symop_operation_xyz
x,y,z
-x,y,-z
-x,-y,-z
x,-y,z
1/2+x,1/2+y,z
1/2-x,1/2+y,-z
1/2-x,1/2-y,-z
1/2+x,1/2-y,z
loop_
_atom_site_type_symbol
_atom_site_label
_atom_site_fract_x
_atom_site_fract_y
_atom_site_fract_z
Si Si1 0.686543 0.545239 0.592120
Si Si2 0.806948 0.136229 0.393397
Si Si3 0.860580 0.277513 0.599512
Si Si4 0.788535 0.954058 0.754980
Si Si5 0.205475 0.861827 0.238688
Si Si6 0.147861 0.784805 0.692240
O O1 0.747651 0.500000 0.783635
O O2 0.748267 0.590237 0.784554
O O3 0.720341 0.545853 0.463688
O O4 0.485907 0.545439 0.198391
O O5 0.771003 0.139202 0.514229
O O6 0.748023 0.176595 0.170477
O O7 0.008607 0.137816 0.801731
O O8 0.750000 0.250000 0.500000
O O9 0.779478 0.316847 0.337123
O O10 0.929072 0.242174 0.615820
O O11 0.000000 0.296727 0.000000
O O12 0.725308 0.907532 0.679822
O O13 0.719233 0.000000 0.669192
O O14 0.000000 0.801881 0.500000
O O15 0.250000 0.750000 0.000000
#
# Coordination Sequence:
#
# PCOD9222621 Si02
#       6
#     8   8   8   8   8   8
#     4   7  10  18  37  68 101 130 161 200 248 303
#     4   9  16  29  50  74 104 137 170 210 259 309
#     4  12  23  38  58  77 101 136 183 224 260 313
#     4   7  10  18  36  68 105 130 153 200 261 304
#     4   9  16  28  51  77 100 134 176 213 253 307
#     4  12  25  38  52  75 107 140 175 218 271 315
#
# _framework density 23.299196999999999
#
# number of rings (size 3 to 8) (size 9 to 14) (size 15 to 20)
#    0.000    2.667    1.667    6.000    0.000    0.000 
#    0.000    0.000    0.000    1.000    0.000    1.167 
#    0.000    1.333    0.000    0.000    0.000    0.000 
#
# Total GULP energy -133801.296153 kJ/mol
# GULP energy per Si atom -5575.054006 kJ/mol
# Density = 2.324617 g / cm^3
# Si number density = 23.299197 Si / 1000 Ang^3
#
#
#
# Elastic Constant Matrix: (Units=GPa)
#
#
# Indices 1 2 3 4 5 6 
#
# 1 37.9287 19.7836 -3.1804 0.0000 -6.6794 0.0000
# 2 19.7836 229.4317 9.8867 0.0000 -7.4156 0.0000
# 3 -3.1804 9.8867 29.9810 0.0000 -7.0302 0.0000
# 4 0.0000 0.0000 0.0000 18.9829 0.0000 -1.5903
# 5 -6.6794 -7.4156 -7.0302 0.0000 11.7816 0.0000
# 6 0.0000 0.0000 0.0000 -1.5903 0.0000 12.6782
#
#
#
# Elastic Compliance Matrix: (Units=1/GPa)
#
#
# Indices 1 2 3 4 5 6 
#
# 1 0.032422 -0.002479 0.009535 0.000000 0.022511 0.000000
# 2 -0.002479 0.004662 -0.001676 0.000000 0.000528 0.000000
# 3 0.009535 -0.001676 0.041786 0.000000 0.029285 0.000000
# 4 0.000000 0.000000 0.000000 0.053238 0.000000 0.006678
# 5 0.022511 0.000528 0.029285 0.000000 0.115447 0.000000
# 6 0.000000 0.000000 0.000000 0.006678 0.000000 0.079714
#
#
# Mechanical properties :
#
#
# Convention : Reuss Voigt Hill
#
# Bulk Modulus (GPa) = 11.15707 38.92456 25.04081
# Shear Modulus (GPa) = 14.43481 26.74531 20.59006
#
# Velocity S-wave (km/s) = 2.49176 3.39175 2.97597
# Velocity P-wave (km/s) = 3.61628 5.66404 4.75178
#
# Compressibility (1/GPa) = 0.08962930
#
# Stress axis : x y z
#
# Youngs Moduli (GPa) = 30.84317 214.51524 23.93167
#
# Poissons Ratio (x) = 0.53179 -0.22820
# Poissons Ratio (y) = 0.07646 0.04012
# Poissons Ratio (z) = -0.29410 0.35960
#
# Static dielectric constant tensor:
#      x y z
#    x 1.877210 0.000000 0.002800 
#    y 0.000000 1.971160 0.000000 
#    z 0.002800 0.000000 1.911150 
# 
# From -- ./inp_files/91441.got.cif
#   From: 2010.05.17/outbox.cif.g08.bks.cpg/sg12_46_cif.got.tgz:91441.got - 2010.06.03 13:09:07.
