data_PCOD9222947
_publ_section_title
;
Structure prediction by ZEFSAII (Michael W. Deem and Ramdas Pophale) SiO2 
 PCOD9222947
Probable space group: C 2/M
;
_chemical_formula_sum "Si O2"
_cell_formula_units_Z 56
_cell_length_a 24.212981
_cell_length_b 7.366632
_cell_length_c 15.319595
_cell_angle_alpha 90.000000
_cell_angle_beta 86.202884
_cell_angle_gamma 90.000000
_cell_volume 2726.528933
_symmetry_space_group_name_H-M "C 2/M"
_symmetry_group_IT_number 12
_symmetry_cell_setting 'monoclinic'
loop_
_space_group_symop_operation_xyz
x,y,z
-x,y,-z
-x,-y,-z
x,-y,z
1/2+x,1/2+y,z
1/2-x,1/2+y,-z
1/2-x,1/2-y,-z
1/2+x,1/2-y,z
loop_
_atom_site_type_symbol
_atom_site_label
_atom_site_fract_x
_atom_site_fract_y
_atom_site_fract_z
Si Si1 0.124387 0.716994 0.982656
Si Si2 0.390759 0.721227 0.288166
Si Si3 0.670266 0.778232 0.164107
Si Si4 0.293262 0.283257 0.187724
Si Si5 0.023857 0.789727 0.586372
Si Si6 0.972875 0.709140 0.119036
Si Si7 0.442532 0.220069 0.753405
O O1 0.117340 0.500000 0.991372
O O2 0.169362 0.748922 0.901832
O O3 0.064198 0.787021 0.955937
O O4 0.149786 0.782509 0.070638
O O5 0.392529 0.500000 0.287218
O O6 0.329409 0.780198 0.266927
O O7 0.420689 0.784902 0.373226
O O8 0.429751 0.784974 0.204675
O O9 0.731381 0.712792 0.181498
O O10 0.621440 0.727746 0.235711
O O11 0.672148 0.000000 0.161170
O O12 0.288845 0.500000 0.196894
O O13 0.000000 0.707570 0.500000
O O14 0.976972 0.782848 0.666329
O O15 0.036614 0.000000 0.565600
O O16 0.985374 0.500000 0.096637
O O17 0.027300 0.785134 0.160413
O O18 0.445874 0.000000 0.753466
#
# Coordination Sequence:
#
# PCOD9222947 Si02
#       7
#     8   8   8   8   8   8   8
#     4   9  16  26  40  59  82 109 143 177 203 225
#     4   8  14  25  42  61  79 102 131 163 200 240
#     4   9  17  27  40  59  84 113 141 169 198 232
#     4   9  16  27  42  59  81 110 143 172 197 230
#     4   9  17  30  48  67  83  99 125 165 209 250
#     4   8  14  24  39  58  80 106 135 168 200 231
#     4   9  17  29  43  61  85 110 135 162 199 245
#
# _framework density 20.538934000000001
#
# number of rings (size 3 to 8) (size 9 to 14) (size 15 to 20)
#    0.000    3.286    0.000    0.429    0.000    0.857 
#    0.000    4.286    0.000    0.857    0.000   10.000 
#    0.000    0.000    0.000    0.000    0.000    0.000 
#
# Total GULP energy -156050.383034 kJ/mol
# GULP energy per Si atom -5573.227966 kJ/mol
# Density = 2.049219 g / cm^3
# Si number density = 20.538934 Si / 1000 Ang^3
#
#
#
# Elastic Constant Matrix: (Units=GPa)
#
#
# Indices 1 2 3 4 5 6 
#
# 1 161.9680 1.8595 61.0975 0.0000 31.0822 0.0000
# 2 1.8595 78.5615 1.4476 0.0000 6.3967 0.0000
# 3 61.0975 1.4476 113.8485 0.0000 40.2443 0.0000
# 4 0.0000 0.0000 0.0000 2.9647 0.0000 -3.1404
# 5 31.0822 6.3967 40.2443 0.0000 30.4911 0.0000
# 6 0.0000 0.0000 0.0000 -3.1404 0.0000 5.1903
#
#
#
# Elastic Compliance Matrix: (Units=1/GPa)
#
#
# Indices 1 2 3 4 5 6 
#
# 1 0.008092 0.000249 -0.002646 0.000000 -0.004809 0.000000
# 2 0.000249 0.013094 0.001426 0.000000 -0.004883 0.000000
# 3 -0.002646 0.001426 0.017505 0.000000 -0.020706 0.000000
# 4 0.000000 0.000000 0.000000 0.939344 0.000000 0.568353
# 5 -0.004809 -0.004883 -0.020706 0.000000 0.066052 0.000000
# 6 0.000000 0.000000 0.000000 0.568353 0.000000 0.536551
#
#
# Mechanical properties :
#
#
# Convention : Reuss Voigt Hill
#
# Bulk Modulus (GPa) = 27.21178 53.68749 40.44964
# Shear Modulus (GPa) = 3.13513 27.06077 15.09795
#
# Velocity S-wave (km/s) = 1.23683 3.63372 2.71419
# Velocity P-wave (km/s) = 3.91373 6.61826 5.43685
#
# Compressibility (1/GPa) = 0.03674878
#
# Stress axis : x y z
#
# Youngs Moduli (GPa) = 123.57644 76.36924 57.12721
#
# Poissons Ratio (x) = -0.01900 0.15116
# Poissons Ratio (y) = -0.03074 -0.08146
# Poissons Ratio (z) = 0.32698 -0.10890
#
# Static dielectric constant tensor:
#      x y z
#    x 1.766380 0.000000 0.048240 
#    y 0.000000 1.761940 0.000000 
#    z 0.048240 0.000000 1.723880 
# 
# From -- ./inp_files/173836.got.cif
#   From: 2010.05.17/outbox.cif.g08.bks.cpg/sg12_87_cif.got.tgz:173836.got - 2010.06.03 13:09:07.
