data_PCOD9222819
_publ_section_title
;
Structure prediction by ZEFSAII (Michael W. Deem and Ramdas Pophale) SiO2 
 PCOD9222819
Probable space group: C 2/M
;
_chemical_formula_sum "Si O2"
_cell_formula_units_Z 64
_cell_length_a 19.546033
_cell_length_b 28.856817
_cell_length_c 15.862940
_cell_angle_alpha 90.000000
_cell_angle_beta 160.334814
_cell_angle_gamma 90.000000
_cell_volume 3010.964730
_symmetry_space_group_name_H-M "C 2/M"
_symmetry_group_IT_number 12
_symmetry_cell_setting 'monoclinic'
loop_
_space_group_symop_operation_xyz
x,y,z
-x,y,-z
-x,-y,-z
x,-y,z
1/2+x,1/2+y,z
1/2-x,1/2+y,-z
1/2-x,1/2-y,-z
1/2+x,1/2-y,z
loop_
_atom_site_type_symbol
_atom_site_label
_atom_site_fract_x
_atom_site_fract_y
_atom_site_fract_z
Si Si1 0.167405 0.137857 0.478712
Si Si2 0.434756 0.145301 0.171130
Si Si3 0.192192 0.329483 0.620616
Si Si4 0.603734 0.337893 0.982001
Si Si5 0.074015 0.738500 0.899620
Si Si6 0.225222 0.552339 0.096289
Si Si7 0.286824 0.448618 0.357923
Si Si8 0.203251 0.232132 0.582239
O O1 0.354469 0.151774 0.636093
O O2 0.235581 0.090700 0.599755
O O3 0.145735 0.178316 0.523588
O O4 0.970997 0.135643 0.189124
O O5 0.506609 0.149901 0.351128
O O6 0.315653 0.191278 0.000006
O O7 0.349233 0.095650 0.045105
O O8 0.393978 0.332960 0.794399
O O9 0.169325 0.273835 0.607320
O O10 0.240493 0.353761 0.765290
O O11 0.678003 0.287508 0.036264
O O12 0.925270 0.750142 0.648235
O O13 0.938288 0.731458 0.825644
O O14 0.152593 0.500000 0.989579
O O15 0.469323 0.550788 0.372727
O O16 0.185674 0.560882 0.149899
O O17 0.226498 0.500000 0.315756
#
# Coordination Sequence:
#
# PCOD9222819 Si02
#       8
#     8   8   8   8   8   8   8   8
#     4   9  16  26  44  70  92 110 142 185 216 240
#     4   9  16  26  44  70  92 110 142 185 216 240
#     4   8  13  22  38  62  94 127 149 166 199 250
#     4   8  13  22  38  62  94 127 149 166 199 250
#     4   7  11  20  34  57  89 118 142 169 201 238
#     4   9  19  35  50  62  80 109 141 172 217 277
#     4   9  19  35  50  62  80 109 141 172 217 277
#     4   7  11  20  34  57  89 118 142 169 201 238
#
# _framework density 21.255645999999999
#
# number of rings (size 3 to 8) (size 9 to 14) (size 15 to 20)
#    0.000    3.750    0.000    3.750    0.000    2.000 
#    0.000    3.750    0.000    8.250    0.000    5.250 
#    0.000    0.000    0.000    0.000    0.000    0.000 
#
# Total GULP energy -178291.146404 kJ/mol
# GULP energy per Si atom -5571.598325 kJ/mol
# Density = 2.120727 g / cm^3
# Si number density = 21.255646 Si / 1000 Ang^3
#
#
#
# Elastic Constant Matrix: (Units=GPa)
#
#
# Indices 1 2 3 4 5 6 
#
# 1 52.7528 28.6935 20.4715 0.0000 -8.1683 -0.0001
# 2 28.6935 135.9557 56.0472 0.0000 -33.0730 -0.0001
# 3 20.4715 56.0472 90.1132 0.0002 -11.4178 0.0004
# 4 0.0000 0.0000 0.0002 23.8844 0.0001 -12.3037
# 5 -8.1683 -33.0730 -11.4178 0.0001 33.7053 0.0001
# 6 -0.0001 -0.0001 0.0004 -12.3037 0.0001 -3.5818
#
#
#
# Elastic Compliance Matrix: (Units=1/GPa)
#
#
# Indices 1 2 3 4 5 6 
#
# 1 0.021979 -0.003145 -0.002877 0.000000 0.001266 0.000000
# 2 -0.003145 0.012921 -0.006073 0.000000 0.009859 0.000000
# 3 -0.002877 -0.006073 0.015343 0.000000 -0.001459 0.000001
# 4 0.000000 0.000000 0.000000 0.015118 0.000000 -0.051930
# 5 0.001266 0.009859 -0.001459 0.000000 0.039156 0.000000
# 6 0.000000 0.000000 0.000001 -0.051930 0.000000 -0.100809
#
#
# Mechanical properties :
#
#
# Convention : Reuss Voigt Hill
#
# Bulk Modulus (GPa) = 38.38096 54.36068 46.37082
# Shear Modulus (GPa) = 136.68189 22.37556 79.52873
#
# Velocity S-wave (km/s) = 8.02766 3.24803 6.12344
# Velocity P-wave (km/s) = 10.19905 6.30052 8.47694
#
# Compressibility (1/GPa) = 0.02605458
#
# Stress axis : x y z
#
# Youngs Moduli (GPa) = 45.49738 77.39409 65.17677
#
# Poissons Ratio (x) = 0.24339 0.18750
# Poissons Ratio (y) = 0.14308 0.39580
# Poissons Ratio (z) = 0.13089 0.46999
#
# Static dielectric constant tensor:
#      x y z
#    x 1.877550 0.000000 0.077060 
#    y 0.000000 1.766790 0.000000 
#    z 0.077060 0.000000 1.837580 
# 
# From -- ./inp_files/291107.got.cif
#   From: 2010.05.17/outbox.cif.g08.bks.cpg/sg12_146_cif.got.tgz:291107.got - 2010.06.03 13:09:07.
