data_PCOD9222225
_publ_section_title
;
Structure prediction by ZEFSAII (Michael W. Deem and Ramdas Pophale) SiO2 
 PCOD9222225
Probable space group: C 2/M
;
_chemical_formula_sum "Si O2"
_cell_formula_units_Z 32
_cell_length_a 8.014492
_cell_length_b 19.696249
_cell_length_c 14.895124
_cell_angle_alpha 90.000000
_cell_angle_beta 37.077770
_cell_angle_gamma 90.000000
_cell_volume 1417.580874
_symmetry_space_group_name_H-M "C 2/M"
_symmetry_group_IT_number 12
_symmetry_cell_setting 'monoclinic'
loop_
_space_group_symop_operation_xyz
x,y,z
-x,y,-z
-x,-y,-z
x,-y,z
1/2+x,1/2+y,z
1/2-x,1/2+y,-z
1/2-x,1/2-y,-z
1/2+x,1/2-y,z
loop_
_atom_site_type_symbol
_atom_site_label
_atom_site_fract_x
_atom_site_fract_y
_atom_site_fract_z
Si Si1 0.742966 0.500000 0.823251
Si Si2 0.464200 0.355762 0.367367
Si Si3 0.038925 0.354695 0.704522
Si Si4 0.782830 0.771809 0.884152
Si Si5 0.166668 0.000000 0.651054
O O1 0.610560 0.500000 0.780917
O O2 0.925099 0.431369 0.753951
O O3 0.500000 0.500000 0.000000
O O4 0.199256 0.340518 0.542830
O O5 0.734897 0.343553 0.313099
O O6 0.482589 0.314304 0.266720
O O7 0.448549 0.434034 0.347825
O O8 0.800093 0.299592 0.823014
O O9 0.500000 0.814674 0.000000
O O10 0.750000 0.750000 0.000000
O O11 0.500000 0.000000 0.500000
#
# Coordination Sequence:
#
# PCOD9222225 Si02
#       5
#     4   8   8   8   4
#     4  12  27  43  71 103 137 178 225 288 343 403
#     4  11  25  45  72  98 137 184 226 280 341 408
#     4  11  24  47  69 100 138 185 229 272 342 415
#     4  12  26  45  68 102 143 179 229 284 340 400
#     4  12  25  45  69 105 134 170 228 287 340 407
#
# _framework density 22.573667
#
# number of rings (size 3 to 8) (size 9 to 14) (size 15 to 20)
#    0.000    0.500    5.000    2.250    7.000    2.000 
#    4.500    1.875    0.000    0.000    0.000    0.000 
#    0.000    0.000    0.000    0.000    0.000    0.000 
#
# Total GULP energy -89375.659242 kJ/mol
# GULP energy per Si atom -5585.978703 kJ/mol
# Density = 2.252229 g / cm^3
# Si number density = 22.573667 Si / 1000 Ang^3
#
#
#
# Elastic Constant Matrix: (Units=GPa)
#
#
# Indices 1 2 3 4 5 6 
#
# 1 51.2765 -3.5147 45.1759 0.0001 13.5375 0.0000
# 2 -3.5147 123.9088 54.4494 0.0001 7.6161 -0.0001
# 3 45.1759 54.4494 225.7576 -0.0002 35.4268 -0.0009
# 4 0.0001 0.0001 -0.0002 26.0577 0.0000 -1.5065
# 5 13.5375 7.6161 35.4268 0.0000 44.9971 0.0003
# 6 0.0000 -0.0001 -0.0009 -1.5065 0.0003 27.5991
#
#
#
# Elastic Compliance Matrix: (Units=1/GPa)
#
#
# Indices 1 2 3 4 5 6 
#
# 1 0.025415 0.003272 -0.005235 0.000000 -0.004079 0.000000
# 2 0.003272 0.009450 -0.002885 0.000000 -0.000313 0.000000
# 3 -0.005235 -0.002885 0.006674 0.000000 -0.003191 0.000000
# 4 0.000000 0.000000 0.000000 0.038498 0.000000 0.002101
# 5 -0.004079 -0.000313 -0.003191 0.000000 0.026016 0.000000
# 6 0.000000 0.000000 0.000000 0.002101 0.000000 0.036348
#
#
# Mechanical properties :
#
#
# Convention : Reuss Voigt Hill
#
# Bulk Modulus (GPa) = 31.40373 65.90710 48.65542
# Shear Modulus (GPa) = 30.72934 40.05293 35.39113
#
# Velocity S-wave (km/s) = 3.69357 4.21684 3.96385
# Velocity P-wave (km/s) = 5.66849 7.27797 6.52306
#
# Compressibility (1/GPa) = 0.03184335
#
# Stress axis : x y z
#
# Youngs Moduli (GPa) = 39.34638 105.81772 149.84342
#
# Poissons Ratio (x) = -0.34624 0.78442
# Poissons Ratio (y) = -0.12874 0.43229
# Poissons Ratio (z) = 0.20598 0.30528
#
# Static dielectric constant tensor:
#      x y z
#    x 2.001960 0.000000 -0.026860 
#    y 0.000000 1.802400 0.000000 
#    z -0.026860 0.000000 1.822470 
# 
# From -- ./inp_files/37588.got.cif
#   From: 2010.05.17/outbox.cif.g08.bks.cpg/sg12_19_cif.got.tgz:37588.got - 2010.06.03 13:09:07.
