data_PCOD9222488
_publ_section_title
;
Structure prediction by ZEFSAII (Michael W. Deem and Ramdas Pophale) SiO2 
 PCOD9222488
Probable space group: C 2/M
;
_chemical_formula_sum "Si O2"
_cell_formula_units_Z 48
_cell_length_a 13.811901
_cell_length_b 29.217344
_cell_length_c 11.545659
_cell_angle_alpha 90.000000
_cell_angle_beta 33.879866
_cell_angle_gamma 90.000000
_cell_volume 2597.296255
_symmetry_space_group_name_H-M "C 2/M"
_symmetry_group_IT_number 12
_symmetry_cell_setting 'monoclinic'
loop_
_space_group_symop_operation_xyz
x,y,z
-x,y,-z
-x,-y,-z
x,-y,z
1/2+x,1/2+y,z
1/2-x,1/2+y,-z
1/2-x,1/2-y,-z
1/2+x,1/2-y,z
loop_
_atom_site_type_symbol
_atom_site_label
_atom_site_fract_x
_atom_site_fract_y
_atom_site_fract_z
Si Si1 0.206035 0.303327 0.051269
Si Si2 0.200958 0.696394 0.542656
Si Si3 0.460137 0.450468 0.246603
Si Si4 0.995447 0.139060 0.368394
Si Si5 0.210304 0.849313 0.792322
Si Si6 0.762260 0.449316 0.753427
O O1 0.247738 0.317681 0.141141
O O2 0.002302 0.310060 0.228480
O O3 0.250000 0.250000 0.000000
O O4 0.334042 0.333431 0.844212
O O5 0.250000 0.750000 0.500000
O O6 0.328813 0.669796 0.501899
O O7 0.240141 0.675126 0.376677
O O8 0.463334 0.500000 0.303615
O O9 0.477928 0.407764 0.312726
O O10 0.295440 0.449106 0.324221
O O11 0.611601 0.449863 0.000093
O O12 0.000000 0.130268 0.500000
O O13 0.316031 0.896381 0.710108
O O14 0.000000 0.858631 0.000000
O O15 0.841610 0.500000 0.695218
#
# Coordination Sequence:
#
# PCOD9222488 Si02
#       6
#     8   8   8   8   8   8
#     4  12  25  42  62  90 123 163 208 256 309 369
#     4  12  25  42  62  90 123 163 208 256 309 369
#     4   9  16  33  61  93 121 156 201 251 307 367
#     4  12  25  42  62  90 125 166 215 255 302 363
#     4  12  19  38  66  91 126 161 199 251 316 366
#     4   9  14  27  60  94 121 153 196 251 310 366
#
# _framework density 18.480757000000001
#
# number of rings (size 3 to 8) (size 9 to 14) (size 15 to 20)
#    0.000    1.000    8.333    1.500    2.333    1.000 
#    0.000    0.000    0.000    5.000    0.000    2.333 
#    0.000    0.000    0.000    0.000    0.000    0.000 
#
# Total GULP energy -133712.091265 kJ/mol
# GULP energy per Si atom -5571.337136 kJ/mol
# Density = 1.843869 g / cm^3
# Si number density = 18.480757 Si / 1000 Ang^3
#
#
#
# Elastic Constant Matrix: (Units=GPa)
#
#
# Indices 1 2 3 4 5 6 
#
# 1 61.4477 23.4029 22.9732 0.0000 8.8275 0.0000
# 2 23.4029 161.4979 16.2960 0.0000 11.7498 0.0000
# 3 22.9732 16.2960 78.1321 0.0000 -16.3674 0.0000
# 4 0.0000 0.0000 0.0000 -72.0115 0.0000 29.7532
# 5 8.8275 11.7498 -16.3674 0.0000 41.0600 0.0000
# 6 0.0000 0.0000 0.0000 29.7532 0.0000 9.9507
#
#
#
# Elastic Compliance Matrix: (Units=1/GPa)
#
#
# Indices 1 2 3 4 5 6 
#
# 1 0.020569 -0.001775 -0.007090 0.000000 -0.006740 0.000000
# 2 -0.001775 0.006733 -0.001316 0.000000 -0.002070 0.000000
# 3 -0.007090 -0.001316 0.016973 0.000000 0.008667 0.000000
# 4 0.000000 0.000000 0.000000 -0.006212 0.000000 0.018575
# 5 -0.006740 -0.002070 0.008667 0.000000 0.029851 0.000000
# 6 0.000000 0.000000 0.000000 0.018575 0.000000 0.044956
#
#
# Mechanical properties :
#
#
# Convention : Reuss Voigt Hill
#
# Bulk Modulus (GPa) = 41.81654 47.38021 44.59837
# Shear Modulus (GPa) = 35.41032 11.69355 23.55193
#
# Velocity S-wave (km/s) = 4.38204 2.51816 3.57375
# Velocity P-wave (km/s) = 6.94832 5.84364 6.41979
#
# Compressibility (1/GPa) = 0.02391398
#
# Stress axis : x y z
#
# Youngs Moduli (GPa) = 48.61706 148.53137 58.91562
#
# Poissons Ratio (x) = 0.26363 0.41769
# Poissons Ratio (y) = 0.08629 0.07753
# Poissons Ratio (z) = 0.34468 0.19545
#
# Static dielectric constant tensor:
#      x y z
#    x 1.644570 0.000000 -0.071800 
#    y 0.000000 1.677150 0.000000 
#    z -0.071800 0.000000 1.687100 
# 
# From -- ./inp_files/149651.got.cif
#   From: 2010.05.17/outbox.cif.g08.bks.cpg/sg12_75_cif.got.tgz:149651.got - 2010.06.03 13:09:07.
