data_PCOD9222307
_publ_section_title
;
Structure prediction by ZEFSAII (Michael W. Deem and Ramdas Pophale) SiO2 
 PCOD9222307
Probable space group: C 2/M
;
_chemical_formula_sum "Si O2"
_cell_formula_units_Z 28
_cell_length_a 9.521439
_cell_length_b 15.055134
_cell_length_c 7.301032
_cell_angle_alpha 90.000000
_cell_angle_beta 94.034411
_cell_angle_gamma 90.000000
_cell_volume 1043.984231
_symmetry_space_group_name_H-M "C 2/M"
_symmetry_group_IT_number 12
_symmetry_cell_setting 'monoclinic'
loop_
_space_group_symop_operation_xyz
x,y,z
-x,y,-z
-x,-y,-z
x,-y,z
1/2+x,1/2+y,z
1/2-x,1/2+y,-z
1/2-x,1/2-y,-z
1/2+x,1/2-y,z
loop_
_atom_site_type_symbol
_atom_site_label
_atom_site_fract_x
_atom_site_fract_y
_atom_site_fract_z
Si Si1 0.330015 0.655673 0.511288
Si Si2 0.098021 0.595911 0.218031
Si Si3 0.701447 0.402492 0.078805
Si Si4 0.000000 0.746174 0.000000
O O1 0.500000 0.656049 0.500000
O O2 0.250000 0.750000 0.500000
O O3 0.240291 0.603248 0.350069
O O4 0.298337 0.612592 0.705640
O O5 0.032992 0.500000 0.263510
O O6 0.021832 0.691572 0.193610
O O7 0.150845 0.593679 0.012142
O O8 0.641033 0.500000 0.036222
O O9 0.626231 0.316181 0.989262
#
# Coordination Sequence:
#
# PCOD9222307 Si02
#       4
#     8   8   8   4
#     4  12  27  46  74 106 143 190 242 297 355 425
#     4  11  26  46  71 106 145 187 238 295 359 427
#     4  11  25  44  71 105 141 184 238 296 354 418
#     4  12  22  42  72 104 146 186 232 292 358 428
#
# _framework density 26.820326000000001
#
# number of rings (size 3 to 8) (size 9 to 14) (size 15 to 20)
#    0.000    0.571    2.857    4.286    4.000    4.571 
#    0.000    0.000    0.000    6.857    0.000    0.000 
#    0.000    0.000    0.000    0.000    0.000    0.000 
#
# Total GULP energy -78206.615461 kJ/mol
# GULP energy per Si atom -5586.186819 kJ/mol
# Density = 2.675928 g / cm^3
# Si number density = 26.820326 Si / 1000 Ang^3
#
#
#
# Elastic Constant Matrix: (Units=GPa)
#
#
# Indices 1 2 3 4 5 6 
#
# 1 92.7156 50.9496 48.7763 0.0000 11.1694 0.0000
# 2 50.9496 182.6964 32.8260 0.0000 36.5995 0.0000
# 3 48.7763 32.8260 100.3673 0.0000 8.2500 0.0000
# 4 0.0000 0.0000 0.0000 29.8024 0.0000 1.1641
# 5 11.1694 36.5995 8.2500 0.0000 55.8767 0.0000
# 6 0.0000 0.0000 0.0000 1.1641 0.0000 32.3628
#
#
#
# Elastic Compliance Matrix: (Units=1/GPa)
#
#
# Indices 1 2 3 4 5 6 
#
# 1 0.016158 -0.003271 -0.006776 0.000000 -0.000087 0.000000
# 2 -0.003271 0.007279 -0.000458 0.000000 -0.004046 0.000000
# 3 -0.006776 -0.000458 0.013433 0.000000 -0.000329 0.000000
# 4 0.000000 0.000000 0.000000 0.033602 0.000000 -0.001209
# 5 -0.000087 -0.004046 -0.000329 0.000000 0.020613 0.000000
# 6 0.000000 0.000000 0.000000 -0.001209 0.000000 0.030943
#
#
# Mechanical properties :
#
#
# Convention : Reuss Voigt Hill
#
# Bulk Modulus (GPa) = 63.05197 71.20924 67.13060
# Shear Modulus (GPa) = 33.70992 39.82355 36.76673
#
# Velocity S-wave (km/s) = 3.54910 3.85753 3.70652
# Velocity P-wave (km/s) = 6.35255 6.81533 6.58800
#
# Compressibility (1/GPa) = 0.01585993
#
# Stress axis : x y z
#
# Youngs Moduli (GPa) = 61.88748 137.38654 74.44321
#
# Poissons Ratio (x) = 0.44945 0.50439
# Poissons Ratio (y) = 0.20246 0.03411
# Poissons Ratio (z) = 0.41932 0.06295
#
# Static dielectric constant tensor:
#      x y z
#    x 2.242380 0.000000 0.128350 
#    y 0.000000 2.274530 0.000000 
#    z 0.128350 0.000000 2.138810 
# 
# From -- ./inp_files/45048.got.cif
#   From: 2010.05.17/outbox.cif.g08.bks.cpg/sg12_23_cif.got.tgz:45048.got - 2010.06.03 13:09:07.
