data_PCOD9222014
_publ_section_title
;
Structure prediction by ZEFSAII (Michael W. Deem and Ramdas Pophale) SiO2 
 PCOD9222014
Probable space group: C 2/M
;
_chemical_formula_sum "Si O2"
_cell_formula_units_Z 32
_cell_length_a 9.534649
_cell_length_b 14.203304
_cell_length_c 14.456366
_cell_angle_alpha 90.000000
_cell_angle_beta 129.870215
_cell_angle_gamma 90.000000
_cell_volume 1502.556338
_symmetry_space_group_name_H-M "C 2/M"
_symmetry_group_IT_number 12
_symmetry_cell_setting 'monoclinic'
loop_
_space_group_symop_operation_xyz
x,y,z
-x,y,-z
-x,-y,-z
x,-y,z
1/2+x,1/2+y,z
1/2-x,1/2+y,-z
1/2-x,1/2-y,-z
1/2+x,1/2-y,z
loop_
_atom_site_type_symbol
_atom_site_label
_atom_site_fract_x
_atom_site_fract_y
_atom_site_fract_z
Si Si1 0.346039 0.000000 0.857964
Si Si2 0.888810 0.195521 0.622656
Si Si3 0.279930 0.000000 0.392760
Si Si4 0.469876 0.500000 0.126931
Si Si5 0.692429 0.204748 0.224454
Si Si6 0.500000 0.334317 0.000000
O O1 0.154342 0.000000 0.833753
O O2 0.365996 0.903517 0.810515
O O3 0.500000 0.000000 0.000000
O O4 0.750000 0.250000 0.500000
O O5 0.806071 0.092149 0.598144
O O6 0.895796 0.242873 0.726465
O O7 0.091184 0.200846 0.668764
O O8 0.500000 0.000000 0.500000
O O9 0.184256 0.000000 0.249417
O O10 0.428717 0.592749 0.048391
O O11 0.641290 0.265034 0.111455
#
# Coordination Sequence:
#
# PCOD9222014 Si02
#       6
#     4   8   4   4   8   4
#     4  12  25  40  66 103 142 172 214 279 350 402
#     4  12  27  46  71  99 134 181 234 279 338 399
#     4  12  23  46  70  94 137 182 231 276 329 405
#     4  11  24  46  66 104 138 180 225 278 339 417
#     4  12  24  45  69 101 138 177 223 282 340 411
#     4  11  24  41  74  98 136 179 228 271 346 414
#
# _framework density 21.297039000000002
#
# number of rings (size 3 to 8) (size 9 to 14) (size 15 to 20)
#    0.000    0.250    6.250    2.250    3.500    3.000 
#    0.000    3.750    0.000    0.000    0.000    0.000 
#    0.000    0.000    0.000    0.000    0.000    0.000 
#
# Total GULP energy -89475.355497 kJ/mol
# GULP energy per Si atom -5592.209719 kJ/mol
# Density = 2.124857 g / cm^3
# Si number density = 21.297039 Si / 1000 Ang^3
#
#
#
# Elastic Constant Matrix: (Units=GPa)
#
#
# Indices 1 2 3 4 5 6 
#
# 1 26.9703 -2.0020 -16.6223 0.0000 5.7475 0.0000
# 2 -2.0020 175.7278 27.5066 0.0000 -9.6770 0.0000
# 3 -16.6223 27.5066 104.2540 0.0000 11.7600 0.0000
# 4 0.0000 0.0000 0.0000 46.0512 0.0000 5.6410
# 5 5.7475 -9.6770 11.7600 0.0000 36.4818 0.0000
# 6 0.0000 0.0000 0.0000 5.6410 0.0000 6.8748
#
#
#
# Elastic Compliance Matrix: (Units=1/GPa)
#
#
# Indices 1 2 3 4 5 6 
#
# 1 0.044434 -0.001398 0.008598 0.000000 -0.010143 0.000000
# 2 -0.001398 0.006148 -0.002131 0.000000 0.002538 0.000000
# 3 0.008598 -0.002131 0.012185 0.000000 -0.005848 0.000000
# 4 0.000000 0.000000 0.000000 0.024141 0.000000 -0.019809
# 5 -0.010143 0.002538 -0.005848 0.000000 0.031567 0.000000
# 6 0.000000 0.000000 0.000000 -0.019809 0.000000 0.161712
#
#
# Mechanical properties :
#
#
# Convention : Reuss Voigt Hill
#
# Bulk Modulus (GPa) = 13.71674 36.07964 24.89819
# Shear Modulus (GPa) = 16.98644 37.75289 27.36966
#
# Velocity S-wave (km/s) = 2.82724 4.21489 3.58877
# Velocity P-wave (km/s) = 4.13671 6.37691 5.37482
#
# Compressibility (1/GPa) = 0.07290361
#
# Stress axis : x y z
#
# Youngs Moduli (GPa) = 22.50506 162.65248 82.07000
#
# Poissons Ratio (x) = 0.22741 -0.70561
# Poissons Ratio (y) = 0.03146 0.17492
# Poissons Ratio (z) = -0.19349 0.34667
#
# Static dielectric constant tensor:
#      x y z
#    x 1.766670 0.000000 -0.004430 
#    y 0.000000 1.762970 0.000000 
#    z -0.004430 0.000000 1.769220 
# 
# From -- ./inp_files/204743.got.cif
#   From: 2010.05.17/outbox.cif.g08.bks.cpg/sg12_103_cif.got.tgz:204743.got - 2010.06.03 13:09:07.
