data_PCOD9222810
_publ_section_title
;
Structure prediction by ZEFSAII (Michael W. Deem and Ramdas Pophale) SiO2 
 PCOD9222810
Probable space group: C 2/M
;
_chemical_formula_sum "Si O2"
_cell_formula_units_Z 48
_cell_length_a 6.683534
_cell_length_b 14.467734
_cell_length_c 17.218903
_cell_angle_alpha 90.000000
_cell_angle_beta 98.813417
_cell_angle_gamma 90.000000
_cell_volume 1645.332677
_symmetry_space_group_name_H-M "C 2/M"
_symmetry_group_IT_number 12
_symmetry_cell_setting 'monoclinic'
loop_
_space_group_symop_operation_xyz
x,y,z
-x,y,-z
-x,-y,-z
x,-y,z
1/2+x,1/2+y,z
1/2-x,1/2+y,-z
1/2-x,1/2-y,-z
1/2+x,1/2-y,z
loop_
_atom_site_type_symbol
_atom_site_label
_atom_site_fract_x
_atom_site_fract_y
_atom_site_fract_z
Si Si1 0.604847 0.613137 0.850062
Si Si2 0.454798 0.349432 0.678807
Si Si3 0.773363 0.861309 0.514992
Si Si4 0.094604 0.632071 0.349898
Si Si5 0.769609 0.609849 0.018718
Si Si6 0.456527 0.893603 0.178999
O O1 0.591154 0.500000 0.849720
O O2 0.453988 0.641920 0.771743
O O3 0.823570 0.645879 0.829607
O O4 0.622664 0.644616 0.941083
O O5 0.288217 0.386396 0.607269
O O6 0.675679 0.386881 0.667311
O O7 0.448747 0.241523 0.656993
O O8 0.750000 0.750000 0.500000
O O9 0.617636 0.897389 0.440810
O O10 0.000000 0.884695 0.500000
O O11 0.950971 0.601042 0.271364
O O12 0.725293 0.500000 0.018640
O O13 0.791107 0.645236 0.108799
O O14 0.000000 0.619908 0.000000
O O15 0.468551 0.000000 0.154922
#
# Coordination Sequence:
#
# PCOD9222810 Si02
#       6
#     8   8   8   8   8   8
#     4   8  13  22  37  56  76  98 125 156 187 219
#     4   9  16  26  40  57  77 100 126 155 186 221
#     4   8  14  24  37  53  73  99 127 150 178 220
#     4   9  16  26  40  57  77 100 126 155 186 221
#     4   7  10  18  33  52  73  97 124 151 180 218
#     4   8  13  22  37  56  76  98 125 156 187 219
#
# _framework density 29.17343
#
# number of rings (size 3 to 8) (size 9 to 14) (size 15 to 20)
#    0.000    3.833    0.000    2.000    0.000    0.000 
#    0.000    1.667    0.000    6.000    0.000    0.000 
#    0.000   17.333    0.000    0.000    0.000    0.000 
#
# Total GULP energy -133956.969903 kJ/mol
# GULP energy per Si atom -5581.540413 kJ/mol
# Density = 2.910703 g / cm^3
# Si number density = 29.173430 Si / 1000 Ang^3
#
#
#
# Elastic Constant Matrix: (Units=GPa)
#
#
# Indices 1 2 3 4 5 6 
#
# 1 119.4573 -7.7518 118.1498 0.0000 40.7670 0.0000
# 2 -7.7518 99.6078 24.9471 0.0000 6.7225 0.0000
# 3 118.1498 24.9471 485.8170 0.0000 29.9231 0.0000
# 4 0.0000 0.0000 0.0000 43.4782 0.0000 -7.1989
# 5 40.7670 6.7225 29.9231 0.0000 95.9174 0.0000
# 6 0.0000 0.0000 0.0000 -7.1989 0.0000 0.7234
#
#
#
# Elastic Compliance Matrix: (Units=1/GPa)
#
#
# Indices 1 2 3 4 5 6 
#
# 1 0.013106 0.002094 -0.003001 0.000000 -0.004781 0.000000
# 2 0.002094 0.010534 -0.000969 0.000000 -0.001326 0.000000
# 3 -0.003001 -0.000969 0.002809 0.000000 0.000467 0.000000
# 4 0.000000 0.000000 0.000000 -0.035508 0.000000 -0.353363
# 5 -0.004781 -0.001326 0.000467 0.000000 0.012405 0.000000
# 6 0.000000 0.000000 0.000000 -0.353363 0.000000 -2.134145
#
#
# Mechanical properties :
#
#
# Convention : Reuss Voigt Hill
#
# Bulk Modulus (GPa) = 44.05262 108.39691 76.22477
# Shear Modulus (GPa) = -2.35907 65.99293 31.81693
#
# Velocity S-wave (km/s) = -0.90022 4.76130 3.30603
# Velocity P-wave (km/s) = 3.74867 8.21361 6.38420
#
# Compressibility (1/GPa) = 0.02270013
#
# Stress axis : x y z
#
# Youngs Moduli (GPa) = 76.29842 94.92685 355.98743
#
# Poissons Ratio (x) = -0.19879 1.06814
# Poissons Ratio (y) = -0.15978 0.34479
# Poissons Ratio (z) = 0.22893 0.09194
#
# Static dielectric constant tensor:
#      x y z
#    x 2.356420 0.000000 -0.082020 
#    y 0.000000 2.263110 0.000000 
#    z -0.082020 0.000000 2.286170 
# 
# From -- ./inp_files/197747.got.cif
#   From: 2010.05.17/outbox.cif.g08.bks.cpg/sg12_99_cif.got.tgz:197747.got - 2010.06.03 13:09:07.
