data_PCOD9222829
_publ_section_title
;
Structure prediction by ZEFSAII (Michael W. Deem and Ramdas Pophale) SiO2 
 PCOD9222829
Probable space group: C 2/M
;
_chemical_formula_sum "Si O2"
_cell_formula_units_Z 56
_cell_length_a 15.628359
_cell_length_b 7.170186
_cell_length_c 17.599491
_cell_angle_alpha 90.000000
_cell_angle_beta 73.354675
_cell_angle_gamma 90.000000
_cell_volume 1889.526817
_symmetry_space_group_name_H-M "C 2/M"
_symmetry_group_IT_number 12
_symmetry_cell_setting 'monoclinic'
loop_
_space_group_symop_operation_xyz
x,y,z
-x,y,-z
-x,-y,-z
x,-y,z
1/2+x,1/2+y,z
1/2-x,1/2+y,-z
1/2-x,1/2-y,-z
1/2+x,1/2-y,z
loop_
_atom_site_type_symbol
_atom_site_label
_atom_site_fract_x
_atom_site_fract_y
_atom_site_fract_z
Si Si1 0.229860 0.273343 0.621271
Si Si2 0.223093 0.774842 0.231510
Si Si3 0.477299 0.726483 0.665189
Si Si4 0.397283 0.287150 0.487927
Si Si5 0.039171 0.224789 0.806959
Si Si6 0.164524 0.775324 0.087959
Si Si7 0.101371 0.225178 0.947468
O O1 0.229615 0.500000 0.619980
O O2 0.217780 0.212110 0.711703
O O3 0.326855 0.208451 0.565611
O O4 0.161674 0.207218 0.575112
O O5 0.224400 0.706632 0.143803
O O6 0.123128 0.726567 0.286503
O O7 0.226007 0.000000 0.228116
O O8 0.481123 0.500000 0.663069
O O9 0.511834 0.789028 0.573741
O O10 0.538093 0.792694 0.720576
O O11 0.410551 0.500000 0.509104
O O12 0.103144 0.291678 0.859367
O O13 0.937580 0.266566 0.860206
O O14 0.044972 0.000000 0.804567
O O15 0.169364 0.000000 0.085552
O O16 0.165239 0.708024 0.000039
O O17 0.105190 0.000000 0.946084
O O18 0.000000 0.270755 0.000000
#
# Coordination Sequence:
#
# PCOD9222829 Si02
#       7
#     8   8   8   8   8   8   8
#     4   9  17  28  41  56  74  97 124 152 181 216
#     4   8  13  21  34  53  74  93 117 152 188 216
#     4   8  13  21  34  53  74  93 117 152 188 216
#     4   9  17  28  41  56  74  97 124 152 181 216
#     4   7   9  13  22  39  64  90 113 139 173 211
#     4   7   9  13  22  39  64  90 113 139 173 211
#     4   7   8  10  18  34  59  90 115 133 164 211
#
# _framework density 29.637049999999999
#
# number of rings (size 3 to 8) (size 9 to 14) (size 15 to 20)
#    0.000    4.143    0.000    3.429    0.000    0.571 
#    0.000    2.857    0.000    0.857    0.000    5.000 
#    0.000    0.000    0.000    0.000    0.000   16.571 
#
# Total GULP energy -156677.537022 kJ/mol
# GULP energy per Si atom -5595.626322 kJ/mol
# Density = 2.956959 g / cm^3
# Si number density = 29.637050 Si / 1000 Ang^3
#
#
#
# Elastic Constant Matrix: (Units=GPa)
#
#
# Indices 1 2 3 4 5 6 
#
# 1 94.2565 7.1355 9.1453 0.0000 26.7269 0.0000
# 2 7.1355 168.2244 7.3773 0.0000 -0.6770 0.0000
# 3 9.1453 7.3773 280.8637 0.0000 16.5896 0.0000
# 4 0.0000 0.0000 0.0000 -3.6654 0.0000 11.1140
# 5 26.7269 -0.6770 16.5896 0.0000 79.6110 0.0000
# 6 0.0000 0.0000 0.0000 11.1140 0.0000 -5.2877
#
#
#
# Elastic Compliance Matrix: (Units=1/GPa)
#
#
# Indices 1 2 3 4 5 6 
#
# 1 0.011775 -0.000509 -0.000138 0.000000 -0.003929 0.000000
# 2 -0.000509 0.005974 -0.000155 0.000000 0.000254 0.000000
# 3 -0.000138 -0.000155 0.003611 0.000000 -0.000707 0.000000
# 4 0.000000 0.000000 0.000000 0.050774 0.000000 0.106722
# 5 -0.003929 0.000254 -0.000707 0.000000 0.014030 0.000000
# 6 0.000000 0.000000 0.000000 0.106722 0.000000 0.035197
#
#
# Mechanical properties :
#
#
# Convention : Reuss Voigt Hill
#
# Bulk Modulus (GPa) = 50.62044 65.62898 58.12471
# Shear Modulus (GPa) = 38.59497 48.77735 43.68616
#
# Velocity S-wave (km/s) = 3.61259 4.06128 3.84349
# Velocity P-wave (km/s) = 5.87523 6.64712 6.27306
#
# Compressibility (1/GPa) = 0.01975487
#
# Stress axis : x y z
#
# Youngs Moduli (GPa) = 84.92349 167.39547 276.94659
#
# Poissons Ratio (x) = 0.08524 0.03821
# Poissons Ratio (y) = 0.04325 0.04302
# Poissons Ratio (z) = 0.01172 0.02600
#
# Static dielectric constant tensor:
#      x y z
#    x 2.451130 0.000000 -0.000360 
#    y 0.000000 2.013460 0.000000 
#    z -0.000360 0.000000 2.273860 
# 
# From -- ./inp_files/276088.got.cif
#   From: 2010.05.17/outbox.cif.g08.bks.cpg/sg12_139_cif.got.tgz:276088.got - 2010.06.03 13:09:07.
