data_PCOD9222361
_publ_section_title
;
Structure prediction by ZEFSAII (Michael W. Deem and Ramdas Pophale) SiO2 
 PCOD9222361
Probable space group: C 2/M
;
_chemical_formula_sum "Si O2"
_cell_formula_units_Z 44
_cell_length_a 14.118148
_cell_length_b 17.587335
_cell_length_c 7.292525
_cell_angle_alpha 90.000000
_cell_angle_beta 92.740142
_cell_angle_gamma 90.000000
_cell_volume 1808.667972
_symmetry_space_group_name_H-M "C 2/M"
_symmetry_group_IT_number 12
_symmetry_cell_setting 'monoclinic'
loop_
_space_group_symop_operation_xyz
x,y,z
-x,y,-z
-x,-y,-z
x,-y,z
1/2+x,1/2+y,z
1/2-x,1/2+y,-z
1/2-x,1/2-y,-z
1/2+x,1/2-y,z
loop_
_atom_site_type_symbol
_atom_site_label
_atom_site_fract_x
_atom_site_fract_y
_atom_site_fract_z
Si Si1 0.742440 0.363512 0.313965
Si Si2 0.769248 0.918110 0.273755
Si Si3 0.132424 0.285080 0.179353
Si Si4 0.143977 0.000000 0.144778
Si Si5 0.022338 0.896592 0.710058
Si Si6 0.068190 0.720572 0.755571
O O1 0.720356 0.401242 0.508354
O O2 0.673514 0.291579 0.272129
O O3 0.725747 0.431319 0.168486
O O4 0.847444 0.325896 0.330811
O O5 0.713485 0.847506 0.191327
O O6 0.875818 0.924637 0.208395
O O7 0.722462 0.000000 0.243533
O O8 0.036046 0.316383 0.262376
O O9 0.104205 0.270765 0.967542
O O10 0.061348 0.066795 0.180221
O O11 0.042431 0.806624 0.699459
O O12 0.000000 0.920453 0.500000
#
# Coordination Sequence:
#
# PCOD9222361 Si02
#       6
#     8   8   8   4   8   8
#     4  12  23  42  70 103 137 177 226 288 338 408
#     4  12  24  42  69 102 134 175 233 283 344 404
#     4  11  25  47  66  97 135 190 227 278 343 415
#     4  12  23  42  67 112 144 164 227 290 353 388
#     4  12  21  39  72 104 137 177 218 286 349 402
#     4  11  26  44  68  96 139 183 232 274 340 413
#
# _framework density 24.327294999999999
#
# number of rings (size 3 to 8) (size 9 to 14) (size 15 to 20)
#    0.000    0.364    7.273    1.364    2.545    0.000 
#    3.273    3.636    0.000    0.000    0.000    0.000 
#    0.000    0.000    0.000    0.000    0.000    0.000 
#
# Total GULP energy -122690.499410 kJ/mol
# GULP energy per Si atom -5576.840882 kJ/mol
# Density = 2.427193 g / cm^3
# Si number density = 24.327295 Si / 1000 Ang^3
#
#
#
# Elastic Constant Matrix: (Units=GPa)
#
#
# Indices 1 2 3 4 5 6 
#
# 1 160.0364 65.6643 3.5716 0.0000 4.5065 0.0000
# 2 65.6643 186.8344 10.3485 0.0000 14.6453 0.0000
# 3 3.5716 10.3485 72.4772 0.0000 12.0493 0.0000
# 4 0.0000 0.0000 0.0000 147.1838 0.0000 -11.4928
# 5 4.5065 14.6453 12.0493 0.0000 40.4716 0.0000
# 6 0.0000 0.0000 0.0000 -11.4928 0.0000 43.3848
#
#
#
# Elastic Compliance Matrix: (Units=1/GPa)
#
#
# Indices 1 2 3 4 5 6 
#
# 1 0.007302 -0.002575 -0.000013 0.000000 0.000123 0.000000
# 2 -0.002575 0.006433 -0.000476 0.000000 -0.001899 0.000000
# 3 -0.000013 -0.000476 0.014558 0.000000 -0.004161 0.000000
# 4 0.000000 0.000000 0.000000 0.006938 0.000000 0.001838
# 5 0.000123 -0.001899 -0.004161 0.000000 0.026621 0.000000
# 6 0.000000 0.000000 0.000000 0.001838 0.000000 0.023536
#
#
# Mechanical properties :
#
#
# Convention : Reuss Voigt Hill
#
# Bulk Modulus (GPa) = 45.11565 64.27964 54.69765
# Shear Modulus (GPa) = 50.55449 68.85896 59.70672
#
# Velocity S-wave (km/s) = 4.56356 5.32604 4.95947
# Velocity P-wave (km/s) = 6.80835 8.01888 7.43828
#
# Compressibility (1/GPa) = 0.02216526
#
# Stress axis : x y z
#
# Youngs Moduli (GPa) = 136.94757 155.45638 68.69223
#
# Poissons Ratio (x) = 0.40034 0.00086
# Poissons Ratio (y) = 0.35268 0.03268
# Poissons Ratio (z) = 0.00171 0.07397
#
# Static dielectric constant tensor:
#      x y z
#    x 1.979650 0.000000 -0.051470 
#    y 0.000000 1.922680 0.000000 
#    z -0.051470 0.000000 2.105720 
# 
# From -- ./inp_files/61217.got.cif
#   From: 2010.05.17/outbox.cif.g08.bks.cpg/sg12_31_cif.got.tgz:61217.got - 2010.06.03 13:09:07.
