data_PCOD9222660
_publ_section_title
;
Structure prediction by ZEFSAII (Michael W. Deem and Ramdas Pophale) SiO2 
 PCOD9222660
Probable space group: C 2/M
;
_chemical_formula_sum "Si O2"
_cell_formula_units_Z 36
_cell_length_a 18.435598
_cell_length_b 19.871713
_cell_length_c 5.079989
_cell_angle_alpha 90.000000
_cell_angle_beta 113.801193
_cell_angle_gamma 90.000000
_cell_volume 1702.759334
_symmetry_space_group_name_H-M "C 2/M"
_symmetry_group_IT_number 12
_symmetry_cell_setting 'monoclinic'
loop_
_space_group_symop_operation_xyz
x,y,z
-x,y,-z
-x,-y,-z
x,-y,z
1/2+x,1/2+y,z
1/2-x,1/2+y,-z
1/2-x,1/2-y,-z
1/2+x,1/2-y,z
loop_
_atom_site_type_symbol
_atom_site_label
_atom_site_fract_x
_atom_site_fract_y
_atom_site_fract_z
Si Si1 0.840418 0.275945 0.595229
Si Si2 0.166961 0.920738 0.869700
Si Si3 0.915040 0.865341 0.738455
Si Si4 0.160438 0.365839 0.922192
Si Si5 0.056876 0.500000 0.830644
O O1 0.750000 0.250000 0.500000
O O2 0.894902 0.211097 0.630402
O O3 0.845845 0.330287 0.370134
O O4 0.865133 0.311671 0.900218
O O5 0.101129 0.907578 0.549320
O O6 0.180108 0.000000 0.919043
O O7 0.143950 0.889738 0.117142
O O8 0.247735 0.885044 0.896382
O O9 0.000000 0.871966 0.000000
O O10 0.110621 0.433472 0.888508
O O11 0.000000 0.500000 0.500000
O O12 0.000000 0.500000 0.000000
#
# Coordination Sequence:
#
# PCOD9222660 Si02
#       5
#     8   8   8   8   4
#     4  12  23  42  73  99 134 178 234 283 339 412
#     4  12  24  44  71  98 131 182 231 275 337 413
#     4  12  27  43  65 102 140 174 225 289 343 398
#     4  12  24  44  73 101 132 182 234 278 340 417
#     4  12  28  48  70 106 147 178 229 296 350 408
#
# _framework density 21.142156
#
# number of rings (size 3 to 8) (size 9 to 14) (size 15 to 20)
#    0.000    0.000    5.556    4.667    0.000    5.333 
#    0.000    0.000    0.000    0.000    0.000    0.000 
#    0.000    0.000    0.000    0.000    0.000    0.000 
#
# Total GULP energy -100787.257600 kJ/mol
# GULP energy per Si atom -5599.292089 kJ/mol
# Density = 2.109404 g / cm^3
# Si number density = 21.142156 Si / 1000 Ang^3
#
#
#
# Elastic Constant Matrix: (Units=GPa)
#
#
# Indices 1 2 3 4 5 6 
#
# 1 47.3555 17.4410 21.5742 0.0000 -17.5997 0.0000
# 2 17.4410 76.2210 -18.1084 0.0000 -18.0188 0.0000
# 3 21.5742 -18.1084 66.1976 0.0000 -18.9074 0.0000
# 4 0.0000 0.0000 0.0000 -21.2001 0.0000 -37.7700
# 5 -17.5997 -18.0188 -18.9074 0.0000 32.6027 0.0000
# 6 0.0000 0.0000 0.0000 -37.7700 0.0000 11.9481
#
#
#
# Elastic Compliance Matrix: (Units=1/GPa)
#
#
# Indices 1 2 3 4 5 6 
#
# 1 0.031321 -0.008267 -0.010720 0.000000 0.006122 0.000000
# 2 -0.008267 0.021601 0.012870 0.000000 0.014939 0.000000
# 3 -0.010720 0.012870 0.026966 0.000000 0.016964 0.000000
# 4 0.000000 0.000000 0.000000 -0.007112 0.000000 -0.022484
# 5 0.006122 0.014939 0.016964 0.000000 0.052072 0.000000
# 6 0.000000 0.000000 0.000000 -0.022484 0.000000 0.012620
#
#
# Mechanical properties :
#
#
# Convention : Reuss Voigt Hill
#
# Bulk Modulus (GPa) = 14.78123 25.73198 20.25661
# Shear Modulus (GPa) = 29.02727 15.92795 22.47761
#
# Velocity S-wave (km/s) = 3.70936 2.74774 3.26416
# Velocity P-wave (km/s) = 5.03511 4.71849 4.87937
#
# Compressibility (1/GPa) = 0.06765337
#
# Stress axis : x y z
#
# Youngs Moduli (GPa) = 31.92785 46.29494 37.08365
#
# Poissons Ratio (x) = 0.38270 0.39755
# Poissons Ratio (y) = 0.26393 -0.47727
# Poissons Ratio (z) = 0.34228 -0.59581
#
# Static dielectric constant tensor:
#      x y z
#    x 1.800420 0.000000 0.012290 
#    y 0.000000 1.597950 0.000000 
#    z 0.012290 0.000000 1.724520 
# 
# From -- ./inp_files/15353.got.cif
#   From: 2010.05.17/outbox.cif.g08.bks.cpg/sg12_8_cif.got.tgz:15353.got - 2010.06.03 13:09:07.
