data_PCOD9222245
_publ_section_title
;
Structure prediction by ZEFSAII (Michael W. Deem and Ramdas Pophale) SiO2 
 PCOD9222245
Probable space group: C 2/M
;
_chemical_formula_sum "Si O2"
_cell_formula_units_Z 48
_cell_length_a 21.577378
_cell_length_b 17.223259
_cell_length_c 18.263504
_cell_angle_alpha 90.000000
_cell_angle_beta 161.399198
_cell_angle_gamma 90.000000
_cell_volume 2164.967851
_symmetry_space_group_name_H-M "C 2/M"
_symmetry_group_IT_number 12
_symmetry_cell_setting 'monoclinic'
loop_
_space_group_symop_operation_xyz
x,y,z
-x,y,-z
-x,-y,-z
x,-y,z
1/2+x,1/2+y,z
1/2-x,1/2+y,-z
1/2-x,1/2-y,-z
1/2+x,1/2-y,z
loop_
_atom_site_type_symbol
_atom_site_label
_atom_site_fract_x
_atom_site_fract_y
_atom_site_fract_z
Si Si1 0.941385 0.329357 0.610359
Si Si2 0.259515 0.500000 0.370139
Si Si3 0.668442 0.856242 0.003259
Si Si4 0.713062 0.088544 0.699136
Si Si5 0.642990 0.685670 0.011268
Si Si6 0.428990 0.655496 0.631535
Si Si7 0.703679 0.000000 0.145117
O O1 0.811753 0.378416 0.409990
O O2 0.858213 0.242610 0.532033
O O3 0.148333 0.323014 0.797663
O O4 0.997518 0.367482 0.751633
O O5 0.324433 0.579190 0.483295
O O6 0.318012 0.500000 0.349713
O O7 0.028974 0.500000 0.106472
O O8 0.617618 0.777963 0.989457
O O9 0.859424 0.843566 0.169035
O O10 0.729536 0.923907 0.125622
O O11 0.500000 0.089254 0.500000
O O12 0.841806 0.142246 0.895411
O O13 0.778872 0.000000 0.772496
O O14 0.477696 0.652816 0.772201
#
# Coordination Sequence:
#
# PCOD9222245 Si02
#       7
#     8   4   8   8   8   8   4
#     4   8  16  30  49  80 112 135 166 212 261 311
#     4  11  25  39  51  74 107 140 180 223 265 313
#     4   9  18  34  56  79 104 135 175 219 260 306
#     4   9  16  24  42  75 114 141 155 194 264 318
#     4   8  16  30  49  80 112 135 166 212 261 311
#     4   9  18  34  56  79 104 135 175 219 260 306
#     4  11  25  39  51  74 107 140 180 223 265 313
#
# _framework density 22.171230000000001
#
# number of rings (size 3 to 8) (size 9 to 14) (size 15 to 20)
#    0.000    3.000    0.000    2.500    4.667    1.333 
#    0.000    3.333    0.000    0.000    0.000    1.167 
#    0.000    0.000    0.000    0.000    0.000    0.000 
#
# Total GULP energy -133977.924091 kJ/mol
# GULP energy per Si atom -5582.413504 kJ/mol
# Density = 2.212077 g / cm^3
# Si number density = 22.171230 Si / 1000 Ang^3
#
#
#
# Elastic Constant Matrix: (Units=GPa)
#
#
# Indices 1 2 3 4 5 6 
#
# 1 65.9754 51.6371 40.8142 0.0023 -28.4152 0.0052
# 2 51.6371 130.5177 69.1286 -0.0125 -57.4069 -0.0010
# 3 40.8142 69.1286 95.3166 -0.0109 -31.8439 0.0019
# 4 0.0023 -0.0125 -0.0109 27.4623 0.0093 -10.9006
# 5 -28.4152 -57.4069 -31.8439 0.0093 55.4304 0.0104
# 6 0.0052 -0.0010 0.0019 -10.9006 0.0104 19.5582
#
#
#
# Elastic Compliance Matrix: (Units=1/GPa)
#
#
# Indices 1 2 3 4 5 6 
#
# 1 0.024096 -0.004773 -0.005422 -0.000014 0.004295 -0.000016
# 2 -0.004773 0.019430 -0.007602 0.000000 0.013309 -0.000004
# 3 -0.005422 -0.007602 0.018275 0.000005 -0.000154 0.000002
# 4 -0.000014 0.000000 0.000005 0.046758 -0.000017 0.026060
# 5 0.004295 0.013309 -0.000154 -0.000017 0.033938 -0.000028
# 6 -0.000016 -0.000004 0.000002 0.026060 -0.000028 0.065654
#
#
# Mechanical properties :
#
#
# Convention : Reuss Voigt Hill
#
# Bulk Modulus (GPa) = 38.15440 68.32997 53.24218
# Shear Modulus (GPa) = 19.80357 29.17217 24.48787
#
# Velocity S-wave (km/s) = 2.99190 3.63129 3.32699
# Velocity P-wave (km/s) = 5.40200 6.96188 6.23095
#
# Compressibility (1/GPa) = 0.02620930
#
# Stress axis : x y z
#
# Youngs Moduli (GPa) = 41.49993 51.46596 54.72001
#
# Poissons Ratio (x) = 0.24563 0.29668
# Poissons Ratio (y) = 0.19806 0.41597
# Poissons Ratio (z) = 0.22500 0.39123
#
# Static dielectric constant tensor:
#      x y z
#    x 1.921520 -0.000020 0.064350 
#    y -0.000020 1.803210 0.000000 
#    z 0.064350 0.000000 1.823690 
# 
# From -- ./inp_files/290588.got.cif
#   From: 2010.05.17/outbox.cif.g08.bks.cpg/sg12_146_cif.got.tgz:290588.got - 2010.06.03 13:09:07.
