data_PCOD9222833
_publ_section_title
;
Structure prediction by ZEFSAII (Michael W. Deem and Ramdas Pophale) SiO2 
 PCOD9222833
Probable space group: C 2/M
;
_chemical_formula_sum "Si O2"
_cell_formula_units_Z 64
_cell_length_a 25.428932
_cell_length_b 7.296301
_cell_length_c 17.107004
_cell_angle_alpha 90.000000
_cell_angle_beta 68.173004
_cell_angle_gamma 90.000000
_cell_volume 2946.444042
_symmetry_space_group_name_H-M "C 2/M"
_symmetry_group_IT_number 12
_symmetry_cell_setting 'monoclinic'
loop_
_space_group_symop_operation_xyz
x,y,z
-x,y,-z
-x,-y,-z
x,-y,z
1/2+x,1/2+y,z
1/2-x,1/2+y,-z
1/2-x,1/2-y,-z
1/2+x,1/2-y,z
loop_
_atom_site_type_symbol
_atom_site_label
_atom_site_fract_x
_atom_site_fract_y
_atom_site_fract_z
Si Si1 0.900892 0.206964 0.234558
Si Si2 0.542755 0.277144 0.410052
Si Si3 0.819019 0.777455 0.040730
Si Si4 0.359905 0.723390 0.859883
Si Si5 0.984604 0.777078 0.753072
Si Si6 0.060665 0.793164 0.965740
Si Si7 0.711831 0.284414 0.772002
Si Si8 0.163688 0.780308 0.303326
O O1 0.954654 0.289667 0.249806
O O2 0.922509 0.194211 0.133671
O O3 0.838555 0.291112 0.254846
O O4 0.893181 0.000000 0.271233
O O5 0.500000 0.212149 0.500000
O O6 0.542247 0.500000 0.413104
O O7 0.523666 0.227942 0.333016
O O8 0.608279 0.218036 0.380810
O O9 0.884238 0.721502 0.022261
O O10 0.788034 0.713328 0.137495
O O11 0.814347 0.000000 0.042664
O O12 0.815777 0.717123 0.951894
O O13 0.359484 0.500000 0.860988
O O14 0.426575 0.777634 0.829984
O O15 0.342076 0.784586 0.783337
O O16 0.985833 0.000000 0.758182
O O17 0.052943 0.000000 0.003201
O O18 0.000000 0.700925 0.000000
O O19 0.698244 0.500000 0.786976
O O20 0.774002 0.267092 0.702648
O O21 0.160631 0.000000 0.302109
#
# Coordination Sequence:
#
# PCOD9222833 Si02
#       8
#     8   8   8   8   8   8   8   8
#     4   8  13  20  31  50  75 101 128 156 189 230
#     4   8  14  25  42  63  81  96 121 160 202 239
#     4   8  13  20  30  47  74 105 132 159 191 223
#     4   8  13  21  34  54  78 101 129 167 204 231
#     4   8  12  19  34  56  80 101 122 159 207 238
#     4   8  11  14  23  41  67  97 124 153 192 230
#     4   9  17  27  38  55  81 111 137 158 184 223
#     4   9  17  28  42  59  78 102 131 161 194 233
#
# _framework density 21.721097
#
# number of rings (size 3 to 8) (size 9 to 14) (size 15 to 20)
#    0.000    3.750    0.000    3.750    0.000    3.500 
#    0.000    0.000    0.000    1.125    0.000    3.500 
#    0.000   17.000    0.000    0.000    0.000    0.000 
#
# Total GULP energy -178178.871463 kJ/mol
# GULP energy per Si atom -5568.089733 kJ/mol
# Density = 2.167166 g / cm^3
# Si number density = 21.721097 Si / 1000 Ang^3
#
#
#
# Elastic Constant Matrix: (Units=GPa)
#
#
# Indices 1 2 3 4 5 6 
#
# 1 127.6643 -0.2370 49.7216 0.0000 -40.0845 0.0000
# 2 -0.2370 87.5251 0.9138 0.0000 -1.0830 0.0000
# 3 49.7216 0.9138 99.3060 0.0000 -28.2787 0.0000
# 4 0.0000 0.0000 0.0000 11.0157 0.0000 9.3941
# 5 -40.0845 -1.0830 -28.2787 0.0000 30.1523 0.0000
# 6 0.0000 0.0000 0.0000 9.3941 0.0000 0.4100
#
#
#
# Elastic Compliance Matrix: (Units=1/GPa)
#
#
# Indices 1 2 3 4 5 6 
#
# 1 0.013827 0.000262 -0.002304 0.000000 0.016230 0.000000
# 2 0.000262 0.011435 -0.000028 0.000000 0.000733 0.000000
# 3 -0.002304 -0.000028 0.014123 0.000000 0.010182 0.000000
# 4 0.000000 0.000000 0.000000 -0.004896 0.000000 0.112191
# 5 0.016230 0.000733 0.010182 0.000000 0.064317 0.000000
# 6 0.000000 0.000000 0.000000 0.112191 0.000000 -0.131558
#
#
# Mechanical properties :
#
#
# Convention : Reuss Voigt Hill
#
# Bulk Modulus (GPa) = 28.37104 46.14358 37.25731
# Shear Modulus (GPa) = -296.47089 25.92205 -135.27442
#
# Velocity S-wave (km/s) = -11.69556 3.45832 -7.90020
# Velocity P-wave (km/s) = 13.01121 6.10216 8.12574
#
# Compressibility (1/GPa) = 0.03524721
#
# Stress axis : x y z
#
# Youngs Moduli (GPa) = 72.32371 87.44796 70.80653
#
# Poissons Ratio (x) = -0.02294 0.16311
# Poissons Ratio (y) = -0.01897 0.00196
# Poissons Ratio (z) = 0.16660 0.00242
#
# Static dielectric constant tensor:
#      x y z
#    x 1.861580 0.000000 -0.017430 
#    y 0.000000 1.920780 0.000000 
#    z -0.017430 0.000000 1.767380 
# 
# From -- ./inp_files/288838.got.cif
#   From: 2010.05.17/outbox.cif.g08.bks.cpg/sg12_145_cif.got.tgz:288838.got - 2010.06.03 13:09:07.
