data_PCOD9222459
_publ_section_title
;
Structure prediction by ZEFSAII (Michael W. Deem and Ramdas Pophale) SiO2 
 PCOD9222459
Probable space group: C 2/M
;
_chemical_formula_sum "Si O2"
_cell_formula_units_Z 40
_cell_length_a 8.810359
_cell_length_b 26.867520
_cell_length_c 13.705930
_cell_angle_alpha 90.000000
_cell_angle_beta 32.041733
_cell_angle_gamma 90.000000
_cell_volume 1721.255053
_symmetry_space_group_name_H-M "C 2/M"
_symmetry_group_IT_number 12
_symmetry_cell_setting 'monoclinic'
loop_
_space_group_symop_operation_xyz
x,y,z
-x,y,-z
-x,-y,-z
x,-y,z
1/2+x,1/2+y,z
1/2-x,1/2+y,-z
1/2-x,1/2-y,-z
1/2+x,1/2-y,z
loop_
_atom_site_type_symbol
_atom_site_label
_atom_site_fract_x
_atom_site_fract_y
_atom_site_fract_z
Si Si1 0.669180 0.098171 0.005987
Si Si2 0.295475 0.872137 0.386921
Si Si3 0.441816 0.223973 0.661609
Si Si4 0.685306 0.555431 0.626847
Si Si5 0.120610 0.790439 0.141693
O O1 0.763256 0.155398 0.942514
O O2 0.962525 0.067880 0.834734
O O3 0.500000 0.083730 0.000000
O O4 0.473593 0.096439 0.209103
O O5 0.498509 0.827352 0.312821
O O6 0.190949 0.904551 0.536360
O O7 0.000000 0.852224 0.500000
O O8 0.750000 0.250000 0.500000
O O9 0.292082 0.269418 0.801072
O O10 0.223945 0.210108 0.693453
O O11 0.622488 0.500000 0.622840
O O12 0.000000 0.556312 0.500000
O O13 0.250000 0.750000 0.000000
#
# Coordination Sequence:
#
# PCOD9222459 Si02
#       5
#     8   8   8   8   8
#     4  12  25  46  73 104 143 187 235 294 352 417
#     4  12  25  46  72 105 140 186 238 291 348 418
#     4  12  25  41  63  96 137 188 233 281 342 415
#     4  11  27  50  75 106 141 178 230 296 361 427
#     4  12  24  40  63  96 138 179 228 281 338 404
#
# _framework density 23.238856999999999
#
# number of rings (size 3 to 8) (size 9 to 14) (size 15 to 20)
#    0.000    0.200    4.000    6.000    0.000    4.000 
#    0.000    2.000    0.000    0.000    0.000    0.000 
#    0.000    0.000    0.000    0.000    0.000    0.000 
#
# Total GULP energy -111670.446324 kJ/mol
# GULP energy per Si atom -5583.522316 kJ/mol
# Density = 2.318596 g / cm^3
# Si number density = 23.238857 Si / 1000 Ang^3
#
#
#
# Elastic Constant Matrix: (Units=GPa)
#
#
# Indices 1 2 3 4 5 6 
#
# 1 96.5782 4.9190 12.9055 0.0000 -12.1837 0.0000
# 2 4.9190 63.3920 -6.2680 0.0000 1.1679 0.0000
# 3 12.9055 -6.2680 125.0528 0.0000 -12.2794 0.0000
# 4 0.0000 0.0000 0.0000 14.3779 0.0000 3.8254
# 5 -12.1837 1.1679 -12.2794 0.0000 43.9024 0.0000
# 6 0.0000 0.0000 0.0000 3.8254 0.0000 15.7392
#
#
#
# Elastic Compliance Matrix: (Units=1/GPa)
#
#
# Indices 1 2 3 4 5 6 
#
# 1 0.010877 -0.000984 -0.000898 0.000000 0.002794 0.000000
# 2 -0.000984 0.015944 0.000856 0.000000 -0.000458 0.000000
# 3 -0.000898 0.000856 0.008334 0.000000 0.002059 0.000000
# 4 0.000000 0.000000 0.000000 0.074360 0.000000 -0.018073
# 5 0.002794 -0.000458 0.002059 0.000000 0.024141 0.000000
# 6 0.000000 0.000000 0.000000 -0.018073 0.000000 0.067928
#
#
# Mechanical properties :
#
#
# Convention : Reuss Voigt Hill
#
# Bulk Modulus (GPa) = 30.20824 34.23735 32.22279
# Shear Modulus (GPa) = 23.29149 33.03501 28.16325
#
# Velocity S-wave (km/s) = 3.16929 3.77442 3.48502
# Velocity P-wave (km/s) = 5.14002 5.81032 5.48542
#
# Compressibility (1/GPa) = 0.03310355
#
# Stress axis : x y z
#
# Youngs Moduli (GPa) = 91.93888 62.71837 119.98543
#
# Poissons Ratio (x) = 0.06173 0.10769
# Poissons Ratio (y) = 0.09049 -0.10268
# Poissons Ratio (z) = 0.08252 -0.05367
#
# Static dielectric constant tensor:
#      x y z
#    x 1.867770 0.000000 0.057930 
#    y 0.000000 1.650390 0.000000 
#    z 0.057930 0.000000 2.128880 
# 
# From -- ./inp_files/41893.got.cif
#   From: 2010.05.17/outbox.cif.g08.bks.cpg/sg12_21_cif.got.tgz:41893.got - 2010.06.03 13:09:07.
