data_PCOD9222008
_publ_section_title
;
Structure prediction by ZEFSAII (Michael W. Deem and Ramdas Pophale) SiO2 
 PCOD9222008
Probable space group: C 2/M
;
_chemical_formula_sum "Si O2"
_cell_formula_units_Z 40
_cell_length_a 12.218837
_cell_length_b 23.656900
_cell_length_c 11.829485
_cell_angle_alpha 90.000000
_cell_angle_beta 144.751453
_cell_angle_gamma 90.000000
_cell_volume 1973.435969
_symmetry_space_group_name_H-M "C 2/M"
_symmetry_group_IT_number 12
_symmetry_cell_setting 'monoclinic'
loop_
_space_group_symop_operation_xyz
x,y,z
-x,y,-z
-x,-y,-z
x,-y,z
1/2+x,1/2+y,z
1/2-x,1/2+y,-z
1/2-x,1/2-y,-z
1/2+x,1/2-y,z
loop_
_atom_site_type_symbol
_atom_site_label
_atom_site_fract_x
_atom_site_fract_y
_atom_site_fract_z
Si Si1 0.293157 0.435734 0.969807
Si Si2 0.663683 0.172495 0.457370
Si Si3 0.754217 0.935298 0.672612
Si Si4 0.101705 0.654206 0.971642
Si Si5 0.027159 0.785958 0.648331
O O1 0.232291 0.500000 0.941773
O O2 0.238918 0.422964 0.793675
O O3 0.209419 0.393752 0.991300
O O4 0.521345 0.434103 0.164508
O O5 0.659283 0.112960 0.517360
O O6 0.564477 0.173211 0.251733
O O7 0.548344 0.221805 0.422467
O O8 0.883051 0.187589 0.618654
O O9 0.689647 0.000000 0.596617
O O10 0.257204 0.702413 0.132353
O O11 0.000000 0.634390 0.000000
O O12 0.000000 0.811667 0.500000
#
# Coordination Sequence:
#
# PCOD9222008 Si02
#       5
#     8   8   8   8   8
#     4   9  20  39  65  98 134 169 217 270 323 383
#     4  11  24  41  68  95 124 172 219 273 321 381
#     4   9  19  41  70  99 129 167 215 276 328 372
#     4  12  24  41  64  93 135 173 213 266 321 390
#     4  11  24  45  61  91 133 170 222 265 322 382
#
# _framework density 20.269216
#
# number of rings (size 3 to 8) (size 9 to 14) (size 15 to 20)
#    0.000    1.600    4.000    1.800    2.800    1.200 
#    0.000    2.000    0.000    3.600    0.000    0.000 
#    0.000    0.000    0.000    0.000    0.000    0.000 
#
# Total GULP energy -111668.456341 kJ/mol
# GULP energy per Si atom -5583.422817 kJ/mol
# Density = 2.022308 g / cm^3
# Si number density = 20.269216 Si / 1000 Ang^3
#
#
#
# Elastic Constant Matrix: (Units=GPa)
#
#
# Indices 1 2 3 4 5 6 
#
# 1 129.7215 54.9619 17.7320 0.0000 -4.6778 0.0000
# 2 54.9619 100.2942 31.5758 0.0000 -1.2323 0.0000
# 3 17.7320 31.5758 78.7966 0.0000 0.7772 0.0000
# 4 0.0000 0.0000 0.0000 9.5836 0.0000 1.2403
# 5 -4.6778 -1.2323 0.7772 0.0000 23.1274 0.0000
# 6 0.0000 0.0000 0.0000 1.2403 0.0000 23.3772
#
#
#
# Elastic Compliance Matrix: (Units=1/GPa)
#
#
# Indices 1 2 3 4 5 6 
#
# 1 0.010111 -0.005490 -0.000093 0.000000 0.001756 0.000000
# 2 -0.005490 0.014405 -0.004535 0.000000 -0.000191 0.000000
# 3 -0.000093 -0.004535 0.014536 0.000000 -0.000749 0.000000
# 4 0.000000 0.000000 0.000000 0.105066 0.000000 -0.005574
# 5 0.001756 -0.000191 -0.000749 0.000000 0.043609 0.000000
# 6 0.000000 0.000000 0.000000 -0.005574 0.000000 0.043072
#
#
# Mechanical properties :
#
#
# Convention : Reuss Voigt Hill
#
# Bulk Modulus (GPa) = 53.14451 57.48353 55.31402
# Shear Modulus (GPa) = 19.43201 24.85382 22.14291
#
# Velocity S-wave (km/s) = 3.09964 3.50549 3.30879
# Velocity P-wave (km/s) = 6.25193 6.69374 6.47660
#
# Compressibility (1/GPa) = 0.01881662
#
# Stress axis : x y z
#
# Youngs Moduli (GPa) = 98.90309 69.42174 68.79280
#
# Poissons Ratio (x) = 0.38113 0.00637
# Poissons Ratio (y) = 0.54299 0.31197
# Poissons Ratio (z) = 0.00916 0.31483
#
# Static dielectric constant tensor:
#      x y z
#    x 1.727160 0.000000 0.019940 
#    y 0.000000 1.720960 0.000000 
#    z 0.019940 0.000000 1.743580 
# 
# From -- ./inp_files/133648.got.cif
#   From: 2010.05.17/outbox.cif.g08.bks.cpg/sg12_67_cif.got.tgz:133648.got - 2010.06.03 13:09:07.
