data_PCOD9222040
_publ_section_title
;
Structure prediction by ZEFSAII (Michael W. Deem and Ramdas Pophale) SiO2 
 PCOD9222040
Probable space group: C 2/M
;
_chemical_formula_sum "Si O2"
_cell_formula_units_Z 28
_cell_length_a 11.277624
_cell_length_b 19.735514
_cell_length_c 7.974471
_cell_angle_alpha 90.000000
_cell_angle_beta 44.999989
_cell_angle_gamma 90.000000
_cell_volume 1255.026380
_symmetry_space_group_name_H-M "C 2/M"
_symmetry_group_IT_number 12
_symmetry_cell_setting 'monoclinic'
loop_
_space_group_symop_operation_xyz
x,y,z
-x,y,-z
-x,-y,-z
x,-y,z
1/2+x,1/2+y,z
1/2-x,1/2+y,-z
1/2-x,1/2-y,-z
1/2+x,1/2-y,z
loop_
_atom_site_type_symbol
_atom_site_label
_atom_site_fract_x
_atom_site_fract_y
_atom_site_fract_z
Si Si1 0.098009 0.500000 0.666953
Si Si2 0.234425 0.638020 0.671741
Si Si3 0.735040 0.500000 0.862971
Si Si4 0.500000 0.750000 0.000000
Si Si5 0.906166 0.861980 0.859409
O O1 0.145287 0.567305 0.720517
O O2 0.207652 0.500000 0.386736
O O3 0.905608 0.500000 0.802053
O O4 0.400994 0.641410 0.393077
O O5 0.294072 0.641410 0.804935
O O6 0.108465 0.700416 0.774172
O O7 0.634195 0.432695 0.011090
O O8 0.382638 0.700417 0.008898
#
# Coordination Sequence:
#
# PCOD9222040 Si02
#       5
#     4   8   4   4   8
#     4  11  24  43  68  95 124 162 210 263 316 371
#     4  11  24  42  66  95 127 166 210 258 313 371
#     4  11  24  43  68  95 124 162 210 263 316 371
#     4  12  24  42  64  92 132 170 208 256 308 374
#     4  11  24  42  66  95 127 166 210 258 313 371
#
# _framework density 22.310286000000001
#
# number of rings (size 3 to 8) (size 9 to 14) (size 15 to 20)
#    0.000    0.857    0.000    6.857    0.000    5.714 
#    0.000    5.714    0.000    0.000    0.000    0.000 
#    0.000    0.000    0.000    0.000    0.000    0.000 
#
# Total GULP energy -78472.668075 kJ/mol
# GULP energy per Si atom -5605.190577 kJ/mol
# Density = 2.225951 g / cm^3
# Si number density = 22.310286 Si / 1000 Ang^3
#
#
#
# Elastic Constant Matrix: (Units=GPa)
#
#
# Indices 1 2 3 4 5 6 
#
# 1 98.5799 55.6597 17.9043 0.0000 5.6364 0.0000
# 2 55.6597 215.2786 55.6589 0.0000 -0.0011 0.0000
# 3 17.9043 55.6589 98.5773 0.0000 -5.6383 0.0000
# 4 0.0000 0.0000 0.0000 32.3913 0.0000 -0.0007
# 5 5.6364 -0.0011 -5.6383 0.0000 29.9976 0.0000
# 6 0.0000 0.0000 0.0000 -0.0007 0.0000 32.3917
#
#
#
# Elastic Compliance Matrix: (Units=1/GPa)
#
#
# Indices 1 2 3 4 5 6 
#
# 1 0.012066 -0.002948 -0.000664 0.000000 -0.002392 0.000000
# 2 -0.002948 0.006170 -0.002948 0.000000 0.000000 0.000000
# 3 -0.000664 -0.002948 0.012066 0.000000 0.002393 0.000000
# 4 0.000000 0.000000 0.000000 0.030872 0.000000 0.000001
# 5 -0.002392 0.000000 0.002393 0.000000 0.034235 0.000000
# 6 0.000000 0.000000 0.000000 0.000001 0.000000 0.030872
#
#
# Mechanical properties :
#
#
# Convention : Reuss Voigt Hill
#
# Bulk Modulus (GPa) = 58.20034 74.54241 66.37138
# Shear Modulus (GPa) = 34.45227 37.83698 36.14462
#
# Velocity S-wave (km/s) = 3.93394 4.12265 4.02940
# Velocity P-wave (km/s) = 6.83943 7.49306 7.17369
#
# Compressibility (1/GPa) = 0.01718203
#
# Stress axis : x y z
#
# Youngs Moduli (GPa) = 82.87848 162.08687 82.87575
#
# Poissons Ratio (x) = 0.47783 0.05501
# Poissons Ratio (y) = 0.24432 0.24432
# Poissons Ratio (z) = 0.05501 0.47784
#
# Static dielectric constant tensor:
#      x y z
#    x 1.820280 0.000000 0.000000 
#    y 0.000000 1.759710 0.000000 
#    z 0.000000 0.000000 1.820280 
# 
# From -- ./inp_files/48273.got.cif
#   From: 2010.05.17/outbox.cif.g08.bks.cpg/sg12_25_cif.got.tgz:48273.got - 2010.06.03 13:09:07.
