data_PCOD9222191
_publ_section_title
;
Structure prediction by ZEFSAII (Michael W. Deem and Ramdas Pophale) SiO2 
 PCOD9222191
Probable space group: C 2/M
;
_chemical_formula_sum "Si O2"
_cell_formula_units_Z 36
_cell_length_a 20.329655
_cell_length_b 14.357795
_cell_length_c 8.000036
_cell_angle_alpha 90.000000
_cell_angle_beta 140.658267
_cell_angle_gamma 90.000000
_cell_volume 1480.337823
_symmetry_space_group_name_H-M "C 2/M"
_symmetry_group_IT_number 12
_symmetry_cell_setting 'monoclinic'
loop_
_space_group_symop_operation_xyz
x,y,z
-x,y,-z
-x,-y,-z
x,-y,z
1/2+x,1/2+y,z
1/2-x,1/2+y,-z
1/2-x,1/2-y,-z
1/2+x,1/2-y,z
loop_
_atom_site_type_symbol
_atom_site_label
_atom_site_fract_x
_atom_site_fract_y
_atom_site_fract_z
Si Si1 0.023249 0.000000 0.847588
Si Si2 0.878000 0.680566 0.605014
Si Si3 0.305371 0.182809 0.818367
Si Si4 0.543387 0.308128 0.763756
Si Si5 0.294789 0.500000 0.240375
Si Si6 0.607841 0.000000 0.602039
O O1 0.081949 0.904291 0.919896
O O2 0.919355 0.000000 0.524347
O O3 0.000000 0.000000 0.000000
O O4 0.766863 0.729091 0.360377
O O5 0.876361 0.657907 0.798524
O O6 0.893474 0.591538 0.518381
O O7 0.956618 0.763123 0.711243
O O8 0.241044 0.093916 0.740209
O O9 0.376608 0.223688 0.104395
O O10 0.500000 0.332025 0.500000
O O11 0.216968 0.500000 0.923726
O O12 0.500000 0.000000 0.500000
#
# Coordination Sequence:
#
# PCOD9222191 Si02
#       6
#     4   8   8   8   4   4
#     4  12  27  47  71 101 149 188 245 294 355 437
#     4  11  24  45  70 104 142 190 241 292 365 438
#     4  11  25  44  75 101 143 192 241 299 360 438
#     4  12  26  45  72 106 143 187 240 305 365 429
#     4  12  25  46  74 109 140 191 240 301 361 428
#     4  12  27  45  74 111 150 190 242 311 372 437
#
# _framework density 24.318774000000001
#
# number of rings (size 3 to 8) (size 9 to 14) (size 15 to 20)
#    0.000    0.444    2.222    6.333    6.222    2.667 
#    0.000    3.333    0.000    0.000    0.000    0.000 
#    0.000    0.000    0.000    0.000    0.000    0.000 
#
# Total GULP energy -100635.800350 kJ/mol
# GULP energy per Si atom -5590.877797 kJ/mol
# Density = 2.426342 g / cm^3
# Si number density = 24.318774 Si / 1000 Ang^3
#
#
#
# Elastic Constant Matrix: (Units=GPa)
#
#
# Indices 1 2 3 4 5 6 
#
# 1 73.0217 65.4221 19.6688 0.0000 -3.0953 0.0000
# 2 65.4221 181.8200 29.2293 0.0000 -6.3321 0.0000
# 3 19.6688 29.2293 71.4257 0.0000 -6.9911 0.0000
# 4 0.0000 0.0000 0.0000 25.1169 0.0000 10.3266
# 5 -3.0953 -6.3321 -6.9911 0.0000 36.4048 0.0000
# 6 0.0000 0.0000 0.0000 10.3266 0.0000 57.7316
#
#
#
# Elastic Compliance Matrix: (Units=1/GPa)
#
#
# Indices 1 2 3 4 5 6 
#
# 1 0.020735 -0.007004 -0.002844 0.000000 -0.000001 0.000000
# 2 -0.007004 0.008265 -0.001397 0.000000 0.000574 0.000000
# 3 -0.002844 -0.001397 0.015601 0.000000 0.002511 0.000000
# 4 0.000000 0.000000 0.000000 0.042974 0.000000 -0.007687
# 5 -0.000001 0.000574 0.002511 0.000000 0.028051 0.000000
# 6 0.000000 0.000000 0.000000 -0.007687 0.000000 0.018697
#
#
# Mechanical properties :
#
#
# Convention : Reuss Voigt Hill
#
# Bulk Modulus (GPa) = 45.22593 61.65643 53.44118
# Shear Modulus (GPa) = 30.45369 37.98047 34.21708
#
# Velocity S-wave (km/s) = 3.54258 3.95622 3.75510
# Velocity P-wave (km/s) = 5.94733 6.80275 6.38937
#
# Compressibility (1/GPa) = 0.02211121
#
# Stress axis : x y z
#
# Youngs Moduli (GPa) = 48.22655 120.99715 64.09712
#
# Poissons Ratio (x) = 0.84744 0.18229
# Poissons Ratio (y) = 0.33777 0.08956
# Poissons Ratio (z) = 0.13716 0.16907
#
# Static dielectric constant tensor:
#      x y z
#    x 1.917190 0.000000 0.005020 
#    y 0.000000 1.842830 0.000000 
#    z 0.005020 0.000000 2.041010 
# 
# From -- ./inp_files/86467.got.cif
#   From: 2010.05.17/outbox.cif.g08.bks.cpg/sg12_44_cif.got.tgz:86467.got - 2010.06.03 13:09:07.
