data_PCOD9222170
_publ_section_title
;
Structure prediction by ZEFSAII (Michael W. Deem and Ramdas Pophale) SiO2 
 PCOD9222170
Probable space group: C 2/M
;
_chemical_formula_sum "Si O2"
_cell_formula_units_Z 32
_cell_length_a 9.367876
_cell_length_b 15.519912
_cell_length_c 14.293457
_cell_angle_alpha 90.000000
_cell_angle_beta 39.336209
_cell_angle_gamma 90.000000
_cell_volume 1317.248520
_symmetry_space_group_name_H-M "C 2/M"
_symmetry_group_IT_number 12
_symmetry_cell_setting 'monoclinic'
loop_
_space_group_symop_operation_xyz
x,y,z
-x,y,-z
-x,-y,-z
x,-y,z
1/2+x,1/2+y,z
1/2-x,1/2+y,-z
1/2-x,1/2-y,-z
1/2+x,1/2-y,z
loop_
_atom_site_type_symbol
_atom_site_label
_atom_site_fract_x
_atom_site_fract_y
_atom_site_fract_z
Si Si1 0.458825 0.406895 0.785135
Si Si2 0.396354 0.836437 0.913074
Si Si3 0.420417 0.715358 0.641447
Si Si4 0.865146 0.403723 0.720554
O O1 0.479716 0.500000 0.728167
O O2 0.520744 0.334091 0.679528
O O3 0.209455 0.394560 0.952238
O O4 0.625328 0.404609 0.789412
O O5 0.654759 0.806916 0.785403
O O6 0.350887 0.883467 0.837700
O O7 0.250000 0.750000 0.000000
O O8 0.500000 0.684417 0.500000
O O9 0.473952 0.816666 0.624565
O O10 0.964409 0.500000 0.654966
#
# Coordination Sequence:
#
# PCOD9222170 Si02
#       4
#     8   8   8   8
#     4  11  25  45  74 107 138 181 238 294 347 414
#     4  12  23  44  75 104 135 183 229 292 349 416
#     4  12  27  47  70 102 146 189 233 286 351 417
#     4  11  24  44  74 106 139 178 234 293 349 410
#
# _framework density 24.293061999999999
#
# number of rings (size 3 to 8) (size 9 to 14) (size 15 to 20)
#    0.000    0.500    5.000    2.250    0.000   10.000 
#    0.000    2.500    0.000    0.000    0.000    0.000 
#    0.000    0.000    0.000    0.000    0.000    0.000 
#
# Total GULP energy -89546.110561 kJ/mol
# GULP energy per Si atom -5596.631910 kJ/mol
# Density = 2.423777 g / cm^3
# Si number density = 24.293062 Si / 1000 Ang^3
#
#
#
# Elastic Constant Matrix: (Units=GPa)
#
#
# Indices 1 2 3 4 5 6 
#
# 1 109.4126 50.7194 45.7372 0.0027 9.2479 -0.0020
# 2 50.7194 175.0087 29.2721 0.0046 3.4854 -0.0027
# 3 45.7372 29.2721 124.1159 0.0076 -1.0947 -0.0038
# 4 0.0027 0.0046 0.0076 -21.5156 -0.0029 3.8331
# 5 9.2479 3.4854 -1.0947 -0.0029 45.9046 0.0015
# 6 -0.0020 -0.0027 -0.0038 3.8331 0.0015 34.7078
#
#
#
# Elastic Compliance Matrix: (Units=1/GPa)
#
#
# Indices 1 2 3 4 5 6 
#
# 1 0.012286 -0.002866 -0.003872 0.000000 -0.002350 0.000000
# 2 -0.002866 0.006628 -0.000507 0.000001 0.000062 0.000000
# 3 -0.003872 -0.000507 0.009613 0.000003 0.001048 0.000000
# 4 0.000000 0.000001 0.000003 -0.045581 -0.000003 0.005034
# 5 -0.002350 0.000062 0.001048 -0.000003 0.022278 -0.000001
# 6 0.000000 0.000000 0.000000 0.005034 -0.000001 0.028256
#
#
# Mechanical properties :
#
#
# Convention : Reuss Voigt Hill
#
# Bulk Modulus (GPa) = 71.24043 73.33274 72.28658
# Shear Modulus (GPa) = 94.97181 30.67326 62.82254
#
# Velocity S-wave (km/s) = 6.25932 3.55721 5.09082
# Velocity P-wave (km/s) = 9.03481 6.86469 8.02346
#
# Compressibility (1/GPa) = 0.01403697
#
# Stress axis : x y z
#
# Youngs Moduli (GPa) = 81.39668 150.87296 104.03073
#
# Poissons Ratio (x) = 0.43241 0.40281
# Poissons Ratio (y) = 0.23329 0.05269
# Poissons Ratio (z) = 0.31517 0.07642
#
# Static dielectric constant tensor:
#      x y z
#    x 1.959090 0.000000 -0.042940 
#    y 0.000000 1.986870 0.000000 
#    z -0.042940 0.000000 1.875850 
# 
# From -- ./inp_files/206492.got.cif
#   From: 2010.05.17/outbox.cif.g08.bks.cpg/sg12_104_cif.got.tgz:206492.got - 2010.06.03 13:09:07.
