data_PCOD9222153
_publ_section_title
;
Structure prediction by ZEFSAII (Michael W. Deem and Ramdas Pophale) SiO2 
 PCOD9222153
Probable space group: C 2/M
;
_chemical_formula_sum "Si O2"
_cell_formula_units_Z 32
_cell_length_a 9.891865
_cell_length_b 21.816053
_cell_length_c 8.365164
_cell_angle_alpha 90.000000
_cell_angle_beta 45.113632
_cell_angle_gamma 90.000000
_cell_volume 1279.008505
_symmetry_space_group_name_H-M "C 2/M"
_symmetry_group_IT_number 12
_symmetry_cell_setting 'monoclinic'
loop_
_space_group_symop_operation_xyz
x,y,z
-x,y,-z
-x,-y,-z
x,-y,z
1/2+x,1/2+y,z
1/2-x,1/2+y,-z
1/2-x,1/2-y,-z
1/2+x,1/2-y,z
loop_
_atom_site_type_symbol
_atom_site_label
_atom_site_fract_x
_atom_site_fract_y
_atom_site_fract_z
Si Si1 0.475557 0.743964 0.334025
Si Si2 0.809115 0.883903 0.840177
Si Si3 0.366121 0.569441 0.259281
Si Si4 0.935649 0.372120 0.278362
O O1 0.500000 0.754109 0.500000
O O2 0.250000 0.750000 0.500000
O O3 0.581006 0.680640 0.208314
O O4 0.533054 0.804662 0.191808
O O5 0.709652 0.876759 0.749803
O O6 0.984505 0.929446 0.717969
O O7 0.630601 0.909453 0.093389
O O8 0.303976 0.500000 0.279593
O O9 0.187253 0.610592 0.463821
O O10 0.500000 0.591221 0.000000
#
# Coordination Sequence:
#
# PCOD9222153 Si02
#       4
#     8   8   8   8
#     4  12  22  41  71 104 146 191 227 283 352 423
#     4  11  24  44  70 103 143 182 235 289 353 426
#     4  11  26  47  70  98 137 186 243 301 352 413
#     4  11  25  44  69 105 142 185 236 286 354 428
#
# _framework density 25.019378
#
# number of rings (size 3 to 8) (size 9 to 14) (size 15 to 20)
#    0.000    0.750    5.000    1.500    3.500    3.000 
#    4.500    5.000    0.000    0.000    0.000    0.000 
#    0.000    0.000    0.000    0.000    0.000    0.000 
#
# Total GULP energy -89229.608005 kJ/mol
# GULP energy per Si atom -5576.850500 kJ/mol
# Density = 2.496243 g / cm^3
# Si number density = 25.019378 Si / 1000 Ang^3
#
#
#
# Elastic Constant Matrix: (Units=GPa)
#
#
# Indices 1 2 3 4 5 6 
#
# 1 129.8398 18.8481 38.8059 0.0000 -21.4237 0.0000
# 2 18.8481 93.4869 40.6575 0.0000 -3.2941 0.0000
# 3 38.8059 40.6575 182.3844 0.0000 -25.3140 0.0000
# 4 0.0000 0.0000 0.0000 16.9087 0.0000 8.7165
# 5 -21.4237 -3.2941 -25.3140 0.0000 45.1349 0.0000
# 6 0.0000 0.0000 0.0000 8.7165 0.0000 17.3761
#
#
#
# Elastic Compliance Matrix: (Units=1/GPa)
#
#
# Indices 1 2 3 4 5 6 
#
# 1 0.008776 -0.001156 -0.001131 0.000000 0.003447 0.000000
# 2 -0.001156 0.012016 -0.002589 0.000000 -0.001124 0.000000
# 3 -0.001131 -0.002589 0.006723 0.000000 0.003045 0.000000
# 4 0.000000 0.000000 0.000000 0.079769 0.000000 -0.040015
# 5 0.003447 -0.001124 0.003045 0.000000 0.025418 0.000000
# 6 0.000000 0.000000 0.000000 -0.040015 0.000000 0.077624
#
#
# Mechanical properties :
#
#
# Convention : Reuss Voigt Hill
#
# Bulk Modulus (GPa) = 56.29361 66.92601 61.60981
# Shear Modulus (GPa) = 22.12399 36.37727 29.25063
#
# Velocity S-wave (km/s) = 2.97690 3.81722 3.42295
# Velocity P-wave (km/s) = 5.86215 6.79971 6.34826
#
# Compressibility (1/GPa) = 0.01776401
#
# Stress axis : x y z
#
# Youngs Moduli (GPa) = 113.94105 83.22280 148.73670
#
# Poissons Ratio (x) = 0.09621 0.16826
# Poissons Ratio (y) = 0.13172 0.38502
# Poissons Ratio (z) = 0.12890 0.21543
#
# Static dielectric constant tensor:
#      x y z
#    x 1.978420 0.000000 0.029570 
#    y 0.000000 2.208440 0.000000 
#    z 0.029570 0.000000 2.118860 
# 
# From -- ./inp_files/40075.got.cif
#   From: 2010.05.17/outbox.cif.g08.bks.cpg/sg12_21_cif.got.tgz:40075.got - 2010.06.03 13:09:07.
