data_PCOD9222708
_publ_section_title
;
Structure prediction by ZEFSAII (Michael W. Deem and Ramdas Pophale) SiO2 
 PCOD9222708
Probable space group: C 2/M
;
_chemical_formula_sum "Si O2"
_cell_formula_units_Z 32
_cell_length_a 9.005154
_cell_length_b 19.882194
_cell_length_c 10.458578
_cell_angle_alpha 90.000000
_cell_angle_beta 60.396852
_cell_angle_gamma 90.000000
_cell_volume 1628.101921
_symmetry_space_group_name_H-M "C 2/M"
_symmetry_group_IT_number 12
_symmetry_cell_setting 'monoclinic'
loop_
_space_group_symop_operation_xyz
x,y,z
-x,y,-z
-x,-y,-z
x,-y,z
1/2+x,1/2+y,z
1/2-x,1/2+y,-z
1/2-x,1/2-y,-z
1/2+x,1/2-y,z
loop_
_atom_site_type_symbol
_atom_site_label
_atom_site_fract_x
_atom_site_fract_y
_atom_site_fract_z
Si Si1 0.717914 0.922113 0.090203
Si Si2 0.462355 0.801647 0.156215
Si Si3 0.560352 0.698842 0.336865
Si Si4 0.950118 0.922371 0.232887
O O1 0.571229 0.869774 0.120492
O O2 0.799330 0.908560 0.195342
O O3 0.661653 0.000000 0.110317
O O4 0.874406 0.915376 0.923550
O O5 0.522063 0.751521 0.241165
O O6 0.261939 0.814351 0.254173
O O7 0.500000 0.771226 0.000000
O O8 0.500000 0.724214 0.500000
O O9 0.460119 0.630937 0.341521
O O10 0.936454 0.000000 0.279782
#
# Coordination Sequence:
#
# PCOD9222708 Si02
#       4
#     8   8   8   8
#     4   9  19  37  64  94 119 150 200 255 297 346
#     4  12  24  40  64  90 119 160 208 250 291 355
#     4  12  26  41  60  89 127 161 197 250 305 355
#     4   9  19  38  63  90 122 157 195 245 304 357
#
# _framework density 19.654788
#
# number of rings (size 3 to 8) (size 9 to 14) (size 15 to 20)
#    0.000    1.500    2.500    4.500    3.500    2.000 
#    0.000    0.000    0.000    3.750    0.000    0.000 
#    0.000    0.000    0.000    0.000    0.000    0.000 
#
# Total GULP energy -89473.427075 kJ/mol
# GULP energy per Si atom -5592.089192 kJ/mol
# Density = 1.961005 g / cm^3
# Si number density = 19.654788 Si / 1000 Ang^3
#
#
#
# Elastic Constant Matrix: (Units=GPa)
#
#
# Indices 1 2 3 4 5 6 
#
# 1 97.3841 60.5328 38.8917 0.0000 18.9576 0.0000
# 2 60.5328 78.2193 27.7027 0.0000 22.2075 0.0000
# 3 38.8917 27.7027 90.2138 0.0000 21.0375 0.0000
# 4 0.0000 0.0000 0.0000 -120.8835 0.0000 -43.7667
# 5 18.9576 22.2075 21.0375 0.0000 19.9004 0.0000
# 6 0.0000 0.0000 0.0000 -43.7667 0.0000 -5.8491
#
#
#
# Elastic Compliance Matrix: (Units=1/GPa)
#
#
# Indices 1 2 3 4 5 6 
#
# 1 0.021438 -0.015403 -0.004988 0.000000 0.002039 0.000000
# 2 -0.015403 0.029873 0.002414 0.000000 -0.021215 0.000000
# 3 -0.004988 0.002414 0.015944 0.000000 -0.014798 0.000000
# 4 0.000000 0.000000 0.000000 0.004840 0.000000 -0.036217
# 5 0.002039 -0.021215 -0.014798 0.000000 0.087627 0.000000
# 6 0.000000 0.000000 0.000000 -0.036217 0.000000 0.100030
#
#
# Mechanical properties :
#
#
# Convention : Reuss Voigt Hill
#
# Bulk Modulus (GPa) = 31.94604 57.78574 44.86589
# Shear Modulus (GPa) = 16.33248 -12.12044 2.10602
#
# Velocity S-wave (km/s) = 2.88578 -2.48597 1.03626
# Velocity P-wave (km/s) = 5.23378 4.60696 4.93034
#
# Compressibility (1/GPa) = 0.03130278
#
# Stress axis : x y z
#
# Youngs Moduli (GPa) = 46.64668 33.47530 62.71757
#
# Poissons Ratio (x) = 0.51561 0.31281
# Poissons Ratio (y) = 0.71849 -0.15141
# Poissons Ratio (z) = 0.23265 -0.08082
#
# Static dielectric constant tensor:
#      x y z
#    x 1.675940 0.000000 0.024870 
#    y 0.000000 1.686470 0.000000 
#    z 0.024870 0.000000 1.676700 
# 
# From -- ./inp_files/37560.got.cif
#   From: 2010.05.17/outbox.cif.g08.bks.cpg/sg12_19_cif.got.tgz:37560.got - 2010.06.03 13:09:07.
