data_PCOD9222840
_publ_section_title
;
Structure prediction by ZEFSAII (Michael W. Deem and Ramdas Pophale) SiO2 
 PCOD9222840
Probable space group: C 2/M
;
_chemical_formula_sum "Si O2"
_cell_formula_units_Z 56
_cell_length_a 14.261610
_cell_length_b 11.383984
_cell_length_c 30.810379
_cell_angle_alpha 90.000000
_cell_angle_beta 26.589172
_cell_angle_gamma 90.000000
_cell_volume 2238.929116
_symmetry_space_group_name_H-M "C 2/M"
_symmetry_group_IT_number 12
_symmetry_cell_setting 'monoclinic'
loop_
_space_group_symop_operation_xyz
x,y,z
-x,y,-z
-x,-y,-z
x,-y,z
1/2+x,1/2+y,z
1/2-x,1/2+y,-z
1/2-x,1/2-y,-z
1/2+x,1/2-y,z
loop_
_atom_site_type_symbol
_atom_site_label
_atom_site_fract_x
_atom_site_fract_y
_atom_site_fract_z
Si Si1 0.749251 0.124866 0.613810
Si Si2 0.344186 0.633405 0.161114
Si Si3 0.486064 0.135773 0.135309
Si Si4 0.748809 0.875335 0.386261
Si Si5 0.405489 0.375533 0.643842
Si Si6 0.601679 0.125817 0.352540
Si Si7 0.762014 0.139570 0.102201
O O1 0.672304 0.250900 0.628888
O O2 0.754096 0.122427 0.664040
O O3 0.000000 0.123540 0.500000
O O4 0.661887 0.000000 0.633630
O O5 0.436661 0.500000 0.116554
O O6 0.487908 0.750296 0.103445
O O7 0.227377 0.627338 0.255476
O O8 0.200936 0.654444 0.177831
O O9 0.247936 0.125374 0.251543
O O10 0.618493 0.178204 0.122311
O O11 0.543041 0.000000 0.098116
O O12 0.500000 0.877935 0.500000
O O13 0.754488 0.872855 0.331449
O O14 0.839867 0.000000 0.363638
O O15 0.521390 0.500000 0.594094
O O16 0.516211 0.249861 0.595255
O O17 0.490116 0.000000 0.402202
O O18 0.767325 0.000000 0.093745
O O19 0.000000 0.184281 0.000000
#
# Coordination Sequence:
#
# PCOD9222840 Si02
#       7
#     8   8   8   8   8   8   8
#     4   8  12  17  26  43  70 100 128 163 205 245
#     4   9  17  30  48  68  91 119 151 187 226 270
#     4   9  17  30  48  68  91 119 151 187 226 270
#     4   8  12  17  26  43  70 100 128 163 205 245
#     4   8  13  21  34  53  77 104 135 172 211 250
#     4   8  13  21  34  53  77 104 135 172 211 250
#     4   9  18  32  49  69  93 122 153 183 225 281
#
# _framework density 25.011956999999999
#
# number of rings (size 3 to 8) (size 9 to 14) (size 15 to 20)
#    0.000    3.571    0.000    0.000    0.000    0.571 
#    0.000    0.714    0.000    0.857    0.000    0.000 
#    0.000   41.143    0.000  146.571    0.000   45.143 
#
# Total GULP energy -155939.678588 kJ/mol
# GULP energy per Si atom -5569.274235 kJ/mol
# Density = 2.495503 g / cm^3
# Si number density = 25.011957 Si / 1000 Ang^3
#
#
#
# Elastic Constant Matrix: (Units=GPa)
#
#
# Indices 1 2 3 4 5 6 
#
# 1 114.3849 39.4908 13.5302 0.0065 13.5897 0.0120
# 2 39.4908 321.0876 7.4697 -0.0035 -8.7167 -0.0057
# 3 13.5302 7.4697 41.1168 -0.0546 5.9042 -0.0909
# 4 0.0065 -0.0035 -0.0546 -196.6599 -0.0032 -317.1833
# 5 13.5897 -8.7167 5.9042 -0.0032 33.6649 -0.0062
# 6 0.0120 -0.0057 -0.0909 -317.1833 -0.0062 -515.9728
#
#
#
# Elastic Compliance Matrix: (Units=1/GPa)
#
#
# Indices 1 2 3 4 5 6 
#
# 1 0.009938 -0.001271 -0.002479 -0.000008 -0.003906 0.000006
# 2 -0.001271 0.003319 -0.000392 0.000001 0.001441 0.000000
# 3 -0.002479 -0.000392 0.025727 0.000019 -0.003613 -0.000016
# 4 -0.000008 0.000001 0.000019 -0.595877 0.000010 0.366302
# 5 -0.003906 0.001441 -0.003613 0.000010 0.032288 -0.000006
# 6 0.000006 0.000000 -0.000016 0.366302 -0.000006 -0.227115
#
#
# Mechanical properties :
#
#
# Convention : Reuss Voigt Hill
#
# Bulk Modulus (GPa) = 32.57146 66.39675 49.48410
# Shear Modulus (GPa) = -6.81939 -108.05366 -57.43653
#
# Velocity S-wave (km/s) = -1.65299 -6.57986 -4.79724
# Velocity P-wave (km/s) = 3.06716 5.57875 3.29507
#
# Compressibility (1/GPa) = 0.03070172
#
# Stress axis : x y z
#
# Youngs Moduli (GPa) = 100.61984 301.30158 38.87035
#
# Poissons Ratio (x) = 0.38287 0.09635
# Poissons Ratio (y) = 0.12786 0.01523
# Poissons Ratio (z) = 0.24940 0.11803
#
# Static dielectric constant tensor:
#      x y z
#    x 1.938800 0.000000 0.006110 
#    y 0.000000 2.064970 0.000000 
#    z 0.006110 0.000000 2.034160 
# 
# From -- ./inp_files/309454.got.cif
#   From: 2010.05.17/outbox.cif.g08.bks.cpg/sg12_155_cif.got.tgz:309454.got - 2010.06.03 13:09:07.
