data_PCOD9222462
_publ_section_title
;
Structure prediction by ZEFSAII (Michael W. Deem and Ramdas Pophale) SiO2 
 PCOD9222462
Probable space group: C 2/M
;
_chemical_formula_sum "Si O2"
_cell_formula_units_Z 44
_cell_length_a 18.958427
_cell_length_b 11.697374
_cell_length_c 13.232810
_cell_angle_alpha 90.000000
_cell_angle_beta 39.188865
_cell_angle_gamma 90.000000
_cell_volume 1854.284892
_symmetry_space_group_name_H-M "C 2/M"
_symmetry_group_IT_number 12
_symmetry_cell_setting 'monoclinic'
loop_
_space_group_symop_operation_xyz
x,y,z
-x,y,-z
-x,-y,-z
x,-y,z
1/2+x,1/2+y,z
1/2-x,1/2+y,-z
1/2-x,1/2-y,-z
1/2+x,1/2-y,z
loop_
_atom_site_type_symbol
_atom_site_label
_atom_site_fract_x
_atom_site_fract_y
_atom_site_fract_z
Si Si1 0.259010 0.725439 0.823687
Si Si2 0.909173 0.000000 0.688100
Si Si3 0.511634 0.500000 0.867005
Si Si4 0.952148 0.635135 0.665336
Si Si5 0.870900 0.000000 0.441302
Si Si6 0.720867 0.208844 0.644822
Si Si7 0.482574 0.761460 0.841113
O O1 0.336630 0.614541 0.757694
O O2 0.322360 0.828068 0.809672
O O3 0.244867 0.770109 0.723967
O O4 0.137132 0.690236 0.996427
O O5 0.000000 0.000000 0.500000
O O6 0.997121 0.000000 0.682880
O O7 0.633906 0.500000 0.675947
O O8 0.471013 0.626718 0.879108
O O9 0.500000 0.500000 0.000000
O O10 0.967974 0.500000 0.664141
O O11 0.000000 0.664069 0.500000
O O12 0.804030 0.896551 0.561539
O O13 0.587701 0.190645 0.786633
O O14 0.995320 0.292740 0.300977
O O15 0.750000 0.750000 0.500000
#
# Coordination Sequence:
#
# PCOD9222462 Si02
#       7
#     8   4   4   8   4   8   8
#     4  12  26  47  81 110 158 203 261 332 386 476
#     4  12  24  49  79 119 151 204 274 315 396 461
#     4  12  26  50  75 113 158 200 257 315 395 469
#     4  11  27  51  76 112 157 210 262 325 392 472
#     4  12  26  47  80 107 152 206 258 329 371 482
#     4  12  25  46  72 113 151 200 264 321 393 458
#     4  12  28  50  76 116 158 203 266 327 402 466
#
# _framework density 23.728823999999999
#
# number of rings (size 3 to 8) (size 9 to 14) (size 15 to 20)
#    0.000    0.182    3.636    4.909    3.818    0.000 
#    3.273    2.273    0.000    0.000    0.000    0.000 
#    0.000    0.000    0.000    0.000    0.000    0.000 
#
# Total GULP energy -122807.308789 kJ/mol
# GULP energy per Si atom -5582.150399 kJ/mol
# Density = 2.367482 g / cm^3
# Si number density = 23.728824 Si / 1000 Ang^3
#
#
#
# Elastic Constant Matrix: (Units=GPa)
#
#
# Indices 1 2 3 4 5 6 
#
# 1 166.8173 51.0448 42.4092 0.0000 -0.7012 0.0000
# 2 51.0448 102.0988 35.3960 0.0000 1.6261 0.0000
# 3 42.4092 35.3960 91.2201 0.0000 -17.8384 0.0000
# 4 0.0000 0.0000 0.0000 12.3463 0.0000 13.3349
# 5 -0.7012 1.6261 -17.8384 0.0000 63.5168 0.0000
# 6 0.0000 0.0000 0.0000 13.3349 0.0000 17.2267
#
#
#
# Elastic Compliance Matrix: (Units=1/GPa)
#
#
# Indices 1 2 3 4 5 6 
#
# 1 0.007504 -0.002885 -0.002474 0.000000 -0.000538 0.000000
# 2 -0.002885 0.012584 -0.003821 0.000000 -0.001427 0.000000
# 3 -0.002474 -0.003821 0.014400 0.000000 0.004115 0.000000
# 4 0.000000 0.000000 0.000000 0.494071 0.000000 -0.382452
# 5 -0.000538 -0.001427 0.004115 0.000000 0.016930 0.000000
# 6 0.000000 0.000000 0.000000 -0.382452 0.000000 0.354100
#
#
# Mechanical properties :
#
#
# Convention : Reuss Voigt Hill
#
# Bulk Modulus (GPa) = 62.00551 68.64847 65.32699
# Shear Modulus (GPa) = 5.41521 34.03703 19.72612
#
# Velocity S-wave (km/s) = 1.51231 3.79148 2.88638
# Velocity P-wave (km/s) = 5.40713 6.93976 6.22083
#
# Compressibility (1/GPa) = 0.01612760
#
# Stress axis : x y z
#
# Youngs Moduli (GPa) = 133.25704 79.46413 69.44398
#
# Poissons Ratio (x) = 0.22928 0.17184
# Poissons Ratio (y) = 0.38450 0.26532
# Poissons Ratio (z) = 0.32974 0.30361
#
# Static dielectric constant tensor:
#      x y z
#    x 2.109850 0.000000 0.144450 
#    y 0.000000 -1.026820 0.000000 
#    z 0.144450 0.000000 2.022040 
# 
# From -- ./inp_files/245584.got.cif
#   From: 2010.05.17/outbox.cif.g08.bks.cpg/sg12_123_cif.got.tgz:245584.got - 2010.06.03 13:09:07.
