data_PCOD9222464
_publ_section_title
;
Structure prediction by ZEFSAII (Michael W. Deem and Ramdas Pophale) SiO2 
 PCOD9222464
Probable space group: C 2/M
;
_chemical_formula_sum "Si O2"
_cell_formula_units_Z 32
_cell_length_a 7.478599
_cell_length_b 21.600870
_cell_length_c 13.978477
_cell_angle_alpha 90.000000
_cell_angle_beta 38.987529
_cell_angle_gamma 90.000000
_cell_volume 1420.713121
_symmetry_space_group_name_H-M "C 2/M"
_symmetry_group_IT_number 12
_symmetry_cell_setting 'monoclinic'
loop_
_space_group_symop_operation_xyz
x,y,z
-x,y,-z
-x,-y,-z
x,-y,z
1/2+x,1/2+y,z
1/2-x,1/2+y,-z
1/2-x,1/2-y,-z
1/2+x,1/2-y,z
loop_
_atom_site_type_symbol
_atom_site_label
_atom_site_fract_x
_atom_site_fract_y
_atom_site_fract_z
Si Si1 0.996429 0.163975 0.271683
Si Si2 0.732617 0.432081 0.487221
Si Si3 0.181986 0.894643 0.841116
Si Si4 0.471834 0.785064 0.838264
O O1 0.296939 0.178484 0.196125
O O2 0.810510 0.124291 0.422299
O O3 0.011107 0.124195 0.168533
O O4 0.884306 0.231290 0.285570
O O5 0.500000 0.425670 0.500000
O O6 0.689688 0.500000 0.550820
O O7 0.043563 0.429244 0.312281
O O8 0.307427 0.832298 0.838242
O O9 0.000000 0.925888 0.000000
O O10 0.250000 0.750000 0.000000
#
# Coordination Sequence:
#
# PCOD9222464 Si02
#       4
#     8   8   8   8
#     4  12  24  43  74 106 146 192 229 294 365 423
#     4  11  27  52  74 101 144 192 251 305 351 426
#     4  12  25  43  73 109 143 191 235 296 360 430
#     4  12  23  41  69 111 154 181 231 291 362 435
#
# _framework density 22.523899
#
# number of rings (size 3 to 8) (size 9 to 14) (size 15 to 20)
#    0.000    0.250    7.500    1.500    0.000    3.500 
#    4.500    0.000    0.000    6.000    0.000    0.000 
#    0.000    0.000    0.000    0.000    0.000    0.000 
#
# Total GULP energy -89566.182765 kJ/mol
# GULP energy per Si atom -5597.886423 kJ/mol
# Density = 2.247263 g / cm^3
# Si number density = 22.523899 Si / 1000 Ang^3
#
#
#
# Elastic Constant Matrix: (Units=GPa)
#
#
# Indices 1 2 3 4 5 6 
#
# 1 150.3349 40.0632 52.7740 0.0000 -4.2370 0.0000
# 2 40.0632 118.2580 59.6396 0.0000 6.7552 0.0000
# 3 52.7740 59.6396 132.7863 0.0000 0.5350 0.0000
# 4 0.0000 0.0000 0.0000 -4.5595 0.0000 -12.9108
# 5 -4.2370 6.7552 0.5350 0.0000 30.7379 0.0000
# 6 0.0000 0.0000 0.0000 -12.9108 0.0000 -18.6006
#
#
#
# Elastic Compliance Matrix: (Units=1/GPa)
#
#
# Indices 1 2 3 4 5 6 
#
# 1 0.007975 -0.001532 -0.002488 0.000000 0.001479 0.000000
# 2 -0.001532 0.011394 -0.004498 0.000000 -0.002637 0.000000
# 3 -0.002488 -0.004498 0.010538 0.000000 0.000462 0.000000
# 4 0.000000 0.000000 0.000000 0.227169 0.000000 -0.157680
# 5 0.001479 -0.002637 0.000462 0.000000 0.033308 0.000000
# 6 0.000000 0.000000 0.000000 -0.157680 0.000000 0.055685
#
#
# Mechanical properties :
#
#
# Convention : Reuss Voigt Hill
#
# Bulk Modulus (GPa) = 77.68681 78.48143 78.08412
# Shear Modulus (GPa) = 13.60931 18.10907 15.85919
#
# Velocity S-wave (km/s) = 2.46075 2.83855 2.65638
# Velocity P-wave (km/s) = 6.52989 6.75740 6.64462
#
# Compressibility (1/GPa) = 0.01287220
#
# Stress axis : x y z
#
# Youngs Moduli (GPa) = 125.39299 87.76440 94.89494
#
# Poissons Ratio (x) = 0.13443 0.23605
# Poissons Ratio (y) = 0.19207 0.42685
# Poissons Ratio (z) = 0.31192 0.39478
#
# Static dielectric constant tensor:
#      x y z
#    x 1.823570 0.000000 0.014970 
#    y 0.000000 1.826520 0.000000 
#    z 0.014970 0.000000 1.850040 
# 
# From -- ./inp_files/38339.got.cif
#   From: 2010.05.17/outbox.cif.g08.bks.cpg/sg12_20_cif.got.tgz:38339.got - 2010.06.03 13:09:07.
