data_PCOD9222926
_publ_section_title
;
Structure prediction by ZEFSAII (Michael W. Deem and Ramdas Pophale) SiO2 
 PCOD9222926
Probable space group: C 2/M
;
_chemical_formula_sum "Si O2"
_cell_formula_units_Z 48
_cell_length_a 14.447609
_cell_length_b 9.213734
_cell_length_c 16.949863
_cell_angle_alpha 90.000000
_cell_angle_beta 76.656364
_cell_angle_gamma 90.000000
_cell_volume 2195.392589
_symmetry_space_group_name_H-M "C 2/M"
_symmetry_group_IT_number 12
_symmetry_cell_setting 'monoclinic'
loop_
_space_group_symop_operation_xyz
x,y,z
-x,y,-z
-x,-y,-z
x,-y,z
1/2+x,1/2+y,z
1/2-x,1/2+y,-z
1/2-x,1/2-y,-z
1/2+x,1/2-y,z
loop_
_atom_site_type_symbol
_atom_site_label
_atom_site_fract_x
_atom_site_fract_y
_atom_site_fract_z
Si Si1 0.739302 0.837865 0.582576
Si Si2 0.657061 0.333949 0.919007
Si Si3 0.704903 0.175703 0.758007
Si Si4 0.590858 0.173913 0.254313
Si Si5 0.382888 0.165602 0.922407
Si Si6 0.958978 0.164721 0.589152
O O1 0.750000 0.750000 0.500000
O O2 0.682641 0.782691 0.671257
O O3 0.846875 0.847446 0.594120
O O4 0.704629 0.000000 0.570667
O O5 0.630961 0.500000 0.908756
O O6 0.645362 0.238059 0.842836
O O7 0.770099 0.332280 0.920601
O O8 0.605709 0.269178 0.005664
O O9 0.808169 0.246323 0.753987
O O10 0.707809 0.000000 0.760444
O O11 0.563462 0.203988 0.169211
O O12 0.527443 0.238471 0.336619
O O13 0.600896 0.000000 0.260031
O O14 0.405871 0.000000 0.939762
O O15 0.000000 0.227232 0.500000
O O16 0.996883 0.000000 0.592425
#
# Coordination Sequence:
#
# PCOD9222926 Si02
#       6
#     8   8   8   8   8   8
#     4   9  18  30  45  64  85 113 145 178 215 253
#     4   9  15  21  32  51  73 101 137 172 205 244
#     4   9  16  26  38  53  77 109 140 169 210 257
#     4   9  16  25  38  57  79 105 139 175 211 249
#     4   8  14  22  31  47  74 105 133 164 204 250
#     4   9  18  32  47  63  86 116 147 177 214 259
#
# _framework density 21.863969999999998
#
# number of rings (size 3 to 8) (size 9 to 14) (size 15 to 20)
#    0.000    3.167    0.000    3.500    0.000    8.333 
#    0.000    0.000    0.000    0.000    0.000    0.000 
#    0.000    1.333    0.000   15.000    0.000   18.667 
#
# Total GULP energy -133771.448281 kJ/mol
# GULP energy per Si atom -5573.810345 kJ/mol
# Density = 2.181421 g / cm^3
# Si number density = 21.863970 Si / 1000 Ang^3
#
#
#
# Elastic Constant Matrix: (Units=GPa)
#
#
# Indices 1 2 3 4 5 6 
#
# 1 55.6027 11.8575 5.2478 0.0000 9.8558 0.0000
# 2 11.8575 102.3064 123.9177 0.0000 4.6906 0.0000
# 3 5.2478 123.9177 262.4759 0.0000 0.1520 0.0000
# 4 0.0000 0.0000 0.0000 47.1652 0.0000 -1.7642
# 5 9.8558 4.6906 0.1520 0.0000 6.8108 0.0000
# 6 0.0000 0.0000 0.0000 -1.7642 0.0000 -2.5878
#
#
#
# Elastic Compliance Matrix: (Units=1/GPa)
#
#
# Indices 1 2 3 4 5 6 
#
# 1 0.024351 -0.001615 0.000296 0.000000 -0.034132 0.000000
# 2 -0.001615 0.024695 -0.011618 0.000000 -0.014410 0.000000
# 3 0.000296 -0.011618 0.009285 0.000000 0.007366 0.000000
# 4 0.000000 0.000000 0.000000 0.020675 0.000000 -0.014095
# 5 -0.034132 -0.014410 0.007366 0.000000 0.205978 0.000000
# 6 0.000000 0.000000 0.000000 -0.014095 0.000000 -0.376822
#
#
# Mechanical properties :
#
#
# Convention : Reuss Voigt Hill
#
# Bulk Modulus (GPa) = 30.81180 78.04788 54.42984
# Shear Modulus (GPa) = -90.67065 28.90178 -30.88443
#
# Velocity S-wave (km/s) = -6.44673 3.63973 -3.76250
# Velocity P-wave (km/s) = 6.42579 7.31013 2.46447
#
# Compressibility (1/GPa) = 0.03245510
#
# Stress axis : x y z
#
# Youngs Moduli (GPa) = 41.06529 40.49461 107.70450
#
# Poissons Ratio (x) = 0.06542 -0.03183
# Poissons Ratio (y) = 0.06634 1.25131
# Poissons Ratio (z) = -0.01214 0.47046
#
# Static dielectric constant tensor:
#      x y z
#    x 1.336550 0.000000 0.058680 
#    y 0.000000 1.762950 0.000000 
#    z 0.058680 0.000000 1.822290 
# 
# From -- ./inp_files/236610.got.cif
#   From: 2010.05.17/outbox.cif.g08.bks.cpg/sg12_119_cif.got.tgz:236610.got - 2010.06.03 13:09:07.
