data_PCOD9222784
_publ_section_title
;
Structure prediction by ZEFSAII (Michael W. Deem and Ramdas Pophale) SiO2 
 PCOD9222784
Probable space group: C 2/M
;
_chemical_formula_sum "Si O2"
_cell_formula_units_Z 28
_cell_length_a 4.724473
_cell_length_b 20.895065
_cell_length_c 12.716991
_cell_angle_alpha 90.000000
_cell_angle_beta 116.414356
_cell_angle_gamma 90.000000
_cell_volume 1124.334932
_symmetry_space_group_name_H-M "C 2/M"
_symmetry_group_IT_number 12
_symmetry_cell_setting 'monoclinic'
loop_
_space_group_symop_operation_xyz
x,y,z
-x,y,-z
-x,-y,-z
x,-y,z
1/2+x,1/2+y,z
1/2-x,1/2+y,-z
1/2-x,1/2-y,-z
1/2+x,1/2-y,z
loop_
_atom_site_type_symbol
_atom_site_label
_atom_site_fract_x
_atom_site_fract_y
_atom_site_fract_z
Si Si1 0.746281 0.500000 0.249600
Si Si2 0.639547 0.396688 0.417214
Si Si3 0.326847 0.293003 0.239429
Si Si4 0.139540 0.397967 0.917968
O O1 0.643386 0.444285 0.319038
O O2 0.849815 0.444391 0.180321
O O3 0.500000 0.427577 0.500000
O O4 0.432059 0.334726 0.356487
O O5 0.000000 0.379310 0.500000
O O6 0.646631 0.272561 0.234870
O O7 0.089896 0.338223 0.137488
O O8 0.500000 0.379268 0.000000
O O9 0.000000 0.430817 0.000000
#
# Coordination Sequence:
#
# PCOD9222784 Si02
#       4
#     4   8   8   8
#     4  12  26  50  76 110 154 186 244 308 364 442
#     4  12  27  47  76 111 148 195 242 300 372 435
#     4  12  27  49  74 107 149 192 248 304 356 434
#     4  12  27  47  76 111 148 195 242 300 372 435
#
# _framework density 24.903611000000001
#
# number of rings (size 3 to 8) (size 9 to 14) (size 15 to 20)
#    0.000    0.000    0.000   10.286    0.000   14.857 
#    0.000    0.000    0.000    0.000    0.000    0.000 
#    0.000    0.000    0.000    0.000    0.000    0.000 
#
# Total GULP energy -77987.280556 kJ/mol
# GULP energy per Si atom -5570.520040 kJ/mol
# Density = 2.484693 g / cm^3
# Si number density = 24.903611 Si / 1000 Ang^3
#
#
#
# Elastic Constant Matrix: (Units=GPa)
#
#
# Indices 1 2 3 4 5 6 
#
# 1 150.2278 25.4390 82.8913 0.0000 -20.9179 0.0000
# 2 25.4390 114.7228 52.9404 0.0000 -2.0675 0.0000
# 3 82.8913 52.9404 131.8793 0.0000 -42.2199 0.0000
# 4 0.0000 0.0000 0.0000 -43.0568 0.0000 -70.7282
# 5 -20.9179 -2.0675 -42.2199 0.0000 86.3974 0.0000
# 6 0.0000 0.0000 0.0000 -70.7282 0.0000 -102.2138
#
#
#
# Elastic Compliance Matrix: (Units=1/GPa)
#
#
# Indices 1 2 3 4 5 6 
#
# 1 0.010330 0.001026 -0.007227 0.000000 -0.001006 0.000000
# 2 0.001026 0.011160 -0.005880 0.000000 -0.002358 0.000000
# 3 -0.007227 -0.005880 0.016454 0.000000 0.006150 0.000000
# 4 0.000000 0.000000 0.000000 0.169939 0.000000 -0.117591
# 5 -0.001006 -0.002358 0.006150 0.000000 0.014280 0.000000
# 6 0.000000 0.000000 0.000000 -0.117591 0.000000 0.071585
#
#
# Mechanical properties :
#
#
# Convention : Reuss Voigt Hill
#
# Bulk Modulus (GPa) = 72.55023 79.93016 76.24019
# Shear Modulus (GPa) = 15.50367 3.92928 9.71647
#
# Velocity S-wave (km/s) = 2.49780 1.25747 1.97740
# Velocity P-wave (km/s) = 6.12489 5.85438 5.99116
#
# Compressibility (1/GPa) = 0.01378355
#
# Stress axis : x y z
#
# Youngs Moduli (GPa) = 96.80180 89.60648 60.77377
#
# Poissons Ratio (x) = -0.09195 0.43922
# Poissons Ratio (y) = -0.09934 0.35733
# Poissons Ratio (z) = 0.69959 0.52686
#
# Static dielectric constant tensor:
#      x y z
#    x 1.977220 0.000000 0.042760 
#    y 0.000000 1.845540 0.000000 
#    z 0.042760 0.000000 2.036390 
# 
# From -- ./inp_files/114581.got.cif
#   From: 2010.05.17/outbox.cif.g08.bks.cpg/sg12_58_cif.got.tgz:114581.got - 2010.06.03 13:09:07.
