data_PCOD9222349
_publ_section_title
;
Structure prediction by ZEFSAII (Michael W. Deem and Ramdas Pophale) SiO2 
 PCOD9222349
Probable space group: C 2/M
;
_chemical_formula_sum "Si O2"
_cell_formula_units_Z 40
_cell_length_a 8.093511
_cell_length_b 13.599908
_cell_length_c 20.081302
_cell_angle_alpha 90.000000
_cell_angle_beta 43.894154
_cell_angle_gamma 90.000000
_cell_volume 1532.511457
_symmetry_space_group_name_H-M "C 2/M"
_symmetry_group_IT_number 12
_symmetry_cell_setting 'monoclinic'
loop_
_space_group_symop_operation_xyz
x,y,z
-x,y,-z
-x,-y,-z
x,-y,z
1/2+x,1/2+y,z
1/2-x,1/2+y,-z
1/2-x,1/2-y,-z
1/2+x,1/2-y,z
loop_
_atom_site_type_symbol
_atom_site_label
_atom_site_fract_x
_atom_site_fract_y
_atom_site_fract_z
Si Si1 0.425830 0.381718 0.116665
Si Si2 0.953914 0.117677 0.763836
Si Si3 0.549628 0.266018 0.613046
Si Si4 0.917991 0.383093 0.293386
Si Si5 0.434212 0.116233 0.940179
O O1 0.430543 0.500000 0.107710
O O2 0.477567 0.362752 0.179765
O O3 0.152059 0.354575 0.181846
O O4 0.663728 0.345251 0.010173
O O5 0.677349 0.153346 0.835892
O O6 0.109102 0.170271 0.662491
O O7 0.958681 0.000000 0.753529
O O8 0.750000 0.250000 0.500000
O O9 0.328916 0.330302 0.651069
O O10 0.511255 0.157479 0.654479
O O11 0.891474 0.500000 0.298630
O O12 0.424254 0.000000 0.926270
O O13 0.500000 0.120638 0.000000
#
# Coordination Sequence:
#
# PCOD9222349 Si02
#       5
#     8   8   8   8   8
#     4   8  15  32  61  96 134 173 211 262 332 404
#     4   9  17  34  63  98 136 177 223 275 332 398
#     4  12  26  43  65  93 126 172 232 286 336 399
#     4  11  25  46  70  97 134 176 220 280 347 404
#     4   7  11  24  53  93 133 172 211 258 324 398
#
# _framework density 26.100946
#
# number of rings (size 3 to 8) (size 9 to 14) (size 15 to 20)
#    0.000    2.600    0.000    4.800    0.000    2.400 
#    0.000    3.000    0.000   14.400    0.000    0.000 
#    0.000    0.000    0.000    0.000    0.000    0.000 
#
# Total GULP energy -111825.801962 kJ/mol
# GULP energy per Si atom -5591.290098 kJ/mol
# Density = 2.604154 g / cm^3
# Si number density = 26.100946 Si / 1000 Ang^3
#
#
#
# Elastic Constant Matrix: (Units=GPa)
#
#
# Indices 1 2 3 4 5 6 
#
# 1 113.4722 55.0938 45.3148 -0.0010 -24.4999 0.0014
# 2 55.0938 158.8921 64.7139 -0.0002 -16.7714 0.0003
# 3 45.3148 64.7139 211.0623 -0.0010 4.8852 0.0020
# 4 -0.0010 -0.0002 -0.0010 44.8714 0.0009 -3.8263
# 5 -24.4999 -16.7714 4.8852 0.0009 38.0830 -0.0013
# 6 0.0014 0.0003 0.0020 -3.8263 -0.0013 45.3903
#
#
#
# Elastic Compliance Matrix: (Units=1/GPa)
#
#
# Indices 1 2 3 4 5 6 
#
# 1 0.012479 -0.002769 -0.001994 0.000000 0.007064 0.000000
# 2 -0.002769 0.008291 -0.001997 0.000000 0.002126 0.000000
# 3 -0.001994 -0.001997 0.005846 0.000000 -0.002912 0.000000
# 4 0.000000 0.000000 0.000000 0.022447 0.000000 0.001892
# 5 0.007064 0.002126 -0.002912 0.000000 0.032113 0.000001
# 6 0.000000 0.000000 0.000000 0.001892 0.000001 0.022191
#
#
# Mechanical properties :
#
#
# Convention : Reuss Voigt Hill
#
# Bulk Modulus (GPa) = 76.35748 90.40794 83.38271
# Shear Modulus (GPa) = 41.23670 46.88924 44.06297
#
# Velocity S-wave (km/s) = 3.97910 4.24306 4.11320
# Velocity P-wave (km/s) = 7.10135 7.66275 7.38739
#
# Compressibility (1/GPa) = 0.01309629
#
# Stress axis : x y z
#
# Youngs Moduli (GPa) = 80.13724 120.60552 171.06803
#
# Poissons Ratio (x) = 0.33398 0.34104
# Poissons Ratio (y) = 0.22192 0.34161
# Poissons Ratio (z) = 0.15976 0.24084
#
# Static dielectric constant tensor:
#      x y z
#    x 2.206260 0.000000 -0.009670 
#    y 0.000000 2.051250 0.000000 
#    z -0.009670 0.000000 2.037710 
# 
# From -- ./inp_files/332473.got.cif
#   From: 2010.05.17/outbox.cif.g08.bks.cpg/sg12_167_cif.got.tgz:332473.got - 2010.06.03 13:09:07.
