data_PCOD9222563
_publ_section_title
;
Structure prediction by ZEFSAII (Michael W. Deem and Ramdas Pophale) SiO2 
 PCOD9222563
Probable space group: C 2/M
;
_chemical_formula_sum "Si O2"
_cell_formula_units_Z 34
_cell_length_a 14.040630
_cell_length_b 7.503058
_cell_length_c 15.966810
_cell_angle_alpha 90.000000
_cell_angle_beta 122.881533
_cell_angle_gamma 90.000000
_cell_volume 1412.590510
_symmetry_space_group_name_H-M "C 2/M"
_symmetry_group_IT_number 12
_symmetry_cell_setting 'monoclinic'
loop_
_space_group_symop_operation_xyz
x,y,z
-x,y,-z
-x,-y,-z
x,-y,z
1/2+x,1/2+y,z
1/2-x,1/2+y,-z
1/2-x,1/2-y,-z
1/2+x,1/2-y,z
loop_
_atom_site_type_symbol
_atom_site_label
_atom_site_fract_x
_atom_site_fract_y
_atom_site_fract_z
Si Si1 0.657391 0.791216 0.753351
Si Si2 0.500000 0.500000 0.500000
Si Si3 0.676327 0.209226 0.560397
Si Si4 0.597160 0.718717 0.109596
Si Si5 0.084027 0.205711 0.293133
O O1 0.673273 0.769641 0.661464
O O2 0.774246 0.724850 0.850426
O O3 0.539740 0.712123 0.726984
O O4 0.648069 0.000000 0.766302
O O5 0.577577 0.344878 0.490485
O O6 0.805732 0.275996 0.603932
O O7 0.653520 0.000000 0.531847
O O8 0.596223 0.500000 0.108470
O O9 0.575132 0.779207 0.194429
O O10 0.500000 0.778202 0.000000
O O11 0.117493 0.000000 0.298861
#
# Coordination Sequence:
#
# PCOD9222563 Si02
#       5
#     8   2   8   8   8
#     4   9  18  33  55  77 107 147 181 222 270 324
#     4  12  22  36  68  82 102 146 178 236 280 322
#     4   9  21  39  56  81 113 142 182 225 278 336
#     4   8  15  30  50  77 110 147 184 220 269 319
#     4   9  18  33  55  77 107 147 181 222 270 324
#
# _framework density 24.069254999999998
#
# number of rings (size 3 to 8) (size 9 to 14) (size 15 to 20)
#    0.000    3.059    0.000    3.176    3.294    0.941 
#    0.000    1.176    0.000    1.412    0.000    0.000 
#    0.000    0.000    0.000    0.000    0.000    3.765 
#
# Total GULP energy -94709.296894 kJ/mol
# GULP energy per Si atom -5571.135111 kJ/mol
# Density = 2.401447 g / cm^3
# Si number density = 24.069255 Si / 1000 Ang^3
#
#
#
# Elastic Constant Matrix: (Units=GPa)
#
#
# Indices 1 2 3 4 5 6 
#
# 1 152.9582 27.8688 43.2382 0.0000 44.3529 0.0000
# 2 27.8688 66.0909 27.7717 0.0000 7.4865 0.0000
# 3 43.2382 27.7717 153.4718 0.0000 35.5150 0.0000
# 4 0.0000 0.0000 0.0000 -6.2054 0.0000 8.0153
# 5 44.3529 7.4865 35.5150 0.0000 34.4312 0.0000
# 6 0.0000 0.0000 0.0000 8.0153 0.0000 33.6308
#
#
#
# Elastic Compliance Matrix: (Units=1/GPa)
#
#
# Indices 1 2 3 4 5 6 
#
# 1 0.011103 -0.003394 0.000821 0.000000 -0.014411 0.000000
# 2 -0.003394 0.017425 -0.003063 0.000000 0.003743 0.000000
# 3 0.000821 -0.003063 0.009102 0.000000 -0.009780 0.000000
# 4 0.000000 0.000000 0.000000 -0.123218 0.000000 0.029367
# 5 -0.014411 0.003743 -0.009780 0.000000 0.056881 0.000000
# 6 0.000000 0.000000 0.000000 0.029367 0.000000 0.022736
#
#
# Mechanical properties :
#
#
# Convention : Reuss Voigt Hill
#
# Bulk Modulus (GPa) = 37.94029 63.36426 50.65227
# Shear Modulus (GPa) = 354.93300 30.61414 192.77357
#
# Velocity S-wave (km/s) = 12.15662 3.57027 8.95908
# Velocity P-wave (km/s) = 14.58909 6.58625 11.31858
#
# Compressibility (1/GPa) = 0.02635721
#
# Stress axis : x y z
#
# Youngs Moduli (GPa) = 90.06716 57.38852 109.86524
#
# Poissons Ratio (x) = 0.19480 -0.09021
# Poissons Ratio (y) = 0.30572 0.33653
# Poissons Ratio (z) = -0.07395 0.17579
#
# Static dielectric constant tensor:
#      x y z
#    x 1.981110 0.000000 -0.026350 
#    y 0.000000 1.893950 0.000000 
#    z -0.026350 0.000000 2.005130 
# 
# From -- ./inp_files/210626.got.cif
#   From: 2010.05.17/outbox.cif.g08.bks.cpg/sg12_106_cif.got.tgz:210626.got - 2010.06.03 13:09:07.
