data_PCOD9222483
_publ_section_title
;
Structure prediction by ZEFSAII (Michael W. Deem and Ramdas Pophale) SiO2 
 PCOD9222483
Probable space group: C 2/M
;
_chemical_formula_sum "Si O2"
_cell_formula_units_Z 36
_cell_length_a 14.053417
_cell_length_b 15.926204
_cell_length_c 8.251689
_cell_angle_alpha 90.000000
_cell_angle_beta 89.278602
_cell_angle_gamma 90.000000
_cell_volume 1846.726725
_symmetry_space_group_name_H-M "C 2/M"
_symmetry_group_IT_number 12
_symmetry_cell_setting 'monoclinic'
loop_
_space_group_symop_operation_xyz
x,y,z
-x,y,-z
-x,-y,-z
x,-y,z
1/2+x,1/2+y,z
1/2-x,1/2+y,-z
1/2-x,1/2-y,-z
1/2+x,1/2-y,z
loop_
_atom_site_type_symbol
_atom_site_label
_atom_site_fract_x
_atom_site_fract_y
_atom_site_fract_z
Si Si1 0.000000 0.292248 0.500000
Si Si2 0.602302 0.645601 0.972510
Si Si3 0.309386 0.093472 0.900939
Si Si4 0.666544 0.260987 0.295190
Si Si5 0.127138 0.314125 0.773509
O O1 0.087353 0.236132 0.434042
O O2 0.046782 0.342187 0.648913
O O3 0.694625 0.593433 0.921892
O O4 0.594942 0.724232 0.848433
O O5 0.500000 0.604222 0.000000
O O6 0.630011 0.687776 0.141713
O O7 0.328009 0.164444 0.765953
O O8 0.343609 0.000000 0.863679
O O9 0.352788 0.127152 0.071108
O O10 0.772267 0.297127 0.319470
#
# Coordination Sequence:
#
# PCOD9222483 Si02
#       5
#     4   8   8   8   8
#     4  12  18  30  55  74  99 132 168 198 252 292
#     4   9  15  32  55  76  96 120 169 220 244 282
#     4   9  19  35  51  70 103 136 162 203 247 287
#     4   9  19  32  51  77 101 126 165 210 246 286
#     4   9  19  32  51  77 101 126 165 210 246 286
#
# _framework density 19.493950999999999
#
# number of rings (size 3 to 8) (size 9 to 14) (size 15 to 20)
#    0.000    2.667    2.222    3.333    0.000    0.444 
#    0.000    4.444    0.000    0.000    0.000    6.222 
#    0.000    0.000    0.000    0.000    0.000    0.000 
#
# Total GULP energy -100276.742864 kJ/mol
# GULP energy per Si atom -5570.930159 kJ/mol
# Density = 1.944958 g / cm^3
# Si number density = 19.493951 Si / 1000 Ang^3
#
#
#
# Elastic Constant Matrix: (Units=GPa)
#
#
# Indices 1 2 3 4 5 6 
#
# 1 112.4742 -5.6194 29.0741 0.0000 9.7262 0.0000
# 2 -5.6194 65.0546 -1.8737 0.0000 8.8039 0.0000
# 3 29.0741 -1.8737 42.3600 0.0000 9.5453 0.0000
# 4 0.0000 0.0000 0.0000 3.6082 0.0000 -0.6160
# 5 9.7262 8.8039 9.5453 0.0000 48.9002 0.0000
# 6 0.0000 0.0000 0.0000 -0.6160 0.0000 1.6370
#
#
#
# Elastic Compliance Matrix: (Units=1/GPa)
#
#
# Indices 1 2 3 4 5 6 
#
# 1 0.010880 0.000855 -0.007225 0.000000 -0.000907 0.000000
# 2 0.000855 0.015902 0.000837 0.000000 -0.003196 0.000000
# 3 -0.007225 0.000837 0.029616 0.000000 -0.004495 0.000000
# 4 0.000000 0.000000 0.000000 0.296172 0.000000 0.111446
# 5 -0.000907 -0.003196 -0.004495 0.000000 0.022083 0.000000
# 6 0.000000 0.000000 0.000000 0.111446 0.000000 0.652822
#
#
# Mechanical properties :
#
#
# Convention : Reuss Voigt Hill
#
# Bulk Modulus (GPa) = 22.05990 29.22785 25.64387
# Shear Modulus (GPa) = 4.74540 24.04960 14.39750
#
# Velocity S-wave (km/s) = 1.56191 3.51621 2.72060
# Velocity P-wave (km/s) = 3.82016 5.61345 4.80127
#
# Compressibility (1/GPa) = 0.04533113
#
# Stress axis : x y z
#
# Youngs Moduli (GPa) = 91.91387 62.88437 33.76550
#
# Poissons Ratio (x) = -0.05373 0.24396
# Poissons Ratio (y) = -0.07854 -0.02827
# Poissons Ratio (z) = 0.66409 -0.05265
#
# Static dielectric constant tensor:
#      x y z
#    x 1.743480 0.000000 0.004510 
#    y 0.000000 1.644190 0.000000 
#    z 0.004510 0.000000 1.723390 
# 
# From -- ./inp_files/58440.got.cif
#   From: 2010.05.17/outbox.cif.g08.bks.cpg/sg12_30_cif.got.tgz:58440.got - 2010.06.03 13:09:07.
