data_PCOD9222022
_publ_section_title
;
Structure prediction by ZEFSAII (Michael W. Deem and Ramdas Pophale) SiO2 
 PCOD9222022
Probable space group: C 2/M
;
_chemical_formula_sum "Si O2"
_cell_formula_units_Z 42
_cell_length_a 7.562604
_cell_length_b 16.658637
_cell_length_c 15.194849
_cell_angle_alpha 90.000000
_cell_angle_beta 71.255326
_cell_angle_gamma 90.000000
_cell_volume 1812.753910
_symmetry_space_group_name_H-M "C 2/M"
_symmetry_group_IT_number 12
_symmetry_cell_setting 'monoclinic'
loop_
_space_group_symop_operation_xyz
x,y,z
-x,y,-z
-x,-y,-z
x,-y,z
1/2+x,1/2+y,z
1/2-x,1/2+y,-z
1/2-x,1/2-y,-z
1/2+x,1/2-y,z
loop_
_atom_site_type_symbol
_atom_site_label
_atom_site_fract_x
_atom_site_fract_y
_atom_site_fract_z
Si Si1 0.639222 0.823350 0.901268
Si Si2 0.151718 0.591978 0.723937
Si Si3 0.098195 0.092573 0.670491
Si Si4 0.425983 0.644544 0.135723
Si Si5 0.812797 0.592000 0.473901
Si Si6 0.000000 0.000000 0.000000
O O1 0.573918 0.857553 0.817421
O O2 0.640544 0.727408 0.894921
O O3 0.848584 0.851577 0.887839
O O4 0.500000 0.849840 0.000000
O O5 0.080626 0.500000 0.737416
O O6 0.374965 0.589621 0.703961
O O7 0.136964 0.628138 0.628568
O O8 0.156079 0.133344 0.752642
O O9 0.166349 0.128338 0.566485
O O10 0.167329 0.000000 0.662044
O O11 0.398401 0.569919 0.076746
O O12 0.748197 0.500000 0.463327
O O13 0.000000 0.588109 0.500000
#
# Coordination Sequence:
#
# PCOD9222022 Si02
#       6
#     8   8   8   8   8   2
#     4  11  24  42  63  91 130 165 206 262 319 363
#     4   9  19  36  58  86 120 163 210 250 305 377
#     4   9  17  34  60  84 116 162 209 250 305 370
#     4  11  24  43  65  94 126 168 210 259 314 378
#     4   9  17  31  52  88 124 156 200 259 310 361
#     4  12  24  44  70  92 126 164 224 246 306 388
#
# _framework density 23.169167999999999
#
# number of rings (size 3 to 8) (size 9 to 14) (size 15 to 20)
#    0.000    2.095    1.905    1.143    1.333    4.190 
#    0.000    0.952    0.000    0.000    0.000    0.000 
#    0.000    0.000    0.000    0.000    0.000    0.000 
#
# Total GULP energy -117109.549384 kJ/mol
# GULP energy per Si atom -5576.645209 kJ/mol
# Density = 2.311643 g / cm^3
# Si number density = 23.169168 Si / 1000 Ang^3
#
#
#
# Elastic Constant Matrix: (Units=GPa)
#
#
# Indices 1 2 3 4 5 6 
#
# 1 27.5691 0.8105 16.5392 0.0000 -0.2824 0.0000
# 2 0.8105 60.7273 53.4021 0.0000 4.6761 0.0000
# 3 16.5392 53.4021 224.5839 0.0000 8.5776 0.0000
# 4 0.0000 0.0000 0.0000 36.2103 0.0000 22.0021
# 5 -0.2824 4.6761 8.5776 0.0000 32.5993 0.0000
# 6 0.0000 0.0000 0.0000 22.0021 0.0000 14.2546
#
#
#
# Elastic Compliance Matrix: (Units=1/GPa)
#
#
# Indices 1 2 3 4 5 6 
#
# 1 0.038269 0.002439 -0.003432 0.000000 0.000885 0.000000
# 2 0.002439 0.021070 -0.005127 0.000000 -0.001652 0.000000
# 3 -0.003432 -0.005127 0.005957 0.000000 -0.000862 0.000000
# 4 0.000000 0.000000 0.000000 0.444472 0.000000 -0.686045
# 5 0.000885 -0.001652 -0.000862 0.000000 0.031147 0.000000
# 6 0.000000 0.000000 0.000000 -0.686045 0.000000 1.129067
#
#
# Mechanical properties :
#
#
# Convention : Reuss Voigt Hill
#
# Bulk Modulus (GPa) = 18.84756 50.48709 34.66732
# Shear Modulus (GPa) = 2.94134 32.75475 17.84805
#
# Velocity S-wave (km/s) = 1.12795 3.76403 2.77850
# Velocity P-wave (km/s) = 3.13827 6.38189 5.02878
#
# Compressibility (1/GPa) = 0.05305727
#
# Stress axis : x y z
#
# Youngs Moduli (GPa) = 26.13092 47.46096 167.85956
#
# Poissons Ratio (x) = -0.11577 0.57610
# Poissons Ratio (y) = -0.06374 0.86055
# Poissons Ratio (z) = 0.08968 0.24331
#
# Static dielectric constant tensor:
#      x y z
#    x 1.898420 0.000000 0.002490 
#    y 0.000000 1.815060 0.000000 
#    z 0.002490 0.000000 1.940670 
# 
# From -- ./inp_files/195392.got.cif
#   From: 2010.05.17/outbox.cif.g08.bks.cpg/sg12_98_cif.got.tgz:195392.got - 2010.06.03 13:09:07.
