data_PCOD9222222
_publ_section_title
;
Structure prediction by ZEFSAII (Michael W. Deem and Ramdas Pophale) SiO2 
 PCOD9222222
Probable space group: C 2/M
;
_chemical_formula_sum "Si O2"
_cell_formula_units_Z 48
_cell_length_a 9.792045
_cell_length_b 22.576985
_cell_length_c 11.796891
_cell_angle_alpha 90.000000
_cell_angle_beta 65.843633
_cell_angle_gamma 90.000000
_cell_volume 2379.619019
_symmetry_space_group_name_H-M "C 2/M"
_symmetry_group_IT_number 12
_symmetry_cell_setting 'monoclinic'
loop_
_space_group_symop_operation_xyz
x,y,z
-x,y,-z
-x,-y,-z
x,-y,z
1/2+x,1/2+y,z
1/2-x,1/2+y,-z
1/2-x,1/2-y,-z
1/2+x,1/2-y,z
loop_
_atom_site_type_symbol
_atom_site_label
_atom_site_fract_x
_atom_site_fract_y
_atom_site_fract_z
Si Si1 0.772646 0.697117 0.661045
Si Si2 0.947155 0.500000 0.698725
Si Si3 0.826263 0.803271 0.045905
Si Si4 0.866066 0.098994 0.848992
Si Si5 0.027387 0.811316 0.371954
Si Si6 0.414799 0.500000 0.150609
Si Si7 0.500000 0.898854 0.500000
Si Si8 0.130627 0.500000 0.866122
O O1 0.738345 0.686225 0.806153
O O2 0.874690 0.754996 0.628077
O O3 0.621774 0.708280 0.642746
O O4 0.859096 0.644226 0.568369
O O5 0.993231 0.442637 0.609510
O O6 0.048763 0.500000 0.774604
O O7 0.766453 0.500000 0.786211
O O8 0.750000 0.750000 0.000000
O O9 0.824621 0.864583 0.976115
O O10 0.000000 0.786467 0.000000
O O11 0.890197 0.147286 0.744667
O O12 0.735304 0.055957 0.854622
O O13 0.015351 0.058911 0.814769
O O14 0.000000 0.844160 0.500000
O O15 0.500000 0.500000 0.000000
O O16 0.000000 0.500000 0.000000
#
# Coordination Sequence:
#
# PCOD9222222 Si02
#       8
#     8   4   8   8   8   4   4   4
#     4  12  25  46  71 106 144 188 232 282 352 428
#     4  11  26  50  70 102 140 183 246 295 349 413
#     4  12  24  45  72 108 144 183 229 290 356 423
#     4  11  25  46  70 104 138 185 229 290 358 413
#     4  12  26  45  70 103 146 187 230 281 345 427
#     4  11  24  46  79 100 133 183 241 295 352 419
#     4  11  28  44  74 100 142 193 234 288 350 421
#     4  11  28  46  69 104 137 181 234 302 358 402
#
# _framework density 20.171296999999999
#
# number of rings (size 3 to 8) (size 9 to 14) (size 15 to 20)
#    0.000    0.500    4.167    3.000    7.000    0.667 
#    0.000    0.833    0.000    0.000    0.000    0.000 
#    0.000    0.000    0.000    0.000    0.000    0.000 
#
# Total GULP energy -134196.901717 kJ/mol
# GULP energy per Si atom -5591.537572 kJ/mol
# Density = 2.012539 g / cm^3
# Si number density = 20.171297 Si / 1000 Ang^3
#
#
#
# Elastic Constant Matrix: (Units=GPa)
#
#
# Indices 1 2 3 4 5 6 
#
# 1 179.2266 77.5632 60.8874 0.0000 2.3561 0.0000
# 2 77.5632 118.6184 31.5127 0.0000 -2.3716 0.0000
# 3 60.8874 31.5127 137.3795 0.0000 2.3170 0.0000
# 4 0.0000 0.0000 0.0000 78.5217 0.0000 -12.4146
# 5 2.3561 -2.3716 2.3170 0.0000 34.2313 0.0000
# 6 0.0000 0.0000 0.0000 -12.4146 0.0000 -2.6283
#
#
#
# Elastic Compliance Matrix: (Units=1/GPa)
#
#
# Indices 1 2 3 4 5 6 
#
# 1 0.008645 -0.004956 -0.002682 0.000000 -0.000757 0.000000
# 2 -0.004956 0.011838 -0.000539 0.000000 0.001198 0.000000
# 3 -0.002682 -0.000539 0.008599 0.000000 -0.000435 0.000000
# 4 0.000000 0.000000 0.000000 0.007291 0.000000 -0.034437
# 5 -0.000757 0.001198 -0.000435 0.000000 0.029378 0.000000
# 6 0.000000 0.000000 0.000000 -0.034437 0.000000 -0.217811
#
#
# Mechanical properties :
#
#
# Convention : Reuss Voigt Hill
#
# Bulk Modulus (GPa) = 78.56642 86.12792 82.34717
# Shear Modulus (GPa) = -38.03318 39.70900 0.83791
#
# Velocity S-wave (km/s) = -4.34696 4.44169 0.64521
# Velocity P-wave (km/s) = 3.72014 8.31239 6.43954
#
# Compressibility (1/GPa) = 0.01272808
#
# Stress axis : x y z
#
# Youngs Moduli (GPa) = 115.66983 84.47338 116.29412
#
# Poissons Ratio (x) = 0.41862 0.31192
# Poissons Ratio (y) = 0.57322 0.06272
# Poissons Ratio (z) = 0.31024 0.04556
#
# Static dielectric constant tensor:
#      x y z
#    x 1.656520 0.000000 -0.014720 
#    y 0.000000 1.703260 0.000000 
#    z -0.014720 0.000000 1.757580 
# 
# From -- ./inp_files/122524.got.cif
#   From: 2010.05.17/outbox.cif.g08.bks.cpg/sg12_62_cif.got.tgz:122524.got - 2010.06.03 13:09:07.
