data_PCOD9222618
_publ_section_title
;
Structure prediction by ZEFSAII (Michael W. Deem and Ramdas Pophale) SiO2 
 PCOD9222618
Probable space group: C 2/M
;
_chemical_formula_sum "Si O2"
_cell_formula_units_Z 56
_cell_length_a 10.404521
_cell_length_b 28.726235
_cell_length_c 19.153045
_cell_angle_alpha 90.000000
_cell_angle_beta 35.428337
_cell_angle_gamma 90.000000
_cell_volume 3318.410617
_symmetry_space_group_name_H-M "C 2/M"
_symmetry_group_IT_number 12
_symmetry_cell_setting 'monoclinic'
loop_
_space_group_symop_operation_xyz
x,y,z
-x,y,-z
-x,-y,-z
x,-y,z
1/2+x,1/2+y,z
1/2-x,1/2+y,-z
1/2-x,1/2-y,-z
1/2+x,1/2-y,z
loop_
_atom_site_type_symbol
_atom_site_label
_atom_site_fract_x
_atom_site_fract_y
_atom_site_fract_z
Si Si1 0.380471 0.696315 0.739442
Si Si2 0.401210 0.196317 0.739435
Si Si3 0.489783 0.349871 0.840146
Si Si4 0.133878 0.298895 0.077416
Si Si5 0.350935 0.354144 0.499999
Si Si6 0.285078 0.947704 0.499997
Si Si7 0.308274 0.446593 0.294485
O O1 0.445957 0.749999 0.702692
O O2 0.436052 0.676125 0.791095
O O3 0.525090 0.667171 0.621218
O O4 0.117330 0.696654 0.839290
O O5 0.364811 0.196656 0.839282
O O6 0.611269 0.167175 0.621208
O O7 0.190673 0.176124 0.791089
O O8 0.553521 0.403585 0.797652
O O9 0.276698 0.340804 0.982206
O O10 0.250000 0.250000 0.000000
O O11 0.500000 0.343564 0.500000
O O12 0.321472 0.408680 0.500004
O O13 0.552064 0.942183 0.383667
O O14 0.203070 0.942183 0.616330
O O15 0.234140 0.000000 0.499997
O O16 0.380820 0.500000 0.246121
#
# Coordination Sequence:
#
# PCOD9222618 Si02
#       7
#     8   8   8   8   8   8   8
#     4  12  24  41  59  88 123 164 201 246 300 357
#     4  12  24  41  59  88 123 164 201 246 300 357
#     4  12  23  36  68  90 116 160 209 251 290 350
#     4  12  24  42  61  83 123 168 208 240 290 356
#     4  12  24  39  58  87 127 156 192 252 319 362
#     4   9  18  36  61  86 115 151 199 251 304 364
#     4   9  18  36  62  91 115 149 201 259 305 349
#
# _framework density 16.875547999999998
#
# number of rings (size 3 to 8) (size 9 to 14) (size 15 to 20)
#    0.000    0.857    7.143    2.143    0.000    0.857 
#    0.000    0.000    0.000    5.143    0.000    0.000 
#    0.000    0.000    0.000    0.000    0.000    0.000 
#
# Total GULP energy -156296.799913 kJ/mol
# GULP energy per Si atom -5582.028568 kJ/mol
# Density = 1.683714 g / cm^3
# Si number density = 16.875548 Si / 1000 Ang^3
#
#
#
# Elastic Constant Matrix: (Units=GPa)
#
#
# Indices 1 2 3 4 5 6 
#
# 1 105.9740 19.3675 37.8225 0.0000 -1.8270 0.0000
# 2 19.3675 126.2296 47.0876 0.0000 0.3586 0.0000
# 3 37.8225 47.0876 98.3188 0.0000 1.6748 0.0000
# 4 0.0000 0.0000 0.0000 25.5978 0.0000 -0.0220
# 5 -1.8270 0.3586 1.6748 0.0000 -32.0031 0.0000
# 6 0.0000 0.0000 0.0000 -0.0220 0.0000 27.2695
#
#
#
# Elastic Compliance Matrix: (Units=1/GPa)
#
#
# Indices 1 2 3 4 5 6 
#
# 1 0.010917 -0.000136 -0.004121 0.000000 -0.000840 0.000000
# 2 -0.000136 0.009646 -0.004566 0.000000 -0.000123 0.000000
# 3 -0.004121 -0.004566 0.013927 0.000000 0.000913 0.000000
# 4 0.000000 0.000000 0.000000 0.039066 0.000000 0.000032
# 5 -0.000840 -0.000123 0.000913 0.000000 -0.031153 0.000000
# 6 0.000000 0.000000 0.000000 0.000032 0.000000 0.036671
#
#
# Mechanical properties :
#
#
# Convention : Reuss Voigt Hill
#
# Bulk Modulus (GPa) = 59.35682 59.89749 59.62716
# Shear Modulus (GPa) = 48.85949 19.25584 34.05766
#
# Velocity S-wave (km/s) = 5.38662 3.38161 4.49727
# Velocity P-wave (km/s) = 8.59867 7.12866 7.89794
#
# Compressibility (1/GPa) = 0.01684726
#
# Stress axis : x y z
#
# Youngs Moduli (GPa) = 91.59862 103.66608 71.80192
#
# Poissons Ratio (x) = 0.01405 0.29586
# Poissons Ratio (y) = 0.01242 0.32782
# Poissons Ratio (z) = 0.37743 0.47330
#
# Static dielectric constant tensor:
#      x y z
#    x 1.574890 0.000000 -0.008540 
#    y 0.000000 1.561950 0.000000 
#    z -0.008540 0.000000 0.949480 
# 
# From -- ./inp_files/124225.got.cif
#   From: 2010.05.17/outbox.cif.g08.bks.cpg/sg12_63_cif.got.tgz:124225.got - 2010.06.03 13:09:07.
