data_PCOD9222834
_publ_section_title
;
Structure prediction by ZEFSAII (Michael W. Deem and Ramdas Pophale) SiO2 
 PCOD9222834
Probable space group: C 2/M
;
_chemical_formula_sum "Si O2"
_cell_formula_units_Z 56
_cell_length_a 28.284693
_cell_length_b 7.259584
_cell_length_c 28.880448
_cell_angle_alpha 90.000000
_cell_angle_beta 30.976849
_cell_angle_gamma 90.000000
_cell_volume 3052.209094
_symmetry_space_group_name_H-M "C 2/M"
_symmetry_group_IT_number 12
_symmetry_cell_setting 'monoclinic'
loop_
_space_group_symop_operation_xyz
x,y,z
-x,y,-z
-x,-y,-z
x,-y,z
1/2+x,1/2+y,z
1/2-x,1/2+y,-z
1/2-x,1/2-y,-z
1/2+x,1/2-y,z
loop_
_atom_site_type_symbol
_atom_site_label
_atom_site_fract_x
_atom_site_fract_y
_atom_site_fract_z
Si Si1 0.665168 0.723131 0.711752
Si Si2 0.351872 0.777325 0.608288
Si Si3 0.143053 0.776051 0.899894
Si Si4 0.151900 0.724737 0.282488
Si Si5 0.771926 0.280850 0.534903
Si Si6 0.044922 0.275645 0.568887
Si Si7 0.034315 0.775854 0.898569
O O1 0.659332 0.500000 0.715066
O O2 0.752949 0.769408 0.669955
O O3 0.693893 0.786927 0.636390
O O4 0.575841 0.786256 0.814828
O O5 0.359203 0.716178 0.654683
O O6 0.425989 0.720156 0.507761
O O7 0.356872 0.000000 0.605622
O O8 0.247666 0.715201 0.818588
O O9 0.102340 0.723224 0.883736
O O10 0.143750 0.000000 0.899361
O O11 0.067598 0.717409 0.000950
O O12 0.153370 0.500000 0.280898
O O13 0.059271 0.782397 0.334016
O O14 0.775084 0.500000 0.538975
O O15 0.750000 0.250000 0.500000
O O16 0.872348 0.213563 0.467248
O O17 0.045179 0.500000 0.569418
O O18 0.033936 0.000000 0.898600
#
# Coordination Sequence:
#
# PCOD9222834 Si02
#       7
#     8   8   8   8   8   8   8
#     4   8  12  19  31  45  65  91 117 142 170 205
#     4   8  11  15  23  38  61  89 113 132 160 203
#     4   8  12  14  21  37  62  96 124 137 155 197
#     4   9  12  15  23  39  64  93 116 135 164 204
#     4   9  17  28  40  54  70  90 117 151 185 212
#     4   8  14  20  28  43  64  88 114 141 171 208
#     4   8  11  16  23  37  62  94 124 140 156 196
#
# _framework density 18.347365
#
# number of rings (size 3 to 8) (size 9 to 14) (size 15 to 20)
#    0.000    3.714    1.429    3.000    0.000    1.714 
#    0.000    0.000    0.000    0.000    0.000    1.000 
#    0.000    9.143    0.000    2.571    0.000    2.857 
#
# Total GULP energy -155976.754949 kJ/mol
# GULP energy per Si atom -5570.598391 kJ/mol
# Density = 1.830561 g / cm^3
# Si number density = 18.347365 Si / 1000 Ang^3
#
#
#
# Elastic Constant Matrix: (Units=GPa)
#
#
# Indices 1 2 3 4 5 6 
#
# 1 84.1662 1.9104 90.5520 0.0066 0.7601 -0.0103
# 2 1.9104 79.7762 5.4205 0.0211 -1.1428 -0.0310
# 3 90.5520 5.4205 194.8975 0.0155 -16.6196 -0.0188
# 4 0.0066 0.0211 0.0155 -16.9920 -0.0114 5.2538
# 5 0.7601 -1.1428 -16.6196 -0.0114 26.3588 0.0133
# 6 -0.0103 -0.0310 -0.0188 5.2538 0.0133 -9.2555
#
#
#
# Elastic Compliance Matrix: (Units=1/GPa)
#
#
# Indices 1 2 3 4 5 6 
#
# 1 0.025505 0.000121 -0.012593 -0.000001 -0.008670 -0.000016
# 2 0.000121 0.012562 -0.000380 0.000003 0.000302 -0.000039
# 3 -0.012593 -0.000380 0.011648 0.000001 0.007691 0.000003
# 4 -0.000001 0.000003 0.000001 -0.071379 -0.000010 -0.040517
# 5 -0.008670 0.000302 0.007691 -0.000010 0.043050 0.000050
# 6 -0.000016 -0.000039 0.000003 -0.040517 0.000050 -0.131042
#
#
# Mechanical properties :
#
#
# Convention : Reuss Voigt Hill
#
# Bulk Modulus (GPa) = 41.64618 61.62286 51.63452
# Shear Modulus (GPa) = -65.83428 17.41938 -24.20745
#
# Velocity S-wave (km/s) = -5.99667 3.08461 -3.63629
# Velocity P-wave (km/s) = 5.01983 6.80780 3.25172
#
# Compressibility (1/GPa) = 0.02401181
#
# Stress axis : x y z
#
# Youngs Moduli (GPa) = 39.20836 79.60333 85.85197
#
# Poissons Ratio (x) = -0.00960 1.08109
# Poissons Ratio (y) = -0.00473 0.03260
# Poissons Ratio (z) = 0.49373 0.03023
#
# Static dielectric constant tensor:
#      x y z
#    x 1.598710 -0.000010 -0.013040 
#    y -0.000010 1.752260 0.000010 
#    z -0.013040 0.000010 1.669870 
# 
# From -- ./inp_files/239277.got.cif
#   From: 2010.05.17/outbox.cif.g08.bks.cpg/sg12_120_cif.got.tgz:239277.got - 2010.06.03 13:09:07.
