data_PCOD9222942
_publ_section_title
;
Structure prediction by ZEFSAII (Michael W. Deem and Ramdas Pophale) SiO2 
 PCOD9222942
Probable space group: C 2/M
;
_chemical_formula_sum "Si O2"
_cell_formula_units_Z 40
_cell_length_a 28.725241
_cell_length_b 7.409838
_cell_length_c 27.057994
_cell_angle_alpha 90.000000
_cell_angle_beta 160.738047
_cell_angle_gamma 90.000000
_cell_volume 1899.914130
_symmetry_space_group_name_H-M "C 2/M"
_symmetry_group_IT_number 12
_symmetry_cell_setting 'monoclinic'
loop_
_space_group_symop_operation_xyz
x,y,z
-x,y,-z
-x,-y,-z
x,-y,z
1/2+x,1/2+y,z
1/2-x,1/2+y,-z
1/2-x,1/2-y,-z
1/2+x,1/2-y,z
loop_
_atom_site_type_symbol
_atom_site_label
_atom_site_fract_x
_atom_site_fract_y
_atom_site_fract_z
Si Si1 0.595036 0.209208 0.456531
Si Si2 0.082644 0.778679 0.227754
Si Si3 0.587278 0.279627 0.039336
Si Si4 0.910964 0.279367 0.362783
Si Si5 0.418082 0.712997 0.665560
O O1 0.754821 0.283837 0.616038
O O2 0.491085 0.283905 0.393712
O O3 0.535240 0.215708 0.340857
O O4 0.613908 0.000000 0.488669
O O5 0.027951 0.720206 0.227147
O O6 0.084916 0.000000 0.231288
O O7 0.989081 0.723310 0.087719
O O8 0.586474 0.500000 0.038693
O O9 0.749191 0.220414 0.203448
O O10 0.500000 0.222078 0.000000
O O11 0.906994 0.500000 0.358240
O O12 0.000000 0.226058 0.500000
O O13 0.440777 0.500000 0.686348
O O14 0.250000 0.750000 0.500000
#
# Coordination Sequence:
#
# PCOD9222942 Si02
#       5
#     8   8   8   8   8
#     4   9  16  27  43  64  90 116 144 178 215 255
#     4   8  14  24  38  57  82 111 140 172 210 253
#     4   9  15  23  37  58  84 112 141 175 218 262
#     4   9  16  25  39  61  88 115 143 179 220 258
#     4   9  16  27  44  65  89 116 147 179 212 253
#
# _framework density 21.053583
#
# number of rings (size 3 to 8) (size 9 to 14) (size 15 to 20)
#    0.000    3.200    0.000    3.000    0.000    4.800 
#    0.000    1.000    0.000    0.600    0.000    5.600 
#    0.000   27.200    0.000    0.000    0.000    0.000 
#
# Total GULP energy -111517.878535 kJ/mol
# GULP energy per Si atom -5575.893927 kJ/mol
# Density = 2.100566 g / cm^3
# Si number density = 21.053583 Si / 1000 Ang^3
#
#
#
# Elastic Constant Matrix: (Units=GPa)
#
#
# Indices 1 2 3 4 5 6 
#
# 1 226.1729 -3.3635 114.9916 0.0004 -15.0410 0.0000
# 2 -3.3635 64.2125 1.2298 0.0017 5.3092 0.0008
# 3 114.9916 1.2298 151.7041 0.0029 -18.9982 0.0014
# 4 0.0004 0.0017 0.0029 -2.2283 0.0016 -6.4750
# 5 -15.0410 5.3092 -18.9982 0.0016 34.9067 0.0006
# 6 0.0000 0.0008 0.0014 -6.4750 0.0006 9.1495
#
#
#
# Elastic Compliance Matrix: (Units=1/GPa)
#
#
# Indices 1 2 3 4 5 6 
#
# 1 0.007209 0.000477 -0.005460 -0.000002 0.000062 -0.000001
# 2 0.000477 0.015833 -0.000822 0.000004 -0.002650 0.000002
# 3 -0.005460 -0.000822 0.011223 0.000007 0.003881 0.000003
# 4 -0.000002 0.000004 0.000007 -0.146832 0.000010 -0.103911
# 5 0.000062 -0.002650 0.003881 0.000010 0.031189 0.000005
# 6 -0.000001 0.000002 0.000003 -0.103911 0.000005 0.035760
#
#
# Mechanical properties :
#
#
# Convention : Reuss Voigt Hill
#
# Bulk Modulus (GPa) = 44.14036 74.20060 59.17048
# Shear Modulus (GPa) = -188.99549 30.31436 -79.34056
#
# Velocity S-wave (km/s) = -9.48492 3.79867 -6.14548
# Velocity P-wave (km/s) = 9.94688 7.38648 4.71064
#
# Compressibility (1/GPa) = 0.02265500
#
# Stress axis : x y z
#
# Youngs Moduli (GPa) = 138.71954 63.15878 89.09966
#
# Poissons Ratio (x) = -0.03013 0.48652
# Poissons Ratio (y) = -0.06618 0.07322
# Poissons Ratio (z) = 0.75746 0.05191
#
# Static dielectric constant tensor:
#      x y z
#    x 1.757910 0.000000 -0.016100 
#    y 0.000000 1.829070 0.000000 
#    z -0.016100 0.000000 1.713920 
# 
# From -- ./inp_files/93645.got.cif
#   From: 2010.05.17/outbox.cif.g08.bks.cpg/sg12_47_cif.got.tgz:93645.got - 2010.06.03 13:09:07.
