data_PCOD9222499
_publ_section_title
;
Structure prediction by ZEFSAII (Michael W. Deem and Ramdas Pophale) SiO2 
 PCOD9222499
Probable space group: C 2/M
;
_chemical_formula_sum "Si O2"
_cell_formula_units_Z 46
_cell_length_a 22.206863
_cell_length_b 15.922339
_cell_length_c 18.659192
_cell_angle_alpha 90.000000
_cell_angle_beta 17.881633
_cell_angle_gamma 90.000000
_cell_volume 2025.807681
_symmetry_space_group_name_H-M "C 2/M"
_symmetry_group_IT_number 12
_symmetry_cell_setting 'monoclinic'
loop_
_space_group_symop_operation_xyz
x,y,z
-x,y,-z
-x,-y,-z
x,-y,z
1/2+x,1/2+y,z
1/2-x,1/2+y,-z
1/2-x,1/2-y,-z
1/2+x,1/2-y,z
loop_
_atom_site_type_symbol
_atom_site_label
_atom_site_fract_x
_atom_site_fract_y
_atom_site_fract_z
Si Si1 0.749008 0.156934 0.642026
Si Si2 0.437142 0.500000 0.349441
Si Si3 0.768900 0.839955 0.346111
Si Si4 0.776832 0.154697 0.164083
Si Si5 0.657261 0.000000 0.548555
Si Si6 0.500000 0.000000 0.500000
Si Si7 0.725871 0.000000 0.932915
Si Si8 0.774480 0.341091 0.164786
O O1 0.810435 0.248504 0.543986
O O2 0.793966 0.146387 0.675665
O O3 0.842406 0.082113 0.492704
O O4 0.512497 0.157863 0.901373
O O5 0.370560 0.500000 0.343634
O O6 0.660620 0.500000 0.120517
O O7 0.778062 0.840546 0.249692
O O8 0.643765 0.916918 0.516592
O O9 0.994356 0.852108 0.115915
O O10 0.641309 0.074842 0.304210
O O11 0.710796 0.247416 0.212900
O O12 0.501407 0.000000 0.788722
O O13 0.776512 0.082425 0.829388
#
# Coordination Sequence:
#
# PCOD9222499 Si02
#       8
#     8   4   8   8   4   2   4   8
#     4   9  18  38  68  92 115 159 212 272 310 372
#     4  12  25  39  59  95 127 172 224 244 316 385
#     4   9  20  42  67  86 116 169 218 252 322 371
#     4   9  20  38  65  95 118 157 210 269 319 372
#     4  12  24  43  63  86 130 182 208 256 310 380
#     4  12  20  30  56  98 136 142 184 272 326 360
#     4  12  25  41  61  97 133 170 206 260 320 389
#     4   9  18  38  66  92 123 158 207 263 329 366
#
# _framework density 22.706992
#
# number of rings (size 3 to 8) (size 9 to 14) (size 15 to 20)
#    0.000    2.087    1.739    3.652    0.000    7.652 
#    6.261    0.870    0.000    0.000    0.000    0.000 
#    0.000    0.000    0.000    0.000    0.000    0.000 
#
# Total GULP energy -128268.674123 kJ/mol
# GULP energy per Si atom -5576.898875 kJ/mol
# Density = 2.265531 g / cm^3
# Si number density = 22.706992 Si / 1000 Ang^3
#
#
#
# Elastic Constant Matrix: (Units=GPa)
#
#
# Indices 1 2 3 4 5 6 
#
# 1 46.1046 36.8293 3.1526 0.2187 -9.1372 -0.0199
# 2 36.8293 221.0400 40.3256 3.1023 12.2104 -0.2674
# 3 3.1526 40.3256 49.2803 2.6463 -11.1307 -0.1703
# 4 0.2187 3.1023 2.6463 -927.3661 -0.0889 102.3693
# 5 -9.1372 12.2104 -11.1307 -0.0889 25.7216 -0.0001
# 6 -0.0199 -0.2674 -0.1703 102.3693 -0.0001 21.2763
#
#
#
# Elastic Compliance Matrix: (Units=1/GPa)
#
#
# Indices 1 2 3 4 5 6 
#
# 1 0.030885 -0.007698 0.008453 0.000003 0.018284 -0.000012
# 2 -0.007698 0.007855 -0.008196 0.000003 -0.010010 0.000011
# 3 0.008453 -0.008196 0.031047 0.000051 0.020329 -0.000092
# 4 0.000003 0.000003 0.000051 -0.000704 0.000019 0.003388
# 5 0.018284 -0.010010 0.020329 0.000019 0.058922 -0.000037
# 6 -0.000012 0.000011 -0.000092 0.003388 -0.000037 0.030697
#
#
# Mechanical properties :
#
#
# Convention : Reuss Voigt Hill
#
# Bulk Modulus (GPa) = 18.21377 53.00445 35.60911
# Shear Modulus (GPa) = 26.05722 -160.33247 -67.13762
#
# Velocity S-wave (km/s) = 3.39121 -8.41205 -5.44345
# Velocity P-wave (km/s) = 4.83450 8.42358 4.87772
#
# Compressibility (1/GPa) = 0.05490351
#
# Stress axis : x y z
#
# Youngs Moduli (GPa) = 32.37848 127.30822 32.20949
#
# Poissons Ratio (x) = 0.98003 -0.27226
# Poissons Ratio (y) = 0.24925 0.26400
# Poissons Ratio (z) = -0.27369 1.04345
#
# Static dielectric constant tensor:
#      x y z
#    x 1.850280 -0.000040 -0.062900 
#    y -0.000040 1.881540 0.000040 
#    z -0.062900 0.000040 1.833500 
# 
# From -- ./inp_files/285406.got.cif
#   From: 2010.05.17/outbox.cif.g08.bks.cpg/sg12_143_cif.got.tgz:285406.got - 2010.06.03 13:09:07.
