data_PCOD9222759
_publ_section_title
;
Structure prediction by ZEFSAII (Michael W. Deem and Ramdas Pophale) SiO2 
 PCOD9222759
Probable space group: C 2/M
;
_chemical_formula_sum "Si O2"
_cell_formula_units_Z 20
_cell_length_a 9.310770
_cell_length_b 22.398494
_cell_length_c 7.942017
_cell_angle_alpha 90.000000
_cell_angle_beta 148.256196
_cell_angle_gamma 90.000000
_cell_volume 871.408239
_symmetry_space_group_name_H-M "C 2/M"
_symmetry_group_IT_number 12
_symmetry_cell_setting 'monoclinic'
loop_
_space_group_symop_operation_xyz
x,y,z
-x,y,-z
-x,-y,-z
x,-y,z
1/2+x,1/2+y,z
1/2-x,1/2+y,-z
1/2-x,1/2-y,-z
1/2+x,1/2-y,z
loop_
_atom_site_type_symbol
_atom_site_label
_atom_site_fract_x
_atom_site_fract_y
_atom_site_fract_z
Si Si1 0.249397 0.000000 0.876080
Si Si2 0.386569 0.189191 0.698800
Si Si3 0.112957 0.879897 0.924568
O O1 0.234554 0.058634 0.976425
O O2 0.000000 0.000000 0.500000
O O3 0.500000 0.000000 0.000000
O O4 0.250000 0.250000 0.500000
O O5 0.144747 0.140708 0.444463
O O6 0.500000 0.194728 0.000000
O O7 0.645103 0.168617 0.845818
O O8 0.000000 0.885467 0.000000
#
# Coordination Sequence:
#
# PCOD9222759 Si02
#       3
#     4   8   8
#     4  12  25  46  73 102 139 184 231 286 349 416
#     4  12  26  47  72 103 142 186 233 287 347 416
#     4  12  26  46  72 106 141 182 233 290 348 412
#
# _framework density 22.951356000000001
#
# number of rings (size 3 to 8) (size 9 to 14) (size 15 to 20)
#    0.000    0.000    0.000   11.400    0.000    3.200 
#    0.000    8.000    0.000    0.000    0.000    0.000 
#    0.000    0.000    0.000    0.000    0.000    0.000 
#
# Total GULP energy -56131.371853 kJ/mol
# GULP energy per Si atom -5613.137185 kJ/mol
# Density = 2.289912 g / cm^3
# Si number density = 22.951356 Si / 1000 Ang^3
#
#
#
# Elastic Constant Matrix: (Units=GPa)
#
#
# Indices 1 2 3 4 5 6 
#
# 1 233.2589 112.2651 90.0357 0.0000 20.7626 0.0000
# 2 112.2651 152.9637 72.4908 0.0000 2.7581 0.0000
# 3 90.0357 72.4908 174.3550 0.0000 13.5863 0.0000
# 4 0.0000 0.0000 0.0000 38.8536 0.0000 7.6115
# 5 20.7626 2.7581 13.5863 0.0000 55.8089 0.0000
# 6 0.0000 0.0000 0.0000 7.6115 0.0000 37.0845
#
#
#
# Elastic Compliance Matrix: (Units=1/GPa)
#
#
# Indices 1 2 3 4 5 6 
#
# 1 0.007311 -0.004503 -0.001742 0.000000 -0.002073 0.000000
# 2 -0.004503 0.010925 -0.002350 0.000000 0.001707 0.000000
# 3 -0.001742 -0.002350 0.007698 0.000000 -0.001110 0.000000
# 4 0.000000 0.000000 0.000000 0.026816 0.000000 -0.005504
# 5 -0.002073 0.001707 -0.001110 0.000000 0.018876 0.000000
# 6 0.000000 0.000000 0.000000 -0.005504 0.000000 0.028095
#
#
# Mechanical properties :
#
#
# Convention : Reuss Voigt Hill
#
# Bulk Modulus (GPa) = 114.34727 123.35118 118.84922
# Shear Modulus (GPa) = 41.72699 45.40179 43.56439
#
# Velocity S-wave (km/s) = 4.26850 4.45249 4.36147
# Velocity P-wave (km/s) = 8.61529 8.96070 8.78969
#
# Compressibility (1/GPa) = 0.00874529
#
# Stress axis : x y z
#
# Youngs Moduli (GPa) = 136.77577 91.52915 129.89777
#
# Poissons Ratio (x) = 0.41217 0.22623
# Poissons Ratio (y) = 0.61593 0.30527
# Poissons Ratio (z) = 0.23821 0.21510
#
# Static dielectric constant tensor:
#      x y z
#    x 1.814890 0.000000 -0.002480 
#    y 0.000000 1.920840 0.000000 
#    z -0.002480 0.000000 1.811010 
# 
# From -- ./inp_files/2313.got.cif
#   From: 2010.05.17/outbox.cif.g08.bks.cpg/sg12_2_cif.got.tgz:2313.got - 2010.06.03 13:09:07.
