data_PCOD9222362
_publ_section_title
;
Structure prediction by ZEFSAII (Michael W. Deem and Ramdas Pophale) SiO2 
 PCOD9222362
Probable space group: C 2/M
;
_chemical_formula_sum "Si O2"
_cell_formula_units_Z 48
_cell_length_a 14.429742
_cell_length_b 18.478236
_cell_length_c 17.619680
_cell_angle_alpha 90.000000
_cell_angle_beta 151.354332
_cell_angle_gamma 90.000000
_cell_volume 2252.202463
_symmetry_space_group_name_H-M "C 2/M"
_symmetry_group_IT_number 12
_symmetry_cell_setting 'monoclinic'
loop_
_space_group_symop_operation_xyz
x,y,z
-x,y,-z
-x,-y,-z
x,-y,z
1/2+x,1/2+y,z
1/2-x,1/2+y,-z
1/2-x,1/2-y,-z
1/2+x,1/2-y,z
loop_
_atom_site_type_symbol
_atom_site_label
_atom_site_fract_x
_atom_site_fract_y
_atom_site_fract_z
Si Si1 0.957730 0.083013 0.380100
Si Si2 0.825506 0.330829 0.076794
Si Si3 0.091037 0.317586 0.141592
Si Si4 0.708715 0.812486 0.633443
Si Si5 0.192288 0.333851 0.451229
Si Si6 0.468151 0.581100 0.887845
O O1 0.766008 0.132522 0.238493
O O2 0.000000 0.079691 0.500000
O O3 0.141439 0.121326 0.472370
O O4 0.931552 0.000000 0.334037
O O5 0.931305 0.359581 0.076563
O O6 0.986570 0.336209 0.259845
O O7 0.750000 0.250000 0.000000
O O8 0.639487 0.376071 0.968700
O O9 0.158534 0.256213 0.249973
O O10 0.000000 0.283622 0.000000
O O11 0.500000 0.781868 0.500000
O O12 0.700336 0.851231 0.546089
O O13 0.772775 0.874864 0.735687
O O14 0.250000 0.250000 0.500000
O O15 0.457688 0.500000 0.850376
O O16 0.500000 0.578935 0.000000
#
# Coordination Sequence:
#
# PCOD9222362 Si02
#       6
#     8   8   8   8   8   8
#     4  11  25  47  69 101 142 180 225 281 341 406
#     4  12  25  43  69 108 135 178 228 281 341 408
#     4  12  26  42  72 103 139 180 227 277 342 410
#     4  12  25  43  72 104 134 176 232 288 336 405
#     4  12  23  42  72 101 139 178 230 278 341 403
#     4  11  26  48  70  98 140 184 228 283 341 403
#
# _framework density 21.312470999999999
#
# number of rings (size 3 to 8) (size 9 to 14) (size 15 to 20)
#    0.000    0.333    5.000    3.000    7.000    2.667 
#    0.000    0.000    0.000    0.000    0.000    0.000 
#    0.000    0.000    0.000    0.000    0.000    0.000 
#
# Total GULP energy -133985.067540 kJ/mol
# GULP energy per Si atom -5582.711148 kJ/mol
# Density = 2.126396 g / cm^3
# Si number density = 21.312471 Si / 1000 Ang^3
#
#
#
# Elastic Constant Matrix: (Units=GPa)
#
#
# Indices 1 2 3 4 5 6 
#
# 1 83.8901 15.1244 24.0203 0.0266 1.7011 0.0043
# 2 15.1244 108.5891 20.3281 0.0006 14.5307 -0.0054
# 3 24.0203 20.3281 86.2810 -0.0152 -1.3061 -0.0047
# 4 0.0266 0.0006 -0.0152 31.9201 -0.0039 5.5686
# 5 1.7011 14.5307 -1.3061 -0.0039 44.3307 0.0017
# 6 0.0043 -0.0054 -0.0047 5.5686 0.0017 29.6864
#
#
#
# Elastic Compliance Matrix: (Units=1/GPa)
#
#
# Indices 1 2 3 4 5 6 
#
# 1 0.013101 -0.001163 -0.003377 -0.000012 -0.000221 0.000000
# 2 -0.001163 0.010222 -0.002135 -0.000001 -0.003369 0.000002
# 3 -0.003377 -0.002135 0.013052 0.000009 0.001214 0.000000
# 4 -0.000012 -0.000001 0.000009 0.032388 0.000004 -0.006075
# 5 -0.000221 -0.003369 0.001214 0.000004 0.023706 -0.000002
# 6 0.000000 0.000002 0.000000 -0.006075 -0.000002 0.034825
#
#
# Mechanical properties :
#
#
# Convention : Reuss Voigt Hill
#
# Bulk Modulus (GPa) = 43.43272 44.18954 43.81113
# Shear Modulus (GPa) = 33.71112 35.80661 34.75886
#
# Velocity S-wave (km/s) = 3.98144 4.10332 4.04284
# Velocity P-wave (km/s) = 6.44664 6.57486 6.51106
#
# Compressibility (1/GPa) = 0.02302412
#
# Stress axis : x y z
#
# Youngs Moduli (GPa) = 76.32784 97.83249 76.61901
#
# Poissons Ratio (x) = 0.11379 0.25872
# Poissons Ratio (y) = 0.08877 0.16361
# Poissons Ratio (z) = 0.25774 0.20891
#
# Static dielectric constant tensor:
#      x y z
#    x 1.833130 0.000010 -0.038430 
#    y 0.000010 1.773220 -0.000010 
#    z -0.038430 -0.000010 1.792320 
# 
# From -- ./inp_files/271795.got.cif
#   From: 2010.05.17/outbox.cif.g08.bks.cpg/sg12_136_cif.got.tgz:271795.got - 2010.06.03 13:09:07.
