data_PCOD9222492
_publ_section_title
;
Structure prediction by ZEFSAII (Michael W. Deem and Ramdas Pophale) SiO2 
 PCOD9222492
Probable space group: C 2/M
;
_chemical_formula_sum "Si O2"
_cell_formula_units_Z 28
_cell_length_a 10.051745
_cell_length_b 20.440103
_cell_length_c 7.107647
_cell_angle_alpha 90.000000
_cell_angle_beta 44.999976
_cell_angle_gamma 90.000000
_cell_volume 1032.607353
_symmetry_space_group_name_H-M "C 2/M"
_symmetry_group_IT_number 12
_symmetry_cell_setting 'monoclinic'
loop_
_space_group_symop_operation_xyz
x,y,z
-x,y,-z
-x,-y,-z
x,-y,z
1/2+x,1/2+y,z
1/2-x,1/2+y,-z
1/2-x,1/2-y,-z
1/2+x,1/2-y,z
loop_
_atom_site_type_symbol
_atom_site_label
_atom_site_fract_x
_atom_site_fract_y
_atom_site_fract_z
Si Si1 0.653611 0.500000 0.566271
Si Si2 0.782166 0.641241 0.864698
Si Si3 0.646864 0.641241 0.570970
Si Si4 0.500000 0.250000 0.500000
Si Si5 0.780119 0.500000 0.873491
O O1 0.696931 0.570353 0.433688
O O2 0.742909 0.500000 0.685807
O O3 0.428716 0.500000 0.828379
O O4 0.739574 0.643214 0.682628
O O5 0.869381 0.570353 0.827552
O O6 0.914358 0.703822 0.749690
O O7 0.577797 0.643214 0.161777
O O8 0.664048 0.703822 0.421595
#
# Coordination Sequence:
#
# PCOD9222492 Si02
#       5
#     4   8   8   4   4
#     4   7  12  27  48  62  78 112 152 182 206 242
#     4   9  18  32  47  64  88 117 148 180 214 255
#     4   9  18  32  47  64  88 117 148 180 214 255
#     4  12  20  26  44  72  96 114 136 176 228 270
#     4   7  12  27  48  62  78 112 152 182 206 242
#
# _framework density 27.115822999999999
#
# number of rings (size 3 to 8) (size 9 to 14) (size 15 to 20)
#    0.000    3.143    0.000    5.143    0.000    1.143 
#    0.000    0.000    0.000    0.000    0.000    0.000 
#    0.000   36.571    0.000    0.000    0.000    0.000 
#
# Total GULP energy -78224.094860 kJ/mol
# GULP energy per Si atom -5587.435347 kJ/mol
# Density = 2.705411 g / cm^3
# Si number density = 27.115823 Si / 1000 Ang^3
#
#
#
# Elastic Constant Matrix: (Units=GPa)
#
#
# Indices 1 2 3 4 5 6 
#
# 1 48.8537 9.3125 20.9992 0.0000 8.4892 0.0000
# 2 9.3125 230.8142 9.3143 0.0000 0.0002 0.0000
# 3 20.9992 9.3143 48.8564 0.0000 -8.4890 0.0000
# 4 0.0000 0.0000 0.0000 16.9699 0.0000 -0.0003
# 5 8.4892 0.0002 -8.4890 0.0000 38.5648 0.0000
# 6 0.0000 0.0000 0.0000 -0.0003 0.0000 16.9705
#
#
#
# Elastic Compliance Matrix: (Units=1/GPa)
#
#
# Indices 1 2 3 4 5 6 
#
# 1 0.027967 -0.000584 -0.013495 0.000000 -0.009127 0.000000
# 2 -0.000584 0.004380 -0.000584 0.000000 0.000000 0.000000
# 3 -0.013495 -0.000584 0.027966 0.000000 0.009127 0.000000
# 4 0.000000 0.000000 0.000000 0.058928 0.000000 0.000001
# 5 -0.009127 0.000000 0.009127 0.000000 0.029948 0.000000
# 6 0.000000 0.000000 0.000000 0.000001 0.000000 0.058926
#
#
# Mechanical properties :
#
#
# Convention : Reuss Voigt Hill
#
# Bulk Modulus (GPa) = 32.27220 45.30847 38.79033
# Shear Modulus (GPa) = 20.18000 33.76093 26.97046
#
# Velocity S-wave (km/s) = 2.73099 3.53237 3.15721
# Velocity P-wave (km/s) = 4.67674 5.77775 5.25615
#
# Compressibility (1/GPa) = 0.03098642
#
# Stress axis : x y z
#
# Youngs Moduli (GPa) = 35.75602 228.33080 35.75802
#
# Poissons Ratio (x) = 0.13329 0.48257
# Poissons Ratio (y) = 0.02087 0.02088
# Poissons Ratio (z) = 0.48254 0.13336
#
# Static dielectric constant tensor:
#      x y z
#    x 2.101320 0.000000 0.000000 
#    y 0.000000 2.270830 0.000000 
#    z 0.000000 0.000000 2.101320 
# 
# From -- ./inp_files/47440.got.cif
#   From: 2010.05.17/outbox.cif.g08.bks.cpg/sg12_24_cif.got.tgz:47440.got - 2010.06.03 13:09:07.
