data_PCOD9222069
_publ_section_title
;
Structure prediction by ZEFSAII (Michael W. Deem and Ramdas Pophale) SiO2 
 PCOD9222069
Probable space group: C 2/M
;
_chemical_formula_sum "Si O2"
_cell_formula_units_Z 44
_cell_length_a 22.996191
_cell_length_b 15.530450
_cell_length_c 16.253566
_cell_angle_alpha 90.000000
_cell_angle_beta 158.651199
_cell_angle_gamma 90.000000
_cell_volume 2113.212961
_symmetry_space_group_name_H-M "C 2/M"
_symmetry_group_IT_number 12
_symmetry_cell_setting 'monoclinic'
loop_
_space_group_symop_operation_xyz
x,y,z
-x,y,-z
-x,-y,-z
x,-y,z
1/2+x,1/2+y,z
1/2-x,1/2+y,-z
1/2-x,1/2-y,-z
1/2+x,1/2-y,z
loop_
_atom_site_type_symbol
_atom_site_label
_atom_site_fract_x
_atom_site_fract_y
_atom_site_fract_z
Si Si1 0.205903 0.500000 0.116845
Si Si2 0.224015 0.000000 0.613702
Si Si3 0.909948 0.806350 0.006536
Si Si4 0.646602 0.000000 0.401553
Si Si5 0.746370 0.677725 0.371356
Si Si6 0.838852 0.179199 0.244631
Si Si7 0.491653 0.663362 0.695068
O O1 0.164436 0.500000 0.159169
O O2 0.309921 0.582125 0.232580
O O3 0.044770 0.500000 0.851922
O O4 0.298542 0.000000 0.621258
O O5 0.117770 0.914100 0.481014
O O6 0.805043 0.838098 0.791371
O O7 0.813301 0.728686 0.920401
O O8 0.942761 0.864872 0.129358
O O9 0.085323 0.785689 0.202068
O O10 0.707749 0.912519 0.525753
O O11 0.882763 0.750425 0.558112
O O12 0.870967 0.181270 0.190029
O O13 0.000000 0.213670 0.500000
#
# Coordination Sequence:
#
# PCOD9222069 Si02
#       7
#     4   4   8   4   8   8   8
#     4  12  25  44  67 102 139 178 223 286 348 400
#     4  12  24  41  70 101 138 176 225 278 343 403
#     4  11  24  42  69  98 133 182 224 276 341 392
#     4  12  27  45  69 101 138 182 227 288 336 399
#     4  11  25  45  70 100 138 177 235 280 335 409
#     4  12  23  44  71  99 141 180 224 280 344 407
#     4  12  24  44  71 102 140 177 229 279 342 410
#
# _framework density 20.821375
#
# number of rings (size 3 to 8) (size 9 to 14) (size 15 to 20)
#    0.000    0.364    5.455    3.273    2.545    2.182 
#    0.000    0.000    0.000    3.273    0.000    0.000 
#    0.000    0.000    0.000    0.000    0.000    0.000 
#
# Total GULP energy -122949.840756 kJ/mol
# GULP energy per Si atom -5588.629125 kJ/mol
# Density = 2.077398 g / cm^3
# Si number density = 20.821375 Si / 1000 Ang^3
#
#
#
# Elastic Constant Matrix: (Units=GPa)
#
#
# Indices 1 2 3 4 5 6 
#
# 1 170.3292 31.1818 53.9891 0.0000 -9.5832 0.0000
# 2 31.1818 107.8609 47.4993 -0.0001 17.4818 0.0000
# 3 53.9891 47.4993 96.7721 -0.0001 -9.5574 0.0002
# 4 0.0000 -0.0001 -0.0001 -11.7882 -0.0001 4.8851
# 5 -9.5832 17.4818 -9.5574 -0.0001 35.3084 0.0001
# 6 0.0000 0.0000 0.0002 4.8851 0.0001 18.6604
#
#
#
# Elastic Compliance Matrix: (Units=1/GPa)
#
#
# Indices 1 2 3 4 5 6 
#
# 1 0.007200 -0.000761 -0.003507 0.000000 0.001382 0.000000
# 2 -0.000761 0.014317 -0.007525 0.000000 -0.009332 0.000000
# 3 -0.003507 -0.007525 0.016704 0.000000 0.007295 0.000000
# 4 0.000000 0.000000 0.000000 -0.076528 0.000000 0.020034
# 5 0.001382 -0.009332 0.007295 0.000000 0.035292 0.000000
# 6 0.000000 0.000000 0.000000 0.020034 0.000000 0.048345
#
#
# Mechanical properties :
#
#
# Convention : Reuss Voigt Hill
#
# Bulk Modulus (GPa) = 68.32382 71.14473 69.73427
# Shear Modulus (GPa) = 67.75761 24.58890 46.17326
#
# Velocity S-wave (km/s) = 5.71078 3.44022 4.71424
# Velocity P-wave (km/s) = 8.73896 7.07272 7.94962
#
# Compressibility (1/GPa) = 0.01463618
#
# Stress axis : x y z
#
# Youngs Moduli (GPa) = 138.89797 69.84515 59.86690
#
# Poissons Ratio (x) = 0.05316 0.20993
# Poissons Ratio (y) = 0.10571 0.45047
# Poissons Ratio (z) = 0.48706 0.52555
#
# Static dielectric constant tensor:
#      x y z
#    x 1.772920 0.000000 -0.028790 
#    y 0.000000 1.720870 0.000000 
#    z -0.028790 0.000000 1.765440 
# 
# From -- ./inp_files/290200.got.cif
#   From: 2010.05.17/outbox.cif.g08.bks.cpg/sg12_146_cif.got.tgz:290200.got - 2010.06.03 13:09:07.
