data_PCOD9222642
_publ_section_title
;
Structure prediction by ZEFSAII (Michael W. Deem and Ramdas Pophale) SiO2 
 PCOD9222642
Probable space group: C 2/M
;
_chemical_formula_sum "Si O2"
_cell_formula_units_Z 40
_cell_length_a 16.158697
_cell_length_b 25.160842
_cell_length_c 8.968349
_cell_angle_alpha 90.000000
_cell_angle_beta 33.301857
_cell_angle_gamma 90.000000
_cell_volume 2001.962003
_symmetry_space_group_name_H-M "C 2/M"
_symmetry_group_IT_number 12
_symmetry_cell_setting 'monoclinic'
loop_
_space_group_symop_operation_xyz
x,y,z
-x,y,-z
-x,-y,-z
x,-y,z
1/2+x,1/2+y,z
1/2-x,1/2+y,-z
1/2-x,1/2-y,-z
1/2+x,1/2-y,z
loop_
_atom_site_type_symbol
_atom_site_label
_atom_site_fract_x
_atom_site_fract_y
_atom_site_fract_z
Si Si1 0.175298 0.749001 0.272909
Si Si2 0.834012 0.156008 0.211845
Si Si3 0.264114 0.560629 0.774119
Si Si4 0.089265 0.060983 0.125594
Si Si5 0.833311 0.339397 0.226222
O O1 0.234336 0.696875 0.267975
O O2 0.228876 0.798801 0.291737
O O3 0.000000 0.749748 0.500000
O O4 0.250000 0.750000 0.000000
O O5 0.745706 0.147610 0.498399
O O6 0.867370 0.103223 0.065041
O O7 0.000000 0.178818 0.000000
O O8 0.212239 0.500000 0.830830
O O9 0.419033 0.567509 0.445300
O O10 0.308438 0.567560 0.880568
O O11 0.153414 0.606285 0.887263
O O12 0.104005 0.000000 0.050738
O O13 0.000000 0.316458 0.000000
#
# Coordination Sequence:
#
# PCOD9222642 Si02
#       5
#     8   8   8   8   8
#     4  12  26  44  66  88 121 169 215 256 308 379
#     4  12  23  40  64  95 126 160 208 264 317 364
#     4   9  19  38  64  93 127 167 209 251 305 372
#     4   9  19  37  65  96 124 163 214 256 297 371
#     4  12  25  41  62  93 132 163 202 263 321 369
#
# _framework density 19.980398999999998
#
# number of rings (size 3 to 8) (size 9 to 14) (size 15 to 20)
#    0.000    1.200    2.000    6.000    2.800    1.600 
#    0.000    0.000    0.000    3.000    0.000    0.000 
#    0.000    0.000    0.000    0.000    0.000    0.000 
#
# Total GULP energy -111811.358609 kJ/mol
# GULP energy per Si atom -5590.567930 kJ/mol
# Density = 1.993492 g / cm^3
# Si number density = 19.980399 Si / 1000 Ang^3
#
#
#
# Elastic Constant Matrix: (Units=GPa)
#
#
# Indices 1 2 3 4 5 6 
#
# 1 132.4375 80.6073 52.1881 0.0000 -9.0786 -0.0005
# 2 80.6073 127.9779 32.9323 0.0000 10.4175 -0.0003
# 3 52.1881 32.9323 99.0718 0.0000 1.8608 -0.0006
# 4 0.0000 0.0000 0.0000 19.7085 0.0000 -2.9055
# 5 -9.0786 10.4175 1.8608 0.0000 45.1318 0.0003
# 6 -0.0005 -0.0003 -0.0006 -2.9055 0.0003 62.6694
#
#
#
# Elastic Compliance Matrix: (Units=1/GPa)
#
#
# Indices 1 2 3 4 5 6 
#
# 1 0.015284 -0.008706 -0.005257 0.000000 0.005301 0.000000
# 2 -0.008706 0.013662 0.000137 0.000000 -0.004910 0.000000
# 3 -0.005257 0.000137 0.012848 0.000000 -0.001619 0.000000
# 4 0.000000 0.000000 0.000000 0.051089 0.000000 0.002369
# 5 0.005301 -0.004910 -0.001619 0.000000 0.024424 0.000000
# 6 0.000000 0.000000 0.000000 0.002369 0.000000 0.016067
#
#
# Mechanical properties :
#
#
# Convention : Reuss Voigt Hill
#
# Bulk Modulus (GPa) = 70.71065 76.77143 73.74104
# Shear Modulus (GPa) = 30.16803 38.41924 34.29363
#
# Velocity S-wave (km/s) = 3.88993 4.38978 4.14740
# Velocity P-wave (km/s) = 7.45938 8.01251 7.74089
#
# Compressibility (1/GPa) = 0.01414214
#
# Stress axis : x y z
#
# Youngs Moduli (GPa) = 65.42673 73.19808 77.83387
#
# Poissons Ratio (x) = 0.63723 0.40918
# Poissons Ratio (y) = 0.56958 -0.01065
# Poissons Ratio (z) = 0.34395 -0.01002
#
# Static dielectric constant tensor:
#      x y z
#    x 1.726700 0.000000 0.029870 
#    y 0.000000 1.722990 0.000000 
#    z 0.029870 0.000000 1.706230 
# 
# From -- ./inp_files/39436.got.cif
#   From: 2010.05.17/outbox.cif.g08.bks.cpg/sg12_20_cif.got.tgz:39436.got - 2010.06.03 13:09:07.
