data_PCOD9222438
_publ_section_title
;
Structure prediction by ZEFSAII (Michael W. Deem and Ramdas Pophale) SiO2 
 PCOD9222438
Probable space group: C 2/M
;
_chemical_formula_sum "Si O2"
_cell_formula_units_Z 38
_cell_length_a 8.418262
_cell_length_b 22.221705
_cell_length_c 9.238675
_cell_angle_alpha 90.000000
_cell_angle_beta 85.393304
_cell_angle_gamma 90.000000
_cell_volume 1722.678549
_symmetry_space_group_name_H-M "C 2/M"
_symmetry_group_IT_number 12
_symmetry_cell_setting 'monoclinic'
loop_
_space_group_symop_operation_xyz
x,y,z
-x,y,-z
-x,-y,-z
x,-y,z
1/2+x,1/2+y,z
1/2-x,1/2+y,-z
1/2-x,1/2-y,-z
1/2+x,1/2-y,z
loop_
_atom_site_type_symbol
_atom_site_label
_atom_site_fract_x
_atom_site_fract_y
_atom_site_fract_z
Si Si1 0.773989 0.410110 0.686085
Si Si2 0.000000 0.102948 0.500000
Si Si3 0.057855 0.287020 0.334366
Si Si4 0.221111 0.168209 0.252812
Si Si5 0.000000 0.500000 0.500000
Si Si6 0.187978 0.933765 0.017785
O O1 0.610884 0.427922 0.613836
O O2 0.808901 0.338983 0.664813
O O3 0.912965 0.447703 0.603445
O O4 0.766206 0.423690 0.856133
O O5 0.130223 0.138027 0.394894
O O6 0.125564 0.230598 0.240935
O O7 0.000000 0.268505 0.500000
O O8 0.902006 0.315293 0.274268
O O9 0.219550 0.120566 0.123905
O O10 0.234032 0.000000 0.073497
O O11 0.000000 0.934285 0.000000
#
# Coordination Sequence:
#
# PCOD9222438 Si02
#       6
#     8   4   8   8   2   8
#     4  12  25  47  76 110 151 191 252 315 370 445
#     4  12  22  44  76 110 141 201 250 302 368 444
#     4  12  24  45  74 112 150 189 254 316 368 439
#     4  12  25  45  76 109 149 202 248 304 382 444
#     4  12  24  48  74 110 146 206 246 308 370 440
#     4  11  26  50  72 107 153 196 246 312 381 447
#
# _framework density 22.058669999999999
#
# number of rings (size 3 to 8) (size 9 to 14) (size 15 to 20)
#    0.000    0.211    7.368    1.895    0.000    2.105 
#    7.579    1.053    0.000    0.000    0.000    0.000 
#    0.000    0.000    0.000    0.000    0.000    0.000 
#
# Total GULP energy -106031.283741 kJ/mol
# GULP energy per Si atom -5580.593881 kJ/mol
# Density = 2.200846 g / cm^3
# Si number density = 22.058670 Si / 1000 Ang^3
#
#
#
# Elastic Constant Matrix: (Units=GPa)
#
#
# Indices 1 2 3 4 5 6 
#
# 1 79.9974 45.6945 72.2678 0.0000 0.1862 0.0000
# 2 45.6945 169.4784 95.2693 0.0000 6.3080 0.0000
# 3 72.2678 95.2693 131.1844 0.0000 -1.9867 0.0000
# 4 0.0000 0.0000 0.0000 46.6511 0.0000 0.7980
# 5 0.1862 6.3080 -1.9867 0.0000 32.7475 0.0000
# 6 0.0000 0.0000 0.0000 0.7980 0.0000 26.0452
#
#
#
# Elastic Compliance Matrix: (Units=1/GPa)
#
#
# Indices 1 2 3 4 5 6 
#
# 1 0.025237 0.001818 -0.015244 0.000000 -0.001418 0.000000
# 2 0.001818 0.010288 -0.008511 0.000000 -0.002508 0.000000
# 3 -0.015244 -0.008511 0.022248 0.000000 0.003076 0.000000
# 4 0.000000 0.000000 0.000000 0.021447 0.000000 -0.000657
# 5 -0.001418 -0.002508 0.003076 0.000000 0.031215 0.000000
# 6 0.000000 0.000000 0.000000 -0.000657 0.000000 0.038415
#
#
# Mechanical properties :
#
#
# Convention : Reuss Voigt Hill
#
# Bulk Modulus (GPa) = 71.95127 89.68037 80.81582
# Shear Modulus (GPa) = 25.33506 32.25068 28.79287
#
# Velocity S-wave (km/s) = 3.39267 3.82781 3.61679
# Velocity P-wave (km/s) = 6.93080 7.76401 7.35920
#
# Compressibility (1/GPa) = 0.01389829
#
# Stress axis : x y z
#
# Youngs Moduli (GPa) = 39.62513 97.20242 44.94834
#
# Poissons Ratio (x) = -0.17669 0.68519
# Poissons Ratio (y) = -0.07203 0.38254
# Poissons Ratio (z) = 0.60405 0.82725
#
# Static dielectric constant tensor:
#      x y z
#    x 1.803250 0.000000 0.026240 
#    y 0.000000 1.826190 0.000000 
#    z 0.026240 0.000000 1.803860 
# 
# From -- ./inp_files/39265.got.cif
#   From: 2010.05.17/outbox.cif.g08.bks.cpg/sg12_20_cif.got.tgz:39265.got - 2010.06.03 13:09:07.
