data_PCOD9222905
_publ_section_title
;
Structure prediction by ZEFSAII (Michael W. Deem and Ramdas Pophale) SiO2 
 PCOD9222905
Probable space group: C 2/M
;
_chemical_formula_sum "Si O2"
_cell_formula_units_Z 56
_cell_length_a 13.867181
_cell_length_b 7.319683
_cell_length_c 21.157258
_cell_angle_alpha 90.000000
_cell_angle_beta 68.850295
_cell_angle_gamma 90.000000
_cell_volume 2002.877037
_symmetry_space_group_name_H-M "C 2/M"
_symmetry_group_IT_number 12
_symmetry_cell_setting 'monoclinic'
loop_
_space_group_symop_operation_xyz
x,y,z
-x,y,-z
-x,-y,-z
x,-y,z
1/2+x,1/2+y,z
1/2-x,1/2+y,-z
1/2-x,1/2-y,-z
1/2+x,1/2-y,z
loop_
_atom_site_type_symbol
_atom_site_label
_atom_site_fract_x
_atom_site_fract_y
_atom_site_fract_z
Si Si1 0.647887 0.782047 0.444095
Si Si2 0.329361 0.790236 0.693809
Si Si3 0.116492 0.781535 0.589271
Si Si4 0.787068 0.723454 0.843391
Si Si5 0.486863 0.291376 0.877010
Si Si6 0.585398 0.289877 0.730007
Si Si7 0.646168 0.281822 0.982583
O O1 0.618211 0.707782 0.381459
O O2 0.764477 0.712412 0.432083
O O3 0.586549 0.757438 0.524065
O O4 0.653119 0.000000 0.434103
O O5 0.319489 0.711114 0.766256
O O6 0.208765 0.794423 0.701890
O O7 0.362372 0.000000 0.693828
O O8 0.057258 0.715839 0.666903
O O9 0.119213 0.000000 0.594542
O O10 0.787046 0.500000 0.842332
O O11 0.877025 0.793650 0.866853
O O12 0.679620 0.777578 0.903669
O O13 0.524921 0.500000 0.878144
O O14 0.553754 0.204938 0.804573
O O15 0.450169 0.211437 0.952895
O O16 0.547937 0.500000 0.741156
O O17 0.631217 0.500000 0.983946
O O18 0.750000 0.250000 0.000000
#
# Coordination Sequence:
#
# PCOD9222905 Si02
#       7
#     8   8   8   8   8   8   8
#     4   8  13  22  37  56  76  99 128 160 193 229
#     4   8  14  25  41  60  82 107 132 160 198 240
#     4   8  13  22  37  56  76  99 128 160 193 229
#     4   9  16  27  43  61  81 105 134 165 196 233
#     4   9  16  27  43  61  81 105 134 165 196 233
#     4   8  14  25  41  60  82 107 132 160 198 240
#     4   8  14  24  39  59  79 101 131 164 194 226
#
# _framework density 27.959779000000001
#
# number of rings (size 3 to 8) (size 9 to 14) (size 15 to 20)
#    0.000    3.714    0.000    1.714    0.000    0.000 
#    0.000    2.143    0.000    7.714    0.000    6.000 
#    0.000   11.429    0.000    0.000    0.000    0.000 
#
# Total GULP energy -156215.605666 kJ/mol
# GULP energy per Si atom -5579.128774 kJ/mol
# Density = 2.789614 g / cm^3
# Si number density = 27.959779 Si / 1000 Ang^3
#
#
#
# Elastic Constant Matrix: (Units=GPa)
#
#
# Indices 1 2 3 4 5 6 
#
# 1 70.8394 8.7286 57.3293 0.0000 -0.1990 0.0000
# 2 8.7286 122.8482 22.2698 0.0000 -1.7547 0.0001
# 3 57.3293 22.2698 373.1764 0.0000 8.4641 0.0000
# 4 0.0000 0.0000 0.0000 -8.8519 0.0000 7.9569
# 5 -0.1990 -1.7547 8.4641 0.0000 71.3469 0.0000
# 6 0.0000 0.0001 0.0000 7.9569 0.0000 8.2482
#
#
#
# Elastic Compliance Matrix: (Units=1/GPa)
#
#
# Indices 1 2 3 4 5 6 
#
# 1 0.016188 -0.000701 -0.002452 0.000000 0.000319 0.000000
# 2 -0.000701 0.008264 -0.000391 0.000000 0.000248 0.000000
# 3 -0.002452 -0.000391 0.003088 0.000000 -0.000383 0.000000
# 4 0.000000 0.000000 0.000000 -0.060504 0.000000 0.058367
# 5 0.000319 0.000248 -0.000383 0.000000 0.014068 0.000000
# 6 0.000000 0.000000 0.000000 0.058367 0.000000 0.064932
#
#
# Mechanical properties :
#
#
# Convention : Reuss Voigt Hill
#
# Bulk Modulus (GPa) = 48.89465 82.61325 65.75395
# Shear Modulus (GPa) = 83.41072 46.05107 64.73089
#
# Velocity S-wave (km/s) = 5.46783 4.06279 4.81681
# Velocity P-wave (km/s) = 7.57551 7.18468 7.38268
#
# Compressibility (1/GPa) = 0.02045214
#
# Stress axis : x y z
#
# Youngs Moduli (GPa) = 61.77274 121.00125 323.78581
#
# Poissons Ratio (x) = 0.08483 0.79403
# Poissons Ratio (y) = 0.04331 0.12663
# Poissons Ratio (z) = 0.15149 0.04732
#
# Static dielectric constant tensor:
#      x y z
#    x 2.234450 0.000000 -0.003130 
#    y 0.000000 1.910060 0.000000 
#    z -0.003130 0.000000 2.353060 
# 
# From -- ./inp_files/263628.got.cif
#   From: 2010.05.17/outbox.cif.g08.bks.cpg/sg12_132_cif.got.tgz:263628.got - 2010.06.03 13:09:07.
