data_PCOD9222038
_publ_section_title
;
Structure prediction by ZEFSAII (Michael W. Deem and Ramdas Pophale) SiO2 
 PCOD9222038
Probable space group: C 2/M
;
_chemical_formula_sum "Si O2"
_cell_formula_units_Z 48
_cell_length_a 25.209235
_cell_length_b 21.419631
_cell_length_c 5.464595
_cell_angle_alpha 90.000000
_cell_angle_beta 131.137021
_cell_angle_gamma 90.000000
_cell_volume 2222.309124
_symmetry_space_group_name_H-M "C 2/M"
_symmetry_group_IT_number 12
_symmetry_cell_setting 'monoclinic'
loop_
_space_group_symop_operation_xyz
x,y,z
-x,y,-z
-x,-y,-z
x,-y,z
1/2+x,1/2+y,z
1/2-x,1/2+y,-z
1/2-x,1/2-y,-z
1/2+x,1/2-y,z
loop_
_atom_site_type_symbol
_atom_site_label
_atom_site_fract_x
_atom_site_fract_y
_atom_site_fract_z
Si Si1 0.922056 0.802059 0.368168
Si Si2 0.676264 0.278624 0.336776
Si Si3 0.805985 0.572719 0.401023
Si Si4 0.574405 0.565255 0.357881
Si Si5 0.582832 0.816783 0.300707
Si Si6 0.719363 0.599479 0.643372
O O1 0.927287 0.866670 0.529357
O O2 0.907868 0.735356 0.457220
O O3 0.000000 0.793729 0.500000
O O4 0.860660 0.816042 0.989967
O O5 0.750000 0.250000 0.500000
O O6 0.620208 0.223941 0.204899
O O7 0.697742 0.327757 0.608808
O O8 0.827353 0.500000 0.488381
O O9 0.871384 0.620090 0.549449
O O10 0.765775 0.590267 0.536015
O O11 0.757917 0.578844 0.010399
O O12 0.580473 0.500000 0.527007
O O13 0.643734 0.566439 0.398359
O O14 0.500000 0.562116 0.000000
O O15 0.500000 0.827276 0.000000
#
# Coordination Sequence:
#
# PCOD9222038 Si02
#       6
#     8   8   8   8   8   8
#     4  12  24  43  71 101 145 189 241 302 366 433
#     4  12  24  42  71 106 137 183 240 299 361 440
#     4  12  28  49  76 109 148 195 250 309 372 438
#     4  11  24  42  66 101 145 194 244 295 362 437
#     4  12  26  46  74 106 146 191 246 308 373 435
#     4  12  25  47  76 107 147 193 243 302 364 436
#
# _framework density 21.599155
#
# number of rings (size 3 to 8) (size 9 to 14) (size 15 to 20)
#    0.000    0.167    5.000    5.000    0.000    2.000 
#    0.000    3.333    0.000    2.500    0.000    0.000 
#    0.000    0.000    0.000    0.000    0.000    0.000 
#
# Total GULP energy -133773.517949 kJ/mol
# GULP energy per Si atom -5573.896581 kJ/mol
# Density = 2.154999 g / cm^3
# Si number density = 21.599155 Si / 1000 Ang^3
#
#
#
# Elastic Constant Matrix: (Units=GPa)
#
#
# Indices 1 2 3 4 5 6 
#
# 1 124.6226 56.7903 66.6624 0.0000 26.1045 0.0000
# 2 56.7903 175.2144 35.3710 0.0000 15.3690 0.0000
# 3 66.6624 35.3710 62.3835 0.0000 6.2458 0.0000
# 4 0.0000 0.0000 0.0000 34.5817 0.0000 96.2865
# 5 26.1045 15.3690 6.2458 0.0000 34.8982 0.0000
# 6 0.0000 0.0000 0.0000 96.2865 0.0000 104.1284
#
#
#
# Elastic Compliance Matrix: (Units=1/GPa)
#
#
# Indices 1 2 3 4 5 6 
#
# 1 0.024170 -0.001966 -0.023410 0.000000 -0.013024 0.000000
# 2 -0.001966 0.006779 -0.001620 0.000000 -0.001225 0.000000
# 3 -0.023410 -0.001620 0.040872 0.000000 0.010910 0.000000
# 4 0.000000 0.000000 0.000000 -0.018364 0.000000 0.016981
# 5 -0.013024 -0.001225 0.010910 0.000000 0.036984 0.000000
# 6 0.000000 0.000000 0.000000 0.016981 0.000000 -0.006099
#
#
# Mechanical properties :
#
#
# Convention : Reuss Voigt Hill
#
# Bulk Modulus (GPa) = 56.08701 75.54086 65.81394
# Shear Modulus (GPa) = 34.65566 48.28147 41.46856
#
# Velocity S-wave (km/s) = 4.00996 4.73307 4.38644
# Velocity P-wave (km/s) = 6.88936 8.05724 7.49608
#
# Compressibility (1/GPa) = 0.01782944
#
# Stress axis : x y z
#
# Youngs Moduli (GPa) = 41.37295 147.51413 24.46692
#
# Poissons Ratio (x) = 0.28999 0.57276
# Poissons Ratio (y) = 0.08133 0.03964
# Poissons Ratio (z) = 0.96852 0.23902
#
# Static dielectric constant tensor:
#      x y z
#    x 1.832030 0.000000 -0.045990 
#    y 0.000000 1.798060 0.000000 
#    z -0.045990 0.000000 1.767150 
# 
# From -- ./inp_files/32381.got.cif
#   From: 2010.05.17/outbox.cif.g08.bks.cpg/sg12_17_cif.got.tgz:32381.got - 2010.06.03 13:09:07.
