data_PCOD9222212
_publ_section_title
;
Structure prediction by ZEFSAII (Michael W. Deem and Ramdas Pophale) SiO2 
 PCOD9222212
Probable space group: C 2/M
;
_chemical_formula_sum "Si O2"
_cell_formula_units_Z 42
_cell_length_a 9.620636
_cell_length_b 10.338327
_cell_length_c 21.532078
_cell_angle_alpha 90.000000
_cell_angle_beta 69.234503
_cell_angle_gamma 90.000000
_cell_volume 2002.487805
_symmetry_space_group_name_H-M "C 2/M"
_symmetry_group_IT_number 12
_symmetry_cell_setting 'monoclinic'
loop_
_space_group_symop_operation_xyz
x,y,z
-x,y,-z
-x,-y,-z
x,-y,z
1/2+x,1/2+y,z
1/2-x,1/2+y,-z
1/2-x,1/2-y,-z
1/2+x,1/2-y,z
loop_
_atom_site_type_symbol
_atom_site_label
_atom_site_fract_x
_atom_site_fract_y
_atom_site_fract_z
Si Si1 0.692157 0.350298 0.356538
Si Si2 0.544511 0.500000 0.064226
Si Si3 0.106827 0.266569 0.566548
Si Si4 0.514074 0.773877 0.131730
Si Si5 0.000000 0.500000 0.500000
Si Si6 0.314627 0.348930 0.784797
Si Si7 0.370787 0.000000 0.970192
O O1 0.735020 0.500000 0.348934
O O2 0.816187 0.280403 0.378415
O O3 0.525392 0.337284 0.410615
O O4 0.682624 0.304318 0.287120
O O5 0.493488 0.633581 0.103191
O O6 0.500000 0.500000 0.000000
O O7 0.722311 0.500000 0.034058
O O8 0.250000 0.250000 0.500000
O O9 0.025872 0.389230 0.549641
O O10 0.588341 0.740883 0.185908
O O11 0.354826 0.839678 0.165554
O O12 0.613468 0.871846 0.074969
O O13 0.363558 0.500000 0.780227
O O14 0.500000 0.000000 0.000000
#
# Coordination Sequence:
#
# PCOD9222212 Si02
#       7
#     8   4   8   8   2   8   4
#     4  11  25  42  68  95 132 173 226 269 327 397
#     4  12  24  40  64 106 131 167 226 274 329 405
#     4  12  24  42  65  98 130 174 211 274 334 388
#     4  12  23  45  70  94 140 178 220 279 336 395
#     4  12  24  40  62  94 136 160 218 266 330 398
#     4  11  24  46  66  98 132 178 226 277 328 399
#     4  12  24  42  69 103 135 177 220 276 337 403
#
# _framework density 20.973908999999999
#
# number of rings (size 3 to 8) (size 9 to 14) (size 15 to 20)
#    0.000    0.381    4.762    4.571    1.333    0.762 
#    0.000    0.952    0.000    0.000    0.000    0.000 
#    0.000    0.000    0.000    0.000    0.000    0.000 
#
# Total GULP energy -117090.949021 kJ/mol
# GULP energy per Si atom -5575.759477 kJ/mol
# Density = 2.092617 g / cm^3
# Si number density = 20.973909 Si / 1000 Ang^3
#
#
#
# Elastic Constant Matrix: (Units=GPa)
#
#
# Indices 1 2 3 4 5 6 
#
# 1 85.1771 -4.1337 5.3748 0.0000 29.1246 0.0000
# 2 -4.1337 80.8301 15.8500 0.0000 22.4054 0.0000
# 3 5.3748 15.8500 72.4233 0.0000 24.8374 0.0000
# 4 0.0000 0.0000 0.0000 23.2741 0.0000 13.3165
# 5 29.1246 22.4054 24.8374 0.0000 53.2516 0.0000
# 6 0.0000 0.0000 0.0000 13.3165 0.0000 6.1393
#
#
#
# Elastic Compliance Matrix: (Units=1/GPa)
#
#
# Indices 1 2 3 4 5 6 
#
# 1 0.015460 0.003413 0.001783 0.000000 -0.010723 0.000000
# 2 0.003413 0.014853 -0.000858 0.000000 -0.007716 0.000000
# 3 0.001783 -0.000858 0.016754 0.000000 -0.008429 0.000000
# 4 0.000000 0.000000 0.000000 -0.178245 0.000000 0.386625
# 5 -0.010723 -0.007716 -0.008429 0.000000 0.031821 0.000000
# 6 0.000000 0.000000 0.000000 0.386625 0.000000 -0.675730
#
#
# Mechanical properties :
#
#
# Convention : Reuss Voigt Hill
#
# Bulk Modulus (GPa) = 17.93901 30.29032 24.11467
# Shear Modulus (GPa) = -6.53439 31.28895 12.37728
#
# Velocity S-wave (km/s) = -1.76699 3.86658 2.43189
# Velocity P-wave (km/s) = 2.09966 5.86576 4.40544
#
# Compressibility (1/GPa) = 0.05574443
#
# Stress axis : x y z
#
# Youngs Moduli (GPa) = 64.68310 67.32529 59.68859
#
# Poissons Ratio (x) = -0.22981 -0.10643
# Poissons Ratio (y) = -0.22079 0.05120
# Poissons Ratio (z) = -0.11534 0.05775
#
# Static dielectric constant tensor:
#      x y z
#    x 1.706450 0.000000 0.014190 
#    y 0.000000 1.732840 0.000000 
#    z 0.014190 0.000000 1.772300 
# 
# From -- ./inp_files/299258.got.cif
#   From: 2010.05.17/outbox.cif.g08.bks.cpg/sg12_150_cif.got.tgz:299258.got - 2010.06.03 13:09:07.
