data_PCOD9222747
_publ_section_title
;
Structure prediction by ZEFSAII (Michael W. Deem and Ramdas Pophale) SiO2 
 PCOD9222747
Probable space group: C 2/M
;
_chemical_formula_sum "Si O2"
_cell_formula_units_Z 40
_cell_length_a 8.771022
_cell_length_b 29.116195
_cell_length_c 15.316652
_cell_angle_alpha 90.000000
_cell_angle_beta 149.200999
_cell_angle_gamma 90.000000
_cell_volume 2002.821665
_symmetry_space_group_name_H-M "C 2/M"
_symmetry_group_IT_number 12
_symmetry_cell_setting 'monoclinic'
loop_
_space_group_symop_operation_xyz
x,y,z
-x,y,-z
-x,-y,-z
x,-y,z
1/2+x,1/2+y,z
1/2-x,1/2+y,-z
1/2-x,1/2-y,-z
1/2+x,1/2-y,z
loop_
_atom_site_type_symbol
_atom_site_label
_atom_site_fract_x
_atom_site_fract_y
_atom_site_fract_z
Si Si1 0.817739 0.800968 1.000000
Si Si2 0.511966 0.052322 0.794257
Si Si3 0.340005 0.355085 0.680190
Si Si4 0.629202 0.447678 0.205746
Si Si5 0.700565 0.355085 0.680191
O O1 0.509723 0.827851 0.834252
O O2 0.750000 0.750000 0.000000
O O3 0.000000 0.799901 0.000000
O O4 0.006966 0.827852 0.165747
O O5 0.633289 0.060246 0.755527
O O6 0.283295 0.091297 0.708691
O O7 0.400365 0.000000 0.745596
O O8 0.804949 0.055739 0.000002
O O9 0.342770 0.408703 0.708688
O O10 0.525348 0.348059 0.683566
O O11 0.000000 0.340413 0.500000
O O12 0.663584 0.500000 0.254407
O O13 0.500000 0.340414 0.500000
#
# Coordination Sequence:
#
# PCOD9222747 Si02
#       5
#     8   8   8   8   8
#     4  12  26  48  73  98 129 164 208 265 325 387
#     4   9  18  35  61  92 129 173 217 263 317 376
#     4  12  25  42  66  98 132 172 217 264 319 381
#     4   9  18  35  61  92 129 173 217 263 317 376
#     4  12  25  42  66  98 132 172 217 264 319 381
#
# _framework density 19.971822
#
# number of rings (size 3 to 8) (size 9 to 14) (size 15 to 20)
#    0.000    1.200    2.000    6.600    0.000    2.400 
#    0.000    6.000    0.000    0.000    0.000    0.000 
#    0.000    0.000    0.000    0.000    0.000    0.000 
#
# Total GULP energy -111929.670727 kJ/mol
# GULP energy per Si atom -5596.483536 kJ/mol
# Density = 1.992636 g / cm^3
# Si number density = 19.971822 Si / 1000 Ang^3
#
#
#
# Elastic Constant Matrix: (Units=GPa)
#
#
# Indices 1 2 3 4 5 6 
#
# 1 186.6456 71.1742 86.0822 0.0000 -1.2547 0.0000
# 2 71.1742 102.6468 62.5408 0.0000 -0.2832 0.0000
# 3 86.0822 62.5408 147.4051 0.0000 -0.0325 0.0000
# 4 0.0000 0.0000 0.0000 -11.5821 0.0000 -1.7134
# 5 -1.2547 -0.2832 -0.0325 0.0000 31.1998 0.0000
# 6 0.0000 0.0000 0.0000 -1.7134 0.0000 40.6224
#
#
#
# Elastic Compliance Matrix: (Units=1/GPa)
#
#
# Indices 1 2 3 4 5 6 
#
# 1 0.008295 -0.003775 -0.003242 0.000000 0.000296 0.000000
# 2 -0.003775 0.014857 -0.004099 0.000000 -0.000021 0.000000
# 3 -0.003242 -0.004099 0.010416 0.000000 -0.000157 0.000000
# 4 0.000000 0.000000 0.000000 -0.085805 0.000000 -0.003619
# 5 0.000296 -0.000021 -0.000157 0.000000 0.032063 0.000000
# 6 0.000000 0.000000 0.000000 -0.003619 0.000000 0.024464
#
#
# Mechanical properties :
#
#
# Convention : Reuss Voigt Hill
#
# Bulk Modulus (GPa) = 88.21677 97.36575 92.79126
# Shear Modulus (GPa) = 165.00798 26.50806 95.75802
#
# Velocity S-wave (km/s) = 9.09944 3.64713 6.93186
# Velocity P-wave (km/s) = 12.43649 8.16044 10.51806
#
# Compressibility (1/GPa) = 0.01133571
#
# Stress axis : x y z
#
# Youngs Moduli (GPa) = 120.55955 67.30746 96.00237
#
# Poissons Ratio (x) = 0.25410 0.31125
# Poissons Ratio (y) = 0.45514 0.39350
# Poissons Ratio (z) = 0.39087 0.27589
#
# Static dielectric constant tensor:
#      x y z
#    x 1.662500 0.000000 0.001490 
#    y 0.000000 1.701190 0.000000 
#    z 0.001490 0.000000 1.707800 
# 
# From -- ./inp_files/194484.got.cif
#   From: 2010.05.17/outbox.cif.g08.bks.cpg/sg12_98_cif.got.tgz:194484.got - 2010.06.03 13:09:07.
