data_PCOD9222079
_publ_section_title
;
Structure prediction by ZEFSAII (Michael W. Deem and Ramdas Pophale) SiO2 
 PCOD9222079
Probable space group: C 2/M
;
_chemical_formula_sum "Si O2"
_cell_formula_units_Z 44
_cell_length_a 23.542636
_cell_length_b 8.333459
_cell_length_c 27.162806
_cell_angle_alpha 90.000000
_cell_angle_beta 20.209220
_cell_angle_gamma 90.000000
_cell_volume 1840.938306
_symmetry_space_group_name_H-M "C 2/M"
_symmetry_group_IT_number 12
_symmetry_cell_setting 'monoclinic'
loop_
_space_group_symop_operation_xyz
x,y,z
-x,y,-z
-x,-y,-z
x,-y,z
1/2+x,1/2+y,z
1/2-x,1/2+y,-z
1/2-x,1/2-y,-z
1/2+x,1/2-y,z
loop_
_atom_site_type_symbol
_atom_site_label
_atom_site_fract_x
_atom_site_fract_y
_atom_site_fract_z
Si Si1 0.583471 0.686797 0.612781
Si Si2 0.089143 0.318856 0.979994
Si Si3 0.358916 0.314816 0.253622
Si Si4 0.398082 0.818488 0.679127
Si Si5 0.000000 0.243726 0.500000
Si Si6 0.077624 0.310953 0.161921
O O1 0.588474 0.500000 0.595529
O O2 0.750000 0.750000 0.500000
O O3 0.548014 0.791038 0.593545
O O4 0.454582 0.717406 0.761325
O O5 0.136975 0.500000 0.956087
O O6 0.245669 0.212846 0.838882
O O7 0.000000 0.328471 0.000000
O O8 0.970000 0.244299 0.117465
O O9 0.393765 0.500000 0.235544
O O10 0.167539 0.303659 0.392280
O O11 0.429132 0.219741 0.243746
O O12 0.407597 0.694229 0.625881
O O13 0.390629 0.000000 0.664326
O O14 0.085961 0.500000 0.165491
O O15 0.250000 0.250000 0.000000
#
# Coordination Sequence:
#
# PCOD9222079 Si02
#       6
#     8   8   8   8   4   8
#     4  12  26  47  71 102 139 184 233 288 349 418
#     4  11  24  43  64  95 136 181 229 282 336 403
#     4  12  24  44  72 105 142 186 231 289 349 420
#     4  12  24  44  71 101 136 182 230 286 346 415
#     4  12  27  44  69 104 143 182 229 280 347 420
#     4  12  26  48  75 107 140 184 236 297 356 420
#
# _framework density 23.900856999999998
#
# number of rings (size 3 to 8) (size 9 to 14) (size 15 to 20)
#    0.000    0.182    1.818    8.727    0.000    0.727 
#    0.000    6.364    0.000    0.000    0.000    0.000 
#    0.000    0.000    0.000    0.000    0.000    0.000 
#
# Total GULP energy -122901.145888 kJ/mol
# GULP energy per Si atom -5586.415722 kJ/mol
# Density = 2.384646 g / cm^3
# Si number density = 23.900857 Si / 1000 Ang^3
#
#
#
# Elastic Constant Matrix: (Units=GPa)
#
#
# Indices 1 2 3 4 5 6 
#
# 1 117.6320 -7.8355 24.7296 0.0117 -3.6846 0.0072
# 2 -7.8355 98.6043 11.9423 -0.1193 -8.2448 -0.0409
# 3 24.7296 11.9423 109.7425 -0.1626 5.4444 -0.0884
# 4 0.0117 -0.1193 -0.1626 274.4532 0.0425 157.7594
# 5 -3.6846 -8.2448 5.4444 0.0425 48.8089 0.0222
# 6 0.0072 -0.0409 -0.0884 157.7594 0.0222 117.3188
#
#
#
# Elastic Compliance Matrix: (Units=1/GPa)
#
#
# Indices 1 2 3 4 5 6 
#
# 1 0.009074 0.001083 -0.002218 -0.000001 0.001115 -0.000001
# 2 0.001083 0.010579 -0.001496 0.000009 0.002036 -0.000011
# 3 -0.002218 -0.001496 0.009850 0.000006 -0.001519 0.000000
# 4 -0.000001 0.000009 0.000006 0.016048 -0.000003 -0.021580
# 5 0.001115 0.002036 -0.001519 -0.000003 0.021086 0.000000
# 6 -0.000001 -0.000011 0.000000 -0.021580 0.000000 0.037542
#
#
# Mechanical properties :
#
#
# Convention : Reuss Voigt Hill
#
# Bulk Modulus (GPa) = 41.25221 42.62797 41.94009
# Shear Modulus (GPa) = 42.54496 107.92569 75.23532
#
# Velocity S-wave (km/s) = 4.22365 6.72708 5.61662
# Velocity P-wave (km/s) = 6.40959 8.84377 7.72318
#
# Compressibility (1/GPa) = 0.02424112
#
# Stress axis : x y z
#
# Youngs Moduli (GPa) = 110.19932 94.52656 101.52031
#
# Poissons Ratio (x) = -0.10237 0.22518
# Poissons Ratio (y) = -0.11935 0.15190
# Poissons Ratio (z) = 0.24443 0.14144
#
# Static dielectric constant tensor:
#      x y z
#    x 1.885040 0.000000 0.027500 
#    y 0.000000 1.865300 0.000020 
#    z 0.027500 0.000020 2.023680 
# 
# From -- ./inp_files/382168.got.cif
#   From: 2010.05.17/outbox.cif.g08.bks.cpg/sg12_192_cif.got.tgz:382168.got - 2010.06.03 13:09:07.
