data_PCOD9222374
_publ_section_title
;
Structure prediction by ZEFSAII (Michael W. Deem and Ramdas Pophale) SiO2 
 PCOD9222374
Probable space group: C 2/M
;
_chemical_formula_sum "Si O2"
_cell_formula_units_Z 64
_cell_length_a 9.335498
_cell_length_b 26.308041
_cell_length_c 18.446390
_cell_angle_alpha 90.000000
_cell_angle_beta 43.010799
_cell_angle_gamma 90.000000
_cell_volume 3090.355768
_symmetry_space_group_name_H-M "C 2/M"
_symmetry_group_IT_number 12
_symmetry_cell_setting 'monoclinic'
loop_
_space_group_symop_operation_xyz
x,y,z
-x,y,-z
-x,-y,-z
x,-y,z
1/2+x,1/2+y,z
1/2-x,1/2+y,-z
1/2-x,1/2-y,-z
1/2+x,1/2-y,z
loop_
_atom_site_type_symbol
_atom_site_label
_atom_site_fract_x
_atom_site_fract_y
_atom_site_fract_z
Si Si1 0.071643 0.058835 0.891129
Si Si2 0.748862 0.388319 0.082751
Si Si3 0.798734 0.197354 0.021340
Si Si4 0.926099 0.624442 0.680350
Si Si5 0.895098 0.307835 0.269855
Si Si6 0.949605 0.864544 0.687403
Si Si7 0.283038 0.202651 0.619111
Si Si8 0.663820 0.439955 0.505719
O O1 0.255488 0.095743 0.793658
O O2 0.874752 0.065261 0.909217
O O3 0.141962 0.000000 0.865741
O O4 0.000000 0.071927 0.000000
O O5 0.694945 0.343869 0.044973
O O6 0.650415 0.374463 0.196911
O O7 0.000000 0.394261 0.000000
O O8 0.750000 0.250000 0.000000
O O9 0.598299 0.188001 0.145082
O O10 0.000000 0.198987 0.000000
O O11 0.816558 0.651030 0.652772
O O12 0.033549 0.672975 0.678541
O O13 0.111923 0.585784 0.592615
O O14 0.732490 0.348414 0.299694
O O15 0.803720 0.251029 0.305373
O O16 0.104228 0.816050 0.630567
O O17 0.067876 0.913075 0.611851
O O18 0.500000 0.215995 0.500000
O O19 0.500000 0.431201 0.500000
O O20 0.686651 0.500000 0.506575
#
# Coordination Sequence:
#
# PCOD9222374 Si02
#       8
#     8   8   8   8   8   8   8   8
#     4  11  26  47  75 106 139 185 240 301 366 430
#     4  12  24  45  71 102 144 185 233 297 357 431
#     4  12  27  44  69 102 143 195 245 290 350 425
#     4  12  24  48  71 101 140 189 234 287 357 428
#     4  12  27  42  71 102 140 192 232 287 350 426
#     4  12  25  46  68 106 140 182 236 290 358 422
#     4  12  27  43  69 105 142 185 234 292 356 424
#     4  11  25  47  75 104 136 182 241 299 357 426
#
# _framework density 20.709589999999999
#
# number of rings (size 3 to 8) (size 9 to 14) (size 15 to 20)
#    0.000    0.250    5.000    4.125    5.250    1.750 
#    0.000    0.625    0.000    0.000    0.000    0.000 
#    0.000    0.000    0.000    0.000    0.000    0.000 
#
# Total GULP energy -178964.165163 kJ/mol
# GULP energy per Si atom -5592.630161 kJ/mol
# Density = 2.066245 g / cm^3
# Si number density = 20.709590 Si / 1000 Ang^3
#
#
#
# Elastic Constant Matrix: (Units=GPa)
#
#
# Indices 1 2 3 4 5 6 
#
# 1 77.3294 18.5591 23.7060 0.0000 -16.4042 0.0000
# 2 18.5591 112.2750 48.0500 0.0000 -2.1206 0.0000
# 3 23.7060 48.0500 126.2513 0.0000 -12.6929 0.0001
# 4 0.0000 0.0000 0.0000 13.7135 0.0000 3.2476
# 5 -16.4042 -2.1206 -12.6929 0.0000 30.6087 0.0000
# 6 0.0000 0.0000 0.0001 3.2476 0.0000 40.0113
#
#
#
# Elastic Compliance Matrix: (Units=1/GPa)
#
#
# Indices 1 2 3 4 5 6 
#
# 1 0.015403 -0.001780 -0.001458 0.000000 0.007527 0.000000
# 2 -0.001780 0.010874 -0.003991 0.000000 -0.001855 0.000000
# 3 -0.001458 -0.003991 0.010025 0.000000 0.003099 0.000000
# 4 0.000000 0.000000 0.000000 0.074350 0.000000 -0.006035
# 5 0.007527 -0.001855 0.003099 0.000000 0.037861 0.000000
# 6 0.000000 0.000000 0.000000 -0.006035 0.000000 0.025483
#
#
# Mechanical properties :
#
#
# Convention : Reuss Voigt Hill
#
# Bulk Modulus (GPa) = 45.77942 55.16513 50.47228
# Shear Modulus (GPa) = 25.54491 31.90274 28.72383
#
# Velocity S-wave (km/s) = 3.51591 3.92915 3.72826
# Velocity P-wave (km/s) = 6.21575 6.87602 6.55420
#
# Compressibility (1/GPa) = 0.02184387
#
# Stress axis : x y z
#
# Youngs Moduli (GPa) = 64.92449 91.96408 99.75139
#
# Poissons Ratio (x) = 0.16369 0.14543
# Poissons Ratio (y) = 0.11556 0.39809
# Poissons Ratio (z) = 0.09466 0.36701
#
# Static dielectric constant tensor:
#      x y z
#    x 1.855370 0.000000 0.112310 
#    y 0.000000 1.739870 0.000000 
#    z 0.112310 0.000000 1.867380 
# 
# From -- ./inp_files/260290.got.cif
#   From: 2010.05.17/outbox.cif.g08.bks.cpg/sg12_131_cif.got.tgz:260290.got - 2010.06.03 13:09:07.
