data_PCOD9222825
_publ_section_title
;
Structure prediction by ZEFSAII (Michael W. Deem and Ramdas Pophale) SiO2 
 PCOD9222825
Probable space group: C 2/M
;
_chemical_formula_sum "Si O2"
_cell_formula_units_Z 64
_cell_length_a 19.395651
_cell_length_b 7.435513
_cell_length_c 24.187358
_cell_angle_alpha 90.000000
_cell_angle_beta 63.381036
_cell_angle_gamma 90.000000
_cell_volume 3118.488580
_symmetry_space_group_name_H-M "C 2/M"
_symmetry_group_IT_number 12
_symmetry_cell_setting 'monoclinic'
loop_
_space_group_symop_operation_xyz
x,y,z
-x,y,-z
-x,-y,-z
x,-y,z
1/2+x,1/2+y,z
1/2-x,1/2+y,-z
1/2-x,1/2-y,-z
1/2+x,1/2-y,z
loop_
_atom_site_type_symbol
_atom_site_label
_atom_site_fract_x
_atom_site_fract_y
_atom_site_fract_z
Si Si1 0.513678 0.289133 0.235785
Si Si2 0.164680 0.215414 0.508606
Si Si3 0.919449 0.708596 0.962926
Si Si4 0.015909 0.221253 0.630436
Si Si5 0.328042 0.220034 0.100009
Si Si6 0.420552 0.291844 0.564328
Si Si7 0.567787 0.782951 0.842726
Si Si8 0.337142 0.281811 0.884441
O O1 0.528696 0.500000 0.238308
O O2 0.495189 0.216743 0.302921
O O3 0.445471 0.272128 0.215493
O O4 0.590273 0.216286 0.178122
O O5 0.250000 0.250000 0.500000
O O6 0.097662 0.277922 0.574639
O O7 0.143132 0.285503 0.454754
O O8 0.155940 0.000000 0.508254
O O9 0.937985 0.500000 0.966792
O O10 0.851705 0.719983 0.941834
O O11 0.994201 0.784853 0.905008
O O12 0.889042 0.782477 0.031583
O O13 0.947474 0.282508 0.613718
O O14 0.015801 0.000000 0.629616
O O15 0.357234 0.273387 0.150043
O O16 0.243288 0.277679 0.112521
O O17 0.327935 0.000000 0.098418
O O18 0.500000 0.290140 0.500000
O O19 0.399412 0.500000 0.582209
O O20 0.565267 0.000000 0.843475
O O21 0.338167 0.500000 0.885260
#
# Coordination Sequence:
#
# PCOD9222825 Si02
#       8
#     8   8   8   8   8   8   8   8
#     4   9  17  30  46  62  81 110 146 176 206 247
#     4   9  16  27  45  69  94 114 135 170 212 248
#     4   9  16  27  44  62  80 108 143 172 207 261
#     4   8  14  27  47  64  81 113 150 174 197 242
#     4   9  16  27  43  62  83 108 139 175 216 258
#     4   7  11  22  42  65  83 105 142 176 195 225
#     4   9  17  29  44  61  84 113 142 173 209 253
#     4   9  17  28  42  61  84 106 134 178 219 246
#
# _framework density 20.522763000000001
#
# number of rings (size 3 to 8) (size 9 to 14) (size 15 to 20)
#    0.000    3.375    0.000    2.250    0.000    1.500 
#    0.000    3.125    0.000   10.125    0.000    0.000 
#    0.000    0.000    0.000    0.000    0.000    0.000 
#
# Total GULP energy -178323.682535 kJ/mol
# GULP energy per Si atom -5572.615079 kJ/mol
# Density = 2.047605 g / cm^3
# Si number density = 20.522763 Si / 1000 Ang^3
#
#
#
# Elastic Constant Matrix: (Units=GPa)
#
#
# Indices 1 2 3 4 5 6 
#
# 1 128.7167 -6.8905 49.2422 -0.0005 38.5515 -0.0002
# 2 -6.8905 62.6391 1.4105 -0.0018 -1.5858 -0.0022
# 3 49.2422 1.4105 113.2230 0.0000 42.6988 0.0000
# 4 -0.0005 -0.0018 0.0000 4.0446 -0.0001 7.1022
# 5 38.5515 -1.5858 42.6988 -0.0001 30.2964 -0.0004
# 6 -0.0002 -0.0022 0.0000 7.1022 -0.0004 23.0715
#
#
#
# Elastic Compliance Matrix: (Units=1/GPa)
#
#
# Indices 1 2 3 4 5 6 
#
# 1 0.012683 0.000921 0.001154 0.000004 -0.017718 -0.000001
# 2 0.000921 0.016117 -0.001019 0.000010 0.001109 -0.000001
# 3 0.001154 -0.001019 0.019033 0.000000 -0.028346 -0.000001
# 4 0.000004 0.000010 0.000000 0.538123 -0.000006 -0.165652
# 5 -0.017718 0.001109 -0.028346 -0.000006 0.095561 0.000004
# 6 -0.000001 -0.000001 -0.000001 -0.165652 0.000004 0.094336
#
#
# Mechanical properties :
#
#
# Convention : Reuss Voigt Hill
#
# Bulk Modulus (GPa) = 20.02243 43.56701 31.79472
# Shear Modulus (GPa) = 6.32599 28.87027 17.59813
#
# Velocity S-wave (km/s) = 1.75759 3.75473 2.93148
# Velocity P-wave (km/s) = 3.72776 6.33025 5.19462
#
# Compressibility (1/GPa) = 0.04994398
#
# Stress axis : x y z
#
# Youngs Moduli (GPa) = 78.84371 62.04718 52.54053
#
# Poissons Ratio (x) = -0.05712 -0.06064
# Poissons Ratio (y) = -0.07259 0.05355
# Poissons Ratio (z) = -0.09099 0.06324
#
# Static dielectric constant tensor:
#      x y z
#    x 1.750030 0.000000 0.023440 
#    y 0.000000 1.809720 0.000000 
#    z 0.023440 0.000000 1.716600 
# 
# From -- ./inp_files/309884.got.cif
#   From: 2010.05.17/outbox.cif.g08.bks.cpg/sg12_155_cif.got.tgz:309884.got - 2010.06.03 13:09:07.
