data_PCOD9222169
_publ_section_title
;
Structure prediction by ZEFSAII (Michael W. Deem and Ramdas Pophale) SiO2 
 PCOD9222169
Probable space group: C 2/M
;
_chemical_formula_sum "Si O2"
_cell_formula_units_Z 32
_cell_length_a 11.659054
_cell_length_b 22.490447
_cell_length_c 7.471637
_cell_angle_alpha 90.000000
_cell_angle_beta 43.861187
_cell_angle_gamma 90.000000
_cell_volume 1357.551218
_symmetry_space_group_name_H-M "C 2/M"
_symmetry_group_IT_number 12
_symmetry_cell_setting 'monoclinic'
loop_
_space_group_symop_operation_xyz
x,y,z
-x,y,-z
-x,-y,-z
x,-y,z
1/2+x,1/2+y,z
1/2-x,1/2+y,-z
1/2-x,1/2-y,-z
1/2+x,1/2-y,z
loop_
_atom_site_type_symbol
_atom_site_label
_atom_site_fract_x
_atom_site_fract_y
_atom_site_fract_z
Si Si1 0.775051 0.122858 0.650925
Si Si2 0.193030 0.245364 0.853067
Si Si3 0.107515 0.068400 0.137174
Si Si4 0.331067 0.117807 0.592737
O O1 0.768632 0.086884 0.841945
O O2 0.189265 0.081541 0.855678
O O3 0.650047 0.104529 0.636945
O O4 0.951229 0.109520 0.358445
O O5 0.257562 0.307631 0.705084
O O6 0.283002 0.187022 0.675262
O O7 0.500000 0.258785 0.000000
O O8 0.250000 0.250000 0.000000
O O9 0.059230 0.000000 0.208105
O O10 0.500000 0.104960 0.500000
#
# Coordination Sequence:
#
# PCOD9222169 Si02
#       4
#     8   8   8   8
#     4  11  24  44  74 103 140 186 241 297 365 432
#     4  12  25  45  75 111 152 189 235 304 373 445
#     4  11  26  48  74 103 141 194 251 299 358 432
#     4  12  27  44  72 109 147 192 237 302 367 436
#
# _framework density 23.571853000000001
#
# number of rings (size 3 to 8) (size 9 to 14) (size 15 to 20)
#    0.000    0.500    2.500    6.000    7.000    3.500 
#    0.000    1.250    0.000    0.000    0.000    0.000 
#    0.000    0.000    0.000    0.000    0.000    0.000 
#
# Total GULP energy -89545.642003 kJ/mol
# GULP energy per Si atom -5596.602625 kJ/mol
# Density = 2.351820 g / cm^3
# Si number density = 23.571853 Si / 1000 Ang^3
#
#
#
# Elastic Constant Matrix: (Units=GPa)
#
#
# Indices 1 2 3 4 5 6 
#
# 1 153.3699 -7.1295 20.0868 0.0000 24.9645 0.0000
# 2 -7.1295 32.8719 4.4733 0.0000 -11.4480 0.0000
# 3 20.0868 4.4733 49.6176 0.0000 11.1184 0.0000
# 4 0.0000 0.0000 0.0000 -26.7942 0.0000 7.5663
# 5 24.9645 -11.4480 11.1184 0.0000 55.9562 0.0000
# 6 0.0000 0.0000 0.0000 7.5663 0.0000 -19.5325
#
#
#
# Elastic Compliance Matrix: (Units=1/GPa)
#
#
# Indices 1 2 3 4 5 6 
#
# 1 0.007309 0.001032 -0.002479 0.000000 -0.002557 0.000000
# 2 0.001032 0.033965 -0.005164 0.000000 0.007514 0.000000
# 3 -0.002479 -0.005164 0.022619 0.000000 -0.004445 0.000000
# 4 0.000000 0.000000 0.000000 -0.041905 0.000000 -0.016233
# 5 -0.002557 0.007514 -0.004445 0.000000 0.021433 0.000000
# 6 0.000000 0.000000 0.000000 -0.016233 0.000000 -0.057485
#
#
# Mechanical properties :
#
#
# Convention : Reuss Voigt Hill
#
# Bulk Modulus (GPa) = 19.73491 30.08006 24.90749
# Shear Modulus (GPa) = 311.57973 16.48782 164.03378
#
# Velocity S-wave (km/s) = 11.50956 2.64762 8.35104
# Velocity P-wave (km/s) = 13.60209 4.70481 10.17723
#
# Compressibility (1/GPa) = 0.05067162
#
# Stress axis : x y z
#
# Youngs Moduli (GPa) = 136.81635 29.44243 44.21009
#
# Poissons Ratio (x) = -0.03039 0.10960
# Poissons Ratio (y) = -0.14120 0.22829
# Poissons Ratio (z) = 0.33916 0.15203
#
# Static dielectric constant tensor:
#      x y z
#    x 1.984070 0.000000 -0.006640 
#    y 0.000000 1.804940 0.000000 
#    z -0.006640 0.000000 1.872400 
# 
# From -- ./inp_files/46426.got.cif
#   From: 2010.05.17/outbox.cif.g08.bks.cpg/sg12_24_cif.got.tgz:46426.got - 2010.06.03 13:09:07.
