data_PCOD9222120
_publ_section_title
;
Structure prediction by ZEFSAII (Michael W. Deem and Ramdas Pophale) SiO2 
 PCOD9222120
Probable space group: C 2/M
;
_chemical_formula_sum "Si O2"
_cell_formula_units_Z 28
_cell_length_a 5.018417
_cell_length_b 28.296510
_cell_length_c 8.810411
_cell_angle_alpha 90.000000
_cell_angle_beta 94.042421
_cell_angle_gamma 90.000000
_cell_volume 1247.998243
_symmetry_space_group_name_H-M "C 2/M"
_symmetry_group_IT_number 12
_symmetry_cell_setting 'monoclinic'
loop_
_space_group_symop_operation_xyz
x,y,z
-x,y,-z
-x,-y,-z
x,-y,z
1/2+x,1/2+y,z
1/2-x,1/2+y,-z
1/2-x,1/2-y,-z
1/2+x,1/2-y,z
loop_
_atom_site_type_symbol
_atom_site_label
_atom_site_fract_x
_atom_site_fract_y
_atom_site_fract_z
Si Si1 0.928162 0.447467 0.319339
Si Si2 0.000000 0.714918 0.500000
Si Si3 0.232068 0.111358 0.895458
Si Si4 0.370681 0.647925 0.661084
O O1 0.845458 0.500000 0.266862
O O2 0.715814 0.405594 0.311270
O O3 0.000000 0.450279 0.500000
O O4 0.162570 0.427601 0.220869
O O5 0.750000 0.750000 0.500000
O O6 0.893990 0.679899 0.362620
O O7 0.091949 0.154795 0.799170
O O8 0.500000 0.124396 0.000000
O O9 0.000000 0.093838 0.000000
O O10 0.500000 0.651315 0.500000
#
# Coordination Sequence:
#
# PCOD9222120 Si02
#       4
#     8   4   8   8
#     4  11  24  43  70 106 148 198 248 299 351 422
#     4  12  26  44  79 114 137 180 244 314 364 428
#     4  12  26  44  69 104 150 203 240 295 359 425
#     4  12  23  47  74 107 145 186 250 300 355 437
#
# _framework density 22.435929999999999
#
# number of rings (size 3 to 8) (size 9 to 14) (size 15 to 20)
#    0.000    0.286    8.571    0.000    0.000    2.857 
#    0.000    0.000    0.000    5.143    0.000    0.000 
#    0.000    0.000    0.000    0.000    0.000    0.000 
#
# Total GULP energy -78045.792346 kJ/mol
# GULP energy per Si atom -5574.699453 kJ/mol
# Density = 2.238486 g / cm^3
# Si number density = 22.435930 Si / 1000 Ang^3
#
#
#
# Elastic Constant Matrix: (Units=GPa)
#
#
# Indices 1 2 3 4 5 6 
#
# 1 174.3003 61.3834 58.4213 0.0000 13.6718 0.0000
# 2 61.3834 102.1195 38.1901 0.0000 33.1003 0.0000
# 3 58.4213 38.1901 135.5361 0.0000 10.6085 0.0000
# 4 0.0000 0.0000 0.0000 -3.9625 0.0000 4.9579
# 5 13.6718 33.1003 10.6085 0.0000 59.1751 0.0000
# 6 0.0000 0.0000 0.0000 4.9579 0.0000 29.6668
#
#
#
# Elastic Compliance Matrix: (Units=1/GPa)
#
#
# Indices 1 2 3 4 5 6 
#
# 1 0.007914 -0.004199 -0.002301 0.000000 0.000933 0.000000
# 2 -0.004199 0.015417 -0.001963 0.000000 -0.007302 0.000000
# 3 -0.002301 -0.001963 0.008921 0.000000 0.000030 0.000000
# 4 0.000000 0.000000 0.000000 -0.208719 0.000000 0.034881
# 5 0.000933 -0.007302 0.000030 0.000000 0.020762 0.000000
# 6 0.000000 0.000000 0.000000 0.034881 0.000000 0.027878
#
#
# Mechanical properties :
#
#
# Convention : Reuss Voigt Hill
#
# Bulk Modulus (GPa) = 65.24690 80.88281 73.06485
# Shear Modulus (GPa) = -47.26230 33.90662 -6.67784
#
# Velocity S-wave (km/s) = -4.59469 3.89172 -1.72710
# Velocity P-wave (km/s) = 0.99816 7.50485 5.35346
#
# Compressibility (1/GPa) = 0.01532640
#
# Stress axis : x y z
#
# Youngs Moduli (GPa) = 126.35725 64.86298 112.09941
#
# Poissons Ratio (x) = 0.27235 0.25796
# Poissons Ratio (y) = 0.53056 0.22002
# Poissons Ratio (z) = 0.29077 0.12731
#
# Static dielectric constant tensor:
#      x y z
#    x 1.964190 0.000000 0.065800 
#    y 0.000000 1.858790 0.000000 
#    z 0.065800 0.000000 1.968340 
# 
# From -- ./inp_files/34018.got.cif
#   From: 2010.05.17/outbox.cif.g08.bks.cpg/sg12_18_cif.got.tgz:34018.got - 2010.06.03 13:09:07.
