data_PCOD9222662
_publ_section_title
;
Structure prediction by ZEFSAII (Michael W. Deem and Ramdas Pophale) SiO2 
 PCOD9222662
Probable space group: C 2/M
;
_chemical_formula_sum "Si O2"
_cell_formula_units_Z 56
_cell_length_a 22.820498
_cell_length_b 17.510071
_cell_length_c 16.395433
_cell_angle_alpha 90.000000
_cell_angle_beta 25.059487
_cell_angle_gamma 90.000000
_cell_volume 2774.915943
_symmetry_space_group_name_H-M "C 2/M"
_symmetry_group_IT_number 12
_symmetry_cell_setting 'monoclinic'
loop_
_space_group_symop_operation_xyz
x,y,z
-x,y,-z
-x,-y,-z
x,-y,z
1/2+x,1/2+y,z
1/2-x,1/2+y,-z
1/2-x,1/2-y,-z
1/2+x,1/2-y,z
loop_
_atom_site_type_symbol
_atom_site_label
_atom_site_fract_x
_atom_site_fract_y
_atom_site_fract_z
Si Si1 0.021080 0.647440 0.649856
Si Si2 0.864591 0.000000 0.112456
Si Si3 0.372376 0.271624 0.609450
Si Si4 0.629074 0.205699 0.785105
Si Si5 0.669506 0.752410 0.017352
Si Si6 0.002587 0.859509 0.855797
Si Si7 0.208767 0.587256 0.544136
Si Si8 0.534860 0.000000 0.549590
O O1 0.048793 0.705935 0.541479
O O2 0.160027 0.621495 0.519380
O O3 0.965293 0.572614 0.678166
O O4 0.927760 0.675617 0.842295
O O5 0.704000 0.000000 0.343420
O O6 0.000000 0.000000 0.000000
O O7 0.891087 0.917213 0.036150
O O8 0.500000 0.311707 0.500000
O O9 0.264167 0.296423 0.673929
O O10 0.265963 0.252983 0.816780
O O11 0.571125 0.288768 0.823055
O O12 0.662509 0.148072 0.669969
O O13 0.500000 0.176490 0.000000
O O14 0.567720 0.682115 0.131680
O O15 0.750000 0.750000 0.000000
O O16 0.126830 0.911434 0.668592
O O17 0.158260 0.500000 0.618421
O O18 0.500000 0.000000 0.500000
#
# Coordination Sequence:
#
# PCOD9222662 Si02
#       8
#     8   4   8   8   8   8   8   4
#     4  12  23  44  67  98 142 181 223 285 350 415
#     4  12  26  42  68 102 142 178 221 283 347 431
#     4  12  24  41  68 102 134 176 233 290 349 409
#     4  12  24  42  71 100 134 182 236 292 341 414
#     4  12  26  42  67 101 136 182 236 289 344 416
#     4  12  23  43  67  99 139 178 231 281 350 418
#     4  12  24  44  68 102 137 181 234 289 352 414
#     4  12  28  42  66 104 145 189 221 273 360 430
#
# _framework density 20.180792
#
# number of rings (size 3 to 8) (size 9 to 14) (size 15 to 20)
#    0.000    0.000    7.143    3.857    2.000    0.286 
#    0.000    0.000    0.000    0.429    0.000    0.000 
#    0.000    0.000    0.000    0.000    0.000    0.000 
#
# Total GULP energy -155879.674353 kJ/mol
# GULP energy per Si atom -5567.131227 kJ/mol
# Density = 2.013486 g / cm^3
# Si number density = 20.180792 Si / 1000 Ang^3
#
#
#
# Elastic Constant Matrix: (Units=GPa)
#
#
# Indices 1 2 3 4 5 6 
#
# 1 144.4700 35.2296 8.0665 -0.0001 -4.6607 0.0001
# 2 35.2296 65.9598 27.6714 0.0000 8.2996 0.0000
# 3 8.0665 27.6714 76.3731 -0.0002 8.6498 0.0003
# 4 -0.0001 0.0000 -0.0002 29.8966 0.0001 12.3995
# 5 -4.6607 8.2996 8.6498 0.0001 42.8316 -0.0002
# 6 0.0001 0.0000 0.0003 12.3995 -0.0002 24.2736
#
#
#
# Elastic Compliance Matrix: (Units=1/GPa)
#
#
# Indices 1 2 3 4 5 6 
#
# 1 0.008118 -0.004844 0.000707 0.000000 0.001679 0.000000
# 2 -0.004844 0.020975 -0.006722 0.000000 -0.003234 0.000000
# 3 0.000707 -0.006722 0.015656 0.000000 -0.001782 0.000000
# 4 0.000000 0.000000 0.000000 0.042440 0.000000 -0.021679
# 5 0.001679 -0.003234 -0.001782 0.000000 0.024517 0.000000
# 6 0.000000 0.000000 0.000000 -0.021679 0.000000 0.052271
#
#
# Mechanical properties :
#
#
# Convention : Reuss Voigt Hill
#
# Bulk Modulus (GPa) = 43.41693 47.63756 45.52724
# Shear Modulus (GPa) = 25.85719 33.78938 29.82328
#
# Velocity S-wave (km/s) = 3.58338 4.09630 3.84839
# Velocity P-wave (km/s) = 6.21944 6.78451 6.50811
#
# Compressibility (1/GPa) = 0.02303249
#
# Stress axis : x y z
#
# Youngs Moduli (GPa) = 123.18769 47.67670 63.87277
#
# Poissons Ratio (x) = 0.23093 -0.04519
# Poissons Ratio (y) = 0.59669 0.42933
# Poissons Ratio (z) = -0.08715 0.32047
#
# Static dielectric constant tensor:
#      x y z
#    x 1.797510 0.000000 -0.073070 
#    y 0.000000 1.772470 0.000000 
#    z -0.073070 0.000000 1.830230 
# 
# From -- ./inp_files/234684.got.cif
#   From: 2010.05.17/outbox.cif.g08.bks.cpg/sg12_118_cif.got.tgz:234684.got - 2010.06.03 13:09:07.
