data_PCOD9222952
_publ_section_title
;
Structure prediction by ZEFSAII (Michael W. Deem and Ramdas Pophale) SiO2 
 PCOD9222952
Probable space group: C 2/M
;
_chemical_formula_sum "Si O2"
_cell_formula_units_Z 56
_cell_length_a 25.498066
_cell_length_b 7.466393
_cell_length_c 19.623876
_cell_angle_alpha 90.000000
_cell_angle_beta 130.723804
_cell_angle_gamma 90.000000
_cell_volume 2831.351467
_symmetry_space_group_name_H-M "C 2/M"
_symmetry_group_IT_number 12
_symmetry_cell_setting 'monoclinic'
loop_
_space_group_symop_operation_xyz
x,y,z
-x,y,-z
-x,-y,-z
x,-y,z
1/2+x,1/2+y,z
1/2-x,1/2+y,-z
1/2-x,1/2-y,-z
1/2+x,1/2-y,z
loop_
_atom_site_type_symbol
_atom_site_label
_atom_site_fract_x
_atom_site_fract_y
_atom_site_fract_z
Si Si1 0.279934 0.710746 0.679649
Si Si2 0.042195 0.780399 0.752602
Si Si3 0.208947 0.784296 0.752275
Si Si4 0.817990 0.288213 0.512334
Si Si5 0.949214 0.218116 0.396243
Si Si6 0.301644 0.713811 0.105088
Si Si7 0.910795 0.202653 0.709713
O O1 0.281275 0.500000 0.662550
O O2 0.267220 0.728954 0.748247
O O3 0.209558 0.780204 0.583523
O O4 0.350809 0.785344 0.706879
O O5 0.029177 0.728280 0.662467
O O6 0.119554 0.722871 0.837705
O O7 0.985146 0.714232 0.757836
O O8 0.039488 0.000000 0.751236
O O9 0.131264 0.725160 0.664802
O O10 0.221982 0.721078 0.840370
O O11 0.207674 0.000000 0.750900
O O12 0.833534 0.500000 0.523480
O O13 0.750000 0.250000 0.500000
O O14 0.878255 0.197689 0.605862
O O15 0.000000 0.278874 0.500000
O O16 0.949877 0.000000 0.398009
O O17 0.306618 0.500000 0.115081
O O18 0.250000 0.750000 0.000000
O O19 0.921632 0.000000 0.744113
#
# Coordination Sequence:
#
# PCOD9222952 Si02
#       7
#     8   8   8   8   8   8   8
#     4   9  18  29  41  63  96 127 157 190 227 272
#     4   8  15  28  46  69  95 119 152 195 235 277
#     4   9  18  30  47  71  93 117 156 195 228 276
#     4   9  17  28  40  59  89 127 168 201 223 258
#     4   8  14  24  40  66  92 115 150 193 228 264
#     4   9  18  34  54  76  95 114 149 197 242 288
#     4   9  17  29  46  67  92 126 161 196 234 273
#
# _framework density 19.778541000000001
#
# number of rings (size 3 to 8) (size 9 to 14) (size 15 to 20)
#    0.000    3.286    0.000    3.000    2.000    3.429 
#    0.000    0.714    0.000    2.143    0.000    6.000 
#    0.000    0.000    0.000    0.000    0.000    0.000 
#
# Total GULP energy -155907.538055 kJ/mol
# GULP energy per Si atom -5568.126359 kJ/mol
# Density = 1.973352 g / cm^3
# Si number density = 19.778541 Si / 1000 Ang^3
#
#
#
# Elastic Constant Matrix: (Units=GPa)
#
#
# Indices 1 2 3 4 5 6 
#
# 1 157.1626 0.1588 65.8470 0.0000 -6.2741 0.0000
# 2 0.1588 60.8243 -2.4663 0.0000 0.2420 0.0000
# 3 65.8470 -2.4663 124.1584 0.0000 -4.7426 0.0000
# 4 0.0000 0.0000 0.0000 15.6419 0.0000 -3.9545
# 5 -6.2741 0.2420 -4.7426 0.0000 15.3519 0.0000
# 6 0.0000 0.0000 0.0000 -3.9545 0.0000 8.3103
#
#
#
# Elastic Compliance Matrix: (Units=1/GPa)
#
#
# Indices 1 2 3 4 5 6 
#
# 1 0.008246 -0.000204 -0.004299 0.000000 0.002045 0.000000
# 2 -0.000204 0.016459 0.000427 0.000000 -0.000211 0.000000
# 3 -0.004299 0.000427 0.010398 0.000000 0.001448 0.000000
# 4 0.000000 0.000000 0.000000 0.072673 0.000000 0.034582
# 5 0.002045 -0.000211 0.001448 0.000000 0.066425 0.000000
# 6 0.000000 0.000000 0.000000 0.034582 0.000000 0.136788
#
#
# Mechanical properties :
#
#
# Convention : Reuss Voigt Hill
#
# Bulk Modulus (GPa) = 37.10384 52.13605 44.61994
# Shear Modulus (GPa) = 15.23805 26.43455 20.83630
#
# Velocity S-wave (km/s) = 2.77868 3.65982 3.24926
# Velocity P-wave (km/s) = 5.39399 6.65403 6.05687
#
# Compressibility (1/GPa) = 0.02695139
#
# Stress axis : x y z
#
# Youngs Moduli (GPa) = 121.27228 60.75527 96.17169
#
# Poissons Ratio (x) = 0.01239 0.41345
# Poissons Ratio (y) = 0.02474 -0.04107
# Poissons Ratio (z) = 0.52136 -0.02595
#
# Static dielectric constant tensor:
#      x y z
#    x 1.729940 0.000000 0.000290 
#    y 0.000000 1.734910 0.000000 
#    z 0.000290 0.000000 1.720280 
# 
# From -- ./inp_files/288417.got.cif
#   From: 2010.05.17/outbox.cif.g08.bks.cpg/sg12_145_cif.got.tgz:288417.got - 2010.06.03 13:09:07.
