data_PCOD9222623
_publ_section_title
;
Structure prediction by ZEFSAII (Michael W. Deem and Ramdas Pophale) SiO2 
 PCOD9222623
Probable space group: C 2/M
;
_chemical_formula_sum "Si O2"
_cell_formula_units_Z 44
_cell_length_a 7.505218
_cell_length_b 27.448302
_cell_length_c 11.337057
_cell_angle_alpha 90.000000
_cell_angle_beta 107.481365
_cell_angle_gamma 90.000000
_cell_volume 2227.630408
_symmetry_space_group_name_H-M "C 2/M"
_symmetry_group_IT_number 12
_symmetry_cell_setting 'monoclinic'
loop_
_space_group_symop_operation_xyz
x,y,z
-x,y,-z
-x,-y,-z
x,-y,z
1/2+x,1/2+y,z
1/2-x,1/2+y,-z
1/2-x,1/2-y,-z
1/2+x,1/2-y,z
loop_
_atom_site_type_symbol
_atom_site_label
_atom_site_fract_x
_atom_site_fract_y
_atom_site_fract_z
Si Si1 0.654481 0.637730 0.620968
Si Si2 0.932938 0.202074 0.755557
Si Si3 0.500000 0.355595 0.000000
Si Si4 0.759498 0.554374 0.077658
Si Si5 0.690952 0.947155 0.194667
Si Si6 0.998686 0.297703 0.364778
O O1 0.500000 0.618793 0.500000
O O2 0.547364 0.679275 0.671211
O O3 0.706601 0.596050 0.722285
O O4 0.844662 0.660100 0.605318
O O5 0.024650 0.180925 0.893693
O O6 0.944134 0.259421 0.726548
O O7 0.714468 0.187782 0.705698
O O8 0.650006 0.395595 0.078113
O O9 0.685803 0.500000 0.099452
O O10 0.968748 0.557757 0.167594
O O11 0.774635 0.553586 0.938483
O O12 0.750616 0.000000 0.251594
O O13 0.000000 0.277238 0.500000
#
# Coordination Sequence:
#
# PCOD9222623 Si02
#       6
#     8   8   4   8   8   8
#     4  12  23  41  68  90 124 166 208 260 306 363
#     4  12  25  40  62  92 123 161 211 258 308 360
#     4  12  23  38  58  96 130 156 203 258 318 366
#     4   9  18  36  63  88 123 165 203 248 298 377
#     4   9  19  38  63  93 122 159 204 250 310 368
#     4  12  24  44  65  87 119 167 220 256 295 373
#
# _framework density 19.751930999999999
#
# number of rings (size 3 to 8) (size 9 to 14) (size 15 to 20)
#    0.000    1.091    5.455    3.545    0.000    1.091 
#    0.000    0.000    0.000    0.545    0.000    0.000 
#    0.000    0.000    0.000    0.000    0.000    0.000 
#
# Total GULP energy -122621.102399 kJ/mol
# GULP energy per Si atom -5573.686473 kJ/mol
# Density = 1.970697 g / cm^3
# Si number density = 19.751931 Si / 1000 Ang^3
#
#
#
# Elastic Constant Matrix: (Units=GPa)
#
#
# Indices 1 2 3 4 5 6 
#
# 1 74.9933 6.5115 -5.4616 0.0000 11.9669 0.0000
# 2 6.5115 75.4017 13.7981 0.0000 11.5171 0.0000
# 3 -5.4616 13.7981 52.0047 0.0000 7.6679 0.0000
# 4 0.0000 0.0000 0.0000 22.6311 0.0000 1.5258
# 5 11.9669 11.5171 7.6679 0.0000 19.1135 0.0000
# 6 0.0000 0.0000 0.0000 1.5258 0.0000 22.2852
#
#
#
# Elastic Compliance Matrix: (Units=1/GPa)
#
#
# Indices 1 2 3 4 5 6 
#
# 1 0.015308 -0.000281 0.003263 0.000000 -0.010724 0.000000
# 2 -0.000281 0.014989 -0.002870 0.000000 -0.007704 0.000000
# 3 0.003263 -0.002870 0.021661 0.000000 -0.009004 0.000000
# 4 0.000000 0.000000 0.000000 0.044392 0.000000 -0.003039
# 5 -0.010724 -0.007704 -0.009004 0.000000 0.067288 0.000000
# 6 0.000000 0.000000 0.000000 -0.003039 0.000000 0.045081
#
#
# Mechanical properties :
#
#
# Convention : Reuss Voigt Hill
#
# Bulk Modulus (GPa) = 19.16398 25.78841 22.47620
# Shear Modulus (GPa) = 22.13489 25.30940 23.72215
#
# Velocity S-wave (km/s) = 3.35123 3.58350 3.46931
# Velocity P-wave (km/s) = 4.96968 5.49604 5.23947
#
# Compressibility (1/GPa) = 0.05218122
#
# Stress axis : x y z
#
# Youngs Moduli (GPa) = 65.32582 66.71746 46.16616
#
# Poissons Ratio (x) = 0.01876 -0.15066
# Poissons Ratio (y) = 0.01836 0.13252
# Poissons Ratio (z) = -0.21319 0.19151
#
# Static dielectric constant tensor:
#      x y z
#    x 1.737720 0.000000 0.003810 
#    y 0.000000 1.722900 0.000000 
#    z 0.003810 0.000000 1.672400 
# 
# From -- ./inp_files/122113.got.cif
#   From: 2010.05.17/outbox.cif.g08.bks.cpg/sg12_62_cif.got.tgz:122113.got - 2010.06.03 13:09:07.
