data_PCOD9222871
_publ_section_title
;
Structure prediction by ZEFSAII (Michael W. Deem and Ramdas Pophale) SiO2 
 PCOD9222871
Probable space group: C 2/M
;
_chemical_formula_sum "Si O2"
_cell_formula_units_Z 56
_cell_length_a 29.643638
_cell_length_b 7.542188
_cell_length_c 12.881328
_cell_angle_alpha 90.000000
_cell_angle_beta 90.000056
_cell_angle_gamma 90.000000
_cell_volume 2879.980145
_symmetry_space_group_name_H-M "C 2/M"
_symmetry_group_IT_number 12
_symmetry_cell_setting 'monoclinic'
loop_
_space_group_symop_operation_xyz
x,y,z
-x,y,-z
-x,-y,-z
x,-y,z
1/2+x,1/2+y,z
1/2-x,1/2+y,-z
1/2-x,1/2-y,-z
1/2+x,1/2-y,z
loop_
_atom_site_type_symbol
_atom_site_label
_atom_site_fract_x
_atom_site_fract_y
_atom_site_fract_z
Si Si1 0.400000 0.705271 0.383424
Si Si2 1.000000 0.300187 0.625196
Si Si3 0.400000 0.294729 0.616575
Si Si4 0.197376 0.211835 1.000000
Si Si5 0.626095 0.717389 0.166471
Si Si6 0.126095 0.782611 0.833530
Si Si7 0.948169 0.784072 1.000000
O O1 0.386849 0.500000 0.392133
O O2 0.452742 0.710401 0.350128
O O3 0.395733 0.783411 0.500000
O O4 0.374598 0.783527 0.284512
O O5 0.999999 0.500000 0.666196
O O6 0.000000 0.307055 0.500000
O O7 0.952742 0.210398 0.649871
O O8 0.386848 0.500000 0.607866
O O9 0.374598 0.216473 0.715488
O O10 0.169513 0.274954 0.100499
O O11 0.192510 0.000000 1.000000
O O12 0.250000 0.250000 0.000000
O O13 0.169513 0.274954 0.899500
O O14 0.625625 0.500000 0.169881
O O15 0.581685 0.768943 0.100149
O O16 0.125625 0.000000 0.830120
O O17 0.081685 0.731057 0.899852
O O18 0.949212 0.000000 1.000000
O O19 0.000000 0.722894 0.000000
#
# Coordination Sequence:
#
# PCOD9222871 Si02
#       7
#     8   8   8   8   8   8   8
#     4   9  16  26  42  63  85 111 145 183 216 247
#     4   9  17  27  37  54  85 124 156 177 202 241
#     4   9  16  26  42  63  85 111 145 183 216 247
#     4   9  17  32  51  69  86 107 139 179 221 262
#     4   8  15  26  41  64  88 108 139 179 215 253
#     4   8  15  26  41  64  88 108 139 179 215 253
#     4   8  13  20  33  56  84 113 138 166 207 248
#
# _framework density 19.444580999999999
#
# number of rings (size 3 to 8) (size 9 to 14) (size 15 to 20)
#    0.000    3.429    0.000    2.143    2.000    1.714 
#    0.000    1.429    0.000    0.857    0.000    2.000 
#    0.000    0.000    0.000    0.000    0.000    0.000 
#
# Total GULP energy -155901.792803 kJ/mol
# GULP energy per Si atom -5567.921172 kJ/mol
# Density = 1.940032 g / cm^3
# Si number density = 19.444581 Si / 1000 Ang^3
#
#
#
# Elastic Constant Matrix: (Units=GPa)
#
#
# Indices 1 2 3 4 5 6 
#
# 1 131.9781 -1.5518 81.9271 0.0000 0.0005 0.0000
# 2 -1.5518 47.5164 7.8177 0.0000 -0.0003 0.0000
# 3 81.9271 7.8177 185.1845 0.0000 0.0016 0.0000
# 4 0.0000 0.0000 0.0000 -6.9239 0.0000 -0.0002
# 5 0.0005 -0.0003 0.0016 0.0000 9.3284 0.0000
# 6 0.0000 0.0000 0.0000 -0.0002 0.0000 9.8406
#
#
#
# Elastic Compliance Matrix: (Units=1/GPa)
#
#
# Indices 1 2 3 4 5 6 
#
# 1 0.010504 0.001115 -0.004694 0.000000 0.000000 0.000000
# 2 0.001115 0.021311 -0.001393 0.000000 0.000001 0.000000
# 3 -0.004694 -0.001393 0.007536 0.000000 -0.000001 0.000000
# 4 0.000000 0.000000 0.000000 -0.144427 0.000000 -0.000003
# 5 0.000000 0.000001 -0.000001 0.000000 0.107200 0.000000
# 6 0.000000 0.000000 0.000000 -0.000003 0.000000 0.101620
#
#
# Mechanical properties :
#
#
# Convention : Reuss Voigt Hill
#
# Bulk Modulus (GPa) = 34.00572 60.11833 47.06203
# Shear Modulus (GPa) = 40.48923 20.88141 30.68532
#
# Velocity S-wave (km/s) = 4.56816 3.28059 3.97683
# Velocity P-wave (km/s) = 6.73429 6.73309 6.73369
#
# Compressibility (1/GPa) = 0.02940681
#
# Stress axis : x y z
#
# Youngs Moduli (GPa) = 95.20089 46.92416 132.70385
#
# Poissons Ratio (x) = -0.05234 0.62294
# Poissons Ratio (y) = -0.10618 0.18487
# Poissons Ratio (z) = 0.44689 0.06537
#
# Static dielectric constant tensor:
#      x y z
#    x 1.659320 0.000000 0.000000 
#    y 0.000000 1.745460 0.000000 
#    z 0.000000 0.000000 1.735790 
# 
# From -- ./inp_files/181605.got.cif
#   From: 2010.05.17/outbox.cif.g08.bks.cpg/sg12_91_cif.got.tgz:181605.got - 2010.06.03 13:09:07.
