data_PCOD9222866
_publ_section_title
;
Structure prediction by ZEFSAII (Michael W. Deem and Ramdas Pophale) SiO2 
 PCOD9222866
Probable space group: C 2/M
;
_chemical_formula_sum "Si O2"
_cell_formula_units_Z 64
_cell_length_a 25.258841
_cell_length_b 7.201211
_cell_length_c 30.406519
_cell_angle_alpha 90.000000
_cell_angle_beta 24.272568
_cell_angle_gamma 90.000000
_cell_volume 2273.577918
_symmetry_space_group_name_H-M "C 2/M"
_symmetry_group_IT_number 12
_symmetry_cell_setting 'monoclinic'
loop_
_space_group_symop_operation_xyz
x,y,z
-x,y,-z
-x,-y,-z
x,-y,z
1/2+x,1/2+y,z
1/2-x,1/2+y,-z
1/2-x,1/2-y,-z
1/2+x,1/2-y,z
loop_
_atom_site_type_symbol
_atom_site_label
_atom_site_fract_x
_atom_site_fract_y
_atom_site_fract_z
Si Si1 0.440007 0.778844 0.860364
Si Si2 0.913938 0.224079 0.401743
Si Si3 0.031086 0.274690 0.883015
Si Si4 0.367094 0.280417 0.823503
Si Si5 0.614576 0.725432 0.327209
Si Si6 0.681461 0.724259 0.367983
Si Si7 0.218684 0.273740 0.615856
Si Si8 0.835617 0.274056 0.097783
O O1 0.443000 0.712647 0.908260
O O2 0.343600 0.744737 0.892997
O O3 0.576283 0.711977 0.736568
O O4 0.444931 0.000000 0.860429
O O5 0.777259 0.288840 0.524933
O O6 0.994266 0.293291 0.298840
O O7 0.010381 0.271666 0.369305
O O8 0.906685 0.000000 0.404726
O O9 0.027676 0.500000 0.887320
O O10 0.175515 0.231457 0.759252
O O11 0.972969 0.214131 0.973750
O O12 0.370830 0.500000 0.814325
O O13 0.259212 0.220237 0.870944
O O14 0.615281 0.500000 0.328113
O O15 0.594156 0.786588 0.392961
O O16 0.753261 0.784512 0.202404
O O17 0.666229 0.500000 0.381966
O O18 0.690907 0.783597 0.411399
O O19 0.217361 0.500000 0.616724
O O20 0.842319 0.500000 0.096579
#
# Coordination Sequence:
#
# PCOD9222866 Si02
#       8
#     8   8   8   8   8   8   8   8
#     4   9  17  28  41  57  77 102 132 162 192 228
#     4   8  14  24  36  51  74 102 128 156 192 230
#     4   8  14  24  36  51  74 102 128 156 192 230
#     4   9  17  28  41  57  77 102 132 162 192 228
#     4   8  13  20  31  50  75 102 131 157 183 225
#     4   8  13  20  31  50  75 102 131 157 183 225
#     4   8  14  24  36  51  74 102 128 156 192 230
#     4   8  14  24  36  51  74 102 128 156 192 230
#
# _framework density 28.149466
#
# number of rings (size 3 to 8) (size 9 to 14) (size 15 to 20)
#    0.000    3.750    0.000    3.000    0.000    2.000 
#    0.000    5.000    0.000    0.000    0.000    0.000 
#    0.000   16.000    0.000   18.000    0.000   20.000 
#
# Total GULP energy -178775.632394 kJ/mol
# GULP energy per Si atom -5586.738512 kJ/mol
# Density = 2.808540 g / cm^3
# Si number density = 28.149466 Si / 1000 Ang^3
#
#
#
# Elastic Constant Matrix: (Units=GPa)
#
#
# Indices 1 2 3 4 5 6 
#
# 1 123.5596 -9.4251 2.9231 -0.4711 38.5622 -0.3887
# 2 -9.4251 136.7002 -5.1116 -1.4104 0.1141 -0.6048
# 3 2.9231 -5.1116 119.2547 0.7857 41.6692 0.1152
# 4 -0.4711 -1.4104 0.7857 26.1147 -1.1923 12.9380
# 5 38.5622 0.1141 41.6692 -1.1923 68.6293 -0.3052
# 6 -0.3887 -0.6048 0.1152 12.9380 -0.3052 -7.0707
#
#
#
# Elastic Compliance Matrix: (Units=1/GPa)
#
#
# Indices 1 2 3 4 5 6 
#
# 1 0.010352 0.000804 0.002303 -0.000013 -0.007218 -0.000313
# 2 0.000804 0.007397 0.000578 0.000353 -0.000809 0.000013
# 3 0.002303 0.000578 0.011186 -0.000425 -0.008096 -0.000421
# 4 -0.000013 0.000353 -0.000425 0.020138 0.000778 0.036779
# 5 -0.007218 -0.000809 -0.008096 0.000778 0.023560 0.000741
# 6 -0.000313 0.000013 -0.000421 0.036779 0.000741 -0.074153
#
#
# Mechanical properties :
#
#
# Convention : Reuss Voigt Hill
#
# Bulk Modulus (GPa) = 27.54486 39.58747 33.56616
# Shear Modulus (GPa) = 1556.81820 43.60986 800.21403
#
# Velocity S-wave (km/s) = 23.54262 3.94029 16.87870
# Velocity P-wave (km/s) = 27.36445 5.89873 19.79404
#
# Compressibility (1/GPa) = 0.03630441
#
# Stress axis : x y z
#
# Youngs Moduli (GPa) = 96.60193 135.19523 89.39942
#
# Poissons Ratio (x) = -0.10874 -0.20590
# Poissons Ratio (y) = -0.07770 -0.05163
# Poissons Ratio (z) = -0.22249 -0.07809
#
# Static dielectric constant tensor:
#      x y z
#    x 2.242660 -0.000700 -0.094340 
#    y -0.000700 2.135360 -0.000160 
#    z -0.094340 -0.000160 2.224190 
# 
# From -- ./inp_files/367776.got.cif
#   From: 2010.05.17/outbox.cif.g08.bks.cpg/sg12_184_cif.got.tgz:367776.got - 2010.06.03 13:09:07.
