data_PCOD9222937
_publ_section_title
;
Structure prediction by ZEFSAII (Michael W. Deem and Ramdas Pophale) SiO2 
 PCOD9222937
Probable space group: C 2/M
;
_chemical_formula_sum "Si O2"
_cell_formula_units_Z 56
_cell_length_a 26.339374
_cell_length_b 7.428717
_cell_length_c 21.777039
_cell_angle_alpha 90.000000
_cell_angle_beta 39.714295
_cell_angle_gamma 90.000000
_cell_volume 2722.648643
_symmetry_space_group_name_H-M "C 2/M"
_symmetry_group_IT_number 12
_symmetry_cell_setting 'monoclinic'
loop_
_space_group_symop_operation_xyz
x,y,z
-x,y,-z
-x,-y,-z
x,-y,z
1/2+x,1/2+y,z
1/2-x,1/2+y,-z
1/2-x,1/2-y,-z
1/2+x,1/2-y,z
loop_
_atom_site_type_symbol
_atom_site_label
_atom_site_fract_x
_atom_site_fract_y
_atom_site_fract_z
Si Si1 0.663417 0.285315 0.054726
Si Si2 0.509992 0.786308 0.585654
Si Si3 0.406146 0.719238 0.007502
Si Si4 0.499220 0.284345 0.736898
Si Si5 0.927523 0.780700 0.205839
Si Si6 0.629277 0.220045 0.369433
Si Si7 0.690190 0.279766 0.784473
O O1 0.654965 0.500000 0.060279
O O2 0.590083 0.217810 0.164433
O O3 0.750000 0.250000 0.000000
O O4 0.648394 0.222628 0.999171
O O5 0.521892 0.755211 0.646251
O O6 0.425186 0.721400 0.637585
O O7 0.580099 0.721612 0.475610
O O8 0.508627 0.000000 0.578116
O O9 0.407127 0.500000 0.008662
O O10 0.368505 0.778479 0.106251
O O11 0.495571 0.772549 0.906419
O O12 0.498043 0.500000 0.742738
O O13 0.555602 0.220288 0.740158
O O14 0.848407 0.723258 0.244221
O O15 0.926931 0.000000 0.207262
O O16 0.720046 0.280872 0.286907
O O17 0.632215 0.000000 0.365984
O O18 0.691110 0.500000 0.784092
#
# Coordination Sequence:
#
# PCOD9222937 Si02
#       7
#     8   8   8   8   8   8   8
#     4   9  18  29  41  63  94 119 144 180 214 257
#     4   9  17  31  48  65  89 117 147 184 225 265
#     4   8  14  23  37  61  89 114 142 178 218 258
#     4   9  18  31  45  64  92 121 146 177 221 267
#     4   8  14  25  39  60  91 119 142 176 221 264
#     4   8  16  28  42  65  89 109 145 194 227 254
#     4   9  14  22  41  64  86 114 147 183 224 260
#
# _framework density 20.568204999999999
#
# number of rings (size 3 to 8) (size 9 to 14) (size 15 to 20)
#    0.000    3.429    0.000    3.000    2.000    2.286 
#    0.000    2.143    0.000    0.000    0.000    2.000 
#    0.000    4.571    0.000    0.000    0.000    0.000 
#
# Total GULP energy -156095.923480 kJ/mol
# GULP energy per Si atom -5574.854410 kJ/mol
# Density = 2.052139 g / cm^3
# Si number density = 20.568205 Si / 1000 Ang^3
#
#
#
# Elastic Constant Matrix: (Units=GPa)
#
#
# Indices 1 2 3 4 5 6 
#
# 1 132.1745 0.8274 67.8689 0.0916 5.5450 0.1650
# 2 0.8274 59.6120 0.0413 -0.0369 -0.8839 -0.0785
# 3 67.8689 0.0413 77.0901 0.0488 19.8274 0.0813
# 4 0.0916 -0.0369 0.0488 -17.1113 0.0005 -46.5513
# 5 5.5450 -0.8839 19.8274 0.0005 29.6866 0.0040
# 6 0.1650 -0.0785 0.0813 -46.5513 0.0040 -102.5911
#
#
#
# Elastic Compliance Matrix: (Units=1/GPa)
#
#
# Indices 1 2 3 4 5 6 
#
# 1 0.015003 -0.000090 -0.015077 -0.000015 0.007265 0.000019
# 2 -0.000090 0.016785 -0.000076 0.000006 0.000567 -0.000016
# 3 -0.015077 -0.000076 0.030815 -0.000035 -0.017767 0.000015
# 4 -0.000015 0.000006 -0.000035 0.249278 0.000038 -0.113111
# 5 0.007265 0.000567 -0.017767 0.000038 0.044212 -0.000018
# 6 0.000019 -0.000016 0.000015 -0.113111 -0.000018 0.041577
#
#
# Mechanical properties :
#
#
# Convention : Reuss Voigt Hill
#
# Bulk Modulus (GPa) = 31.13524 45.15019 38.14271
# Shear Modulus (GPa) = 11.39310 -4.66056 3.36627
#
# Velocity S-wave (km/s) = 2.35610 -1.50693 1.28070
# Velocity P-wave (km/s) = 4.75100 4.35561 4.55760
#
# Compressibility (1/GPa) = 0.03211795
#
# Stress axis : x y z
#
# Youngs Moduli (GPa) = 66.65175 59.57758 32.45140
#
# Poissons Ratio (x) = 0.00536 0.48928
# Poissons Ratio (y) = 0.00600 0.00245
# Poissons Ratio (z) = 1.00492 0.00450
#
# Static dielectric constant tensor:
#      x y z
#    x 1.739880 0.000000 0.008240 
#    y 0.000000 1.808330 0.000010 
#    z 0.008240 0.000010 1.714110 
# 
# From -- ./inp_files/287907.got.cif
#   From: 2010.05.17/outbox.cif.g08.bks.cpg/sg12_144_cif.got.tgz:287907.got - 2010.06.03 13:09:07.
