data_PCOD9222213
_publ_section_title
;
Structure prediction by ZEFSAII (Michael W. Deem and Ramdas Pophale) SiO2 
 PCOD9222213
Probable space group: C 2/M
;
_chemical_formula_sum "Si O2"
_cell_formula_units_Z 32
_cell_length_a 14.957794
_cell_length_b 18.280619
_cell_length_c 11.443339
_cell_angle_alpha 90.000000
_cell_angle_beta 152.313159
_cell_angle_gamma 90.000000
_cell_volume 1453.873351
_symmetry_space_group_name_H-M "C 2/M"
_symmetry_group_IT_number 12
_symmetry_cell_setting 'monoclinic'
loop_
_space_group_symop_operation_xyz
x,y,z
-x,y,-z
-x,-y,-z
x,-y,z
1/2+x,1/2+y,z
1/2-x,1/2+y,-z
1/2-x,1/2-y,-z
1/2+x,1/2-y,z
loop_
_atom_site_type_symbol
_atom_site_label
_atom_site_fract_x
_atom_site_fract_y
_atom_site_fract_z
Si Si1 0.197881 0.000000 0.886413
Si Si2 0.256561 0.000000 0.678814
Si Si3 0.531453 0.702237 0.908659
Si Si4 0.099074 0.374106 0.732285
Si Si5 0.171532 0.351457 0.368079
O O1 0.268357 0.000000 0.833204
O O2 0.968898 0.000000 0.614008
O O3 0.275602 0.068548 0.049491
O O4 0.339570 0.073815 0.716879
O O5 0.394089 0.667590 0.650470
O O6 0.445814 0.783741 0.820677
O O7 0.500000 0.666309 0.000000
O O8 0.754078 0.691462 0.131690
O O9 0.000000 0.403022 0.500000
O O10 0.925284 0.355812 0.616846
#
# Coordination Sequence:
#
# PCOD9222213 Si02
#       5
#     4   4   8   8   8
#     4  11  26  44  72 108 147 187 242 291 353 426
#     4  11  25  50  73 105 143 193 236 296 351 420
#     4  11  24  46  68 105 144 186 241 288 355 421
#     4  12  24  45  70 108 143 187 237 293 359 424
#     4  11  25  45  74 101 142 190 238 292 354 421
#
# _framework density 22.010169999999999
#
# number of rings (size 3 to 8) (size 9 to 14) (size 15 to 20)
#    0.000    0.750    5.000    1.875    3.500    1.000 
#    0.000    2.500    0.000    0.000    0.000    0.000 
#    0.000    0.000    0.000    0.000    0.000    0.000 
#
# Total GULP energy -89385.430404 kJ/mol
# GULP energy per Si atom -5586.589400 kJ/mol
# Density = 2.196007 g / cm^3
# Si number density = 22.010170 Si / 1000 Ang^3
#
#
#
# Elastic Constant Matrix: (Units=GPa)
#
#
# Indices 1 2 3 4 5 6 
#
# 1 102.6096 16.7438 66.6255 0.0000 -11.2754 0.0000
# 2 16.7438 102.9529 62.5758 0.0000 -5.4722 0.0000
# 3 66.6255 62.5758 129.9313 0.0000 -14.3356 0.0000
# 4 0.0000 0.0000 0.0000 -1.6348 0.0000 8.7291
# 5 -11.2754 -5.4722 -14.3356 0.0000 51.2246 0.0000
# 6 0.0000 0.0000 0.0000 8.7291 0.0000 -9.9806
#
#
#
# Elastic Compliance Matrix: (Units=1/GPa)
#
#
# Indices 1 2 3 4 5 6 
#
# 1 0.015397 0.003222 -0.009323 0.000000 0.001124 0.000000
# 2 0.003222 0.014415 -0.008613 0.000000 -0.000161 0.000000
# 3 -0.009323 -0.008613 0.016816 0.000000 0.001734 0.000000
# 4 0.000000 0.000000 0.000000 0.166676 0.000000 0.145775
# 5 0.001124 -0.000161 0.001734 0.000000 0.020237 0.000000
# 6 0.000000 0.000000 0.000000 0.145775 0.000000 0.027301
#
#
# Mechanical properties :
#
#
# Convention : Reuss Voigt Hill
#
# Bulk Modulus (GPa) = 58.13339 69.70933 63.92136
# Shear Modulus (GPa) = 16.89166 20.55841 18.72503
#
# Velocity S-wave (km/s) = 2.77329 3.05952 2.91992
# Velocity P-wave (km/s) = 6.06005 6.64989 6.36181
#
# Compressibility (1/GPa) = 0.01720182
#
# Stress axis : x y z
#
# Youngs Moduli (GPa) = 64.94807 69.37019 59.46651
#
# Poissons Ratio (x) = -0.22353 0.55441
# Poissons Ratio (y) = -0.20928 0.51216
# Poissons Ratio (z) = 0.60551 0.59746
#
# Static dielectric constant tensor:
#      x y z
#    x 1.808570 0.000000 -0.003620 
#    y 0.000000 1.821020 0.000000 
#    z -0.003620 0.000000 1.813260 
# 
# From -- ./inp_files/145913.got.cif
#   From: 2010.05.17/outbox.cif.g08.bks.cpg/sg12_73_cif.got.tgz:145913.got - 2010.06.03 13:09:07.
