data_PCOD9222644
_publ_section_title
;
Structure prediction by ZEFSAII (Michael W. Deem and Ramdas Pophale) SiO2 
 PCOD9222644
Probable space group: C 2/M
;
_chemical_formula_sum "Si O2"
_cell_formula_units_Z 52
_cell_length_a 8.605918
_cell_length_b 17.681764
_cell_length_c 21.491270
_cell_angle_alpha 90.000000
_cell_angle_beta 49.412526
_cell_angle_gamma 90.000000
_cell_volume 2483.494612
_symmetry_space_group_name_H-M "C 2/M"
_symmetry_group_IT_number 12
_symmetry_cell_setting 'monoclinic'
loop_
_space_group_symop_operation_xyz
x,y,z
-x,y,-z
-x,-y,-z
x,-y,z
1/2+x,1/2+y,z
1/2-x,1/2+y,-z
1/2-x,1/2-y,-z
1/2+x,1/2-y,z
loop_
_atom_site_type_symbol
_atom_site_label
_atom_site_fract_x
_atom_site_fract_y
_atom_site_fract_z
Si Si1 0.687233 0.911427 0.538987
Si Si2 0.115741 0.348664 0.681330
Si Si3 0.867899 0.500000 0.777088
Si Si4 0.290186 0.588274 0.372070
Si Si5 0.589589 0.500000 0.116812
Si Si6 0.359696 0.700310 0.740302
Si Si7 0.671096 0.000000 0.066589
Si Si8 0.882314 0.630989 0.090211
O O1 0.741505 0.863029 0.585136
O O2 0.440451 0.905346 0.593642
O O3 0.781368 0.890733 0.447849
O O4 0.733767 0.000000 0.537769
O O5 0.249631 0.324502 0.705440
O O6 0.999945 0.426760 0.726128
O O7 0.950731 0.283437 0.712629
O O8 0.646304 0.500000 0.802834
O O9 0.813489 0.500000 0.863983
O O10 0.350433 0.500000 0.352436
O O11 0.451504 0.642847 0.298408
O O12 0.704460 0.574307 0.112628
O O13 0.636615 0.500000 0.030250
O O14 0.206161 0.689924 0.837867
O O15 0.539932 0.926017 0.082478
O O16 0.000000 0.664346 0.000000
#
# Coordination Sequence:
#
# PCOD9222644 Si02
#       8
#     8   8   4   8   4   8   4   8
#     4   9  19  42  64 100 131 164 211 263 318 376
#     4  12  27  41  65  91 135 168 214 272 310 382
#     4  12  23  40  66  96 124 171 212 274 312 377
#     4   9  21  38  71  97 130 169 209 260 321 388
#     4   9  21  33  69  94 124 163 214 264 327 379
#     4  12  26  42  62  95 128 173 219 259 326 379
#     4   9  17  41  61  96 122 161 217 270 312 378
#     4   9  20  40  64  92 131 170 209 263 320 382
#
# _framework density 20.938237999999998
#
# number of rings (size 3 to 8) (size 9 to 14) (size 15 to 20)
#    0.000    1.846    2.308    3.000    7.538    1.231 
#    0.000    3.846    0.000    0.000    0.000    0.000 
#    0.000    0.000    0.000    0.000    0.000    0.000 
#
# Total GULP energy -145365.948615 kJ/mol
# GULP energy per Si atom -5590.998024 kJ/mol
# Density = 2.089058 g / cm^3
# Si number density = 20.938238 Si / 1000 Ang^3
#
#
#
# Elastic Constant Matrix: (Units=GPa)
#
#
# Indices 1 2 3 4 5 6 
#
# 1 54.5903 14.4588 17.5053 0.0001 5.6877 0.0006
# 2 14.4588 84.3338 34.3429 -0.0001 -5.7427 0.0004
# 3 17.5053 34.3429 99.8359 0.0010 18.3900 0.0036
# 4 0.0001 -0.0001 0.0010 -31.4583 -0.0001 -6.9256
# 5 5.6877 -5.7427 18.3900 -0.0001 38.8608 -0.0007
# 6 0.0006 0.0004 0.0036 -6.9256 -0.0007 -38.8269
#
#
#
# Elastic Compliance Matrix: (Units=1/GPa)
#
#
# Indices 1 2 3 4 5 6 
#
# 1 0.019963 -0.002706 -0.002144 0.000000 -0.002307 0.000000
# 2 -0.002706 0.014984 -0.005653 0.000000 0.005286 -0.000001
# 3 -0.002144 -0.005653 0.013621 0.000000 -0.006967 0.000001
# 4 0.000000 0.000000 0.000000 -0.033087 0.000000 0.005902
# 5 -0.002307 0.005286 -0.006967 0.000000 0.030149 -0.000001
# 6 0.000000 -0.000001 0.000001 0.005902 -0.000001 -0.026808
#
#
# Mechanical properties :
#
#
# Convention : Reuss Voigt Hill
#
# Bulk Modulus (GPa) = 36.28590 41.26378 38.77484
# Shear Modulus (GPa) = 102.00837 5.21199 53.61018
#
# Velocity S-wave (km/s) = 6.98745 1.57944 5.06553
# Velocity P-wave (km/s) = 9.08113 4.80378 7.26441
#
# Compressibility (1/GPa) = 0.02755891
#
# Stress axis : x y z
#
# Youngs Moduli (GPa) = 50.09244 66.73865 73.41844
#
# Poissons Ratio (x) = 0.18063 0.15744
# Poissons Ratio (y) = 0.13557 0.41507
# Poissons Ratio (z) = 0.10742 0.37730
#
# Static dielectric constant tensor:
#      x y z
#    x 1.772080 0.000000 0.019800 
#    y 0.000000 1.688760 0.000000 
#    z 0.019800 0.000000 1.756480 
# 
# From -- ./inp_files/256588.got.cif
#   From: 2010.05.17/outbox.cif.g08.bks.cpg/sg12_129_cif.got.tgz:256588.got - 2010.06.03 13:09:07.
