data_PCOD9222246
_publ_section_title
;
Structure prediction by ZEFSAII (Michael W. Deem and Ramdas Pophale) SiO2 
 PCOD9222246
Probable space group: C 2/M
;
_chemical_formula_sum "Si O2"
_cell_formula_units_Z 32
_cell_length_a 11.782714
_cell_length_b 16.768959
_cell_length_c 10.897111
_cell_angle_alpha 90.000000
_cell_angle_beta 140.310785
_cell_angle_gamma 90.000000
_cell_volume 1375.014745
_symmetry_space_group_name_H-M "C 2/M"
_symmetry_group_IT_number 12
_symmetry_cell_setting 'monoclinic'
loop_
_space_group_symop_operation_xyz
x,y,z
-x,y,-z
-x,-y,-z
x,-y,z
1/2+x,1/2+y,z
1/2-x,1/2+y,-z
1/2-x,1/2-y,-z
1/2+x,1/2-y,z
loop_
_atom_site_type_symbol
_atom_site_label
_atom_site_fract_x
_atom_site_fract_y
_atom_site_fract_z
Si Si1 0.134318 0.127027 0.796437
Si Si2 0.193917 0.910166 0.119601
Si Si3 0.002687 0.704800 0.651137
Si Si4 0.228283 0.851389 0.610236
O O1 0.113795 0.222011 0.801325
O O2 0.246959 0.119334 0.764958
O O3 0.933247 0.101930 0.590309
O O4 0.193885 0.088914 0.971403
O O5 0.358860 0.855904 0.294110
O O6 0.210195 0.000000 0.181750
O O7 0.000000 0.878745 0.000000
O O8 0.854817 0.760604 0.458454
O O9 0.898623 0.655132 0.667935
#
# Coordination Sequence:
#
# PCOD9222246 Si02
#       4
#     8   8   8   8
#     4   9  18  36  59  88 114 148 200 249 290 346
#     4  11  25  39  54  84 128 170 194 229 299 367
#     4   9  18  36  60  88 117 147 201 253 292 346
#     4   8  18  34  64  92 105 144 202 255 303 325
#
# _framework density 23.272479000000001
#
# number of rings (size 3 to 8) (size 9 to 14) (size 15 to 20)
#    1.500    1.250    0.000    0.750    3.500    3.000 
#    0.000    6.250    0.000    6.000    0.000    0.000 
#    0.000    0.000    0.000    0.000    0.000    0.000 
#
# Total GULP energy -89104.009535 kJ/mol
# GULP energy per Si atom -5569.000596 kJ/mol
# Density = 2.321951 g / cm^3
# Si number density = 23.272479 Si / 1000 Ang^3
#
#
#
# Elastic Constant Matrix: (Units=GPa)
#
#
# Indices 1 2 3 4 5 6 
#
# 1 92.3723 20.6228 29.9381 0.0000 21.9056 0.0000
# 2 20.6228 53.1262 17.0998 0.0000 20.4296 0.0000
# 3 29.9381 17.0998 73.1912 0.0000 -6.3672 0.0000
# 4 0.0000 0.0000 0.0000 27.1766 0.0000 -12.9608
# 5 21.9056 20.4296 -6.3672 0.0000 46.5736 0.0000
# 6 0.0000 0.0000 0.0000 -12.9608 0.0000 29.4325
#
#
#
# Elastic Compliance Matrix: (Units=1/GPa)
#
#
# Indices 1 2 3 4 5 6 
#
# 1 0.014931 -0.000754 -0.006592 0.000000 -0.007593 0.000000
# 2 -0.000754 0.025883 -0.006776 0.000000 -0.011925 0.000000
# 3 -0.006592 -0.006776 0.018693 0.000000 0.008628 0.000000
# 4 0.000000 0.000000 0.000000 0.046578 0.000000 0.020511
# 5 -0.007593 -0.011925 0.008628 0.000000 0.031453 0.000000
# 6 0.000000 0.000000 0.000000 0.020511 0.000000 0.043008
#
#
# Mechanical properties :
#
#
# Convention : Reuss Voigt Hill
#
# Bulk Modulus (GPa) = 31.98711 39.33459 35.66085
# Shear Modulus (GPa) = 22.80904 30.70514 26.75709
#
# Velocity S-wave (km/s) = 3.13403 3.63626 3.39445
# Velocity P-wave (km/s) = 5.18369 5.87948 5.54252
#
# Compressibility (1/GPa) = 0.03126259
#
# Stress axis : x y z
#
# Youngs Moduli (GPa) = 66.97359 38.63590 53.49661
#
# Poissons Ratio (x) = 0.02915 0.35264
# Poissons Ratio (y) = 0.05053 0.36248
# Poissons Ratio (z) = 0.44147 0.26179
#
# Static dielectric constant tensor:
#      x y z
#    x 1.957420 0.000000 -0.042930 
#    y 0.000000 1.866220 0.000000 
#    z -0.042930 0.000000 1.933960 
# 
# From -- ./inp_files/131490.got.cif
#   From: 2010.05.17/outbox.cif.g08.bks.cpg/sg12_66_cif.got.tgz:131490.got - 2010.06.03 13:09:07.
