data_PCOD9222653
_publ_section_title
;
Structure prediction by ZEFSAII (Michael W. Deem and Ramdas Pophale) SiO2 
 PCOD9222653
Probable space group: C 2/M
;
_chemical_formula_sum "Si O2"
_cell_formula_units_Z 64
_cell_length_a 10.139965
_cell_length_b 18.234366
_cell_length_c 19.472936
_cell_angle_alpha 90.000000
_cell_angle_beta 90.000066
_cell_angle_gamma 90.000000
_cell_volume 3600.464723
_symmetry_space_group_name_H-M "C 2/M"
_symmetry_group_IT_number 12
_symmetry_cell_setting 'monoclinic'
loop_
_space_group_symop_operation_xyz
x,y,z
-x,y,-z
-x,-y,-z
x,-y,z
1/2+x,1/2+y,z
1/2-x,1/2+y,-z
1/2-x,1/2-y,-z
1/2+x,1/2-y,z
loop_
_atom_site_type_symbol
_atom_site_label
_atom_site_fract_x
_atom_site_fract_y
_atom_site_fract_z
Si Si1 0.597388 0.410378 0.060473
Si Si2 0.250000 0.087157 0.596774
Si Si3 0.515200 0.164197 0.650221
Si Si4 0.591770 0.083046 0.788840
Si Si5 0.984799 0.835804 0.650221
Si Si6 0.249999 0.670614 0.540512
Si Si7 0.591770 0.583046 0.211160
Si Si8 0.097388 0.410378 0.939527
O O1 0.597120 0.500000 0.062065
O O2 0.549786 0.386961 0.136525
O O3 0.750000 0.388176 0.049252
O O4 0.500000 0.386765 0.000000
O O5 0.380118 0.125577 0.627300
O O6 0.119880 0.125576 0.627299
O O7 0.250001 0.107970 0.516651
O O8 0.250002 0.000000 0.608127
O O9 0.558838 0.127405 0.721096
O O10 0.500000 0.250000 0.663104
O O11 0.623175 0.160870 0.589324
O O12 0.750000 0.078971 0.793906
O O13 0.549785 0.113039 0.863474
O O14 0.540068 0.000000 0.781074
O O15 0.876822 0.839130 0.589325
O O16 0.941162 0.872595 0.721096
O O17 0.250000 0.750000 0.500000
O O18 0.540068 0.500000 0.218925
O O19 0.097120 0.500000 0.937935
O O20 0.000000 0.386765 0.000000
#
# Coordination Sequence:
#
# PCOD9222653 Si02
#       8
#     8   8   8   8   8   8   8   8
#     4   8  14  27  49  78 111 146 186 233 287 347
#     4  12  28  42  60  96 127 149 199 267 310 352
#     4  12  23  41  65  85 120 162 199 245 306 372
#     4   9  18  34  57  85 114 149 199 246 286 350
#     4  12  23  41  65  85 120 162 199 245 306 372
#     4  12  24  44  66  88 113 159 210 247 302 373
#     4   9  18  34  57  85 114 149 199 246 286 350
#     4   8  14  27  49  78 111 146 186 233 287 347
#
# _framework density 17.775483000000001
#
# number of rings (size 3 to 8) (size 9 to 14) (size 15 to 20)
#    0.000    1.750    3.750    3.000    0.000    3.000 
#    2.250    0.000    0.000    0.750    0.000    3.500 
#    0.000    0.000    0.000    0.000    0.000    0.000 
#
# Total GULP energy -178436.877865 kJ/mol
# GULP energy per Si atom -5576.152433 kJ/mol
# Density = 1.773502 g / cm^3
# Si number density = 17.775483 Si / 1000 Ang^3
#
#
#
# Elastic Constant Matrix: (Units=GPa)
#
#
# Indices 1 2 3 4 5 6 
#
# 1 100.3218 43.1211 72.1025 0.0000 -0.0025 0.0000
# 2 43.1211 92.9953 55.6584 0.0000 -0.0033 0.0000
# 3 72.1025 55.6584 183.3944 0.0000 -0.0016 0.0000
# 4 0.0000 0.0000 0.0000 47.6282 0.0000 0.0022
# 5 -0.0025 -0.0033 -0.0016 0.0000 22.5943 0.0000
# 6 0.0000 0.0000 0.0000 0.0022 0.0000 19.1838
#
#
#
# Elastic Compliance Matrix: (Units=1/GPa)
#
#
# Indices 1 2 3 4 5 6 
#
# 1 0.015141 -0.004225 -0.004670 0.000000 0.000001 0.000000
# 2 -0.004225 0.014319 -0.002684 0.000000 0.000001 0.000000
# 3 -0.004670 -0.002684 0.008104 0.000000 0.000000 0.000000
# 4 0.000000 0.000000 0.000000 0.020996 0.000000 -0.000002
# 5 0.000001 0.000001 0.000000 0.000000 0.044259 0.000000
# 6 0.000000 0.000000 0.000000 -0.000002 0.000000 0.052127
#
#
# Mechanical properties :
#
#
# Convention : Reuss Voigt Hill
#
# Bulk Modulus (GPa) = 69.42934 79.83063 74.62998
# Shear Modulus (GPa) = 27.33627 31.60322 29.46975
#
# Velocity S-wave (km/s) = 3.92581 4.22110 4.07613
# Velocity P-wave (km/s) = 7.72614 8.29246 8.01430
#
# Compressibility (1/GPa) = 0.01440313
#
# Stress axis : x y z
#
# Youngs Moduli (GPa) = 66.04710 69.83631 123.40195
#
# Poissons Ratio (x) = 0.29509 0.57632
# Poissons Ratio (y) = 0.27908 0.33127
# Poissons Ratio (z) = 0.30846 0.18748
#
# Static dielectric constant tensor:
#      x y z
#    x 1.749840 0.000000 -0.000020 
#    y 0.000000 1.604010 0.000000 
#    z -0.000020 0.000000 1.627310 
# 
# From -- ./inp_files/258128.got.cif
#   From: 2010.05.17/outbox.cif.g08.bks.cpg/sg12_130_cif.got.tgz:258128.got - 2010.06.03 13:09:07.
