data_PCOD9222421
_publ_section_title
;
Structure prediction by ZEFSAII (Michael W. Deem and Ramdas Pophale) SiO2 
 PCOD9222421
Probable space group: C 2/M
;
_chemical_formula_sum "Si O2"
_cell_formula_units_Z 42
_cell_length_a 11.557101
_cell_length_b 21.840473
_cell_length_c 8.841015
_cell_angle_alpha 90.000000
_cell_angle_beta 104.587403
_cell_angle_gamma 90.000000
_cell_volume 2159.647112
_symmetry_space_group_name_H-M "C 2/M"
_symmetry_group_IT_number 12
_symmetry_cell_setting 'monoclinic'
loop_
_space_group_symop_operation_xyz
x,y,z
-x,y,-z
-x,-y,-z
x,-y,z
1/2+x,1/2+y,z
1/2-x,1/2+y,-z
1/2-x,1/2-y,-z
1/2+x,1/2-y,z
loop_
_atom_site_type_symbol
_atom_site_label
_atom_site_fract_x
_atom_site_fract_y
_atom_site_fract_z
Si Si1 0.073163 0.174473 0.173327
Si Si2 0.460757 0.794926 0.659755
Si Si3 0.059392 0.930937 0.684240
Si Si4 0.000000 0.500000 0.000000
Si Si5 0.334777 0.102989 0.790369
Si Si6 0.700418 0.185008 0.926756
O O1 0.091361 0.231182 0.293148
O O2 0.201117 0.154760 0.150367
O O3 0.998051 0.120787 0.227747
O O4 0.000000 0.195222 0.000000
O O5 0.500000 0.789422 0.500000
O O6 0.376202 0.852624 0.668121
O O7 0.579455 0.805921 0.796626
O O8 0.202351 0.923279 0.717983
O O9 0.000000 0.924371 0.500000
O O10 0.034460 0.000000 0.732411
O O11 0.932086 0.553043 0.872826
O O12 0.320828 0.145665 0.932437
O O13 0.750000 0.250000 0.000000
#
# Coordination Sequence:
#
# PCOD9222421 Si02
#       6
#     8   8   8   2   8   8
#     4  12  23  41  68 100 131 174 225 273 327 394
#     4  12  26  41  66 103 137 169 216 283 346 390
#     4  11  26  46  67  98 141 180 218 270 338 401
#     4  12  24  44  76  94 128 184 232 268 318 394
#     4  12  23  46  72  98 130 178 231 270 329 395
#     4  12  22  42  68  97 134 171 221 279 327 398
#
# _framework density 19.447621000000002
#
# number of rings (size 3 to 8) (size 9 to 14) (size 15 to 20)
#    0.000    0.190    8.571    0.571    2.667    1.143 
#    1.714    0.476    0.000    0.000    0.000    0.000 
#    0.000    0.000    0.000    0.000    0.000    0.000 
#
# Total GULP energy -117122.224358 kJ/mol
# GULP energy per Si atom -5577.248779 kJ/mol
# Density = 1.940336 g / cm^3
# Si number density = 19.447621 Si / 1000 Ang^3
#
#
#
# Elastic Constant Matrix: (Units=GPa)
#
#
# Indices 1 2 3 4 5 6 
#
# 1 49.8206 11.2062 2.5329 0.0000 -13.5274 0.0000
# 2 11.2062 126.0967 28.1088 0.0000 -23.8162 0.0000
# 3 2.5329 28.1088 81.5152 0.0000 -12.4333 0.0000
# 4 0.0000 0.0000 0.0000 20.4475 0.0000 0.7273
# 5 -13.5274 -23.8162 -12.4333 0.0000 42.4889 0.0000
# 6 0.0000 0.0000 0.0000 0.7273 0.0000 21.0436
#
#
#
# Elastic Compliance Matrix: (Units=1/GPa)
#
#
# Indices 1 2 3 4 5 6 
#
# 1 0.022057 -0.000827 0.000628 0.000000 0.006743 0.000000
# 2 -0.000827 0.009376 -0.002560 0.000000 0.004243 0.000000
# 3 0.000628 -0.002560 0.013547 0.000000 0.002729 0.000000
# 4 0.000000 0.000000 0.000000 0.048966 0.000000 -0.001692
# 5 0.006743 0.004243 0.002729 0.000000 0.028859 0.000000
# 6 0.000000 0.000000 0.000000 -0.001692 0.000000 0.047579
#
#
# Mechanical properties :
#
#
# Convention : Reuss Voigt Hill
#
# Bulk Modulus (GPa) = 25.34051 37.90317 31.62184
# Shear Modulus (GPa) = 26.44720 31.16831 28.80776
#
# Velocity S-wave (km/s) = 3.69171 4.00769 3.85294
# Velocity P-wave (km/s) = 5.58838 6.39903 6.00740
#
# Compressibility (1/GPa) = 0.03946250
#
# Stress axis : x y z
#
# Youngs Moduli (GPa) = 45.33748 106.65511 73.81575
#
# Poissons Ratio (x) = 0.08817 -0.04637
# Poissons Ratio (y) = 0.03748 0.18899
# Poissons Ratio (z) = -0.02848 0.27306
#
# Static dielectric constant tensor:
#      x y z
#    x 1.756430 0.000000 -0.010540 
#    y 0.000000 1.698850 0.000000 
#    z -0.010540 0.000000 1.654780 
# 
# From -- ./inp_files/49151.got.cif
#   From: 2010.05.17/outbox.cif.g08.bks.cpg/sg12_25_cif.got.tgz:49151.got - 2010.06.03 13:09:07.
