data_PCOD9222275
_publ_section_title
;
Structure prediction by ZEFSAII (Michael W. Deem and Ramdas Pophale) SiO2 
 PCOD9222275
Probable space group: C 2/M
;
_chemical_formula_sum "Si O2"
_cell_formula_units_Z 64
_cell_length_a 16.568552
_cell_length_b 24.308645
_cell_length_c 14.400978
_cell_angle_alpha 90.000000
_cell_angle_beta 36.766347
_cell_angle_gamma 90.000000
_cell_volume 3471.682791
_symmetry_space_group_name_H-M "C 2/M"
_symmetry_group_IT_number 12
_symmetry_cell_setting 'monoclinic'
loop_
_space_group_symop_operation_xyz
x,y,z
-x,y,-z
-x,-y,-z
x,-y,z
1/2+x,1/2+y,z
1/2-x,1/2+y,-z
1/2-x,1/2-y,-z
1/2+x,1/2-y,z
loop_
_atom_site_type_symbol
_atom_site_label
_atom_site_fract_x
_atom_site_fract_y
_atom_site_fract_z
Si Si1 0.716361 0.434197 0.163811
Si Si2 0.482429 0.853385 0.626850
Si Si3 0.263226 0.300181 0.414599
Si Si4 0.142541 0.727907 0.837240
Si Si5 0.170486 0.753880 0.170456
Si Si6 0.789018 0.613473 0.298129
Si Si7 0.974056 0.435057 0.797497
Si Si8 0.530161 0.646511 0.655274
O O1 0.690478 0.500000 0.182477
O O2 0.754698 0.418266 0.234534
O O3 0.587470 0.399004 0.246483
O O4 0.847467 0.420655 0.980673
O O5 0.500000 0.861922 0.500000
O O6 0.623338 0.831140 0.536966
O O7 0.375082 0.805591 0.750258
O O8 0.453497 0.905746 0.717627
O O9 0.250000 0.250000 0.500000
O O10 0.290635 0.270955 0.292562
O O11 0.381178 0.342720 0.334039
O O12 0.231221 0.719135 0.845712
O O13 0.130624 0.669483 0.798222
O O14 0.000000 0.749808 0.000000
O O15 0.042669 0.794443 0.287800
O O16 0.250000 0.750000 0.000000
O O17 0.646109 0.632172 0.473701
O O18 0.886376 0.581301 0.279068
O O19 0.974338 0.500000 0.785006
#
# Coordination Sequence:
#
# PCOD9222275 Si02
#       8
#     8   8   8   8   8   8   8   8
#     4  11  25  43  65  94 132 170 212 262 319 390
#     4  12  24  43  67  93 122 165 219 270 317 374
#     4  12  22  40  60  91 132 167 207 256 316 373
#     4  12  24  37  60  95 131 174 209 257 316 382
#     4  12  25  39  63  94 132 175 215 256 318 391
#     4  12  23  38  66  98 132 168 212 260 321 385
#     4  11  25  46  68  92 125 170 218 271 325 380
#     4  12  24  39  64  92 135 173 212 258 312 376
#
# _framework density 18.434864000000001
#
# number of rings (size 3 to 8) (size 9 to 14) (size 15 to 20)
#    0.000    0.250    6.250    3.375    1.750    2.750 
#    0.000    0.000    0.000    0.000    0.000    1.750 
#    0.000    0.000    0.000    0.000    0.000    0.000 
#
# Total GULP energy -178737.232175 kJ/mol
# GULP energy per Si atom -5585.538505 kJ/mol
# Density = 1.839291 g / cm^3
# Si number density = 18.434864 Si / 1000 Ang^3
#
#
#
# Elastic Constant Matrix: (Units=GPa)
#
#
# Indices 1 2 3 4 5 6 
#
# 1 79.8167 25.1817 30.1923 -0.0009 9.9364 0.0040
# 2 25.1817 80.0723 43.6290 0.0002 14.8944 0.0005
# 3 30.1923 43.6290 123.0508 -0.0023 14.2877 0.0071
# 4 -0.0009 0.0002 -0.0023 32.8998 0.0010 3.6519
# 5 9.9364 14.8944 14.2877 0.0010 30.7614 -0.0041
# 6 0.0040 0.0005 0.0071 3.6519 -0.0041 44.7462
#
#
#
# Elastic Compliance Matrix: (Units=1/GPa)
#
#
# Indices 1 2 3 4 5 6 
#
# 1 0.014595 -0.002930 -0.002283 0.000000 -0.002235 -0.000001
# 2 -0.002930 0.016906 -0.004687 0.000000 -0.005062 0.000000
# 3 -0.002283 -0.004687 0.010570 0.000001 -0.001902 -0.000002
# 4 0.000000 0.000000 0.000001 0.030673 -0.000002 -0.002503
# 5 -0.002235 -0.005062 -0.001902 -0.000002 0.036565 0.000004
# 6 -0.000001 0.000000 -0.000002 -0.002503 0.000004 0.022553
#
#
# Mechanical properties :
#
#
# Convention : Reuss Voigt Hill
#
# Bulk Modulus (GPa) = 44.90390 53.43842 49.17116
# Shear Modulus (GPa) = 31.42972 33.94392 32.68682
#
# Velocity S-wave (km/s) = 4.13353 4.29568 4.21539
# Velocity P-wave (km/s) = 6.86968 7.32492 7.10095
#
# Compressibility (1/GPa) = 0.02226978
#
# Stress axis : x y z
#
# Youngs Moduli (GPa) = 68.51687 59.15097 94.61074
#
# Poissons Ratio (x) = 0.17334 0.21595
# Poissons Ratio (y) = 0.20079 0.44348
# Poissons Ratio (z) = 0.15639 0.27726
#
# Static dielectric constant tensor:
#      x y z
#    x 1.655650 0.000000 -0.002120 
#    y 0.000000 0.770920 0.000050 
#    z -0.002120 0.000050 1.644870 
# 
# From -- ./inp_files/149762.got.cif
#   From: 2010.05.17/outbox.cif.g08.bks.cpg/sg12_75_cif.got.tgz:149762.got - 2010.06.03 13:09:07.
