data_PCOD9222636
_publ_section_title
;
Structure prediction by ZEFSAII (Michael W. Deem and Ramdas Pophale) SiO2 
 PCOD9222636
Probable space group: C 2/M
;
_chemical_formula_sum "Si O2"
_cell_formula_units_Z 48
_cell_length_a 14.186074
_cell_length_b 28.388102
_cell_length_c 10.872821
_cell_angle_alpha 90.000000
_cell_angle_beta 29.812062
_cell_angle_gamma 90.000000
_cell_volume 2176.877821
_symmetry_space_group_name_H-M "C 2/M"
_symmetry_group_IT_number 12
_symmetry_cell_setting 'monoclinic'
loop_
_space_group_symop_operation_xyz
x,y,z
-x,y,-z
-x,-y,-z
x,-y,z
1/2+x,1/2+y,z
1/2-x,1/2+y,-z
1/2-x,1/2-y,-z
1/2+x,1/2-y,z
loop_
_atom_site_type_symbol
_atom_site_label
_atom_site_fract_x
_atom_site_fract_y
_atom_site_fract_z
Si Si1 0.033659 0.445618 0.762571
Si Si2 0.763266 0.805228 0.512974
Si Si3 0.311111 0.555124 0.652365
Si Si4 0.226148 0.804008 0.222664
Si Si5 0.429042 0.855356 0.769643
Si Si6 0.132348 0.197437 0.969278
O O1 0.064730 0.500000 0.692351
O O2 0.217002 0.426794 0.632125
O O3 0.973560 0.410401 0.723963
O O4 0.858085 0.445000 0.057225
O O5 0.750000 0.750000 0.500000
O O6 0.699558 0.814675 0.723835
O O7 0.627574 0.829570 0.568648
O O8 0.983390 0.815657 0.244732
O O9 0.500000 0.576658 0.500000
O O10 0.355733 0.500000 0.575085
O O11 0.294765 0.751334 0.107235
O O12 0.000000 0.803124 0.500000
O O13 0.309348 0.839557 0.027578
O O14 0.310298 0.836193 0.789905
O O15 0.000000 0.192801 0.000000
#
# Coordination Sequence:
#
# PCOD9222636 Si02
#       6
#     8   8   8   8   8   8
#     4   9  20  36  55  85 124 160 201 248 298 363
#     4  12  23  41  60  90 125 163 200 248 307 369
#     4   8  15  30  54  79 113 159 193 233 294 355
#     4  12  23  39  64  90 130 165 198 253 305 368
#     4  12  25  38  61  92 124 167 207 248 309 367
#     4  12  25  42  62  87 123 161 212 256 305 364
#
# _framework density 22.049928999999999
#
# number of rings (size 3 to 8) (size 9 to 14) (size 15 to 20)
#    0.000    1.167    5.000    3.000    4.667    2.000 
#    0.000    0.000    0.000    0.500    0.000    1.167 
#    0.000    0.000    0.000    0.000    0.000    0.000 
#
# Total GULP energy -134128.025749 kJ/mol
# GULP energy per Si atom -5588.667740 kJ/mol
# Density = 2.199974 g / cm^3
# Si number density = 22.049929 Si / 1000 Ang^3
#
#
#
# Elastic Constant Matrix: (Units=GPa)
#
#
# Indices 1 2 3 4 5 6 
#
# 1 105.8333 46.6014 23.3873 -0.0001 -21.8327 0.0000
# 2 46.6014 119.9526 7.5607 0.0000 -18.3322 0.0000
# 3 23.3873 7.5607 103.0680 -0.0001 -23.9962 0.0001
# 4 -0.0001 0.0000 -0.0001 14.6257 0.0001 -4.4956
# 5 -21.8327 -18.3322 -23.9962 0.0001 44.7869 0.0000
# 6 0.0000 0.0000 0.0001 -4.4956 0.0000 24.1484
#
#
#
# Elastic Compliance Matrix: (Units=1/GPa)
#
#
# Indices 1 2 3 4 5 6 
#
# 1 0.012368 -0.004177 -0.001707 0.000000 0.003405 0.000000
# 2 -0.004177 0.010308 0.000800 0.000000 0.002612 0.000000
# 3 -0.001707 0.000800 0.011326 0.000000 0.005564 0.000000
# 4 0.000000 0.000000 0.000000 0.072523 0.000000 0.013501
# 5 0.003405 0.002612 0.005564 0.000000 0.028037 0.000000
# 6 0.000000 0.000000 0.000000 0.013501 0.000000 0.043924
#
#
# Mechanical properties :
#
#
# Convention : Reuss Voigt Hill
#
# Bulk Modulus (GPa) = 41.95866 53.77253 47.86560
# Shear Modulus (GPa) = 25.43239 33.46584 29.44911
#
# Velocity S-wave (km/s) = 3.39986 3.90003 3.65850
# Velocity P-wave (km/s) = 5.87216 6.68730 6.29294
#
# Compressibility (1/GPa) = 0.02383298
#
# Stress axis : x y z
#
# Youngs Moduli (GPa) = 80.85612 97.01140 88.28945
#
# Poissons Ratio (x) = 0.40521 0.15074
# Poissons Ratio (y) = 0.33773 -0.07060
# Poissons Ratio (z) = 0.13805 -0.07758
#
# Static dielectric constant tensor:
#      x y z
#    x 1.894490 0.000000 0.034480 
#    y 0.000000 1.809540 0.000000 
#    z 0.034480 0.000000 1.888890 
# 
# From -- ./inp_files/149635.got.cif
#   From: 2010.05.17/outbox.cif.g08.bks.cpg/sg12_75_cif.got.tgz:149635.got - 2010.06.03 13:09:07.
