data_PCOD9222852
_publ_section_title
;
Structure prediction by ZEFSAII (Michael W. Deem and Ramdas Pophale) SiO2 
 PCOD9222852
Probable space group: C 2/M
;
_chemical_formula_sum "Si O2"
_cell_formula_units_Z 48
_cell_length_a 9.888911
_cell_length_b 14.512405
_cell_length_c 14.977809
_cell_angle_alpha 90.000000
_cell_angle_beta 94.070442
_cell_angle_gamma 90.000000
_cell_volume 2144.071526
_symmetry_space_group_name_H-M "C 2/M"
_symmetry_group_IT_number 12
_symmetry_cell_setting 'monoclinic'
loop_
_space_group_symop_operation_xyz
x,y,z
-x,y,-z
-x,-y,-z
x,-y,z
1/2+x,1/2+y,z
1/2-x,1/2+y,-z
1/2-x,1/2-y,-z
1/2+x,1/2-y,z
loop_
_atom_site_type_symbol
_atom_site_label
_atom_site_fract_x
_atom_site_fract_y
_atom_site_fract_z
Si Si1 0.553019 0.392372 0.096873
Si Si2 0.324500 0.400210 0.240589
Si Si3 0.015077 0.649345 0.631570
Si Si4 0.777907 0.361185 0.509543
Si Si5 0.253876 0.190269 0.237689
Si Si6 0.454140 0.639419 0.614270
O O1 0.587808 0.500000 0.086627
O O2 0.431132 0.388650 0.163214
O O3 0.684272 0.342882 0.143980
O O4 0.500000 0.355273 0.000000
O O5 0.254177 0.500000 0.225292
O O6 0.250666 0.301450 0.240741
O O7 0.418595 0.406076 0.332891
O O8 0.118305 0.609088 0.563684
O O9 0.094973 0.653473 0.729280
O O10 0.862849 0.614912 0.602825
O O11 0.003638 0.756227 0.602908
O O12 0.750000 0.250000 0.500000
O O13 0.631379 0.397484 0.473348
O O14 0.158007 0.150687 0.311756
#
# Coordination Sequence:
#
# PCOD9222852 Si02
#       6
#     8   8   8   8   8   8
#     4   9  18  32  49  68  88 111 142 180 221 266
#     4   9  17  29  46  67  90 117 148 179 215 260
#     4   8  13  21  36  60  85 112 147 181 215 255
#     4   8  12  19  34  59  85 112 147 184 214 249
#     4   9  16  27  45  66  89 115 146 181 219 261
#     4   8  14  24  39  61  86 116 149 181 215 253
#
# _framework density 22.387312999999999
#
# number of rings (size 3 to 8) (size 9 to 14) (size 15 to 20)
#    0.000    3.500    0.000    0.000    0.000    0.667 
#    0.000    0.000    0.000   10.500    0.000  239.167 
#    0.000    0.000    0.000    0.000    0.000    0.000 
#
# Total GULP energy -133679.934100 kJ/mol
# GULP energy per Si atom -5569.997254 kJ/mol
# Density = 2.233636 g / cm^3
# Si number density = 22.387313 Si / 1000 Ang^3
#
#
#
# Elastic Constant Matrix: (Units=GPa)
#
#
# Indices 1 2 3 4 5 6 
#
# 1 103.7742 12.4427 49.3122 0.0000 37.1353 0.0000
# 2 12.4427 79.8468 25.1282 0.0000 24.7972 0.0000
# 3 49.3122 25.1282 178.8180 0.0000 48.6094 0.0000
# 4 0.0000 0.0000 0.0000 395.4145 0.0000 -77.1083
# 5 37.1353 24.7972 48.6094 0.0000 40.9078 0.0000
# 6 0.0000 0.0000 0.0000 -77.1083 0.0000 12.3629
#
#
#
# Elastic Compliance Matrix: (Units=1/GPa)
#
#
# Indices 1 2 3 4 5 6 
#
# 1 0.014635 0.002237 -0.000547 0.000000 -0.013991 0.000000
# 2 0.002237 0.015807 0.000471 0.000000 -0.012171 0.000000
# 3 -0.000547 0.000471 0.008301 0.000000 -0.009653 0.000000
# 4 0.000000 0.000000 0.000000 -0.011694 0.000000 -0.072935
# 5 -0.013991 -0.012171 -0.009653 0.000000 0.055994 0.000000
# 6 0.000000 0.000000 0.000000 -0.072935 0.000000 -0.374015
#
#
# Mechanical properties :
#
#
# Convention : Reuss Voigt Hill
#
# Bulk Modulus (GPa) = 23.22148 59.57836 41.39992
# Shear Modulus (GPa) = -17.79750 108.10744 45.15497
#
# Velocity S-wave (km/s) = -2.82260 6.95661 4.49596
# Velocity P-wave (km/s) = 0.47711 9.54967 6.74420
#
# Compressibility (1/GPa) = 0.04306358
#
# Stress axis : x y z
#
# Youngs Moduli (GPa) = 68.33112 63.26187 120.46970
#
# Poissons Ratio (x) = -0.14149 0.06587
# Poissons Ratio (y) = -0.15283 -0.05669
# Poissons Ratio (z) = 0.03736 -0.02977
#
# Static dielectric constant tensor:
#      x y z
#    x 1.924460 0.000000 -0.007900 
#    y 0.000000 1.921530 0.000000 
#    z -0.007900 0.000000 1.862170 
# 
# From -- ./inp_files/215302.got.cif
#   From: 2010.05.17/outbox.cif.g08.bks.cpg/sg12_108_cif.got.tgz:215302.got - 2010.06.03 13:09:07.
