data_PCOD9222658
_publ_section_title
;
Structure prediction by ZEFSAII (Michael W. Deem and Ramdas Pophale) SiO2 
 PCOD9222658
Probable space group: C 2/M
;
_chemical_formula_sum "Si O2"
_cell_formula_units_Z 26
_cell_length_a 7.412952
_cell_length_b 22.300118
_cell_length_c 10.230058
_cell_angle_alpha 90.000000
_cell_angle_beta 132.944789
_cell_angle_gamma 90.000000
_cell_volume 1237.923429
_symmetry_space_group_name_H-M "C 2/M"
_symmetry_group_IT_number 12
_symmetry_cell_setting 'monoclinic'
loop_
_space_group_symop_operation_xyz
x,y,z
-x,y,-z
-x,-y,-z
x,-y,z
1/2+x,1/2+y,z
1/2-x,1/2+y,-z
1/2-x,1/2-y,-z
1/2+x,1/2-y,z
loop_
_atom_site_type_symbol
_atom_site_label
_atom_site_fract_x
_atom_site_fract_y
_atom_site_fract_z
Si Si1 0.000000 0.500000 0.000000
Si Si2 0.083753 0.668796 0.684825
Si Si3 0.074441 0.786672 0.816634
Si Si4 0.244290 0.107017 0.713677
O O1 0.175042 0.552163 0.156326
O O2 0.976172 0.733158 0.676130
O O3 0.370930 0.680674 0.803605
O O4 0.000000 0.650443 0.500000
O O5 0.977616 0.622348 0.736034
O O6 0.196249 0.835753 0.783383
O O7 0.250000 0.750000 0.000000
O O8 0.000000 0.098914 0.500000
#
# Coordination Sequence:
#
# PCOD9222658 Si02
#       4
#     2   8   8   8
#     4  12  30  52  76  96 132 202 262 308 356 410
#     4  12  23  41  70 110 146 186 226 284 378 446
#     4  12  24  39  70 113 152 183 228 290 365 450
#     4  12  26  50  74 101 147 193 246 304 360 431
#
# _framework density 21.002915000000002
#
# number of rings (size 3 to 8) (size 9 to 14) (size 15 to 20)
#    0.000    0.000    6.154    5.077    0.000    0.000 
#    0.000    3.846    0.000    0.000    0.000    0.000 
#    0.000    0.000    0.000    0.000    0.000    0.000 
#
# Total GULP energy -72378.008119 kJ/mol
# GULP energy per Si atom -5567.539086 kJ/mol
# Density = 2.095511 g / cm^3
# Si number density = 21.002915 Si / 1000 Ang^3
#
#
#
# Elastic Constant Matrix: (Units=GPa)
#
#
# Indices 1 2 3 4 5 6 
#
# 1 126.5627 0.2751 31.8694 0.0000 3.7701 0.0000
# 2 0.2751 91.0449 23.9446 0.0000 -11.5742 0.0000
# 3 31.8694 23.9446 127.8192 0.0000 -0.4288 0.0000
# 4 0.0000 0.0000 0.0000 41.1750 0.0000 8.8205
# 5 3.7701 -11.5742 -0.4288 0.0000 28.6417 0.0000
# 6 0.0000 0.0000 0.0000 8.8205 0.0000 -3.8852
#
#
#
# Elastic Compliance Matrix: (Units=1/GPa)
#
#
# Indices 1 2 3 4 5 6 
#
# 1 0.008483 0.000428 -0.002199 0.000000 -0.000976 0.000000
# 2 0.000428 0.012225 -0.002381 0.000000 0.004848 0.000000
# 3 -0.002199 -0.002381 0.008816 0.000000 -0.000541 0.000000
# 4 0.000000 0.000000 0.000000 0.016340 0.000000 0.037096
# 5 -0.000976 0.004848 -0.000541 0.000000 0.036994 0.000000
# 6 0.000000 0.000000 0.000000 0.037096 0.000000 -0.173169
#
#
# Mechanical properties :
#
#
# Convention : Reuss Voigt Hill
#
# Bulk Modulus (GPa) = 47.12086 50.84498 48.98292
# Shear Modulus (GPa) = -66.72332 32.47549 -17.12392
#
# Velocity S-wave (km/s) = -5.64248 3.93649 -2.85846
# Velocity P-wave (km/s) = 4.46833 6.70241 3.53245
#
# Compressibility (1/GPa) = 0.02122202
#
# Stress axis : x y z
#
# Youngs Moduli (GPa) = 117.88277 81.80159 113.43145
#
# Poissons Ratio (x) = -0.03505 0.24939
# Poissons Ratio (y) = -0.05051 0.27004
# Poissons Ratio (z) = 0.25918 0.19474
#
# Static dielectric constant tensor:
#      x y z
#    x 1.798980 0.000000 0.006560 
#    y 0.000000 1.680670 0.000000 
#    z 0.006560 0.000000 1.912920 
# 
# From -- ./inp_files/120555.got.cif
#   From: 2010.05.17/outbox.cif.g08.bks.cpg/sg12_61_cif.got.tgz:120555.got - 2010.06.03 13:09:07.
