data_PCOD9222140
_publ_section_title
;
Structure prediction by ZEFSAII (Michael W. Deem and Ramdas Pophale) SiO2 
 PCOD9222140
Probable space group: C 2/M
;
_chemical_formula_sum "Si O2"
_cell_formula_units_Z 50
_cell_length_a 11.574501
_cell_length_b 14.864781
_cell_length_c 11.284266
_cell_angle_alpha 90.000000
_cell_angle_beta 80.933649
_cell_angle_gamma 90.000000
_cell_volume 1917.229395
_symmetry_space_group_name_H-M "C 2/M"
_symmetry_group_IT_number 12
_symmetry_cell_setting 'monoclinic'
loop_
_space_group_symop_operation_xyz
x,y,z
-x,y,-z
-x,-y,-z
x,-y,z
1/2+x,1/2+y,z
1/2-x,1/2+y,-z
1/2-x,1/2-y,-z
1/2+x,1/2-y,z
loop_
_atom_site_type_symbol
_atom_site_label
_atom_site_fract_x
_atom_site_fract_y
_atom_site_fract_z
Si Si1 0.904435 0.842726 0.649515
Si Si2 0.865714 0.206776 0.128262
Si Si3 0.111916 0.895084 0.101949
Si Si4 0.000000 0.000000 0.500000
Si Si5 0.934905 0.402381 0.193186
Si Si6 0.635053 0.846089 0.299927
Si Si7 0.710164 0.902234 0.540899
O O1 0.836777 0.879882 0.775977
O O2 0.944800 0.742953 0.668848
O O3 0.811279 0.833244 0.558037
O O4 0.993880 0.919579 0.602309
O O5 0.761808 0.186362 0.235612
O O6 0.979746 0.144299 0.135777
O O7 0.903058 0.311200 0.129062
O O8 0.830911 0.169033 0.004681
O O9 0.113413 0.000000 0.070341
O O10 0.905954 0.500000 0.142533
O O11 0.072147 0.398899 0.205398
O O12 0.877817 0.401617 0.334944
O O13 0.650633 0.892415 0.424242
O O14 0.776581 0.000000 0.533545
#
# Coordination Sequence:
#
# PCOD9222140 Si02
#       7
#     8   8   8   2   8   8   8
#     4  12  25  43  71 109 146 184 242 305 377 442
#     4  11  25  46  76 102 142 201 250 303 376 444
#     4  11  25  49  74 108 149 189 246 320 375 448
#     4  12  28  40  76 114 144 186 240 320 378 458
#     4  11  25  47  70 106 153 195 249 310 377 448
#     4  12  26  43  75 106 145 197 250 306 374 463
#     4  11  24  44  68 104 147 192 237 305 382 450
#
# _framework density 26.079298000000001
#
# number of rings (size 3 to 8) (size 9 to 14) (size 15 to 20)
#    0.000    0.640    4.800    2.400    4.480    4.480 
#    0.000    1.600    0.000    0.000    0.000    0.000 
#    0.000    0.000    0.000    0.000    0.000    0.000 
#
# Total GULP energy -139726.780275 kJ/mol
# GULP energy per Si atom -5589.071211 kJ/mol
# Density = 2.601994 g / cm^3
# Si number density = 26.079298 Si / 1000 Ang^3
#
#
#
# Elastic Constant Matrix: (Units=GPa)
#
#
# Indices 1 2 3 4 5 6 
#
# 1 69.3256 28.4641 14.4386 0.0000 2.4407 0.0000
# 2 28.4641 233.4995 58.0168 0.0000 5.4502 0.0000
# 3 14.4386 58.0168 130.3521 0.0000 12.3500 0.0000
# 4 0.0000 0.0000 0.0000 40.8377 0.0000 -1.8492
# 5 2.4407 5.4502 12.3500 0.0000 36.3911 0.0000
# 6 0.0000 0.0000 0.0000 -1.8492 0.0000 37.2974
#
#
#
# Elastic Compliance Matrix: (Units=1/GPa)
#
#
# Indices 1 2 3 4 5 6 
#
# 1 0.015301 -0.001624 -0.000928 0.000000 -0.000468 0.000000
# 2 -0.001624 0.004987 -0.002045 0.000000 0.000056 0.000000
# 3 -0.000928 -0.002045 0.008937 0.000000 -0.002664 0.000000
# 4 0.000000 0.000000 0.000000 0.024542 0.000000 0.001217
# 5 -0.000468 0.000056 -0.002664 0.000000 0.028406 0.000000
# 6 0.000000 0.000000 0.000000 0.001217 0.000000 0.026872
#
#
# Mechanical properties :
#
#
# Convention : Reuss Voigt Hill
#
# Bulk Modulus (GPa) = 49.92024 70.55734 60.23879
# Shear Modulus (GPa) = 40.02654 45.05577 42.54116
#
# Velocity S-wave (km/s) = 3.92190 4.16100 4.04322
# Velocity P-wave (km/s) = 6.30014 7.08512 6.70413
#
# Compressibility (1/GPa) = 0.02003196
#
# Stress axis : x y z
#
# Youngs Moduli (GPa) = 65.35481 200.50211 111.89394
#
# Poissons Ratio (x) = 0.32557 0.10381
# Poissons Ratio (y) = 0.10612 0.22885
# Poissons Ratio (z) = 0.06063 0.41008
#
# Static dielectric constant tensor:
#      x y z
#    x 1.597650 0.000000 0.291710 
#    y 0.000000 1.999830 0.000000 
#    z 0.291710 0.000000 1.971490 
# 
# From -- ./inp_files/143643.got.cif
#   From: 2010.05.17/outbox.cif.g08.bks.cpg/sg12_72_cif.got.tgz:143643.got - 2010.06.03 13:09:07.
