data_PCOD9222319
_publ_section_title
;
Structure prediction by ZEFSAII (Michael W. Deem and Ramdas Pophale) SiO2 
 PCOD9222319
Probable space group: C 2/M
;
_chemical_formula_sum "Si O2"
_cell_formula_units_Z 56
_cell_length_a 20.873176
_cell_length_b 19.696514
_cell_length_c 18.535925
_cell_angle_alpha 90.000000
_cell_angle_beta 160.186438
_cell_angle_gamma 90.000000
_cell_volume 2583.101142
_symmetry_space_group_name_H-M "C 2/M"
_symmetry_group_IT_number 12
_symmetry_cell_setting 'monoclinic'
loop_
_space_group_symop_operation_xyz
x,y,z
-x,y,-z
-x,-y,-z
x,-y,z
1/2+x,1/2+y,z
1/2-x,1/2+y,-z
1/2-x,1/2-y,-z
1/2+x,1/2-y,z
loop_
_atom_site_type_symbol
_atom_site_label
_atom_site_fract_x
_atom_site_fract_y
_atom_site_fract_z
Si Si1 0.493639 0.121932 0.071258
Si Si2 0.785260 0.837560 0.750274
Si Si3 0.840765 0.789738 0.470577
Si Si4 0.451130 0.326588 0.172355
Si Si5 0.261474 0.079648 0.426970
Si Si6 0.141225 0.421627 0.917719
Si Si7 0.729335 0.745020 0.817389
O O1 0.703227 0.146698 0.314867
O O2 0.402616 0.085538 0.043669
O O3 0.500000 0.086915 0.000000
O O4 0.365667 0.189753 0.925667
O O5 0.767814 0.776150 0.673787
O O6 0.703856 0.900275 0.619682
O O7 0.697776 0.808111 0.730659
O O8 0.000000 0.851589 0.000000
O O9 0.913635 0.786585 0.629323
O O10 0.032398 0.790191 0.627265
O O11 0.582212 0.377808 0.265622
O O12 0.304830 0.371585 0.064147
O O13 0.333383 0.275080 0.997843
O O14 0.448446 0.096432 0.671026
O O15 0.225011 0.000000 0.396270
O O16 0.188743 0.500000 0.951731
#
# Coordination Sequence:
#
# PCOD9222319 Si02
#       7
#     8   8   8   8   8   8   8
#     4  12  24  42  65  96 131 167 214 265 335 397
#     4  12  23  42  63  99 139 170 215 266 322 389
#     4  12  23  38  67  96 130 168 208 270 339 385
#     4  12  24  41  69  98 127 171 222 271 330 387
#     4  11  25  45  68  93 132 183 225 264 313 381
#     4  11  26  47  67  93 129 172 226 274 317 387
#     4  12  24  40  62 102 134 167 208 277 330 392
#
# _framework density 21.679369000000001
#
# number of rings (size 3 to 8) (size 9 to 14) (size 15 to 20)
#    0.000    0.286    7.143    2.143    2.000    1.714 
#    0.000    0.000    0.000    4.286    0.000    0.000 
#    0.000    0.000    0.000    0.000    0.000    0.000 
#
# Total GULP energy -156648.435827 kJ/mol
# GULP energy per Si atom -5594.586994 kJ/mol
# Density = 2.163003 g / cm^3
# Si number density = 21.679369 Si / 1000 Ang^3
#
#
#
# Elastic Constant Matrix: (Units=GPa)
#
#
# Indices 1 2 3 4 5 6 
#
# 1 106.6350 19.1671 37.6291 0.0019 -8.3952 0.0021
# 2 19.1671 39.2106 17.8279 -0.0098 -0.9950 0.0005
# 3 37.6291 17.8279 85.0453 -0.0061 -12.5868 0.0033
# 4 0.0019 -0.0098 -0.0061 19.0173 -0.0032 0.1345
# 5 -8.3952 -0.9950 -12.5868 -0.0032 47.4554 0.0037
# 6 0.0021 0.0005 0.0033 0.1345 0.0037 26.9207
#
#
#
# Elastic Compliance Matrix: (Units=1/GPa)
#
#
# Indices 1 2 3 4 5 6 
#
# 1 0.011607 -0.003730 -0.004227 -0.000004 0.000854 0.000000
# 2 -0.003730 0.029436 -0.004711 0.000014 -0.001292 0.000000
# 3 -0.004227 -0.004711 0.015083 0.000003 0.003154 -0.000002
# 4 -0.000004 0.000014 0.000003 0.052586 0.000004 -0.000263
# 5 0.000854 -0.001292 0.003154 0.000004 0.022033 -0.000004
# 6 0.000000 0.000000 -0.000002 -0.000263 -0.000004 0.037147
#
#
# Mechanical properties :
#
#
# Convention : Reuss Voigt Hill
#
# Bulk Modulus (GPa) = 32.47952 42.23767 37.35860
# Shear Modulus (GPa) = 24.57081 29.09648 26.83365
#
# Velocity S-wave (km/s) = 3.37021 3.66748 3.52198
# Velocity P-wave (km/s) = 5.49170 6.12038 5.81454
#
# Compressibility (1/GPa) = 0.03078863
#
# Stress axis : x y z
#
# Youngs Moduli (GPa) = 86.15309 33.97188 66.29833
#
# Poissons Ratio (x) = 0.12672 0.28027
# Poissons Ratio (y) = 0.32137 0.31236
# Poissons Ratio (z) = 0.36420 0.16006
#
# Static dielectric constant tensor:
#      x y z
#    x 1.849200 0.000000 -0.004700 
#    y 0.000000 1.769330 0.000000 
#    z -0.004700 0.000000 1.780060 
# 
# From -- ./inp_files/286099.got.cif
#   From: 2010.05.17/outbox.cif.g08.bks.cpg/sg12_144_cif.got.tgz:286099.got - 2010.06.03 13:09:07.
