data_PCOD9222846
_publ_section_title
;
Structure prediction by ZEFSAII (Michael W. Deem and Ramdas Pophale) SiO2 
 PCOD9222846
Probable space group: C 2/M
;
_chemical_formula_sum "Si O2"
_cell_formula_units_Z 64
_cell_length_a 14.012299
_cell_length_b 7.486298
_cell_length_c 22.747799
_cell_angle_alpha 90.000000
_cell_angle_beta 95.875894
_cell_angle_gamma 90.000000
_cell_volume 2373.712299
_symmetry_space_group_name_H-M "C 2/M"
_symmetry_group_IT_number 12
_symmetry_cell_setting 'monoclinic'
loop_
_space_group_symop_operation_xyz
x,y,z
-x,y,-z
-x,-y,-z
x,-y,z
1/2+x,1/2+y,z
1/2-x,1/2+y,-z
1/2-x,1/2-y,-z
1/2+x,1/2-y,z
loop_
_atom_site_type_symbol
_atom_site_label
_atom_site_fract_x
_atom_site_fract_y
_atom_site_fract_z
Si Si1 0.147792 0.708759 0.541687
Si Si2 0.145827 0.211206 0.921183
Si Si3 0.626893 0.717143 0.046917
Si Si4 0.294657 0.215555 0.328383
Si Si5 0.566143 0.795171 0.422076
Si Si6 0.186474 0.213310 0.798481
Si Si7 0.579974 0.288306 0.291779
Si Si8 0.911074 0.206681 0.830510
O O1 0.174925 0.500000 0.538352
O O2 0.190777 0.786989 0.604494
O O3 0.143113 0.784122 0.474192
O O4 0.036694 0.711652 0.554119
O O5 0.260709 0.236501 0.936977
O O6 0.129572 0.276872 0.853351
O O7 0.125297 0.000000 0.920166
O O8 0.101777 0.281439 0.979677
O O9 0.618785 0.500000 0.046374
O O10 0.575887 0.783291 0.103376
O O11 0.350618 0.255268 0.270827
O O12 0.188363 0.278311 0.306653
O O13 0.299599 0.000000 0.334259
O O14 0.542776 0.729614 0.355359
O O15 0.594605 0.000000 0.416969
O O16 0.294721 0.290882 0.812089
O O17 0.194518 0.000000 0.804564
O O18 0.583435 0.500000 0.282127
O O19 0.546736 0.212986 0.227085
O O20 0.941994 0.000000 0.836417
#
# Coordination Sequence:
#
# PCOD9222846 Si02
#       8
#     8   8   8   8   8   8   8   8
#     4   8  16  32  50  64  79 104 139 171 198 236
#     4   8  13  19  28  45  70  98 128 165 202 230
#     4   8  12  19  31  45  64  98 139 165 187 229
#     4   9  17  30  45  59  81 113 141 164 195 242
#     4   9  17  31  50  66  80 103 135 170 205 240
#     4   9  15  22  33  53  80 104 130 168 208 238
#     4   9  17  27  40  62  89 112 133 162 201 241
#     4   8  14  24  36  50  74 109 141 164 192 237
#
# _framework density 26.961984999999999
#
# number of rings (size 3 to 8) (size 9 to 14) (size 15 to 20)
#    0.000    3.500    0.000    1.875    0.000    3.000 
#    0.000    2.500    0.000    0.000    0.000    0.000 
#    0.000    1.000    0.000   12.500    0.000    7.500 
#
# Total GULP energy -178320.838684 kJ/mol
# GULP energy per Si atom -5572.526209 kJ/mol
# Density = 2.690062 g / cm^3
# Si number density = 26.961985 Si / 1000 Ang^3
#
#
#
# Elastic Constant Matrix: (Units=GPa)
#
#
# Indices 1 2 3 4 5 6 
#
# 1 49.9411 6.1233 74.3486 0.0000 -10.3596 0.0000
# 2 6.1233 79.8730 19.3934 0.0000 2.6596 0.0000
# 3 74.3486 19.3934 344.4226 0.0000 -5.9349 0.0000
# 4 0.0000 0.0000 0.0000 18.7005 0.0000 -14.7760
# 5 -10.3596 2.6596 -5.9349 0.0000 55.7342 0.0000
# 6 0.0000 0.0000 0.0000 -14.7760 0.0000 -21.2756
#
#
#
# Elastic Compliance Matrix: (Units=1/GPa)
#
#
# Indices 1 2 3 4 5 6 
#
# 1 0.030926 -0.000954 -0.006534 0.000000 0.005098 0.000000
# 2 -0.000954 0.012749 -0.000526 0.000000 -0.000842 0.000000
# 3 -0.006534 -0.000526 0.004331 0.000000 -0.000728 0.000000
# 4 0.000000 0.000000 0.000000 0.034528 0.000000 -0.023979
# 5 0.005098 -0.000842 -0.000728 0.000000 0.018853 0.000000
# 6 0.000000 0.000000 0.000000 -0.023979 0.000000 -0.030348
#
#
# Mechanical properties :
#
#
# Convention : Reuss Voigt Hill
#
# Bulk Modulus (GPa) = 31.27329 74.88526 53.07927
# Shear Modulus (GPa) = 51.16386 35.58992 43.37689
#
# Velocity S-wave (km/s) = 4.36090 3.63713 4.01536
# Velocity P-wave (km/s) = 6.08119 6.74336 6.42082
#
# Compressibility (1/GPa) = 0.03197617
#
# Stress axis : x y z
#
# Youngs Moduli (GPa) = 32.33558 78.43843 230.89359
#
# Poissons Ratio (x) = 0.07484 1.50870
# Poissons Ratio (y) = 0.03085 0.12154
# Poissons Ratio (z) = 0.21129 0.04129
#
# Static dielectric constant tensor:
#      x y z
#    x 2.144280 0.000000 -0.105860 
#    y 0.000000 2.146810 0.000000 
#    z -0.105860 0.000000 2.101450 
# 
# From -- ./inp_files/319209.got.cif
#   From: 2010.05.17/outbox.cif.g08.bks.cpg/sg12_160_cif.got.tgz:319209.got - 2010.06.03 13:09:07.
