data_PCOD9222514
_publ_section_title
;
Structure prediction by ZEFSAII (Michael W. Deem and Ramdas Pophale) SiO2 
 PCOD9222514
Probable space group: C 2/M
;
_chemical_formula_sum "Si O2"
_cell_formula_units_Z 48
_cell_length_a 9.296331
_cell_length_b 25.518044
_cell_length_c 12.019057
_cell_angle_alpha 90.000000
_cell_angle_beta 89.959110
_cell_angle_gamma 90.000000
_cell_volume 2851.210257
_symmetry_space_group_name_H-M "C 2/M"
_symmetry_group_IT_number 12
_symmetry_cell_setting 'monoclinic'
loop_
_space_group_symop_operation_xyz
x,y,z
-x,y,-z
-x,-y,-z
x,-y,z
1/2+x,1/2+y,z
1/2-x,1/2+y,-z
1/2-x,1/2-y,-z
1/2+x,1/2-y,z
loop_
_atom_site_type_symbol
_atom_site_label
_atom_site_fract_x
_atom_site_fract_y
_atom_site_fract_z
Si Si1 0.153671 0.886928 0.978926
Si Si2 0.968917 0.235697 0.241052
Si Si3 0.791101 0.291385 0.905962
Si Si4 0.346928 0.204632 0.440862
Si Si5 0.907030 0.858970 0.611827
Si Si6 0.956723 0.938355 0.811523
O O1 0.287344 0.848941 0.960604
O O2 0.107172 0.921502 0.872319
O O3 0.156590 0.921342 0.091173
O O4 0.000000 0.855528 0.000000
O O5 0.844498 0.205391 0.176502
O O6 0.885701 0.276201 0.318400
O O7 0.074177 0.267879 0.160088
O O8 0.048693 0.193997 0.320492
O O9 0.750000 0.250000 0.000000
O O10 0.500000 0.198772 0.500000
O O11 0.250000 0.250000 0.500000
O O12 0.253543 0.152385 0.431064
O O13 0.928644 0.905307 0.700285
O O14 0.000000 0.864704 0.500000
O O15 0.953060 0.000000 0.792631
#
# Coordination Sequence:
#
# PCOD9222514 Si02
#       6
#     8   8   8   8   8   8
#     4   8  17  33  55  77 110 142 175 224 281 324
#     4  12  21  33  53  76 120 155 179 208 269 334
#     4  12  21  32  49  83 120 150 176 219 264 333
#     4  12  21  36  52  77 112 153 185 212 262 330
#     4  12  22  35  56  81 115 147 186 230 275 329
#     4   9  19  36  57  81 105 138 188 243 288 312
#
# _framework density 16.834955999999998
#
# number of rings (size 3 to 8) (size 9 to 14) (size 15 to 20)
#    1.000    0.000    6.667    3.500    0.000    0.333 
#    0.000    0.000    0.000    0.500    0.000    3.500 
#    0.000    0.000    0.000    0.000    0.000    0.000 
#
# Total GULP energy -133608.285252 kJ/mol
# GULP energy per Si atom -5567.011886 kJ/mol
# Density = 1.679664 g / cm^3
# Si number density = 16.834956 Si / 1000 Ang^3
#
#
#
# Elastic Constant Matrix: (Units=GPa)
#
#
# Indices 1 2 3 4 5 6 
#
# 1 60.2063 26.9186 28.9517 0.0000 -12.1700 0.0000
# 2 26.9186 110.3958 48.2476 0.0000 -16.2750 0.0000
# 3 28.9517 48.2476 96.0375 0.0000 -19.5597 0.0000
# 4 0.0000 0.0000 0.0000 16.9373 0.0000 2.7282
# 5 -12.1700 -16.2750 -19.5597 0.0000 33.1432 0.0000
# 6 0.0000 0.0000 0.0000 2.7282 0.0000 14.1603
#
#
#
# Elastic Compliance Matrix: (Units=1/GPa)
#
#
# Indices 1 2 3 4 5 6 
#
# 1 0.020532 -0.002662 -0.004072 0.000000 0.003829 0.000000
# 2 -0.002662 0.012147 -0.004870 0.000000 0.002114 0.000000
# 3 -0.004072 -0.004870 0.015111 0.000000 0.005032 0.000000
# 4 0.000000 0.000000 0.000000 0.060932 0.000000 -0.011739
# 5 0.003829 0.002114 0.005032 0.000000 0.035585 0.000000
# 6 0.000000 0.000000 0.000000 -0.011739 0.000000 0.072882
#
#
# Mechanical properties :
#
#
# Convention : Reuss Voigt Hill
#
# Bulk Modulus (GPa) = 40.67960 52.76395 46.72177
# Shear Modulus (GPa) = 20.11324 23.68293 21.89809
#
# Velocity S-wave (km/s) = 3.46024 3.75476 3.61051
# Velocity P-wave (km/s) = 6.33881 7.08573 6.72265
#
# Compressibility (1/GPa) = 0.02458235
#
# Stress axis : x y z
#
# Youngs Moduli (GPa) = 48.70416 82.32317 66.17509
#
# Poissons Ratio (x) = 0.21916 0.26949
# Poissons Ratio (y) = 0.12966 0.32224
# Poissons Ratio (z) = 0.19834 0.40088
#
# Static dielectric constant tensor:
#      x y z
#    x 1.626760 0.000000 0.051200 
#    y 0.000000 1.639080 0.000000 
#    z 0.051200 0.000000 1.722780 
# 
# From -- ./inp_files/121937.got.cif
#   From: 2010.05.17/outbox.cif.g08.bks.cpg/sg12_61_cif.got.tgz:121937.got - 2010.06.03 13:09:07.
