data_PCOD9222997
_publ_section_title
;
Structure prediction by ZEFSAII (Michael W. Deem and Ramdas Pophale) SiO2 
 PCOD9222997
Probable space group: C 2/M
;
_chemical_formula_sum "Si O2"
_cell_formula_units_Z 48
_cell_length_a 15.673217
_cell_length_b 19.537074
_cell_length_c 12.852424
_cell_angle_alpha 90.000000
_cell_angle_beta 32.222243
_cell_angle_gamma 90.000000
_cell_volume 2098.440761
_symmetry_space_group_name_H-M "C 2/M"
_symmetry_group_IT_number 12
_symmetry_cell_setting 'monoclinic'
loop_
_space_group_symop_operation_xyz
x,y,z
-x,y,-z
-x,-y,-z
x,-y,z
1/2+x,1/2+y,z
1/2-x,1/2+y,-z
1/2-x,1/2-y,-z
1/2+x,1/2-y,z
loop_
_atom_site_type_symbol
_atom_site_label
_atom_site_fract_x
_atom_site_fract_y
_atom_site_fract_z
Si Si1 0.407629 0.793377 0.206908
Si Si2 0.124635 0.923911 0.774812
Si Si3 0.770328 0.075957 0.637307
Si Si4 0.846533 0.922184 0.794099
Si Si5 0.681252 0.187559 0.335731
Si Si6 0.394737 0.317847 0.908735
O O1 0.333588 0.866228 0.310300
O O2 0.260402 0.743410 0.329426
O O3 0.514525 0.754907 0.183265
O O4 0.500000 0.797488 0.000000
O O5 0.283340 0.886429 0.650362
O O6 0.032646 0.873056 0.793733
O O7 0.148769 0.000000 0.709113
O O8 0.000000 0.927751 0.000000
O O9 0.757384 0.083753 0.775885
O O10 0.961641 0.080562 0.423147
O O11 0.716919 0.000000 0.663954
O O12 0.809585 0.855238 0.900760
O O13 0.814255 0.000000 0.869574
O O14 0.500000 0.202733 0.500000
O O15 0.777292 0.187234 0.128042
#
# Coordination Sequence:
#
# PCOD9222997 Si02
#       6
#     8   8   8   8   8   8
#     4   9  19  35  55  80 109 143 180 221 275 339
#     4   8  14  26  45  69  99 139 178 212 262 321
#     4   9  19  35  57  82 106 143 186 228 277 323
#     4   9  18  33  56  84 110 140 185 229 269 324
#     4   9  18  30  49  76 110 147 181 221 270 326
#     4   9  17  32  53  80 109 144 183 225 270 327
#
# _framework density 22.874126
#
# number of rings (size 3 to 8) (size 9 to 14) (size 15 to 20)
#    0.000    3.167    0.000    3.500    2.333    2.000 
#    0.000    3.333    7.333    0.000    0.000    0.000 
#    0.000    1.333    0.000    1.000    0.000    0.000 
#
# Total GULP energy -134025.658865 kJ/mol
# GULP energy per Si atom -5584.402453 kJ/mol
# Density = 2.282206 g / cm^3
# Si number density = 22.874126 Si / 1000 Ang^3
#
#
#
# Elastic Constant Matrix: (Units=GPa)
#
#
# Indices 1 2 3 4 5 6 
#
# 1 55.1396 47.9006 21.4970 -0.0041 6.5152 0.0026
# 2 47.9006 183.1245 34.2421 -0.0044 -12.3496 0.0000
# 3 21.4970 34.2421 40.3221 -0.0096 -9.7817 0.0062
# 4 -0.0041 -0.0044 -0.0096 17.8229 0.0075 -7.9423
# 5 6.5152 -12.3496 -9.7817 0.0075 30.3327 -0.0046
# 6 0.0026 0.0000 0.0062 -7.9423 -0.0046 20.7366
#
#
#
# Elastic Compliance Matrix: (Units=1/GPa)
#
#
# Indices 1 2 3 4 5 6 
#
# 1 0.030905 -0.006312 -0.014483 0.000003 -0.013879 -0.000002
# 2 -0.006312 0.007805 -0.002347 -0.000002 0.003777 0.000002
# 3 -0.014483 -0.002347 0.038012 0.000009 0.014413 -0.000003
# 4 0.000003 -0.000002 0.000009 0.067655 -0.000011 0.025912
# 5 -0.013879 0.003777 0.014413 -0.000011 0.042134 0.000003
# 6 -0.000002 0.000002 -0.000003 0.025912 0.000003 0.058149
#
#
# Mechanical properties :
#
#
# Convention : Reuss Voigt Hill
#
# Bulk Modulus (GPa) = 32.85411 53.98507 43.41959
# Shear Modulus (GPa) = 16.60628 25.44154 21.02391
#
# Velocity S-wave (km/s) = 2.69733 3.33865 3.03498
# Velocity P-wave (km/s) = 4.90867 6.20598 5.59505
#
# Compressibility (1/GPa) = 0.03043759
#
# Stress axis : x y z
#
# Youngs Moduli (GPa) = 32.35678 128.11701 26.30767
#
# Poissons Ratio (x) = 0.80865 0.38103
# Poissons Ratio (y) = 0.20423 0.06175
# Poissons Ratio (z) = 0.46864 0.30072
#
# Static dielectric constant tensor:
#      x y z
#    x 1.871290 0.000000 0.055430 
#    y 0.000000 1.863660 0.000000 
#    z 0.055430 0.000000 1.857050 
# 
# From -- ./inp_files/227231.got.cif
#   From: 2010.05.17/outbox.cif.g08.bks.cpg/sg12_114_cif.got.tgz:227231.got - 2010.06.03 13:09:07.
