data_PCOD9222550
_publ_section_title
;
Structure prediction by ZEFSAII (Michael W. Deem and Ramdas Pophale) SiO2 
 PCOD9222550
Probable space group: C 2/M
;
_chemical_formula_sum "Si O2"
_cell_formula_units_Z 64
_cell_length_a 20.815384
_cell_length_b 23.359940
_cell_length_c 15.221524
_cell_angle_alpha 90.000000
_cell_angle_beta 156.395174
_cell_angle_gamma 90.000000
_cell_volume 2963.717400
_symmetry_space_group_name_H-M "C 2/M"
_symmetry_group_IT_number 12
_symmetry_cell_setting 'monoclinic'
loop_
_space_group_symop_operation_xyz
x,y,z
-x,y,-z
-x,-y,-z
x,-y,z
1/2+x,1/2+y,z
1/2-x,1/2+y,-z
1/2-x,1/2-y,-z
1/2+x,1/2-y,z
loop_
_atom_site_type_symbol
_atom_site_label
_atom_site_fract_x
_atom_site_fract_y
_atom_site_fract_z
Si Si1 0.152244 0.780338 0.233221
Si Si2 0.095765 0.064934 0.987014
Si Si3 0.844855 0.158108 0.247947
Si Si4 0.497527 0.819262 0.151837
Si Si5 0.684754 0.641181 0.437427
Si Si6 0.697743 0.934272 0.933877
Si Si7 0.972219 0.761511 0.640240
Si Si8 0.101145 0.430089 0.541376
O O1 0.206552 0.815417 0.384820
O O2 0.319447 0.765224 0.396475
O O3 0.071620 0.724742 0.175453
O O4 0.000000 0.810418 0.000000
O O5 0.935338 0.094548 0.751563
O O6 0.056550 0.000000 0.962728
O O7 0.211599 0.064359 0.046372
O O8 0.215200 0.089060 0.213172
O O9 0.000000 0.143355 0.500000
O O10 0.891369 0.216135 0.253517
O O11 0.682307 0.165156 0.099207
O O12 0.793799 0.108514 0.115943
O O13 0.627938 0.870838 0.309355
O O14 0.480157 0.782956 0.222527
O O15 0.595149 0.679853 0.398490
O O16 0.513968 0.914204 0.683985
O O17 0.694383 0.000000 0.961908
O O18 0.104514 0.500000 0.546359
O O19 0.000000 0.411173 0.500000
#
# Coordination Sequence:
#
# PCOD9222550 Si02
#       8
#     8   8   8   8   8   8   8   8
#     4   9  17  33  54  75 101 138 173 211 256 324
#     4   9  15  29  56  82 105 136 181 217 248 319
#     4  12  22  33  54  80 105 139 180 226 269 311
#     4   9  20  35  53  74 106 138 171 221 271 310
#     4   9  17  33  54  78 103 139 176 208 263 316
#     4   9  18  33  52  75 108 144 176 218 267 312
#     4   9  18  35  55  71 103 141 177 218 258 316
#     4   7  12  25  47  73 100 132 168 210 254 302
#
# _framework density 21.594501999999999
#
# number of rings (size 3 to 8) (size 9 to 14) (size 15 to 20)
#    0.000    2.875    1.250    4.125    0.000    0.250 
#    4.500    0.625    2.750    0.375    0.000    1.750 
#    0.000    0.000    0.000    0.000    0.000    0.000 
#
# Total GULP energy -178156.017638 kJ/mol
# GULP energy per Si atom -5567.375551 kJ/mol
# Density = 2.154535 g / cm^3
# Si number density = 21.594502 Si / 1000 Ang^3
#
#
#
# Elastic Constant Matrix: (Units=GPa)
#
#
# Indices 1 2 3 4 5 6 
#
# 1 14.4207 0.8854 2.0355 0.0000 5.7626 0.0000
# 2 0.8854 42.9423 38.4975 0.0000 5.6799 0.0000
# 3 2.0355 38.4975 170.5749 0.0000 16.2014 0.0000
# 4 0.0000 0.0000 0.0000 25.3942 0.0000 26.5892
# 5 5.7626 5.6799 16.2014 0.0000 36.4909 0.0000
# 6 0.0000 0.0000 0.0000 26.5892 0.0000 -52.3724
#
#
#
# Elastic Compliance Matrix: (Units=1/GPa)
#
#
# Indices 1 2 3 4 5 6 
#
# 1 0.074026 -0.000225 0.000286 0.000000 -0.011782 0.000000
# 2 -0.000225 0.029295 -0.006451 0.000000 -0.001660 0.000000
# 3 0.000286 -0.006451 0.007542 0.000000 -0.002390 0.000000
# 4 0.000000 0.000000 0.000000 0.025711 0.000000 0.013053
# 5 -0.011782 -0.001660 -0.002390 0.000000 0.030584 0.000000
# 6 0.000000 0.000000 0.000000 0.013053 0.000000 -0.012467
#
#
# Mechanical properties :
#
#
# Convention : Reuss Voigt Hill
#
# Bulk Modulus (GPa) = 10.19531 34.53052 22.36292
# Shear Modulus (GPa) = 24.97929 14.33715 19.65822
#
# Velocity S-wave (km/s) = 3.40478 2.57947 3.02045
# Velocity P-wave (km/s) = 4.49313 4.98966 4.74789
#
# Compressibility (1/GPa) = 0.09808434
#
# Stress axis : x y z
#
# Youngs Moduli (GPa) = 13.50868 34.13574 132.58931
#
# Poissons Ratio (x) = 0.00767 -0.03798
# Poissons Ratio (y) = 0.00304 0.85537
# Poissons Ratio (z) = -0.00387 0.22022
#
# Static dielectric constant tensor:
#      x y z
#    x 1.827370 0.000000 -0.025210 
#    y 0.000000 1.799120 0.000000 
#    z -0.025210 0.000000 1.974230 
# 
# From -- ./inp_files/291108.got.cif
#   From: 2010.05.17/outbox.cif.g08.bks.cpg/sg12_146_cif.got.tgz:291108.got - 2010.06.03 13:09:07.
