data_PCOD9222136
_publ_section_title
;
Structure prediction by ZEFSAII (Michael W. Deem and Ramdas Pophale) SiO2 
 PCOD9222136
Probable space group: C 2/M
;
_chemical_formula_sum "Si O2"
_cell_formula_units_Z 48
_cell_length_a 10.104347
_cell_length_b 22.108645
_cell_length_c 12.249185
_cell_angle_alpha 90.000000
_cell_angle_beta 114.358907
_cell_angle_gamma 90.000000
_cell_volume 2492.793340
_symmetry_space_group_name_H-M "C 2/M"
_symmetry_group_IT_number 12
_symmetry_cell_setting 'monoclinic'
loop_
_space_group_symop_operation_xyz
x,y,z
-x,y,-z
-x,-y,-z
x,-y,z
1/2+x,1/2+y,z
1/2-x,1/2+y,-z
1/2-x,1/2-y,-z
1/2+x,1/2-y,z
loop_
_atom_site_type_symbol
_atom_site_label
_atom_site_fract_x
_atom_site_fract_y
_atom_site_fract_z
Si Si1 0.622594 0.872479 0.764294
Si Si2 0.769674 0.000000 0.857821
Si Si3 0.588146 0.500000 0.857821
Si Si4 0.834412 0.193467 0.668827
Si Si5 0.858303 0.127521 0.235706
Si Si6 0.194040 0.665365 0.388076
Si Si7 0.648953 0.195171 0.000000
O O1 0.734451 0.832644 0.731055
O O2 0.461587 0.867116 0.660144
O O3 0.615973 0.844745 0.882918
O O4 0.682704 0.940129 0.794800
O O5 0.924742 0.000000 0.849483
O O6 0.806914 0.000000 1.000000
O O7 0.612095 0.559871 0.794800
O O8 0.832646 0.266230 0.665294
O O9 0.765420 0.171693 0.530837
O O10 0.996602 0.167356 0.731058
O O11 0.801449 0.132885 0.339857
O O12 0.733056 0.155255 0.117082
O O13 0.500000 0.218826 0.000000
O O14 0.750000 0.250000 0.000000
#
# Coordination Sequence:
#
# PCOD9222136 Si02
#       7
#     8   4   4   8   8   8   8
#     4  12  24  43  68  99 134 178 231 276 334 408
#     4  11  24  45  66  94 137 190 229 276 343 410
#     4  11  24  45  66  94 137 190 229 276 343 410
#     4  11  24  44  71  96 140 180 220 273 346 413
#     4  12  24  43  68  99 134 178 231 276 334 408
#     4  11  24  44  67 104 136 176 220 283 346 399
#     4  12  26  41  66 105 141 172 218 286 351 407
#
# _framework density 19.255507000000001
#
# number of rings (size 3 to 8) (size 9 to 14) (size 15 to 20)
#    0.000    0.500    5.000    4.000    2.333    3.333 
#    0.000    6.667    0.000    0.000    0.000    0.000 
#    0.000    0.000    0.000    0.000    0.000    0.000 
#
# Total GULP energy -134345.367474 kJ/mol
# GULP energy per Si atom -5597.723645 kJ/mol
# Density = 1.921168 g / cm^3
# Si number density = 19.255507 Si / 1000 Ang^3
#
#
#
# Elastic Constant Matrix: (Units=GPa)
#
#
# Indices 1 2 3 4 5 6 
#
# 1 149.3605 42.6564 35.6484 0.0000 -1.1387 0.0000
# 2 42.6564 115.2969 30.3548 0.0000 -0.2296 0.0000
# 3 35.6484 30.3548 85.0401 0.0000 -0.0653 0.0000
# 4 0.0000 0.0000 0.0000 13.6007 0.0000 -0.4147
# 5 -1.1387 -0.2296 -0.0653 0.0000 26.4269 0.0000
# 6 0.0000 0.0000 0.0000 -0.4147 0.0000 35.8130
#
#
#
# Elastic Compliance Matrix: (Units=1/GPa)
#
#
# Indices 1 2 3 4 5 6 
#
# 1 0.007949 -0.002277 -0.002519 0.000000 0.000317 0.000000
# 2 -0.002277 0.010225 -0.002695 0.000000 -0.000016 0.000000
# 3 -0.002519 -0.002695 0.013777 0.000000 -0.000098 0.000000
# 4 0.000000 0.000000 0.000000 0.073552 0.000000 0.000852
# 5 0.000317 -0.000016 -0.000098 0.000000 0.037853 0.000000
# 6 0.000000 0.000000 0.000000 0.000852 0.000000 0.027933
#
#
# Mechanical properties :
#
#
# Convention : Reuss Voigt Hill
#
# Bulk Modulus (GPa) = 58.93309 63.00184 60.96747
# Shear Modulus (GPa) = 26.05131 31.23732 28.64432
#
# Velocity S-wave (km/s) = 3.68221 4.03209 3.86111
# Velocity P-wave (km/s) = 6.98215 7.38017 7.18392
#
# Compressibility (1/GPa) = 0.01696840
#
# Stress axis : x y z
#
# Youngs Moduli (GPa) = 125.79848 97.79659 72.58355
#
# Poissons Ratio (x) = 0.22269 0.18285
# Poissons Ratio (y) = 0.28645 0.19564
# Poissons Ratio (z) = 0.31692 0.26360
#
# Static dielectric constant tensor:
#      x y z
#    x 1.644610 0.000000 0.000390 
#    y 0.000000 1.627980 0.000000 
#    z 0.000390 0.000000 1.665630 
# 
# From -- ./inp_files/122596.got.cif
#   From: 2010.05.17/outbox.cif.g08.bks.cpg/sg12_62_cif.got.tgz:122596.got - 2010.06.03 13:09:07.
