data_PCOD9222678
_publ_section_title
;
Structure prediction by ZEFSAII (Michael W. Deem and Ramdas Pophale) SiO2 
 PCOD9222678
Probable space group: C 2/M
;
_chemical_formula_sum "Si O2"
_cell_formula_units_Z 52
_cell_length_a 10.344766
_cell_length_b 22.494000
_cell_length_c 11.436711
_cell_angle_alpha 90.000000
_cell_angle_beta 116.451702
_cell_angle_gamma 90.000000
_cell_volume 2382.659741
_symmetry_space_group_name_H-M "C 2/M"
_symmetry_group_IT_number 12
_symmetry_cell_setting 'monoclinic'
loop_
_space_group_symop_operation_xyz
x,y,z
-x,y,-z
-x,-y,-z
x,-y,z
1/2+x,1/2+y,z
1/2-x,1/2+y,-z
1/2-x,1/2-y,-z
1/2+x,1/2-y,z
loop_
_atom_site_type_symbol
_atom_site_label
_atom_site_fract_x
_atom_site_fract_y
_atom_site_fract_z
Si Si1 0.371746 0.500000 0.847880
Si Si2 0.348110 0.866547 0.487788
Si Si3 0.683971 0.383628 0.816055
Si Si4 0.065053 0.666925 0.224898
Si Si5 0.737947 0.620119 0.105867
Si Si6 0.759411 0.500000 0.439718
Si Si7 0.410125 0.692068 0.754315
Si Si8 0.859643 0.000000 0.359709
O O1 0.279085 0.558262 0.835013
O O2 0.380929 0.500000 0.707402
O O3 0.500000 0.500000 0.000000
O O4 0.500000 0.844338 0.500000
O O5 0.352944 0.857501 0.627793
O O6 0.330468 0.935779 0.446914
O O7 0.221538 0.828091 0.380608
O O8 0.838129 0.356299 0.842811
O O9 0.551988 0.337498 0.754418
O O10 0.656174 0.441671 0.726590
O O11 0.686402 0.394992 0.955033
O O12 0.067686 0.738009 0.227520
O O13 0.901014 0.643917 0.164715
O O14 0.637050 0.665484 0.138068
O O15 0.752850 0.500000 0.578656
O O16 0.000000 0.000000 0.500000
#
# Coordination Sequence:
#
# PCOD9222678 Si02
#       8
#     4   8   8   8   8   4   8   4
#     4  12  25  46  82 114 150 189 253 315 374 458
#     4  12  24  46  75 112 150 195 256 312 381 453
#     4  12  28  46  76 109 149 191 250 313 376 449
#     4  12  27  49  72 108 154 200 247 309 374 451
#     4  12  27  48  75 111 149 198 249 309 382 448
#     4  12  23  46  77 108 148 194 242 315 384 444
#     4  12  26  47  76 108 149 202 254 307 368 455
#     4  12  27  46  70 108 150 184 241 314 388 438
#
# _framework density 21.824348000000001
#
# number of rings (size 3 to 8) (size 9 to 14) (size 15 to 20)
#    0.000    0.000    4.615    4.846    2.154    4.923 
#    0.000    1.538    0.000    0.000    0.000    0.000 
#    0.000    0.000    0.000    0.000    0.000    0.000 
#
# Total GULP energy -145303.860535 kJ/mol
# GULP energy per Si atom -5588.610021 kJ/mol
# Density = 2.177468 g / cm^3
# Si number density = 21.824348 Si / 1000 Ang^3
#
#
#
# Elastic Constant Matrix: (Units=GPa)
#
#
# Indices 1 2 3 4 5 6 
#
# 1 112.5757 55.1404 11.0618 0.0000 14.7911 0.0000
# 2 55.1404 182.3899 39.1818 0.0000 15.7113 0.0000
# 3 11.0618 39.1818 130.5236 0.0000 -9.7008 0.0000
# 4 0.0000 0.0000 0.0000 22.2643 0.0000 7.5262
# 5 14.7911 15.7113 -9.7008 0.0000 33.5902 0.0000
# 6 0.0000 0.0000 0.0000 7.5262 0.0000 11.2953
#
#
#
# Elastic Compliance Matrix: (Units=1/GPa)
#
#
# Indices 1 2 3 4 5 6 
#
# 1 0.010789 -0.002896 -0.000304 0.000000 -0.003484 0.000000
# 2 -0.002896 0.007025 -0.002057 0.000000 -0.002604 0.000000
# 3 -0.000304 -0.002057 0.008570 0.000000 0.003571 0.000000
# 4 0.000000 0.000000 0.000000 0.057972 0.000000 -0.038627
# 5 -0.003484 -0.002604 0.003571 0.000000 0.033554 0.000000
# 6 0.000000 0.000000 0.000000 -0.038627 0.000000 0.114270
#
#
# Mechanical properties :
#
#
# Convention : Reuss Voigt Hill
#
# Bulk Modulus (GPa) = 63.01313 70.69526 66.85419
# Shear Modulus (GPa) = 20.16255 34.77031 27.46643
#
# Velocity S-wave (km/s) = 3.04280 3.99581 3.55141
# Velocity P-wave (km/s) = 6.42498 7.33156 6.89319
#
# Compressibility (1/GPa) = 0.01586971
#
# Stress axis : x y z
#
# Youngs Moduli (GPa) = 92.68522 142.35699 116.68592
#
# Poissons Ratio (x) = 0.41233 0.03545
# Poissons Ratio (y) = 0.26846 0.24000
# Poissons Ratio (z) = 0.02816 0.29280
#
# Static dielectric constant tensor:
#      x y z
#    x 2.062120 0.000000 -0.116860 
#    y 0.000000 1.754600 0.000000 
#    z -0.116860 0.000000 1.890100 
# 
# From -- ./inp_files/134067.got.cif
#   From: 2010.05.17/outbox.cif.g08.bks.cpg/sg12_68_cif.got.tgz:134067.got - 2010.06.03 13:09:07.
