data_PCOD9222018
_publ_section_title
;
Structure prediction by ZEFSAII (Michael W. Deem and Ramdas Pophale) SiO2 
 PCOD9222018
Probable space group: C 2/M
;
_chemical_formula_sum "Si O2"
_cell_formula_units_Z 58
_cell_length_a 13.692153
_cell_length_b 12.014540
_cell_length_c 15.716999
_cell_angle_alpha 90.000000
_cell_angle_beta 87.410880
_cell_angle_gamma 90.000000
_cell_volume 2582.884271
_symmetry_space_group_name_H-M "C 2/M"
_symmetry_group_IT_number 12
_symmetry_cell_setting 'monoclinic'
loop_
_space_group_symop_operation_xyz
x,y,z
-x,y,-z
-x,-y,-z
x,-y,z
1/2+x,1/2+y,z
1/2-x,1/2+y,-z
1/2-x,1/2-y,-z
1/2+x,1/2-y,z
loop_
_atom_site_type_symbol
_atom_site_label
_atom_site_fract_x
_atom_site_fract_y
_atom_site_fract_z
Si Si1 0.136696 0.828091 0.575630
Si Si2 0.220957 0.874290 0.253171
Si Si3 0.500000 0.500000 0.500000
Si Si4 0.650799 0.375015 0.060746
Si Si5 0.458994 0.247904 0.678093
Si Si6 0.372280 0.871517 0.995285
Si Si7 0.852537 0.376738 0.543333
Si Si8 0.929379 0.369729 0.190412
O O1 0.149832 0.706931 0.535175
O O2 0.245070 0.870059 0.592127
O O3 0.085288 0.904277 0.507011
O O4 0.051734 0.823968 0.649941
O O5 0.178234 0.876916 0.159116
O O6 0.141691 0.813841 0.312180
O O7 0.329208 0.826033 0.238159
O O8 0.231035 0.000000 0.283622
O O9 0.605502 0.500000 0.045005
O O10 0.754294 0.374784 0.006637
O O11 0.605135 0.251960 0.044709
O O12 0.436822 0.158700 0.605731
O O13 0.482751 0.192400 0.767521
O O14 0.414651 0.863467 0.089696
O O15 0.397997 0.000000 0.962216
O O16 0.868365 0.500000 0.511881
O O17 0.937106 0.500000 0.209900
#
# Coordination Sequence:
#
# PCOD9222018 Si02
#       8
#     8   8   2   8   8   8   8   8
#     4  11  25  41  65  89 114 155 191 236 289 345
#     4   9  20  36  57  82 114 154 197 237 284 352
#     4  12  20  48  62  88 118 152 190 242 278 358
#     4   8  14  29  53  81 110 145 193 247 291 334
#     4  12  22  37  58  87 115 153 189 235 294 338
#     4   8  14  28  54  80 108 148 195 241 287 345
#     4  11  24  42  62  89 119 146 192 243 288 339
#     4   9  19  37  56  81 115 153 193 236 288 349
#
# _framework density 22.455515999999999
#
# number of rings (size 3 to 8) (size 9 to 14) (size 15 to 20)
#    0.000    2.207    2.069    2.897    0.966    1.655 
#    0.000    4.138    0.000    7.448    0.000    0.000 
#    0.000    0.000    0.000    0.000    0.000    1.103 
#
# Total GULP energy -161440.380439 kJ/mol
# GULP energy per Si atom -5566.909670 kJ/mol
# Density = 2.240441 g / cm^3
# Si number density = 22.455516 Si / 1000 Ang^3
#
#
#
# Elastic Constant Matrix: (Units=GPa)
#
#
# Indices 1 2 3 4 5 6 
#
# 1 93.9402 18.1877 -3.0420 0.0000 -2.9087 0.0000
# 2 18.1877 144.9711 14.5678 0.0000 -7.8035 0.0000
# 3 -3.0420 14.5678 26.2912 0.0000 1.8345 0.0000
# 4 0.0000 0.0000 0.0000 29.7715 0.0000 24.8348
# 5 -2.9087 -7.8035 1.8345 0.0000 27.6820 0.0000
# 6 0.0000 0.0000 0.0000 24.8348 0.0000 54.3209
#
#
#
# Elastic Compliance Matrix: (Units=1/GPa)
#
#
# Indices 1 2 3 4 5 6 
#
# 1 0.011034 -0.001564 0.002103 0.000000 0.000579 0.000000
# 2 -0.001564 0.007680 -0.004597 0.000000 0.002305 0.000000
# 3 0.002103 -0.004597 0.041091 0.000000 -0.003798 0.000000
# 4 0.000000 0.000000 0.000000 0.054297 0.000000 -0.024824
# 5 0.000579 0.002305 -0.003798 0.000000 0.037087 0.000000
# 6 0.000000 0.000000 0.000000 -0.024824 0.000000 0.029758
#
#
# Mechanical properties :
#
#
# Convention : Reuss Voigt Hill
#
# Bulk Modulus (GPa) = 19.34683 36.06994 27.70838
# Shear Modulus (GPa) = 24.23721 38.05415 31.14568
#
# Velocity S-wave (km/s) = 3.28890 4.12107 3.72828
# Velocity P-wave (km/s) = 4.80175 6.22431 5.55873
#
# Compressibility (1/GPa) = 0.05168806
#
# Stress axis : x y z
#
# Youngs Moduli (GPa) = 90.62894 130.20353 24.33600
#
# Poissons Ratio (x) = 0.20370 -0.05118
# Poissons Ratio (y) = 0.14179 0.11188
# Poissons Ratio (z) = -0.19061 0.59861
#
# Static dielectric constant tensor:
#      x y z
#    x 1.850790 0.000000 -0.047070 
#    y 0.000000 1.854490 0.000000 
#    z -0.047070 0.000000 1.846100 
# 
# From -- ./inp_files/268762.got.cif
#   From: 2010.05.17/outbox.cif.g08.bks.cpg/sg12_135_cif.got.tgz:268762.got - 2010.06.03 13:09:07.
