data_PCOD9222681
_publ_section_title
;
Structure prediction by ZEFSAII (Michael W. Deem and Ramdas Pophale) SiO2 
 PCOD9222681
Probable space group: C 2/M
;
_chemical_formula_sum "Si O2"
_cell_formula_units_Z 28
_cell_length_a 15.779382
_cell_length_b 13.725055
_cell_length_c 4.988540
_cell_angle_alpha 90.000000
_cell_angle_beta 82.727303
_cell_angle_gamma 90.000000
_cell_volume 1071.690697
_symmetry_space_group_name_H-M "C 2/M"
_symmetry_group_IT_number 12
_symmetry_cell_setting 'monoclinic'
loop_
_space_group_symop_operation_xyz
x,y,z
-x,y,-z
-x,-y,-z
x,-y,z
1/2+x,1/2+y,z
1/2-x,1/2+y,-z
1/2-x,1/2-y,-z
1/2+x,1/2-y,z
loop_
_atom_site_type_symbol
_atom_site_label
_atom_site_fract_x
_atom_site_fract_y
_atom_site_fract_z
Si Si1 0.750091 0.000000 0.994564
Si Si2 0.868609 0.172001 0.069890
Si Si3 0.657146 0.786605 0.443071
Si Si4 0.601561 0.000000 0.411889
Si Si5 0.920709 0.000000 0.723391
O O1 0.785708 0.099158 0.120319
O O2 0.648818 0.000000 0.096280
O O3 0.815268 0.000000 0.705514
O O4 0.645357 0.242122 0.138939
O O5 0.897825 0.216463 0.337664
O O6 0.072827 0.096036 0.104697
O O7 0.750000 0.750000 0.500000
O O8 0.635056 0.897804 0.516798
O O9 0.500000 0.000000 0.500000
O O10 0.000000 0.000000 0.500000
#
# Coordination Sequence:
#
# PCOD9222681 Si02
#       5
#     4   8   8   4   4
#     4   8  20  43  76 111 151 192 261 322 391 457
#     4   9  23  41  77 106 145 195 260 319 394 453
#     4  12  23  47  75 104 143 214 258 313 386 476
#     4  12  28  46  75 119 167 203 263 327 397 471
#     4   8  18  41  75 111 141 183 261 333 373 445
#
# _framework density 26.126939
#
# number of rings (size 3 to 8) (size 9 to 14) (size 15 to 20)
#    1.714    0.000    2.857    0.857    0.000    9.143 
#    0.000    8.571    0.000    0.000    0.000    0.000 
#    0.000    0.000    0.000    0.000    0.000    0.000 
#
# Total GULP energy -77966.880810 kJ/mol
# GULP energy per Si atom -5569.062915 kJ/mol
# Density = 2.606747 g / cm^3
# Si number density = 26.126939 Si / 1000 Ang^3
#
#
#
# Elastic Constant Matrix: (Units=GPa)
#
#
# Indices 1 2 3 4 5 6 
#
# 1 99.0419 38.6022 62.9688 0.0000 -39.6128 0.0000
# 2 38.6022 224.6515 44.7996 0.0000 -13.1094 0.0000
# 3 62.9688 44.7996 153.6742 0.0000 -42.5314 0.0000
# 4 0.0000 0.0000 0.0000 50.5244 0.0000 14.9846
# 5 -39.6128 -13.1094 -42.5314 0.0000 65.7672 0.0000
# 6 0.0000 0.0000 0.0000 14.9846 0.0000 285.3424
#
#
#
# Elastic Compliance Matrix: (Units=1/GPa)
#
#
# Indices 1 2 3 4 5 6 
#
# 1 0.016066 -0.001515 -0.004320 0.000000 0.006581 0.000000
# 2 -0.001515 0.004869 -0.000953 0.000000 -0.000558 0.000000
# 3 -0.004320 -0.000953 0.009479 0.000000 0.003338 0.000000
# 4 0.000000 0.000000 0.000000 0.020106 0.000000 -0.001056
# 5 0.006581 -0.000558 0.003338 0.000000 0.021217 0.000000
# 6 0.000000 0.000000 0.000000 -0.001056 0.000000 0.003560
#
#
# Mechanical properties :
#
#
# Convention : Reuss Voigt Hill
#
# Bulk Modulus (GPa) = 59.39065 85.56765 72.47915
# Shear Modulus (GPa) = 52.91803 102.39327 77.65565
#
# Velocity S-wave (km/s) = 4.50535 6.26704 5.45774
# Velocity P-wave (km/s) = 7.06011 9.22982 8.21689
#
# Compressibility (1/GPa) = 0.01683767
#
# Stress axis : x y z
#
# Youngs Moduli (GPa) = 62.24310 205.37323 105.49441
#
# Poissons Ratio (x) = 0.31116 0.45574
# Poissons Ratio (y) = 0.09431 0.10056
# Poissons Ratio (z) = 0.26889 0.19576
#
# Static dielectric constant tensor:
#      x y z
#    x 2.254190 0.000000 -0.049180 
#    y 0.000000 2.707830 0.000000 
#    z -0.049180 0.000000 2.267640 
# 
# From -- ./inp_files/57653.got.cif
#   From: 2010.05.17/outbox.cif.g08.bks.cpg/sg12_29_cif.got.tgz:57653.got - 2010.06.03 13:09:07.
