data_PCOD9222423
_publ_section_title
;
Structure prediction by ZEFSAII (Michael W. Deem and Ramdas Pophale) SiO2 
 PCOD9222423
Probable space group: C 2/M
;
_chemical_formula_sum "Si O2"
_cell_formula_units_Z 42
_cell_length_a 14.770039
_cell_length_b 16.900886
_cell_length_c 10.115427
_cell_angle_alpha 90.000000
_cell_angle_beta 127.466098
_cell_angle_gamma 90.000000
_cell_volume 2004.190737
_symmetry_space_group_name_H-M "C 2/M"
_symmetry_group_IT_number 12
_symmetry_cell_setting 'monoclinic'
loop_
_space_group_symop_operation_xyz
x,y,z
-x,y,-z
-x,-y,-z
x,-y,z
1/2+x,1/2+y,z
1/2-x,1/2+y,-z
1/2-x,1/2-y,-z
1/2+x,1/2-y,z
loop_
_atom_site_type_symbol
_atom_site_label
_atom_site_fract_x
_atom_site_fract_y
_atom_site_fract_z
Si Si1 0.079505 0.186640 0.441970
Si Si2 0.500000 0.000000 0.500000
Si Si3 0.050661 0.908097 0.899936
Si Si4 0.543782 0.137425 0.341370
Si Si5 0.213806 0.658680 0.968788
Si Si6 0.705843 0.093703 0.259323
O O1 0.193014 0.138029 0.573359
O O2 0.000000 0.180400 0.500000
O O3 0.012388 0.148038 0.260208
O O4 0.098686 0.279141 0.430915
O O5 0.561184 0.069235 0.463326
O O6 0.031811 0.000000 0.848019
O O7 0.185105 0.889548 0.012047
O O8 0.000000 0.894129 0.000000
O O9 0.407793 0.149093 0.208020
O O10 0.592783 0.110879 0.243372
O O11 0.250000 0.750000 0.000000
O O12 0.202792 0.628094 0.109025
O O13 0.726616 0.000000 0.271223
#
# Coordination Sequence:
#
# PCOD9222423 Si02
#       6
#     8   2   8   8   8   8
#     4  12  24  48  75 103 145 191 244 297 361 430
#     4  12  28  48  70 104 154 186 242 298 358 432
#     4  11  26  46  72 108 143 191 239 301 361 422
#     4  12  27  48  72 106 146 194 239 297 363 431
#     4  12  26  46  74 105 145 187 240 296 358 435
#     4  12  27  46  76 109 141 191 241 303 362 430
#
# _framework density 20.956088999999999
#
# number of rings (size 3 to 8) (size 9 to 14) (size 15 to 20)
#    0.000    0.190    5.714    2.286    5.333    3.048 
#    3.429    0.000    0.000    0.000    0.000    0.000 
#    0.000    0.000    0.000    0.000    0.000    0.000 
#
# Total GULP energy -117346.870143 kJ/mol
# GULP energy per Si atom -5587.946197 kJ/mol
# Density = 2.090839 g / cm^3
# Si number density = 20.956089 Si / 1000 Ang^3
#
#
#
# Elastic Constant Matrix: (Units=GPa)
#
#
# Indices 1 2 3 4 5 6 
#
# 1 108.5108 41.8813 17.5818 0.0000 -28.8472 0.0000
# 2 41.8813 200.8579 57.8681 0.0000 -20.9074 0.0000
# 3 17.5818 57.8681 47.3512 0.0000 -2.8960 0.0000
# 4 0.0000 0.0000 0.0000 18.5993 0.0000 -9.3982
# 5 -28.8472 -20.9074 -2.8960 0.0000 40.7994 0.0000
# 6 0.0000 0.0000 0.0000 -9.3982 0.0000 31.6081
#
#
#
# Elastic Compliance Matrix: (Units=1/GPa)
#
#
# Indices 1 2 3 4 5 6 
#
# 1 0.012135 -0.000843 -0.002991 0.000000 0.007936 0.000000
# 2 -0.000843 0.008208 -0.009538 0.000000 0.002933 0.000000
# 3 -0.002991 -0.009538 0.033604 0.000000 -0.004617 0.000000
# 4 0.000000 0.000000 0.000000 0.063271 0.000000 0.018813
# 5 0.007936 0.002933 -0.004617 0.000000 0.031297 0.000000
# 6 0.000000 0.000000 0.000000 0.018813 0.000000 0.037231
#
#
# Mechanical properties :
#
#
# Convention : Reuss Voigt Hill
#
# Bulk Modulus (GPa) = 36.76031 65.70914 51.23472
# Shear Modulus (GPa) = 22.56749 34.16060 28.36404
#
# Velocity S-wave (km/s) = 3.28517 4.04183 3.68298
# Velocity P-wave (km/s) = 5.65415 7.29422 6.52591
#
# Compressibility (1/GPa) = 0.02720325
#
# Stress axis : x y z
#
# Youngs Moduli (GPa) = 82.40433 121.83641 29.75848
#
# Poissons Ratio (x) = 0.10266 0.08900
# Poissons Ratio (y) = 0.06944 0.28385
# Poissons Ratio (z) = 0.24645 1.16213
#
# Static dielectric constant tensor:
#      x y z
#    x 1.491560 0.000000 -0.012710 
#    y 0.000000 1.724790 0.000000 
#    z -0.012710 0.000000 1.736000 
# 
# From -- ./inp_files/61860.got.cif
#   From: 2010.05.17/outbox.cif.g08.bks.cpg/sg12_31_cif.got.tgz:61860.got - 2010.06.03 13:09:07.
