data_PCOD9222251
_publ_section_title
;
Structure prediction by ZEFSAII (Michael W. Deem and Ramdas Pophale) SiO2 
 PCOD9222251
Probable space group: C 2/M
;
_chemical_formula_sum "Si O2"
_cell_formula_units_Z 48
_cell_length_a 16.899308
_cell_length_b 15.709335
_cell_length_c 20.512570
_cell_angle_alpha 90.000000
_cell_angle_beta 152.378394
_cell_angle_gamma 90.000000
_cell_volume 2524.750708
_symmetry_space_group_name_H-M "C 2/M"
_symmetry_group_IT_number 12
_symmetry_cell_setting 'monoclinic'
loop_
_space_group_symop_operation_xyz
x,y,z
-x,y,-z
-x,-y,-z
x,-y,z
1/2+x,1/2+y,z
1/2-x,1/2+y,-z
1/2-x,1/2-y,-z
1/2+x,1/2-y,z
loop_
_atom_site_type_symbol
_atom_site_label
_atom_site_fract_x
_atom_site_fract_y
_atom_site_fract_z
Si Si1 0.046344 0.853986 0.217710
Si Si2 0.016362 0.653442 0.159097
Si Si3 0.639525 0.599227 0.653881
Si Si4 0.298615 0.000000 0.368237
Si Si5 0.297964 0.500000 0.849194
Si Si6 0.812882 0.170631 0.166863
Si Si7 0.213929 0.632486 0.889488
O O1 0.061352 0.753629 0.207823
O O2 0.963655 0.860773 0.229223
O O3 0.212453 0.914258 0.335626
O O4 0.894132 0.883988 0.057841
O O5 0.182230 0.608351 0.253495
O O6 0.933133 0.617392 0.164630
O O7 0.868793 0.642303 0.996480
O O8 0.500000 0.632283 0.500000
O O9 0.601294 0.500000 0.639510
O O10 0.655833 0.646294 0.735503
O O11 0.500000 0.000000 0.500000
O O12 0.231483 0.000000 0.246978
O O13 0.214584 0.578306 0.825471
O O14 0.500000 0.500000 0.000000
O O15 0.802547 0.270905 0.145367
#
# Coordination Sequence:
#
# PCOD9222251 Si02
#       7
#     8   8   8   4   4   8   8
#     4   9  19  40  62  88 123 152 201 252 303 354
#     4   9  20  39  65  89 116 153 204 259 294 355
#     4  11  25  41  56  86 125 161 201 245 302 361
#     4  12  26  40  56  93 128 165 203 242 299 374
#     4  12  22  36  62  89 124 161 195 254 315 350
#     4   9  20  39  66  89 113 157 204 255 300 354
#     4   9  19  38  63  93 116 152 200 252 310 353
#
# _framework density 19.011778
#
# number of rings (size 3 to 8) (size 9 to 14) (size 15 to 20)
#    0.000    2.167    1.667    2.500    4.667    2.000 
#    3.000    1.667    0.000    0.000    0.000    0.000 
#    0.000    0.000    0.000    0.000    0.000    0.000 
#
# Total GULP energy -133711.130722 kJ/mol
# GULP energy per Si atom -5571.297113 kJ/mol
# Density = 1.896851 g / cm^3
# Si number density = 19.011778 Si / 1000 Ang^3
#
#
#
# Elastic Constant Matrix: (Units=GPa)
#
#
# Indices 1 2 3 4 5 6 
#
# 1 110.3328 29.5450 59.5465 -0.0053 3.9398 -0.0025
# 2 29.5450 32.9114 21.7480 -0.0216 11.2051 -0.0103
# 3 59.5465 21.7480 95.6432 -0.0152 8.7962 -0.0085
# 4 -0.0053 -0.0216 -0.0152 14.3226 -0.0043 5.5026
# 5 3.9398 11.2051 8.7962 -0.0043 31.5386 -0.0012
# 6 -0.0025 -0.0103 -0.0085 5.5026 -0.0012 32.8848
#
#
#
# Elastic Compliance Matrix: (Units=1/GPa)
#
#
# Indices 1 2 3 4 5 6 
#
# 1 0.016018 -0.010462 -0.007956 -0.000017 0.003935 -0.000001
# 2 -0.010462 0.046502 -0.002731 0.000058 -0.014453 0.000003
# 3 -0.007956 -0.002731 0.016266 0.000009 -0.002573 0.000001
# 4 -0.000017 0.000058 0.000009 0.074617 -0.000011 -0.012486
# 5 0.003935 -0.014453 -0.002573 -0.000011 0.037068 -0.000002
# 6 -0.000001 0.000003 0.000001 -0.012486 -0.000002 0.032498
#
#
# Mechanical properties :
#
#
# Convention : Reuss Voigt Hill
#
# Bulk Modulus (GPa) = 27.40588 51.17404 39.28996
# Shear Modulus (GPa) = 18.02253 24.28572 21.15412
#
# Velocity S-wave (km/s) = 3.08225 3.57796 3.33931
# Velocity P-wave (km/s) = 5.20706 6.63660 5.96481
#
# Compressibility (1/GPa) = 0.03648852
#
# Stress axis : x y z
#
# Youngs Moduli (GPa) = 62.42861 21.50441 61.47686
#
# Poissons Ratio (x) = 0.22499 0.48909
# Poissons Ratio (y) = 0.65315 0.16789
# Poissons Ratio (z) = 0.49667 0.05873
#
# Static dielectric constant tensor:
#      x y z
#    x 1.625120 -0.000030 0.000870 
#    y -0.000030 -0.133190 -0.000040 
#    z 0.000870 -0.000040 1.649880 
# 
# From -- ./inp_files/271824.got.cif
#   From: 2010.05.17/outbox.cif.g08.bks.cpg/sg12_136_cif.got.tgz:271824.got - 2010.06.03 13:09:07.
