data_PCOD9222105
_publ_section_title
;
Structure prediction by ZEFSAII (Michael W. Deem and Ramdas Pophale) SiO2 
 PCOD9222105
Probable space group: C 2/M
;
_chemical_formula_sum "Si O2"
_cell_formula_units_Z 40
_cell_length_a 24.646992
_cell_length_b 17.780109
_cell_length_c 8.597979
_cell_angle_alpha 90.000000
_cell_angle_beta 29.706848
_cell_angle_gamma 90.000000
_cell_volume 1867.209913
_symmetry_space_group_name_H-M "C 2/M"
_symmetry_group_IT_number 12
_symmetry_cell_setting 'monoclinic'
loop_
_space_group_symop_operation_xyz
x,y,z
-x,y,-z
-x,-y,-z
x,-y,z
1/2+x,1/2+y,z
1/2-x,1/2+y,-z
1/2-x,1/2-y,-z
1/2+x,1/2-y,z
loop_
_atom_site_type_symbol
_atom_site_label
_atom_site_fract_x
_atom_site_fract_y
_atom_site_fract_z
Si Si1 0.017400 0.914662 0.275119
Si Si2 0.189088 0.844636 0.326168
Si Si3 0.100398 0.583880 0.633366
Si Si4 0.091192 0.699755 0.400689
Si Si5 0.215496 0.163856 0.617678
O O1 0.000000 0.898783 0.500000
O O2 0.894892 0.908286 0.516369
O O3 0.060397 0.000000 0.148022
O O4 0.099181 0.856086 0.987512
O O5 0.124131 0.768098 0.434465
O O6 0.211347 0.862618 0.450260
O O7 0.302167 0.831017 0.955218
O O8 0.136752 0.500000 0.497628
O O9 0.057739 0.631552 0.594479
O O10 0.197349 0.626291 0.483308
O O11 0.000000 0.578626 0.000000
O O12 0.000000 0.720130 0.500000
O O13 0.250000 0.250000 0.500000
#
# Coordination Sequence:
#
# PCOD9222105 Si02
#       5
#     8   8   8   8   8
#     4  11  26  47  72 104 146 188 235 295 359 426
#     4  11  25  41  69 104 138 184 232 293 351 423
#     4  11  25  44  67  98 139 185 232 287 351 418
#     4  11  24  43  68 102 142 185 241 291 352 429
#     4  12  25  43  71 104 139 187 231 291 349 420
#
# _framework density 21.422338
#
# number of rings (size 3 to 8) (size 9 to 14) (size 15 to 20)
#    0.000    0.800    2.000    4.200    8.400    5.200 
#    0.000    0.000    0.000    0.000    0.000    0.000 
#    0.000    0.000    0.000    0.000    0.000    0.000 
#
# Total GULP energy -111677.632306 kJ/mol
# GULP energy per Si atom -5583.881615 kJ/mol
# Density = 2.137358 g / cm^3
# Si number density = 21.422338 Si / 1000 Ang^3
#
#
#
# Elastic Constant Matrix: (Units=GPa)
#
#
# Indices 1 2 3 4 5 6 
#
# 1 65.0405 1.9223 -18.4593 0.0000 6.1538 0.0000
# 2 1.9223 103.8557 19.8973 0.0000 10.7942 0.0000
# 3 -18.4593 19.8973 90.3274 0.0000 3.5320 0.0000
# 4 0.0000 0.0000 0.0000 28.4478 0.0000 -1.0761
# 5 6.1538 10.7942 3.5320 0.0000 38.6383 0.0000
# 6 0.0000 0.0000 0.0000 -1.0761 0.0000 18.5088
#
#
#
# Elastic Compliance Matrix: (Units=1/GPa)
#
#
# Indices 1 2 3 4 5 6 
#
# 1 0.016706 -0.000724 0.003683 0.000000 -0.002795 0.000000
# 2 -0.000724 0.010355 -0.002329 0.000000 -0.002565 0.000000
# 3 0.003683 -0.002329 0.012378 0.000000 -0.001068 0.000000
# 4 0.000000 0.000000 0.000000 0.035230 0.000000 0.002048
# 5 -0.002795 -0.002565 -0.001068 0.000000 0.027140 0.000000
# 6 0.000000 0.000000 0.000000 0.002048 0.000000 0.054148
#
#
# Mechanical properties :
#
#
# Convention : Reuss Voigt Hill
#
# Bulk Modulus (GPa) = 24.57062 29.54934 27.05998
# Shear Modulus (GPa) = 29.71537 34.17653 31.94595
#
# Velocity S-wave (km/s) = 3.72845 3.99854 3.86585
# Velocity P-wave (km/s) = 5.47993 5.92802 5.70837
#
# Compressibility (1/GPa) = 0.04069902
#
# Stress axis : x y z
#
# Youngs Moduli (GPa) = 59.85813 96.57317 80.78725
#
# Poissons Ratio (x) = 0.06995 -0.29753
# Poissons Ratio (y) = 0.04336 0.18813
# Poissons Ratio (z) = -0.22045 0.22489
#
# Static dielectric constant tensor:
#      x y z
#    x 1.722690 0.000000 0.025810 
#    y 0.000000 1.853590 0.000000 
#    z 0.025810 0.000000 1.758730 
# 
# From -- ./inp_files/46956.got.cif
#   From: 2010.05.17/outbox.cif.g08.bks.cpg/sg12_24_cif.got.tgz:46956.got - 2010.06.03 13:09:07.
