data_PCOD9222806
_publ_section_title
;
Structure prediction by ZEFSAII (Michael W. Deem and Ramdas Pophale) SiO2 
 PCOD9222806
Probable space group: C 2/M
;
_chemical_formula_sum "Si O2"
_cell_formula_units_Z 56
_cell_length_a 14.016338
_cell_length_b 7.448233
_cell_length_c 23.500413
_cell_angle_alpha 90.000000
_cell_angle_beta 58.057880
_cell_angle_gamma 90.000000
_cell_volume 2081.889288
_symmetry_space_group_name_H-M "C 2/M"
_symmetry_group_IT_number 12
_symmetry_cell_setting 'monoclinic'
loop_
_space_group_symop_operation_xyz
x,y,z
-x,y,-z
-x,-y,-z
x,-y,z
1/2+x,1/2+y,z
1/2-x,1/2+y,-z
1/2-x,1/2-y,-z
1/2+x,1/2-y,z
loop_
_atom_site_type_symbol
_atom_site_label
_atom_site_fract_x
_atom_site_fract_y
_atom_site_fract_z
Si Si1 0.679433 0.280208 0.778039
Si Si2 0.441686 0.296237 0.075468
Si Si3 0.949126 0.782781 0.787213
Si Si4 0.669592 0.695771 0.075215
Si Si5 0.371521 0.214299 0.491139
Si Si6 0.798070 0.705474 0.631885
Si Si7 0.566615 0.209144 0.644530
O O1 0.685326 0.500000 0.778622
O O2 0.654197 0.219594 0.851307
O O3 0.565488 0.229334 0.780475
O O4 0.772909 0.217095 0.702613
O O5 0.406308 0.500000 0.069483
O O6 0.548114 0.312317 0.083979
O O7 0.500000 0.214118 0.000000
O O8 0.852638 0.706974 0.858525
O O9 0.960645 0.723317 0.719327
O O10 0.944870 0.000000 0.788916
O O11 0.712160 0.500000 0.077831
O O12 0.750000 0.750000 0.000000
O O13 0.250000 0.250000 0.500000
O O14 0.368611 0.286069 0.556497
O O15 0.451429 0.275244 0.414128
O O16 0.385508 0.000000 0.493692
O O17 0.837105 0.500000 0.628785
O O18 0.672838 0.697411 0.641643
O O19 0.597984 0.000000 0.631218
#
# Coordination Sequence:
#
# PCOD9222806 Si02
#       7
#     8   8   8   8   8   8   8
#     4   7  10  17  30  45  60  84 117 145 169 204
#     4   8  13  22  37  57  78  98 124 158 189 217
#     4   8  14  24  34  44  62  89 117 141 172 216
#     4   9  17  28  42  59  77  99 127 157 189 225
#     4   8  13  18  24  36  55  80 109 140 171 204
#     4   8  12  19  28  37  56  86 114 139 171 212
#     4   9  14  18  26  42  60  79 110 147 176 203
#
# _framework density 26.898643
#
# number of rings (size 3 to 8) (size 9 to 14) (size 15 to 20)
#    0.000    3.857    0.000    3.000    0.000    1.143 
#    0.000    0.000    0.000    0.429    0.000    0.000 
#    0.000    0.000    0.000    1.286    0.000   32.857 
#
# Total GULP energy -155962.493586 kJ/mol
# GULP energy per Si atom -5570.089057 kJ/mol
# Density = 2.683742 g / cm^3
# Si number density = 26.898643 Si / 1000 Ang^3
#
#
#
# Elastic Constant Matrix: (Units=GPa)
#
#
# Indices 1 2 3 4 5 6 
#
# 1 102.4562 -5.2907 14.0103 0.0000 23.6661 0.0000
# 2 -5.2907 84.7531 16.6013 0.0001 -4.2671 0.0001
# 3 14.0103 16.6013 385.1895 0.0000 14.6121 0.0000
# 4 0.0000 0.0001 0.0000 10.0103 0.0000 -0.8642
# 5 23.6661 -4.2671 14.6121 0.0000 20.7418 0.0000
# 6 0.0000 0.0001 0.0000 -0.8642 0.0000 -4.8617
#
#
#
# Elastic Compliance Matrix: (Units=1/GPa)
#
#
# Indices 1 2 3 4 5 6 
#
# 1 0.013257 0.000045 0.000092 0.000000 -0.015181 0.000000
# 2 0.000045 0.012070 -0.000631 0.000000 0.002876 0.000000
# 3 0.000092 -0.000631 0.002701 0.000000 -0.002137 0.000000
# 4 0.000000 0.000000 0.000000 0.098388 0.000000 -0.017488
# 5 -0.015181 0.002876 -0.002137 0.000000 0.067631 0.000000
# 6 0.000000 0.000000 0.000000 -0.017488 0.000000 -0.202579
#
#
# Mechanical properties :
#
#
# Convention : Reuss Voigt Hill
#
# Bulk Modulus (GPa) = 36.98217 69.22674 53.10445
# Shear Modulus (GPa) = 3405.18306 41.64991 1723.41648
#
# Velocity S-wave (km/s) = 35.61853 3.93924 25.33966
# Velocity P-wave (km/s) = 41.29590 6.81779 29.59589
#
# Compressibility (1/GPa) = 0.02704006
#
# Stress axis : x y z
#
# Youngs Moduli (GPa) = 75.43347 82.84870 370.22489
#
# Poissons Ratio (x) = -0.00375 -0.03397
# Poissons Ratio (y) = -0.00341 0.23360
# Poissons Ratio (z) = -0.00692 0.05227
#
# Static dielectric constant tensor:
#      x y z
#    x -0.331730 0.000000 0.354280 
#    y 0.000000 2.071610 0.000000 
#    z 0.354280 0.000000 2.212080 
# 
# From -- ./inp_files/365036.got.cif
#   From: 2010.05.17/outbox.cif.g08.bks.cpg/sg12_183_cif.got.tgz:365036.got - 2010.06.03 13:09:07.
