data_PCOD9222300
_publ_section_title
;
Structure prediction by ZEFSAII (Michael W. Deem and Ramdas Pophale) SiO2 
 PCOD9222300
Probable space group: C 2/M
;
_chemical_formula_sum "Si O2"
_cell_formula_units_Z 36
_cell_length_a 9.830321
_cell_length_b 7.595691
_cell_length_c 18.706975
_cell_angle_alpha 90.000000
_cell_angle_beta 89.153440
_cell_angle_gamma 90.000000
_cell_volume 1396.661455
_symmetry_space_group_name_H-M "C 2/M"
_symmetry_group_IT_number 12
_symmetry_cell_setting 'monoclinic'
loop_
_space_group_symop_operation_xyz
x,y,z
-x,y,-z
-x,-y,-z
x,-y,z
1/2+x,1/2+y,z
1/2-x,1/2+y,-z
1/2-x,1/2-y,-z
1/2+x,1/2-y,z
loop_
_atom_site_type_symbol
_atom_site_label
_atom_site_fract_x
_atom_site_fract_y
_atom_site_fract_z
Si Si1 0.166266 0.701366 0.930547
Si Si2 0.921870 0.712561 0.845800
Si Si3 0.606474 0.209192 0.435027
Si Si4 0.077076 0.802578 0.700464
Si Si5 0.234701 0.500000 0.627486
O O1 0.132721 0.500000 0.941717
O O2 0.023341 0.782826 0.907523
O O3 0.270873 0.724541 0.864200
O O4 0.250000 0.750000 0.000000
O O5 0.917845 0.500000 0.845810
O O6 0.988481 0.772528 0.771714
O O7 0.500000 0.230817 0.500000
O O8 0.526135 0.282538 0.365493
O O9 0.731408 0.344044 0.432792
O O10 0.631339 0.000000 0.425191
O O11 0.187331 0.653948 0.684842
O O12 0.134263 0.000000 0.701415
#
# Coordination Sequence:
#
# PCOD9222300 Si02
#       5
#     8   8   8   8   4
#     4  11  25  44  70 103 140 183 234 292 356 428
#     4  11  25  45  70 101 143 186 237 296 355 427
#     4  11  25  48  71 101 142 185 238 300 357 427
#     4  12  26  45  70 105 138 186 239 292 360 429
#     4  12  25  46  73  98 143 185 236 294 361 428
#
# _framework density 25.775753000000002
#
# number of rings (size 3 to 8) (size 9 to 14) (size 15 to 20)
#    0.000    0.667    3.333    3.000    3.111    7.111 
#    0.000    0.000    0.000    0.000    0.000    0.000 
#    0.000    0.000    0.000    0.000    0.000    0.000 
#
# Total GULP energy -100346.091145 kJ/mol
# GULP energy per Si atom -5574.782841 kJ/mol
# Density = 2.571709 g / cm^3
# Si number density = 25.775753 Si / 1000 Ang^3
#
#
#
# Elastic Constant Matrix: (Units=GPa)
#
#
# Indices 1 2 3 4 5 6 
#
# 1 90.3092 -3.7235 7.6762 0.0000 -13.4933 0.0000
# 2 -3.7235 189.6638 13.9327 0.0000 -23.3254 0.0000
# 3 7.6762 13.9327 104.2666 0.0000 -22.1684 0.0000
# 4 0.0000 0.0000 0.0000 44.9690 0.0000 -14.7171
# 5 -13.4933 -23.3254 -22.1684 0.0000 49.2663 0.0000
# 6 0.0000 0.0000 0.0000 -14.7171 0.0000 21.2119
#
#
#
# Elastic Compliance Matrix: (Units=1/GPa)
#
#
# Indices 1 2 3 4 5 6 
#
# 1 0.011627 0.000662 -0.000222 0.000000 0.003398 0.000000
# 2 0.000662 0.005640 -0.000217 0.000000 0.002754 0.000000
# 3 -0.000222 -0.000217 0.010617 0.000000 0.004614 0.000000
# 4 0.000000 0.000000 0.000000 0.028770 0.000000 0.019961
# 5 0.003398 0.002754 0.004614 0.000000 0.024609 0.000000
# 6 0.000000 0.000000 0.000000 0.019961 0.000000 0.060993
#
#
# Mechanical properties :
#
#
# Convention : Reuss Voigt Hill
#
# Bulk Modulus (GPa) = 35.29644 46.66784 40.98214
# Shear Modulus (GPa) = 33.05735 47.51307 40.28521
#
# Velocity S-wave (km/s) = 3.58508 4.29805 3.95766
# Velocity P-wave (km/s) = 5.55522 6.54031 6.06779
#
# Compressibility (1/GPa) = 0.02833147
#
# Stress axis : x y z
#
# Youngs Moduli (GPa) = 86.00682 177.30043 94.18773
#
# Poissons Ratio (x) = -0.11746 0.02091
# Poissons Ratio (y) = -0.05698 0.02043
# Poissons Ratio (z) = 0.01909 0.03845
#
# Static dielectric constant tensor:
#      x y z
#    x 2.272070 0.000000 0.158870 
#    y 0.000000 1.931290 0.000000 
#    z 0.158870 0.000000 2.086410 
# 
# From -- ./inp_files/260791.got.cif
#   From: 2010.05.17/outbox.cif.g08.bks.cpg/sg12_131_cif.got.tgz:260791.got - 2010.06.03 13:09:07.
