data_PCOD9222529
_publ_section_title
;
Structure prediction by ZEFSAII (Michael W. Deem and Ramdas Pophale) SiO2 
 PCOD9222529
Probable space group: C 2/M
;
_chemical_formula_sum "Si O2"
_cell_formula_units_Z 32
_cell_length_a 17.258839
_cell_length_b 9.856869
_cell_length_c 17.447371
_cell_angle_alpha 90.000000
_cell_angle_beta 33.738090
_cell_angle_gamma 90.000000
_cell_volume 1648.482679
_symmetry_space_group_name_H-M "C 2/M"
_symmetry_group_IT_number 12
_symmetry_cell_setting 'monoclinic'
loop_
_space_group_symop_operation_xyz
x,y,z
-x,y,-z
-x,-y,-z
x,-y,z
1/2+x,1/2+y,z
1/2-x,1/2+y,-z
1/2-x,1/2-y,-z
1/2+x,1/2-y,z
loop_
_atom_site_type_symbol
_atom_site_label
_atom_site_fract_x
_atom_site_fract_y
_atom_site_fract_z
Si Si1 0.769420 0.000000 0.829833
Si Si2 0.877246 0.728568 0.152815
Si Si3 0.371761 0.203549 0.552388
Si Si4 0.136506 0.500000 0.577019
Si Si5 0.978422 0.500000 0.862575
Si Si6 0.405485 0.500000 0.460776
O O1 0.714974 0.869586 0.826550
O O2 0.683607 0.000000 0.980014
O O3 0.935417 0.000000 0.699200
O O4 0.772025 0.823557 0.284897
O O5 0.951834 0.629319 0.152777
O O6 0.000000 0.790273 0.000000
O O7 0.500000 0.162390 0.500000
O O8 0.381292 0.364891 0.530134
O O9 0.377529 0.128930 0.466739
O O10 0.287690 0.500000 0.492539
O O11 0.022298 0.500000 0.738422
#
# Coordination Sequence:
#
# PCOD9222529 Si02
#       6
#     4   8   8   4   4   4
#     4   9  17  34  60  92 108 151 206 253 268 340
#     4   9  17  33  60  89 113 150 202 247 283 337
#     4  12  23  40  62  88 120 158 204 239 287 358
#     4  12  26  39  55  92 133 156 174 250 328 341
#     4   9  18  34  58  86 126 147 189 246 309 333
#     4  12  21  38  65  91 111 149 219 243 272 342
#
# _framework density 19.411788999999999
#
# number of rings (size 3 to 8) (size 9 to 14) (size 15 to 20)
#    0.000    1.500    5.000    3.750    0.000    0.000 
#    0.000    4.375    0.000    0.000    0.000    0.000 
#    0.000    0.000    0.000    0.000    0.000    0.000 
#
# Total GULP energy -89368.602036 kJ/mol
# GULP energy per Si atom -5585.537627 kJ/mol
# Density = 1.936761 g / cm^3
# Si number density = 19.411789 Si / 1000 Ang^3
#
#
#
# Elastic Constant Matrix: (Units=GPa)
#
#
# Indices 1 2 3 4 5 6 
#
# 1 95.0736 12.8220 55.5042 0.0000 5.9580 0.0000
# 2 12.8220 57.8959 25.1101 0.0000 9.7406 0.0000
# 3 55.5042 25.1101 219.9237 0.0000 13.2403 0.0000
# 4 0.0000 0.0000 0.0000 21.9131 0.0000 5.7619
# 5 5.9580 9.7406 13.2403 0.0000 36.2004 0.0000
# 6 0.0000 0.0000 0.0000 5.7619 0.0000 -3.5961
#
#
#
# Elastic Compliance Matrix: (Units=1/GPa)
#
#
# Indices 1 2 3 4 5 6 
#
# 1 0.012465 -0.001379 -0.002952 0.000000 -0.000601 0.000000
# 2 -0.001379 0.018979 -0.001559 0.000000 -0.004309 0.000000
# 3 -0.002952 -0.001559 0.005538 0.000000 -0.001120 0.000000
# 4 0.000000 0.000000 0.000000 0.032108 0.000000 0.051445
# 5 -0.000601 -0.004309 -0.001120 0.000000 0.029292 0.000000
# 6 0.000000 0.000000 0.000000 0.051445 0.000000 -0.195649
#
#
# Mechanical properties :
#
#
# Convention : Reuss Voigt Hill
#
# Bulk Modulus (GPa) = 39.68212 62.19622 50.93917
# Shear Modulus (GPa) = -64.86304 29.53394 -17.66455
#
# Velocity S-wave (km/s) = -5.78678 3.90480 -3.01988
# Velocity P-wave (km/s) = 4.91553 7.24154 3.76016
#
# Compressibility (1/GPa) = 0.02520027
#
# Stress axis : x y z
#
# Youngs Moduli (GPa) = 80.22199 52.68929 180.58272
#
# Poissons Ratio (x) = 0.07267 0.53315
# Poissons Ratio (y) = 0.11064 0.28161
# Poissons Ratio (z) = 0.23685 0.08217
#
# Static dielectric constant tensor:
#      x y z
#    x 1.641160 0.000000 -0.004960 
#    y 0.000000 1.701680 0.000000 
#    z -0.004960 0.000000 1.705740 
# 
# From -- ./inp_files/70603.got.cif
#   From: 2010.05.17/outbox.cif.g08.bks.cpg/sg12_36_cif.got.tgz:70603.got - 2010.06.03 13:09:07.
