data_PCOD9222932
_publ_section_title
;
Structure prediction by ZEFSAII (Michael W. Deem and Ramdas Pophale) SiO2 
 PCOD9222932
Probable space group: C 2/M
;
_chemical_formula_sum "Si O2"
_cell_formula_units_Z 56
_cell_length_a 28.263451
_cell_length_b 7.368243
_cell_length_c 14.025578
_cell_angle_alpha 90.000000
_cell_angle_beta 61.082292
_cell_angle_gamma 90.000000
_cell_volume 2556.667950
_symmetry_space_group_name_H-M "C 2/M"
_symmetry_group_IT_number 12
_symmetry_cell_setting 'monoclinic'
loop_
_space_group_symop_operation_xyz
x,y,z
-x,y,-z
-x,-y,-z
x,-y,z
1/2+x,1/2+y,z
1/2-x,1/2+y,-z
1/2-x,1/2-y,-z
1/2+x,1/2-y,z
loop_
_atom_site_type_symbol
_atom_site_label
_atom_site_fract_x
_atom_site_fract_y
_atom_site_fract_z
Si Si1 0.821545 0.216849 0.131495
Si Si2 0.384934 0.217119 0.876048
Si Si3 0.717801 0.784026 0.129704
Si Si4 0.312605 0.719974 0.344932
Si Si5 0.019312 0.720123 0.332445
Si Si6 0.916675 0.721557 0.537669
Si Si7 0.310019 0.207352 0.556386
O O1 0.839578 0.276404 0.218968
O O2 0.816336 0.000000 0.141613
O O3 0.861292 0.251255 0.004331
O O4 0.760825 0.286154 0.165103
O O5 0.445056 0.281716 0.791995
O O6 0.385323 0.000000 0.864477
O O7 0.341486 0.286640 0.839695
O O8 0.712108 0.000000 0.151622
O O9 0.750000 0.750000 0.000000
O O10 0.313553 0.500000 0.351820
O O11 0.333115 0.790699 0.425934
O O12 0.250091 0.783905 0.394616
O O13 0.016179 0.500000 0.332822
O O14 0.055261 0.768433 0.390201
O O15 0.958646 0.781260 0.414407
O O16 0.914014 0.500000 0.538532
O O17 0.855957 0.787328 0.579195
O O18 0.301563 0.000000 0.596076
#
# Coordination Sequence:
#
# PCOD9222932 Si02
#       7
#     8   8   8   8   8   8   8
#     4   9  17  28  41  58  85 118 145 171 207 254
#     4   9  16  25  41  64  88 112 139 174 211 249
#     4   8  14  23  35  54  80 109 138 164 196 241
#     4   9  18  30  44  64  88 115 146 178 214 255
#     4   8  14  24  41  68  94 112 137 175 216 257
#     4   8  14  25  43  67  91 113 139 175 218 259
#     4   9  17  29  47  67  86 111 144 181 217 254
#
# _framework density 21.903509
#
# number of rings (size 3 to 8) (size 9 to 14) (size 15 to 20)
#    0.000    3.429    0.000    0.857    2.000    0.571 
#    0.000    0.000    0.000    2.571    0.000    8.000 
#    0.000    0.000    0.000    0.000    0.000    0.000 
#
# Total GULP energy -155987.852704 kJ/mol
# GULP energy per Si atom -5570.994739 kJ/mol
# Density = 2.185366 g / cm^3
# Si number density = 21.903509 Si / 1000 Ang^3
#
#
#
# Elastic Constant Matrix: (Units=GPa)
#
#
# Indices 1 2 3 4 5 6 
#
# 1 37.1790 -2.4834 -4.1213 0.0000 -4.2200 0.0000
# 2 -2.4834 81.2597 -5.5807 0.0001 -1.5822 0.0000
# 3 -4.1213 -5.5807 91.5922 0.0000 -3.5327 0.0000
# 4 0.0000 0.0001 0.0000 -15.4703 0.0000 -3.7030
# 5 -4.2200 -1.5822 -3.5327 0.0000 31.7300 0.0000
# 6 0.0000 0.0000 0.0000 -3.7030 0.0000 -2.0617
#
#
#
# Elastic Compliance Matrix: (Units=1/GPa)
#
#
# Indices 1 2 3 4 5 6 
#
# 1 0.027566 0.001018 0.001452 0.000000 0.003879 0.000000
# 2 0.001018 0.012411 0.000835 0.000000 0.000847 0.000000
# 3 0.001452 0.000835 0.011091 0.000000 0.001470 0.000000
# 4 0.000000 0.000000 0.000000 -0.113389 0.000000 0.203663
# 5 0.003879 0.000847 0.001470 0.000000 0.032238 0.000000
# 6 0.000000 0.000000 0.000000 0.203663 0.000000 -0.850854
#
#
# Mechanical properties :
#
#
# Convention : Reuss Voigt Hill
#
# Bulk Modulus (GPa) = 17.33801 20.62890 18.98345
# Shear Modulus (GPa) = -5.75824 17.65402 5.94789
#
# Velocity S-wave (km/s) = -1.62315 2.84208 1.64966
# Velocity P-wave (km/s) = 2.10238 4.49537 3.50916
#
# Compressibility (1/GPa) = 0.05767676
#
# Stress axis : x y z
#
# Youngs Moduli (GPa) = 36.27645 80.57275 90.16458
#
# Poissons Ratio (x) = -0.08200 -0.13092
# Poissons Ratio (y) = -0.03692 -0.07526
# Poissons Ratio (z) = -0.05267 -0.06725
#
# Static dielectric constant tensor:
#      x y z
#    x 1.790850 0.000000 -0.010090 
#    y 0.000000 1.873790 0.000000 
#    z -0.010090 0.000000 1.853570 
# 
# From -- ./inp_files/181921.got.cif
#   From: 2010.05.17/outbox.cif.g08.bks.cpg/sg12_91_cif.got.tgz:181921.got - 2010.06.03 13:09:07.
