data_PCOD9222453
_publ_section_title
;
Structure prediction by ZEFSAII (Michael W. Deem and Ramdas Pophale) SiO2 
 PCOD9222453
Probable space group: C 2/M
;
_chemical_formula_sum "Si O2"
_cell_formula_units_Z 40
_cell_length_a 27.826147
_cell_length_b 14.601932
_cell_length_c 8.620896
_cell_angle_alpha 90.000000
_cell_angle_beta 148.914255
_cell_angle_gamma 90.000000
_cell_volume 1808.568587
_symmetry_space_group_name_H-M "C 2/M"
_symmetry_group_IT_number 12
_symmetry_cell_setting 'monoclinic'
loop_
_space_group_symop_operation_xyz
x,y,z
-x,y,-z
-x,-y,-z
x,-y,z
1/2+x,1/2+y,z
1/2-x,1/2+y,-z
1/2-x,1/2-y,-z
1/2+x,1/2-y,z
loop_
_atom_site_type_symbol
_atom_site_label
_atom_site_fract_x
_atom_site_fract_y
_atom_site_fract_z
Si Si1 0.887605 0.105385 0.511586
Si Si2 0.111277 0.103012 0.139545
Si Si3 0.088949 0.390254 0.356586
Si Si4 0.595552 0.232244 0.670397
Si Si5 0.767359 0.217398 0.722429
O O1 0.862571 0.140696 0.616208
O O2 0.868178 0.178764 0.325231
O O3 0.855024 0.000000 0.397844
O O4 0.000081 0.102215 0.826069
O O5 0.148928 0.147041 0.088126
O O6 0.146837 0.000000 0.243177
O O7 0.100263 0.500000 0.393290
O O8 0.074832 0.346063 0.486703
O O9 0.180421 0.339689 0.544439
O O10 0.000000 0.369625 0.000000
O O11 0.500000 0.247418 0.500000
O O12 0.681357 0.211493 0.022281
O O13 0.750000 0.250000 0.500000
#
# Coordination Sequence:
#
# PCOD9222453 Si02
#       5
#     8   8   8   8   8
#     4   9  19  35  61 100 137 165 199 256 340 413
#     4   9  18  35  60  92 131 168 199 252 330 407
#     4  11  27  49  70  94 133 186 237 282 326 391
#     4  12  24  41  69 102 132 174 223 282 344 403
#     4  12  24  42  66  99 131 171 224 278 340 398
#
# _framework density 22.116938999999999
#
# number of rings (size 3 to 8) (size 9 to 14) (size 15 to 20)
#    0.000    1.400    2.000    4.800    2.800    2.400 
#    0.000    4.000    0.000    0.000    0.000    0.000 
#    0.000    0.000    0.000    0.000    0.000    0.000 
#
# Total GULP energy -111660.149201 kJ/mol
# GULP energy per Si atom -5583.007460 kJ/mol
# Density = 2.206660 g / cm^3
# Si number density = 22.116939 Si / 1000 Ang^3
#
#
#
# Elastic Constant Matrix: (Units=GPa)
#
#
# Indices 1 2 3 4 5 6 
#
# 1 126.6538 29.1242 37.5335 0.0000 0.9383 0.0000
# 2 29.1242 74.7287 34.6200 0.0000 -12.7273 0.0000
# 3 37.5335 34.6200 145.0951 0.0000 -16.0883 0.0000
# 4 0.0000 0.0000 0.0000 22.3929 0.0000 -7.4551
# 5 0.9383 -12.7273 -16.0883 0.0000 37.6487 0.0000
# 6 0.0000 0.0000 0.0000 -7.4551 0.0000 24.3315
#
#
#
# Elastic Compliance Matrix: (Units=1/GPa)
#
#
# Indices 1 2 3 4 5 6 
#
# 1 0.009168 -0.003058 -0.001871 0.000000 -0.002062 0.000000
# 2 -0.003058 0.016580 -0.002661 0.000000 0.004544 0.000000
# 3 -0.001871 -0.002661 0.008310 0.000000 0.002698 0.000000
# 4 0.000000 0.000000 0.000000 0.049730 0.000000 0.015237
# 5 -0.002062 0.004544 0.002698 0.000000 0.029302 0.000000
# 6 0.000000 0.000000 0.000000 0.015237 0.000000 0.045768
#
#
# Mechanical properties :
#
#
# Convention : Reuss Voigt Hill
#
# Bulk Modulus (GPa) = 52.96787 61.00365 56.98576
# Shear Modulus (GPa) = 27.72696 33.22129 30.47413
#
# Velocity S-wave (km/s) = 3.54454 3.87987 3.71599
# Velocity P-wave (km/s) = 6.38378 6.90748 6.65079
#
# Compressibility (1/GPa) = 0.01887937
#
# Stress axis : x y z
#
# Youngs Moduli (GPa) = 109.07147 60.31293 120.33550
#
# Poissons Ratio (x) = 0.18442 0.22511
# Poissons Ratio (y) = 0.33350 0.32025
# Poissons Ratio (z) = 0.20404 0.16051
#
# Static dielectric constant tensor:
#      x y z
#    x 1.850750 0.000000 -0.018100 
#    y 0.000000 1.890650 0.000000 
#    z -0.018100 0.000000 1.890430 
# 
# From -- ./inp_files/112113.got.cif
#   From: 2010.05.17/outbox.cif.g08.bks.cpg/sg12_57_cif.got.tgz:112113.got - 2010.06.03 13:09:07.
