data_PCOD9222707
_publ_section_title
;
Structure prediction by ZEFSAII (Michael W. Deem and Ramdas Pophale) SiO2 
 PCOD9222707
Probable space group: C 2/M
;
_chemical_formula_sum "Si O2"
_cell_formula_units_Z 48
_cell_length_a 9.430737
_cell_length_b 15.746052
_cell_length_c 25.432611
_cell_angle_alpha 90.000000
_cell_angle_beta 39.743923
_cell_angle_gamma 90.000000
_cell_volume 2414.637801
_symmetry_space_group_name_H-M "C 2/M"
_symmetry_group_IT_number 12
_symmetry_cell_setting 'monoclinic'
loop_
_space_group_symop_operation_xyz
x,y,z
-x,y,-z
-x,-y,-z
x,-y,z
1/2+x,1/2+y,z
1/2-x,1/2+y,-z
1/2-x,1/2-y,-z
1/2+x,1/2-y,z
loop_
_atom_site_type_symbol
_atom_site_label
_atom_site_fract_x
_atom_site_fract_y
_atom_site_fract_z
Si Si1 0.799279 0.663210 0.016037
Si Si2 0.564393 0.098644 0.132140
Si Si3 0.126921 0.595481 0.655836
Si Si4 0.753891 0.733491 0.560566
Si Si5 0.617150 0.401897 0.305941
Si Si6 0.329668 0.399643 0.156494
O O1 0.562433 0.638537 0.107802
O O2 0.750000 0.750000 0.000000
O O3 0.000000 0.665698 0.000000
O O4 0.857935 0.603718 0.949649
O O5 0.314111 0.131843 0.211569
O O6 0.738532 0.134576 0.125675
O O7 0.542768 0.000000 0.153600
O O8 0.146839 0.500000 0.626736
O O9 0.212288 0.674500 0.598417
O O10 0.264731 0.594608 0.670770
O O11 0.871587 0.610543 0.745485
O O12 0.750000 0.750000 0.500000
O O13 0.580100 0.665043 0.632319
O O14 0.000000 0.700894 0.500000
O O15 0.552366 0.500000 0.310767
O O16 0.369863 0.500000 0.138638
#
# Coordination Sequence:
#
# PCOD9222707 Si02
#       6
#     8   8   8   8   8   8
#     4  12  25  38  55  87 125 162 201 248 296 353
#     4   9  19  39  65  88 117 160 201 244 299 362
#     4   9  20  41  67  91 122 167 209 247 302 377
#     4  12  24  40  63  96 124 157 203 259 312 369
#     4   9  20  41  66  91 125 165 205 250 308 371
#     4   9  19  39  65  89 117 157 203 247 297 360
#
# _framework density 19.878758000000001
#
# number of rings (size 3 to 8) (size 9 to 14) (size 15 to 20)
#    0.000    2.000    1.667    4.000    2.333    4.000 
#    3.000    0.000    0.000    0.000    0.000    0.000 
#    0.000    0.000    0.000    0.000    0.000    0.000 
#
# Total GULP energy -133832.799976 kJ/mol
# GULP energy per Si atom -5576.366666 kJ/mol
# Density = 1.983351 g / cm^3
# Si number density = 19.878758 Si / 1000 Ang^3
#
#
#
# Elastic Constant Matrix: (Units=GPa)
#
#
# Indices 1 2 3 4 5 6 
#
# 1 57.0873 -3.7148 20.8254 -0.0007 -26.0883 0.0055
# 2 -3.7148 64.0939 31.2766 -0.0015 -17.9028 0.0028
# 3 20.8254 31.2766 73.4942 -0.0015 -35.3121 0.0588
# 4 -0.0007 -0.0015 -0.0015 38.5987 -0.0004 0.9585
# 5 -26.0883 -17.9028 -35.3121 -0.0004 42.0614 -0.0008
# 6 0.0055 0.0028 0.0588 0.9585 -0.0008 -80.5002
#
#
#
# Elastic Compliance Matrix: (Units=1/GPa)
#
#
# Indices 1 2 3 4 5 6 
#
# 1 0.027205 0.007775 -0.002213 0.000001 0.018325 0.000000
# 2 0.007775 0.022042 -0.007976 0.000001 0.007508 -0.000005
# 3 -0.002213 -0.007976 0.025707 0.000000 0.016814 0.000018
# 4 0.000001 0.000001 0.000000 0.025900 0.000001 0.000308
# 5 0.018325 0.007508 0.016814 0.000001 0.052453 0.000013
# 6 0.000000 -0.000005 0.000018 0.000308 0.000013 -0.012419
#
#
# Mechanical properties :
#
#
# Convention : Reuss Voigt Hill
#
# Bulk Modulus (GPa) = 14.26003 32.38332 23.32167
# Shear Modulus (GPa) = 29.56996 9.78452 19.67724
#
# Velocity S-wave (km/s) = 3.86102 2.22099 3.14962
# Velocity P-wave (km/s) = 5.20247 4.78569 4.99842
#
# Compressibility (1/GPa) = 0.07012609
#
# Stress axis : x y z
#
# Youngs Moduli (GPa) = 36.75846 45.36771 38.90023
#
# Poissons Ratio (x) = -0.35274 0.08608
# Poissons Ratio (y) = -0.28580 0.31027
# Poissons Ratio (z) = 0.08134 0.36186
#
# Static dielectric constant tensor:
#      x y z
#    x 1.690180 -0.000010 -0.004220 
#    y -0.000010 1.710140 -0.000040 
#    z -0.004220 -0.000040 1.750550 
# 
# From -- ./inp_files/356287.got.cif
#   From: 2010.05.17/outbox.cif.g08.bks.cpg/sg12_179_cif.got.tgz:356287.got - 2010.06.03 13:09:07.
