data_PCOD9222606
_publ_section_title
;
Structure prediction by ZEFSAII (Michael W. Deem and Ramdas Pophale) SiO2 
 PCOD9222606
Probable space group: C 2/M
;
_chemical_formula_sum "Si O2"
_cell_formula_units_Z 48
_cell_length_a 12.182016
_cell_length_b 23.002275
_cell_length_c 9.557033
_cell_angle_alpha 90.000000
_cell_angle_beta 112.193187
_cell_angle_gamma 90.000000
_cell_volume 2479.615829
_symmetry_space_group_name_H-M "C 2/M"
_symmetry_group_IT_number 12
_symmetry_cell_setting 'monoclinic'
loop_
_space_group_symop_operation_xyz
x,y,z
-x,y,-z
-x,-y,-z
x,-y,z
1/2+x,1/2+y,z
1/2-x,1/2+y,-z
1/2-x,1/2-y,-z
1/2+x,1/2-y,z
loop_
_atom_site_type_symbol
_atom_site_label
_atom_site_fract_x
_atom_site_fract_y
_atom_site_fract_z
Si Si1 0.984626 0.500000 0.158550
Si Si2 0.742094 0.698322 0.882407
Si Si3 0.869293 0.500000 0.511040
Si Si4 0.517180 0.327239 0.347825
Si Si5 0.752955 0.622248 0.376953
Si Si6 0.614064 0.126525 0.844209
Si Si7 0.381770 0.797747 0.667514
O O1 0.917306 0.558870 0.166667
O O2 0.103262 0.500000 0.309863
O O3 0.000000 0.500000 0.000000
O O4 0.608096 0.678581 0.790068
O O5 0.800545 0.715309 0.762899
O O6 0.750000 0.750000 0.000000
O O7 0.819252 0.646415 0.984632
O O8 0.799150 0.557756 0.434585
O O9 0.000000 0.500000 0.500000
O O10 0.500000 0.345828 0.500000
O O11 0.612483 0.368795 0.319856
O O12 0.572477 0.262481 0.373461
O O13 0.803512 0.638407 0.249749
O O14 0.810874 0.665136 0.519399
O O15 0.494793 0.164057 0.768736
#
# Coordination Sequence:
#
# PCOD9222606 Si02
#       7
#     4   8   4   8   8   8   8
#     4  12  24  40  67 102 136 167 218 284 339 382
#     4  12  26  43  63  96 140 179 224 274 339 406
#     4  12  22  46  72 102 129 172 232 281 329 394
#     4  12  26  43  66  97 137 182 222 268 340 412
#     4  12  24  43  70  97 134 172 226 281 331 406
#     4  12  24  41  68 100 132 170 225 283 339 387
#     4  12  23  41  68  97 133 176 226 279 329 402
#
# _framework density 19.357837
#
# number of rings (size 3 to 8) (size 9 to 14) (size 15 to 20)
#    0.000    0.000    6.667    4.500    0.000    2.000 
#    0.000    1.250    0.000    2.000    0.000    0.000 
#    0.000    0.000    0.000    0.000    0.000    0.000 
#
# Total GULP energy -134358.678082 kJ/mol
# GULP energy per Si atom -5598.278253 kJ/mol
# Density = 1.931378 g / cm^3
# Si number density = 19.357837 Si / 1000 Ang^3
#
#
#
# Elastic Constant Matrix: (Units=GPa)
#
#
# Indices 1 2 3 4 5 6 
#
# 1 135.3550 16.9113 33.0459 0.0000 -1.8785 0.0000
# 2 16.9113 71.7796 -12.5301 0.0000 2.8407 0.0000
# 3 33.0459 -12.5301 78.6808 0.0000 -4.3331 0.0000
# 4 0.0000 0.0000 0.0000 31.8069 0.0000 4.6483
# 5 -1.8785 2.8407 -4.3331 0.0000 49.3947 0.0000
# 6 0.0000 0.0000 0.0000 4.6483 0.0000 25.3719
#
#
#
# Elastic Compliance Matrix: (Units=1/GPa)
#
#
# Indices 1 2 3 4 5 6 
#
# 1 0.008740 -0.002781 -0.004106 0.000000 0.000132 0.000000
# 2 -0.002781 0.015234 0.003557 0.000000 -0.000670 0.000000
# 3 -0.004106 0.003557 0.015054 0.000000 0.000960 0.000000
# 4 0.000000 0.000000 0.000000 0.032305 0.000000 -0.005918
# 5 0.000132 -0.000670 0.000960 0.000000 0.020373 0.000000
# 6 0.000000 0.000000 0.000000 -0.005918 0.000000 0.040498
#
#
# Mechanical properties :
#
#
# Convention : Reuss Voigt Hill
#
# Bulk Modulus (GPa) = 30.89543 40.07440 35.48492
# Shear Modulus (GPa) = 33.41072 37.87394 35.64233
#
# Velocity S-wave (km/s) = 4.15897 4.42805 4.29562
# Velocity P-wave (km/s) = 6.24960 6.84765 6.55545
#
# Compressibility (1/GPa) = 0.03236724
#
# Stress axis : x y z
#
# Youngs Moduli (GPa) = 114.41878 65.64159 66.42925
#
# Poissons Ratio (x) = 0.18256 0.27278
# Poissons Ratio (y) = 0.31822 -0.23631
# Poissons Ratio (z) = 0.46984 -0.23351
#
# Static dielectric constant tensor:
#      x y z
#    x 1.685810 0.000000 -0.001790 
#    y 0.000000 1.660780 0.000000 
#    z -0.001790 0.000000 1.675370 
# 
# From -- ./inp_files/51395.got.cif
#   From: 2010.05.17/outbox.cif.g08.bks.cpg/sg12_26_cif.got.tgz:51395.got - 2010.06.03 13:09:07.
