data_PCOD9222574
_publ_section_title
;
Structure prediction by ZEFSAII (Michael W. Deem and Ramdas Pophale) SiO2 
 PCOD9222574
Probable space group: C 2/M
;
_chemical_formula_sum "Si O2"
_cell_formula_units_Z 44
_cell_length_a 8.038076
_cell_length_b 18.117171
_cell_length_c 17.009302
_cell_angle_alpha 90.000000
_cell_angle_beta 48.899237
_cell_angle_gamma 90.000000
_cell_volume 1866.567634
_symmetry_space_group_name_H-M "C 2/M"
_symmetry_group_IT_number 12
_symmetry_cell_setting 'monoclinic'
loop_
_space_group_symop_operation_xyz
x,y,z
-x,y,-z
-x,-y,-z
x,-y,z
1/2+x,1/2+y,z
1/2-x,1/2+y,-z
1/2-x,1/2-y,-z
1/2+x,1/2-y,z
loop_
_atom_site_type_symbol
_atom_site_label
_atom_site_fract_x
_atom_site_fract_y
_atom_site_fract_z
Si Si1 0.281962 0.127345 0.589262
Si Si2 0.502048 0.000000 0.679137
Si Si3 0.236933 0.655851 0.572099
Si Si4 0.944679 0.667704 0.106930
Si Si5 0.468476 0.269776 0.241842
Si Si6 0.450752 0.500000 0.287135
Si Si7 0.452718 0.000000 0.145658
O O1 0.500000 0.082021 0.500000
O O2 0.295561 0.178788 0.509162
O O3 0.232891 0.171589 0.684617
O O4 0.085900 0.070069 0.646553
O O5 0.634707 0.926090 0.614857
O O6 0.253180 0.000000 0.714150
O O7 0.504858 0.000000 0.773680
O O8 0.500000 0.655163 0.500000
O O9 0.113047 0.706710 0.673481
O O10 0.682112 0.682758 0.199076
O O11 0.029592 0.728386 0.142667
O O12 0.025929 0.583477 0.097793
O O13 0.000000 0.684477 0.000000
O O14 0.704281 0.500000 0.185085
#
# Coordination Sequence:
#
# PCOD9222574 Si02
#       7
#     8   4   8   8   8   4   4
#     4  12  22  39  63  96 146 189 230 284 353 428
#     4  12  24  44  69 106 152 201 251 297 359 429
#     4  12  23  40  65 101 147 197 242 291 355 440
#     4  12  27  50  77 102 139 189 247 320 384 433
#     4  12  25  44  68 103 141 180 244 300 364 448
#     4  12  24  44  67 105 147 202 244 297 357 432
#     4  12  25  51  78 105 145 193 251 316 369 442
#
# _framework density 23.572678
#
# number of rings (size 3 to 8) (size 9 to 14) (size 15 to 20)
#    0.000    0.000    5.455    6.273    0.000    0.000 
#    0.000    0.000    0.000    1.091    0.000    0.000 
#    0.000    0.000    0.000    0.000    0.000    0.000 
#
# Total GULP energy -122511.073753 kJ/mol
# GULP energy per Si atom -5568.685171 kJ/mol
# Density = 2.351903 g / cm^3
# Si number density = 23.572678 Si / 1000 Ang^3
#
#
#
# Elastic Constant Matrix: (Units=GPa)
#
#
# Indices 1 2 3 4 5 6 
#
# 1 66.3958 -21.9100 16.7778 0.0000 3.9171 0.0000
# 2 -21.9100 123.4750 42.3645 0.0000 12.8191 0.0000
# 3 16.7778 42.3645 80.5427 0.0000 29.3442 0.0000
# 4 0.0000 0.0000 0.0000 -5.2055 0.0000 0.9885
# 5 3.9171 12.8191 29.3442 0.0000 43.0197 0.0000
# 6 0.0000 0.0000 0.0000 0.9885 0.0000 26.3891
#
#
#
# Elastic Compliance Matrix: (Units=1/GPa)
#
#
# Indices 1 2 3 4 5 6 
#
# 1 0.018766 0.005745 -0.007564 0.000000 0.001739 0.000000
# 2 0.005745 0.011662 -0.007816 0.000000 0.001334 0.000000
# 3 -0.007564 -0.007816 0.022626 0.000000 -0.012416 0.000000
# 4 0.000000 0.000000 0.000000 -0.190748 0.000000 0.007145
# 5 0.001739 0.001334 -0.012416 0.000000 0.031158 0.000000
# 6 0.000000 0.000000 0.000000 0.007145 0.000000 0.037627
#
#
# Mechanical properties :
#
#
# Convention : Reuss Voigt Hill
#
# Bulk Modulus (GPa) = 29.60210 38.31979 33.96095
# Shear Modulus (GPa) = -130.28529 28.38608 -50.94961
#
# Velocity S-wave (km/s) = -7.44242 3.47391 -4.65411
# Velocity P-wave (km/s) = 7.82737 5.69053 3.80037
#
# Compressibility (1/GPa) = 0.03378138
#
# Stress axis : x y z
#
# Youngs Moduli (GPa) = 53.28864 85.75209 44.19647
#
# Poissons Ratio (x) = -0.49262 0.33432
# Poissons Ratio (y) = -0.30613 0.34546
# Poissons Ratio (z) = 0.40309 0.67027
#
# Static dielectric constant tensor:
#      x y z
#    x 2.142810 0.000000 -0.026050 
#    y 0.000000 1.941770 0.000000 
#    z -0.026050 0.000000 1.847850 
# 
# From -- ./inp_files/195882.got.cif
#   From: 2010.05.17/outbox.cif.g08.bks.cpg/sg12_98_cif.got.tgz:195882.got - 2010.06.03 13:09:07.
