data_PCOD9222442
_publ_section_title
;
Structure prediction by ZEFSAII (Michael W. Deem and Ramdas Pophale) SiO2 
 PCOD9222442
Probable space group: C 2/M
;
_chemical_formula_sum "Si O2"
_cell_formula_units_Z 48
_cell_length_a 15.369324
_cell_length_b 29.065816
_cell_length_c 5.499523
_cell_angle_alpha 90.000000
_cell_angle_beta 64.600102
_cell_angle_gamma 90.000000
_cell_volume 2219.277724
_symmetry_space_group_name_H-M "C 2/M"
_symmetry_group_IT_number 12
_symmetry_cell_setting 'monoclinic'
loop_
_space_group_symop_operation_xyz
x,y,z
-x,y,-z
-x,-y,-z
x,-y,z
1/2+x,1/2+y,z
1/2-x,1/2+y,-z
1/2-x,1/2-y,-z
1/2+x,1/2-y,z
loop_
_atom_site_type_symbol
_atom_site_label
_atom_site_fract_x
_atom_site_fract_y
_atom_site_fract_z
Si Si1 0.385139 0.446077 0.691631
Si Si2 0.917714 0.726163 0.288352
Si Si3 0.313078 0.601672 0.280629
Si Si4 0.775677 0.299230 0.080708
Si Si5 0.903690 0.826337 0.490616
Si Si6 0.600703 0.863425 0.408810
O O1 0.500000 0.442773 0.500000
O O2 0.361538 0.500000 0.744536
O O3 0.333885 0.426514 0.507300
O O4 0.354747 0.422177 0.985657
O O5 0.815826 0.715861 0.290890
O O6 0.911642 0.771274 0.456749
O O7 0.938778 0.676522 0.368288
O O8 0.000000 0.738498 0.000000
O O9 0.371129 0.649000 0.281178
O O10 0.197769 0.611203 0.387912
O O11 0.683851 0.331253 0.218563
O O12 0.750000 0.250000 0.000000
O O13 0.854762 0.330930 0.857390
O O14 0.000000 0.843844 0.500000
O O15 0.500000 0.891733 0.500000
#
# Coordination Sequence:
#
# PCOD9222442 Si02
#       6
#     8   8   8   8   8   8
#     4  11  26  51  82 113 146 181 220 277 366 465
#     4  12  23  39  60  86 130 194 251 288 339 400
#     4  12  26  45  76 109 145 183 232 300 358 428
#     4  12  22  38  61  84 128 187 252 301 341 397
#     4  12  25  42  61  99 142 187 240 303 355 406
#     4  12  25  44  64  93 137 192 247 296 342 407
#
# _framework density 21.628657
#
# number of rings (size 3 to 8) (size 9 to 14) (size 15 to 20)
#    0.000    0.167    5.000    5.500    0.000    5.333 
#    0.000    0.000    0.000    3.000    0.000    0.000 
#    0.000    0.000    0.000    0.000    0.000    0.000 
#
# Total GULP energy -133861.321883 kJ/mol
# GULP energy per Si atom -5577.555078 kJ/mol
# Density = 2.157943 g / cm^3
# Si number density = 21.628657 Si / 1000 Ang^3
#
#
#
# Elastic Constant Matrix: (Units=GPa)
#
#
# Indices 1 2 3 4 5 6 
#
# 1 197.9067 47.5530 67.0481 0.0000 -14.3457 0.0000
# 2 47.5530 97.2537 35.5223 0.0000 5.6907 0.0000
# 3 67.0481 35.5223 130.4541 0.0000 -17.9945 0.0000
# 4 0.0000 0.0000 0.0000 50.9187 0.0000 5.1605
# 5 -14.3457 5.6907 -17.9945 0.0000 43.9754 0.0000
# 6 0.0000 0.0000 0.0000 5.1605 0.0000 29.7992
#
#
#
# Elastic Compliance Matrix: (Units=1/GPa)
#
#
# Indices 1 2 3 4 5 6 
#
# 1 0.006588 -0.002375 -0.002544 0.000000 0.001415 0.000000
# 2 -0.002375 0.012638 -0.002706 0.000000 -0.003517 0.000000
# 3 -0.002544 -0.002706 0.010221 0.000000 0.003702 0.000000
# 4 0.000000 0.000000 0.000000 0.019990 0.000000 -0.003462
# 5 0.001415 -0.003517 0.003702 0.000000 0.025172 0.000000
# 6 0.000000 0.000000 0.000000 -0.003462 0.000000 0.034157
#
#
# Mechanical properties :
#
#
# Convention : Reuss Voigt Hill
#
# Bulk Modulus (GPa) = 70.43821 80.65125 75.54473
# Shear Modulus (GPa) = 38.83574 43.30473 41.07024
#
# Velocity S-wave (km/s) = 4.24201 4.47944 4.36234
# Velocity P-wave (km/s) = 7.52533 8.00774 7.77028
#
# Compressibility (1/GPa) = 0.01419684
#
# Stress axis : x y z
#
# Youngs Moduli (GPa) = 151.79095 79.12824 97.84201
#
# Poissons Ratio (x) = 0.18792 0.24892
# Poissons Ratio (y) = 0.36048 0.26474
# Poissons Ratio (z) = 0.38616 0.21411
#
# Static dielectric constant tensor:
#      x y z
#    x 1.932720 0.000000 -0.002740 
#    y 0.000000 1.818630 0.000000 
#    z -0.002740 0.000000 1.937830 
# 
# From -- ./inp_files/13051.got.cif
#   From: 2010.05.17/outbox.cif.g08.bks.cpg/sg12_7_cif.got.tgz:13051.got - 2010.06.03 13:09:07.
