data_PCOD9222863
_publ_section_title
;
Structure prediction by ZEFSAII (Michael W. Deem and Ramdas Pophale) SiO2 
 PCOD9222863
Probable space group: C 2/M
;
_chemical_formula_sum "Si O2"
_cell_formula_units_Z 56
_cell_length_a 9.512000
_cell_length_b 28.763176
_cell_length_c 13.438518
_cell_angle_alpha 90.000000
_cell_angle_beta 136.510799
_cell_angle_gamma 90.000000
_cell_volume 2530.381408
_symmetry_space_group_name_H-M "C 2/M"
_symmetry_group_IT_number 12
_symmetry_cell_setting 'monoclinic'
loop_
_space_group_symop_operation_xyz
x,y,z
-x,y,-z
-x,-y,-z
x,-y,z
1/2+x,1/2+y,z
1/2-x,1/2+y,-z
1/2-x,1/2-y,-z
1/2+x,1/2-y,z
loop_
_atom_site_type_symbol
_atom_site_label
_atom_site_fract_x
_atom_site_fract_y
_atom_site_fract_z
Si Si1 0.232651 0.552674 0.233702
Si Si2 0.869817 0.893252 0.810494
Si Si3 0.514919 0.052330 0.386878
Si Si4 0.606981 0.614937 0.419932
Si Si5 0.442935 0.719767 0.631623
Si Si6 0.307895 0.199594 0.322143
Si Si7 0.266452 0.946451 0.008399
O O1 0.287492 0.500000 0.289795
O O2 0.407141 0.588139 0.352952
O O3 0.232494 0.553852 0.112587
O O4 0.003995 0.562684 0.154040
O O5 0.713144 0.933704 0.760588
O O6 0.880775 0.889776 0.694809
O O7 0.752911 0.844884 0.774944
O O8 0.099239 0.908490 0.955957
O O9 0.500000 0.053135 0.500000
O O10 0.685263 0.089373 0.442416
O O11 0.570757 0.000000 0.386758
O O12 0.577978 0.669217 0.428173
O O13 0.250000 0.750000 0.500000
O O14 0.627954 0.753133 0.699462
O O15 0.398667 0.710651 0.723820
O O16 0.500000 0.188451 0.500000
O O17 0.214043 0.000000 0.009133
#
# Coordination Sequence:
#
# PCOD9222863 Si02
#       7
#     8   8   8   8   8   8   8
#     4   8  13  21  32  48  72 100 127 152 181 224
#     4   9  14  21  32  49  73  99 124 151 186 227
#     4   9  14  18  27  46  72  97 117 143 185 231
#     4   9  15  22  33  49  71  98 125 154 188 225
#     4   9  16  26  39  55  76 100 129 162 193 227
#     4   9  16  26  39  55  76 101 130 162 193 226
#     4   8  13  20  31  48  72 102 128 148 179 227
#
# _framework density 22.131049000000001
#
# number of rings (size 3 to 8) (size 9 to 14) (size 15 to 20)
#    0.000    3.286    0.000    4.714    0.000    3.429 
#    0.000    0.000    0.000    0.857    0.000    0.000 
#    0.000   40.000    0.000    3.143    0.000    3.429 
#
# Total GULP energy -156187.421055 kJ/mol
# GULP energy per Si atom -5578.122181 kJ/mol
# Density = 2.208068 g / cm^3
# Si number density = 22.131049 Si / 1000 Ang^3
#
#
#
# Elastic Constant Matrix: (Units=GPa)
#
#
# Indices 1 2 3 4 5 6 
#
# 1 74.6202 40.9365 19.6625 0.0000 18.5513 0.0000
# 2 40.9365 197.5863 89.4413 0.0000 40.7773 0.0000
# 3 19.6625 89.4413 108.8027 0.0000 20.3736 0.0000
# 4 0.0000 0.0000 0.0000 30.1056 0.0000 15.2880
# 5 18.5513 40.7773 20.3736 0.0000 41.1564 0.0000
# 6 0.0000 0.0000 0.0000 15.2880 0.0000 28.0872
#
#
#
# Elastic Compliance Matrix: (Units=1/GPa)
#
#
# Indices 1 2 3 4 5 6 
#
# 1 0.015869 -0.002222 -0.000126 0.000000 -0.004889 0.000000
# 2 -0.002222 0.009519 -0.006442 0.000000 -0.005241 0.000000
# 3 -0.000126 -0.006442 0.014663 0.000000 -0.000819 0.000000
# 4 0.000000 0.000000 0.000000 0.045905 0.000000 -0.024986
# 5 -0.004889 -0.005241 -0.000819 0.000000 0.032099 0.000000
# 6 0.000000 0.000000 0.000000 -0.024986 0.000000 0.049204
#
#
# Mechanical properties :
#
#
# Convention : Reuss Voigt Hill
#
# Bulk Modulus (GPa) = 44.50178 75.67665 60.08921
# Shear Modulus (GPa) = 25.99710 35.26777 30.63244
#
# Velocity S-wave (km/s) = 3.43109 3.99631 3.72444
# Velocity P-wave (km/s) = 5.98736 7.45406 6.76060
#
# Compressibility (1/GPa) = 0.02247101
#
# Stress axis : x y z
#
# Youngs Moduli (GPa) = 63.01706 105.04971 68.19865
#
# Poissons Ratio (x) = 0.23339 0.00858
# Poissons Ratio (y) = 0.14001 0.43937
# Poissons Ratio (z) = 0.00793 0.67678
#
# Static dielectric constant tensor:
#      x y z
#    x 2.086080 0.000000 -0.122730 
#    y 0.000000 1.875730 0.000000 
#    z -0.122730 0.000000 1.850540 
# 
# From -- ./inp_files/184912.got.cif
#   From: 2010.05.17/outbox.cif.g08.bks.cpg/sg12_93_cif.got.tgz:184912.got - 2010.06.03 13:09:07.
