data_PCOD9222273
_publ_section_title
;
Structure prediction by ZEFSAII (Michael W. Deem and Ramdas Pophale) SiO2 
 PCOD9222273
Probable space group: C 2/M
;
_chemical_formula_sum "Si O2"
_cell_formula_units_Z 48
_cell_length_a 9.587199
_cell_length_b 27.010621
_cell_length_c 14.972861
_cell_angle_alpha 90.000000
_cell_angle_beta 35.290714
_cell_angle_gamma 90.000000
_cell_volume 2240.023240
_symmetry_space_group_name_H-M "C 2/M"
_symmetry_group_IT_number 12
_symmetry_cell_setting 'monoclinic'
loop_
_space_group_symop_operation_xyz
x,y,z
-x,y,-z
-x,-y,-z
x,-y,z
1/2+x,1/2+y,z
1/2-x,1/2+y,-z
1/2-x,1/2-y,-z
1/2+x,1/2-y,z
loop_
_atom_site_type_symbol
_atom_site_label
_atom_site_fract_x
_atom_site_fract_y
_atom_site_fract_z
Si Si1 0.114843 0.893859 0.343589
Si Si2 0.777070 0.338343 0.873273
Si Si3 0.511003 0.217689 0.597544
Si Si4 0.330774 0.056790 0.509331
Si Si5 0.947770 0.445794 0.803753
Si Si6 0.097785 0.703987 0.851191
O O1 0.308476 0.936473 0.266444
O O2 0.254591 0.847368 0.231465
O O3 0.000000 0.879720 0.500000
O O4 0.907198 0.911981 0.386479
O O5 0.953616 0.326734 0.696734
O O6 0.796407 0.395632 0.893834
O O7 0.880840 0.303079 0.895520
O O8 0.500000 0.327796 0.000000
O O9 0.500000 0.201776 0.500000
O O10 0.283514 0.253996 0.726897
O O11 0.750000 0.250000 0.500000
O O12 0.500000 0.075733 0.500000
O O13 0.473691 0.054440 0.341043
O O14 0.262265 0.000000 0.568102
O O15 0.842313 0.500000 0.879821
O O16 0.000000 0.711976 0.000000
#
# Coordination Sequence:
#
# PCOD9222273 Si02
#       6
#     8   8   8   8   8   8
#     4   9  18  35  62  87 121 166 219 264 316 385
#     4  11  26  44  65  98 135 175 219 268 332 392
#     4  12  26  45  72 100 129 170 216 274 327 395
#     4   9  17  29  51  86 122 155 206 272 325 371
#     4   9  19  37  61  89 125 172 220 264 318 384
#     4  11  25  43  64  93 135 173 212 268 329 393
#
# _framework density 21.428348
#
# number of rings (size 3 to 8) (size 9 to 14) (size 15 to 20)
#    0.000    1.833    1.667    1.500    7.000    5.667 
#    0.000    0.000    0.000   12.500    0.000    0.000 
#    0.000    0.000    0.000    0.000    0.000    0.000 
#
# Total GULP energy -134170.215424 kJ/mol
# GULP energy per Si atom -5590.425643 kJ/mol
# Density = 2.137958 g / cm^3
# Si number density = 21.428348 Si / 1000 Ang^3
#
#
#
# Elastic Constant Matrix: (Units=GPa)
#
#
# Indices 1 2 3 4 5 6 
#
# 1 171.0044 34.4867 44.3132 0.0000 -18.4714 0.0000
# 2 34.4867 111.1843 28.5909 0.0000 -6.7893 0.0000
# 3 44.3132 28.5909 69.2363 0.0000 -7.9964 0.0000
# 4 0.0000 0.0000 0.0000 9.2344 0.0000 0.9523
# 5 -18.4714 -6.7893 -7.9964 0.0000 39.8230 0.0000
# 6 0.0000 0.0000 0.0000 0.9523 0.0000 24.9395
#
#
#
# Elastic Compliance Matrix: (Units=1/GPa)
#
#
# Indices 1 2 3 4 5 6 
#
# 1 0.007364 -0.001114 -0.003973 0.000000 0.002428 0.000000
# 2 -0.001114 0.010263 -0.003463 0.000000 0.000538 0.000000
# 3 -0.003973 -0.003463 0.018565 0.000000 0.001295 0.000000
# 4 0.000000 0.000000 0.000000 0.108719 0.000000 -0.004151
# 5 0.002428 0.000538 0.001295 0.000000 0.026589 0.000000
# 6 0.000000 0.000000 0.000000 -0.004151 0.000000 0.040256
#
#
# Mechanical properties :
#
#
# Convention : Reuss Voigt Hill
#
# Bulk Modulus (GPa) = 52.37528 62.91184 57.64356
# Shear Modulus (GPa) = 21.25667 31.06832 26.16250
#
# Velocity S-wave (km/s) = 3.15300 3.81185 3.49797
# Velocity P-wave (km/s) = 6.14413 6.98545 6.57825
#
# Compressibility (1/GPa) = 0.01909298
#
# Stress axis : x y z
#
# Youngs Moduli (GPa) = 135.79029 97.43746 53.86349
#
# Poissons Ratio (x) = 0.10858 0.21399
# Poissons Ratio (y) = 0.15132 0.18652
# Poissons Ratio (z) = 0.53946 0.33740
#
# Static dielectric constant tensor:
#      x y z
#    x 1.823760 0.000000 0.009980 
#    y 0.000000 1.823810 0.000000 
#    z 0.009980 0.000000 1.746860 
# 
# From -- ./inp_files/200128.got.cif
#   From: 2010.05.17/outbox.cif.g08.bks.cpg/sg12_101_cif.got.tgz:200128.got - 2010.06.03 13:09:07.
