data_PCOD9222978
_publ_section_title
;
Structure prediction by ZEFSAII (Michael W. Deem and Ramdas Pophale) SiO2 
 PCOD9222978
Probable space group: C 2/M
;
_chemical_formula_sum "Si O2"
_cell_formula_units_Z 64
_cell_length_a 14.532143
_cell_length_b 7.453082
_cell_length_c 31.007912
_cell_angle_alpha 90.000000
_cell_angle_beta 62.606815
_cell_angle_gamma 90.000000
_cell_volume 2981.861888
_symmetry_space_group_name_H-M "C 2/M"
_symmetry_group_IT_number 12
_symmetry_cell_setting 'monoclinic'
loop_
_space_group_symop_operation_xyz
x,y,z
-x,y,-z
-x,-y,-z
x,-y,z
1/2+x,1/2+y,z
1/2-x,1/2+y,-z
1/2-x,1/2-y,-z
1/2+x,1/2-y,z
loop_
_atom_site_type_symbol
_atom_site_label
_atom_site_fract_x
_atom_site_fract_y
_atom_site_fract_z
Si Si1 0.217393 0.784760 0.132028
Si Si2 0.132288 0.214213 0.509479
Si Si3 0.189367 0.791028 0.406450
Si Si4 0.920047 0.217122 0.387614
Si Si5 0.507788 0.714549 0.134613
Si Si6 0.643487 0.280460 0.320660
Si Si7 0.442339 0.285535 0.054721
Si Si8 0.216799 0.715044 0.788011
O O1 0.112360 0.715113 0.133492
O O2 0.319471 0.747146 0.081958
O O3 0.239182 0.716194 0.175722
O O4 0.208287 0.000000 0.137294
O O5 0.250000 0.250000 0.500000
O O6 0.128512 0.285501 0.461403
O O7 0.067841 0.276857 0.564838
O O8 0.116597 0.000000 0.509784
O O9 0.311304 0.782963 0.392242
O O10 0.173806 0.717006 0.362073
O O11 0.158180 0.000000 0.410725
O O12 0.023180 0.268767 0.339902
O O13 0.913375 0.000000 0.389539
O O14 0.518749 0.500000 0.128457
O O15 0.485508 0.785060 0.091163
O O16 0.405475 0.747308 0.185022
O O17 0.648291 0.500000 0.319880
O O18 0.719932 0.217298 0.266754
O O19 0.457481 0.500000 0.052014
O O20 0.500000 0.214883 0.000000
O O21 0.228293 0.500000 0.785893
#
# Coordination Sequence:
#
# PCOD9222978 Si02
#       8
#     8   8   8   8   8   8   8   8
#     4   9  18  32  50  70  93 124 160 194 228 268
#     4   8  14  25  43  64  86 113 145 180 220 269
#     4   9  17  30  46  65  90 118 147 183 227 274
#     4   9  17  30  47  67  90 117 149 185 226 274
#     4   9  18  33  51  71  95 124 158 193 229 269
#     4   9  18  31  47  67  91 118 150 189 232 276
#     4   9  18  32  49  72 103 131 154 187 229 270
#     4   9  18  33  49  66  90 120 155 194 233 272
#
# _framework density 21.463099
#
# number of rings (size 3 to 8) (size 9 to 14) (size 15 to 20)
#    0.000    3.125    0.000    0.000    0.000    2.750 
#    0.000    5.625    0.000    0.000    0.000    8.750 
#    0.000    0.000    0.000    0.000    0.000    0.000 
#
# Total GULP energy -178505.384295 kJ/mol
# GULP energy per Si atom -5578.293259 kJ/mol
# Density = 2.141425 g / cm^3
# Si number density = 21.463099 Si / 1000 Ang^3
#
#
#
# Elastic Constant Matrix: (Units=GPa)
#
#
# Indices 1 2 3 4 5 6 
#
# 1 103.7218 -2.4154 75.7692 0.0000 -19.3141 0.0000
# 2 -2.4154 67.1283 2.4495 0.0000 3.3830 0.0000
# 3 75.7692 2.4495 161.2770 0.0000 -25.6786 0.0000
# 4 0.0000 0.0000 0.0000 6.4627 0.0000 -9.7109
# 5 -19.3141 3.3830 -25.6786 0.0000 16.0310 0.0000
# 6 0.0000 0.0000 0.0000 -9.7109 0.0000 -19.9486
#
#
#
# Elastic Compliance Matrix: (Units=1/GPa)
#
#
# Indices 1 2 3 4 5 6 
#
# 1 0.015699 0.000304 -0.005878 0.000000 0.009435 0.000000
# 2 0.000304 0.015181 -0.001108 0.000000 -0.004612 0.000000
# 3 -0.005878 -0.001108 0.010589 0.000000 0.010114 0.000000
# 4 0.000000 0.000000 0.000000 0.089366 0.000000 -0.043503
# 5 0.009435 -0.004612 0.010114 0.000000 0.090919 0.000000
# 6 0.000000 0.000000 0.000000 -0.043503 0.000000 -0.028952
#
#
# Mechanical properties :
#
#
# Convention : Reuss Voigt Hill
#
# Bulk Modulus (GPa) = 35.58028 53.74818 44.66423
# Shear Modulus (GPa) = 23.19822 17.59728 20.39775
#
# Velocity S-wave (km/s) = 3.29118 2.86647 3.08614
# Velocity P-wave (km/s) = 5.57278 6.00433 5.79258
#
# Compressibility (1/GPa) = 0.02810545
#
# Stress axis : x y z
#
# Youngs Moduli (GPa) = 63.69883 65.87348 94.43624
#
# Poissons Ratio (x) = -0.02002 0.55509
# Poissons Ratio (y) = -0.01936 0.10460
# Poissons Ratio (z) = 0.37442 0.07296
#
# Static dielectric constant tensor:
#      x y z
#    x 1.767460 0.000000 0.013170 
#    y 0.000000 1.844480 0.000000 
#    z 0.013170 0.000000 1.772920 
# 
# From -- ./inp_files/359855.got.cif
#   From: 2010.05.17/outbox.cif.g08.bks.cpg/sg12_180_cif.got.tgz:359855.got - 2010.06.03 13:09:07.
