data_PCOD9222768
_publ_section_title
;
Structure prediction by ZEFSAII (Michael W. Deem and Ramdas Pophale) SiO2 
 PCOD9222768
Probable space group: C 2/M
;
_chemical_formula_sum "Si O2"
_cell_formula_units_Z 48
_cell_length_a 25.291328
_cell_length_b 8.683967
_cell_length_c 11.224690
_cell_angle_alpha 90.000000
_cell_angle_beta 107.715852
_cell_angle_gamma 90.000000
_cell_volume 2348.358488
_symmetry_space_group_name_H-M "C 2/M"
_symmetry_group_IT_number 12
_symmetry_cell_setting 'monoclinic'
loop_
_space_group_symop_operation_xyz
x,y,z
-x,y,-z
-x,-y,-z
x,-y,z
1/2+x,1/2+y,z
1/2-x,1/2+y,-z
1/2-x,1/2-y,-z
1/2+x,1/2-y,z
loop_
_atom_site_type_symbol
_atom_site_label
_atom_site_fract_x
_atom_site_fract_y
_atom_site_fract_z
Si Si1 0.716416 0.184169 0.864069
Si Si2 0.385501 0.314224 0.083333
Si Si3 0.087163 0.185364 0.508328
Si Si4 0.323508 0.314595 0.799120
Si Si5 0.017976 0.186489 0.698699
Si Si6 0.811521 0.681275 0.542246
O O1 0.656570 0.258499 0.842073
O O2 0.758744 0.219481 0.786027
O O3 0.711639 0.000000 0.867801
O O4 0.750000 0.250000 0.000000
O O5 0.383954 0.500000 0.082063
O O6 0.447276 0.262446 0.162178
O O7 0.360993 0.265951 0.938297
O O8 0.055991 0.223566 0.609806
O O9 0.147129 0.256953 0.530352
O O10 0.044029 0.238349 0.375159
O O11 0.092306 0.000000 0.506862
O O12 0.328567 0.500000 0.789710
O O13 0.337580 0.232912 0.686400
O O14 0.014849 0.000000 0.701865
O O15 0.807270 0.500000 0.529360
O O16 0.750000 0.750000 0.500000
#
# Coordination Sequence:
#
# PCOD9222768 Si02
#       6
#     8   8   8   8   8   8
#     4   9  17  29  47  74 108 143 179 223 270 320
#     4   9  17  31  54  84 113 143 183 227 274 328
#     4   9  18  37  61  86 115 146 185 228 271 328
#     4   9  19  35  52  76 112 147 186 230 272 328
#     4   8  16  33  61  90 114 144 182 225 275 330
#     4  12  26  41  58  79 109 148 190 231 280 337
#
# _framework density 20.439810000000001
#
# number of rings (size 3 to 8) (size 9 to 14) (size 15 to 20)
#    0.000    2.667    0.000    4.000    2.333    3.333 
#    0.000    3.333    0.000    5.000    0.000    0.000 
#    0.000    0.000    0.000    0.000    0.000    0.000 
#
# Total GULP energy -133821.874970 kJ/mol
# GULP energy per Si atom -5575.911457 kJ/mol
# Density = 2.039329 g / cm^3
# Si number density = 20.439810 Si / 1000 Ang^3
#
#
#
# Elastic Constant Matrix: (Units=GPa)
#
#
# Indices 1 2 3 4 5 6 
#
# 1 85.8458 22.5397 24.4592 0.0000 15.5590 0.0000
# 2 22.5397 25.9286 15.4977 0.0000 -3.5646 0.0000
# 3 24.4592 15.4977 72.8045 0.0000 20.6796 0.0000
# 4 0.0000 0.0000 0.0000 14.6443 0.0000 -7.0220
# 5 15.5590 -3.5646 20.6796 0.0000 37.0417 0.0000
# 6 0.0000 0.0000 0.0000 -7.0220 0.0000 24.0029
#
#
#
# Elastic Compliance Matrix: (Units=1/GPa)
#
#
# Indices 1 2 3 4 5 6 
#
# 1 0.017631 -0.016724 0.000235 0.000000 -0.009146 0.000000
# 2 -0.016724 0.064423 -0.014085 0.000000 0.021088 0.000000
# 3 0.000235 -0.014085 0.020284 0.000000 -0.012778 0.000000
# 4 0.000000 0.000000 0.000000 0.079428 0.000000 0.023236
# 5 -0.009146 0.021088 -0.012778 0.000000 0.040001 0.000000
# 6 0.000000 0.000000 0.000000 0.023236 0.000000 0.048459
#
#
# Mechanical properties :
#
#
# Convention : Reuss Voigt Hill
#
# Bulk Modulus (GPa) = 24.27774 34.39693 29.33734
# Shear Modulus (GPa) = 14.48833 23.27659 18.88246
#
# Velocity S-wave (km/s) = 2.66527 3.37825 3.04272
# Velocity P-wave (km/s) = 4.62331 5.66407 5.16995
#
# Compressibility (1/GPa) = 0.04118999
#
# Stress axis : x y z
#
# Youngs Moduli (GPa) = 56.71946 15.52234 49.29904
#
# Poissons Ratio (x) = 0.25960 -0.01157
# Poissons Ratio (y) = 0.94857 0.69437
# Poissons Ratio (z) = -0.01331 0.21863
#
# Static dielectric constant tensor:
#      x y z
#    x 1.744870 0.000000 0.012880 
#    y 0.000000 1.684570 0.000000 
#    z 0.012880 0.000000 1.790110 
# 
# From -- ./inp_files/173082.got.cif
#   From: 2010.05.17/outbox.cif.g08.bks.cpg/sg12_87_cif.got.tgz:173082.got - 2010.06.03 13:09:07.
