data_PCOD9222218
_publ_section_title
;
Structure prediction by ZEFSAII (Michael W. Deem and Ramdas Pophale) SiO2 
 PCOD9222218
Probable space group: C 2/M
;
_chemical_formula_sum "Si O2"
_cell_formula_units_Z 56
_cell_length_a 12.497243
_cell_length_b 24.780854
_cell_length_c 10.563932
_cell_angle_alpha 90.000000
_cell_angle_beta 118.243463
_cell_angle_gamma 90.000000
_cell_volume 2882.071458
_symmetry_space_group_name_H-M "C 2/M"
_symmetry_group_IT_number 12
_symmetry_cell_setting 'monoclinic'
loop_
_space_group_symop_operation_xyz
x,y,z
-x,y,-z
-x,-y,-z
x,-y,z
1/2+x,1/2+y,z
1/2-x,1/2+y,-z
1/2-x,1/2-y,-z
1/2+x,1/2-y,z
loop_
_atom_site_type_symbol
_atom_site_label
_atom_site_fract_x
_atom_site_fract_y
_atom_site_fract_z
Si Si1 0.240991 0.622195 0.541605
Si Si2 0.641144 0.438302 0.621445
Si Si3 0.027253 0.322322 0.321499
Si Si4 0.756267 0.154843 0.821466
Si Si5 0.947694 0.799835 0.603659
Si Si6 0.867094 0.273705 0.868250
Si Si7 0.163493 0.147978 0.859803
O O1 0.286665 0.579470 0.464602
O O2 0.100260 0.634027 0.442159
O O3 0.269005 0.616726 0.705737
O O4 0.314450 0.676725 0.544191
O O5 0.500000 0.436046 0.500000
O O6 0.669833 0.500000 0.671454
O O7 0.668248 0.399290 0.756684
O O8 0.041076 0.263807 0.391501
O O9 0.099840 0.311662 0.232048
O O10 0.886846 0.337039 0.229224
O O11 0.807555 0.214794 0.815272
O O12 0.821414 0.133572 0.984661
O O13 0.000000 0.819956 0.500000
O O14 0.035416 0.822674 0.761512
O O15 0.769484 0.308023 0.892995
O O16 0.000000 0.263930 0.000000
#
# Coordination Sequence:
#
# PCOD9222218 Si02
#       7
#     8   8   8   8   8   8   8
#     4  12  23  39  61  89 125 168 208 266 312 365
#     4  11  24  46  73  95 116 158 218 274 322 369
#     4  12  23  37  56  89 137 175 215 245 297 384
#     4  12  26  36  58  95 134 173 208 251 314 377
#     4  12  20  35  58  90 126 169 208 244 301 378
#     4  12  22  36  57  88 134 183 209 245 303 383
#     4  12  22  40  61  91 132 160 210 262 307 376
#
# _framework density 19.430468999999999
#
# number of rings (size 3 to 8) (size 9 to 14) (size 15 to 20)
#    0.000    0.143    8.571    3.000    0.000    0.000 
#    0.000    0.714    0.000    7.286    0.000    0.000 
#    0.000    0.000    0.000    0.000    0.000    0.000 
#
# Total GULP energy -156378.036105 kJ/mol
# GULP energy per Si atom -5584.929861 kJ/mol
# Density = 1.938624 g / cm^3
# Si number density = 19.430469 Si / 1000 Ang^3
#
#
#
# Elastic Constant Matrix: (Units=GPa)
#
#
# Indices 1 2 3 4 5 6 
#
# 1 71.0843 13.3910 44.3097 0.0000 7.3406 0.0000
# 2 13.3910 67.6911 -3.6522 0.0000 0.4335 0.0000
# 3 44.3097 -3.6522 55.0693 0.0000 2.2422 0.0000
# 4 0.0000 0.0000 0.0000 -3.9619 0.0000 4.1778
# 5 7.3406 0.4335 2.2422 0.0000 46.6401 0.0000
# 6 0.0000 0.0000 0.0000 4.1778 0.0000 -5.2622
#
#
#
# Elastic Compliance Matrix: (Units=1/GPa)
#
#
# Indices 1 2 3 4 5 6 
#
# 1 0.032412 -0.007815 -0.026444 0.000000 -0.003757 0.000000
# 2 -0.007815 0.016712 0.007367 0.000000 0.000720 0.000000
# 3 -0.026444 0.007367 0.039836 0.000000 0.002178 0.000000
# 4 0.000000 0.000000 0.000000 -1.550325 0.000000 -1.230845
# 5 -0.003757 0.000720 0.002178 0.000000 0.021921 0.000000
# 6 0.000000 0.000000 0.000000 -1.230845 0.000000 -1.167238
#
#
# Mechanical properties :
#
#
# Convention : Reuss Voigt Hill
#
# Bulk Modulus (GPa) = 28.42886 33.54907 30.98897
# Shear Modulus (GPa) = -1.96759 16.80298 7.41769
#
# Velocity S-wave (km/s) = -1.00739 2.94390 1.95598
# Velocity P-wave (km/s) = 3.64825 5.37206 4.59177
#
# Compressibility (1/GPa) = 0.03517552
#
# Stress axis : x y z
#
# Youngs Moduli (GPa) = 30.85313 59.83811 25.10279
#
# Poissons Ratio (x) = 0.46761 0.66382
# Poissons Ratio (y) = 0.24110 -0.18492
# Poissons Ratio (z) = 0.81589 -0.44081
#
# Static dielectric constant tensor:
#      x y z
#    x 1.681450 0.000000 -0.064740 
#    y 0.000000 1.646110 0.000000 
#    z -0.064740 0.000000 1.756930 
# 
# From -- ./inp_files/135490.got.cif
#   From: 2010.05.17/outbox.cif.g08.bks.cpg/sg12_68_cif.got.tgz:135490.got - 2010.06.03 13:09:07.
