data_PCOD9222632
_publ_section_title
;
Structure prediction by ZEFSAII (Michael W. Deem and Ramdas Pophale) SiO2 
 PCOD9222632
Probable space group: C 2/M
;
_chemical_formula_sum "Si O2"
_cell_formula_units_Z 56
_cell_length_a 7.812631
_cell_length_b 29.008072
_cell_length_c 11.175821
_cell_angle_alpha 90.000000
_cell_angle_beta 69.575282
_cell_angle_gamma 90.000000
_cell_volume 2373.537852
_symmetry_space_group_name_H-M "C 2/M"
_symmetry_group_IT_number 12
_symmetry_cell_setting 'monoclinic'
loop_
_space_group_symop_operation_xyz
x,y,z
-x,y,-z
-x,-y,-z
x,-y,z
1/2+x,1/2+y,z
1/2-x,1/2+y,-z
1/2-x,1/2-y,-z
1/2+x,1/2-y,z
loop_
_atom_site_type_symbol
_atom_site_label
_atom_site_fract_x
_atom_site_fract_y
_atom_site_fract_z
Si Si1 0.303064 0.818918 0.150366
Si Si2 0.675486 0.223072 0.161417
Si Si3 0.611479 0.050630 0.147927
Si Si4 0.699682 0.206922 0.425939
Si Si5 0.197975 0.051564 0.163439
Si Si6 0.298406 0.632225 0.060282
Si Si7 0.015178 0.129708 0.359552
O O1 0.494973 0.799468 0.148910
O O2 0.210482 0.774659 0.111361
O O3 0.193666 0.839063 0.288636
O O4 0.292911 0.857321 0.047828
O O5 0.670374 0.229651 0.304040
O O6 0.821122 0.182483 0.111805
O O7 0.394191 0.054373 0.183611
O O8 0.680022 0.099944 0.176598
O O9 0.650044 0.000000 0.191635
O O10 0.725438 0.052001 0.993370
O O11 0.500000 0.186470 0.500000
O O12 0.750000 0.250000 0.500000
O O13 0.849496 0.166241 0.384741
O O14 0.054740 0.087781 0.256304
O O15 0.122135 0.000000 0.198118
O O16 0.500000 0.612531 0.000000
O O17 0.000000 0.112884 0.500000
#
# Coordination Sequence:
#
# PCOD9222632 Si02
#       7
#     8   8   8   8   8   8   8
#     4  12  24  42  60  91 130 173 221 274 334 408
#     4  12  25  40  63  87 127 176 223 278 337 394
#     4   9  19  39  68  97 134 178 224 283 343 413
#     4  12  25  44  65  93 133 178 232 285 331 401
#     4   9  19  38  66  98 131 173 225 278 341 408
#     4  12  24  38  61  95 135 170 219 274 343 407
#     4  12  23  38  67  97 132 176 227 278 338 403
#
# _framework density 23.593472999999999
#
# number of rings (size 3 to 8) (size 9 to 14) (size 15 to 20)
#    0.000    0.857    1.429    9.000    2.000    0.571 
#    0.000    0.000    0.000    0.429    0.000    0.000 
#    0.000    0.000    0.000    0.000    0.000    0.000 
#
# Total GULP energy -156251.751452 kJ/mol
# GULP energy per Si atom -5580.419695 kJ/mol
# Density = 2.353977 g / cm^3
# Si number density = 23.593473 Si / 1000 Ang^3
#
#
#
# Elastic Constant Matrix: (Units=GPa)
#
#
# Indices 1 2 3 4 5 6 
#
# 1 116.3486 32.9063 18.9139 0.0000 -12.3104 0.0000
# 2 32.9063 149.3521 22.2521 0.0000 -15.1755 0.0000
# 3 18.9139 22.2521 82.8342 0.0000 0.0415 0.0000
# 4 0.0000 0.0000 0.0000 25.3856 0.0000 -19.1251
# 5 -12.3104 -15.1755 0.0415 0.0000 38.6392 0.0000
# 6 0.0000 0.0000 0.0000 -19.1251 0.0000 27.0453
#
#
#
# Elastic Compliance Matrix: (Units=1/GPa)
#
#
# Indices 1 2 3 4 5 6 
#
# 1 0.009592 -0.001604 -0.001760 0.000000 0.002428 0.000000
# 2 -0.001604 0.007546 -0.001662 0.000000 0.002454 0.000000
# 3 -0.001760 -0.001662 0.012921 0.000000 -0.001227 0.000000
# 4 0.000000 0.000000 0.000000 0.084308 0.000000 0.059619
# 5 0.002428 0.002454 -0.001227 0.000000 0.027619 0.000000
# 6 0.000000 0.000000 0.000000 0.059619 0.000000 0.079135
#
#
# Mechanical properties :
#
#
# Convention : Reuss Voigt Hill
#
# Bulk Modulus (GPa) = 49.98593 55.18660 52.58627
# Shear Modulus (GPa) = 21.02226 36.51152 28.76689
#
# Velocity S-wave (km/s) = 2.98823 3.93813 3.49560
# Velocity P-wave (km/s) = 5.75660 6.64228 6.21523
#
# Compressibility (1/GPa) = 0.02000563
#
# Stress axis : x y z
#
# Youngs Moduli (GPa) = 104.25750 132.51914 77.39132
#
# Poissons Ratio (x) = 0.21261 0.13623
# Poissons Ratio (y) = 0.16727 0.12863
# Poissons Ratio (z) = 0.18353 0.22025
#
# Static dielectric constant tensor:
#      x y z
#    x 1.971300 0.000000 -0.025940 
#    y 0.000000 2.097710 0.000000 
#    z -0.025940 0.000000 2.034520 
# 
# From -- ./inp_files/125169.got.cif
#   From: 2010.05.17/outbox.cif.g08.bks.cpg/sg12_63_cif.got.tgz:125169.got - 2010.06.03 13:09:07.
