data_PCOD9222424
_publ_section_title
;
Structure prediction by ZEFSAII (Michael W. Deem and Ramdas Pophale) SiO2 
 PCOD9222424
Probable space group: C 2/M
;
_chemical_formula_sum "Si O2"
_cell_formula_units_Z 28
_cell_length_a 18.612094
_cell_length_b 13.444489
_cell_length_c 5.039692
_cell_angle_alpha 90.000000
_cell_angle_beta 71.688151
_cell_angle_gamma 90.000000
_cell_volume 1197.222034
_symmetry_space_group_name_H-M "C 2/M"
_symmetry_group_IT_number 12
_symmetry_cell_setting 'monoclinic'
loop_
_space_group_symop_operation_xyz
x,y,z
-x,y,-z
-x,-y,-z
x,-y,z
1/2+x,1/2+y,z
1/2-x,1/2+y,-z
1/2-x,1/2-y,-z
1/2+x,1/2-y,z
loop_
_atom_site_type_symbol
_atom_site_label
_atom_site_fract_x
_atom_site_fract_y
_atom_site_fract_z
Si Si1 0.000000 0.253808 0.500000
Si Si2 0.712135 0.613642 0.063509
Si Si3 0.137719 0.789130 0.639830
Si Si4 0.116403 0.614144 0.027409
O O1 0.054230 0.188915 0.623874
O O2 0.054018 0.323627 0.259247
O O3 0.691062 0.500000 0.151723
O O4 0.692968 0.682734 0.336329
O O5 0.665981 0.651793 0.864242
O O6 0.802403 0.614765 0.920510
O O7 0.131350 0.674466 0.738896
O O8 0.093968 0.500000 0.010871
#
# Coordination Sequence:
#
# PCOD9222424 Si02
#       4
#     4   8   8   8
#     4  12  27  44  73 104 158 188 233 284 373 424
#     4  11  26  48  78 107 138 188 248 299 350 416
#     4  12  25  49  72 108 146 189 237 297 357 424
#     4  11  26  46  76 110 145 187 237 297 363 428
#
# _framework density 23.387474999999998
#
# number of rings (size 3 to 8) (size 9 to 14) (size 15 to 20)
#    0.000    0.571    2.857    3.857    4.000    3.429 
#    0.000    4.286    0.000    0.000    0.000    0.000 
#    0.000    0.000    0.000    0.000    0.000    0.000 
#
# Total GULP energy -78414.491320 kJ/mol
# GULP energy per Si atom -5601.035094 kJ/mol
# Density = 2.333424 g / cm^3
# Si number density = 23.387475 Si / 1000 Ang^3
#
#
#
# Elastic Constant Matrix: (Units=GPa)
#
#
# Indices 1 2 3 4 5 6 
#
# 1 141.6261 2.0130 39.7101 0.0000 -2.5810 0.0000
# 2 2.0130 76.1758 33.9471 0.0000 -15.6554 0.0000
# 3 39.7101 33.9471 135.0691 0.0000 -6.5893 0.0000
# 4 0.0000 0.0000 0.0000 10.3377 0.0000 -2.4243
# 5 -2.5810 -15.6554 -6.5893 0.0000 45.4453 0.0000
# 6 0.0000 0.0000 0.0000 -2.4243 0.0000 21.1347
#
#
#
# Elastic Compliance Matrix: (Units=1/GPa)
#
#
# Indices 1 2 3 4 5 6 
#
# 1 0.007759 0.001001 -0.002512 0.000000 0.000421 0.000000
# 2 0.001001 0.015927 -0.004055 0.000000 0.004955 0.000000
# 3 -0.002512 -0.004055 0.009151 0.000000 -0.000213 0.000000
# 4 0.000000 0.000000 0.000000 0.099407 0.000000 0.011403
# 5 0.000421 0.004955 -0.000213 0.000000 0.023705 0.000000
# 6 0.000000 0.000000 0.000000 0.011403 0.000000 0.048624
#
#
# Mechanical properties :
#
#
# Convention : Reuss Voigt Hill
#
# Bulk Modulus (GPa) = 46.07557 56.02350 51.04954
# Shear Modulus (GPa) = 22.42762 33.86360 28.14561
#
# Velocity S-wave (km/s) = 3.10007 3.80931 3.47284
# Velocity P-wave (km/s) = 5.70593 6.58439 6.16084
#
# Compressibility (1/GPa) = 0.02170347
#
# Stress axis : x y z
#
# Youngs Moduli (GPa) = 128.88846 62.78739 109.27723
#
# Poissons Ratio (x) = -0.06285 0.27451
# Poissons Ratio (y) = -0.12902 0.44317
# Poissons Ratio (z) = 0.32378 0.25463
#
# Static dielectric constant tensor:
#      x y z
#    x 1.917010 0.000000 0.013320 
#    y 0.000000 1.861760 0.000000 
#    z 0.013320 0.000000 1.880790 
# 
# From -- ./inp_files/14105.got.cif
#   From: 2010.05.17/outbox.cif.g08.bks.cpg/sg12_8_cif.got.tgz:14105.got - 2010.06.03 13:09:07.
