data_PCOD9222993
_publ_section_title
;
Structure prediction by ZEFSAII (Michael W. Deem and Ramdas Pophale) SiO2 
 PCOD9222993
Probable space group: C 2/M
;
_chemical_formula_sum "Si O2"
_cell_formula_units_Z 48
_cell_length_a 13.215288
_cell_length_b 32.034670
_cell_length_c 7.134995
_cell_angle_alpha 90.000000
_cell_angle_beta 47.479305
_cell_angle_gamma 90.000000
_cell_volume 2226.269063
_symmetry_space_group_name_H-M "C 2/M"
_symmetry_group_IT_number 12
_symmetry_cell_setting 'monoclinic'
loop_
_space_group_symop_operation_xyz
x,y,z
-x,y,-z
-x,-y,-z
x,-y,z
1/2+x,1/2+y,z
1/2-x,1/2+y,-z
1/2-x,1/2-y,-z
1/2+x,1/2-y,z
loop_
_atom_site_type_symbol
_atom_site_label
_atom_site_fract_x
_atom_site_fract_y
_atom_site_fract_z
Si Si1 0.683757 0.452706 0.951110
Si Si2 0.373278 0.546767 0.428639
Si Si3 0.837635 0.628048 0.684933
Si Si4 0.657677 0.112853 0.763548
Si Si5 0.662527 0.781284 0.344538
Si Si6 0.659488 0.792874 0.792182
O O1 0.733623 0.500000 0.933466
O O2 0.658268 0.453050 0.756537
O O3 0.778515 0.412356 0.863089
O O4 0.536113 0.445648 0.232241
O O5 0.346063 0.500000 0.530241
O O6 0.273772 0.578776 0.657196
O O7 0.819006 0.621000 0.486723
O O8 0.787096 0.674435 0.802730
O O9 0.000000 0.629393 0.500000
O O10 0.673180 0.158752 0.833532
O O11 0.500000 0.099246 0.000000
O O12 0.500000 0.776207 0.500000
O O13 0.686611 0.789116 0.536508
O O14 0.747865 0.739051 0.207066
O O15 0.500000 0.780970 0.000000
#
# Coordination Sequence:
#
# PCOD9222993 Si02
#       6
#     8   8   8   8   8   8
#     4   8  14  26  44  69  96 120 150 194 238 276
#     4   8  14  26  45  69  94 119 155 196 233 275
#     4   9  17  30  47  70  95 122 155 196 238 279
#     4   9  17  30  49  66  94 127 156 192 234 284
#     4   9  18  33  49  70  98 125 162 204 240 284
#     4   9  18  33  49  69  97 129 161 198 244 287
#
# _framework density 21.560738000000001
#
# number of rings (size 3 to 8) (size 9 to 14) (size 15 to 20)
#    0.000    3.333    0.000    1.000    0.000    1.333 
#   12.000    0.000    0.000    0.000    0.000    2.333 
#    0.000    0.000    0.000    0.000    0.000    0.000 
#
# Total GULP energy -133797.600969 kJ/mol
# GULP energy per Si atom -5574.900040 kJ/mol
# Density = 2.151166 g / cm^3
# Si number density = 21.560738 Si / 1000 Ang^3
#
#
#
# Elastic Constant Matrix: (Units=GPa)
#
#
# Indices 1 2 3 4 5 6 
#
# 1 66.1059 38.9943 17.8965 0.0000 6.9722 0.0000
# 2 38.9943 197.9383 91.3683 0.0000 -44.9321 0.0000
# 3 17.8965 91.3683 84.1826 0.0000 -8.4963 0.0000
# 4 0.0000 0.0000 0.0000 49.4844 0.0000 -32.0573
# 5 6.9722 -44.9321 -8.4963 0.0000 39.2949 0.0000
# 6 0.0000 0.0000 0.0000 -32.0573 0.0000 38.8249
#
#
#
# Elastic Compliance Matrix: (Units=1/GPa)
#
#
# Indices 1 2 3 4 5 6 
#
# 1 0.020586 -0.008701 0.003777 0.000000 -0.012786 0.000000
# 2 -0.008701 0.018923 -0.016714 0.000000 0.019568 0.000000
# 3 0.003777 -0.016714 0.027827 0.000000 -0.013765 0.000000
# 4 0.000000 0.000000 0.000000 0.043450 0.000000 0.035876
# 5 -0.012786 0.019568 -0.013765 0.000000 0.047116 0.000000
# 6 0.000000 0.000000 0.000000 0.035876 0.000000 0.055379
#
#
# Mechanical properties :
#
#
# Convention : Reuss Voigt Hill
#
# Bulk Modulus (GPa) = 41.56168 71.63836 56.60002
# Shear Modulus (GPa) = 18.89804 38.85202 28.87503
#
# Velocity S-wave (km/s) = 2.96379 4.24958 3.66353
# Velocity P-wave (km/s) = 5.57050 7.57476 6.64859
#
# Compressibility (1/GPa) = 0.02406062
#
# Stress axis : x y z
#
# Youngs Moduli (GPa) = 48.57695 52.84469 35.93615
#
# Poissons Ratio (x) = 0.45983 -0.13575
# Poissons Ratio (y) = 0.42269 0.60063
# Poissons Ratio (z) = -0.18350 0.88324
#
# Static dielectric constant tensor:
#      x y z
#    x 1.723850 0.000000 0.032060 
#    y 0.000000 1.818660 0.000000 
#    z 0.032060 0.000000 1.755700 
# 
# From -- ./inp_files/160959.got.cif
#   From: 2010.05.17/outbox.cif.g08.bks.cpg/sg12_81_cif.got.tgz:160959.got - 2010.06.03 13:09:07.
