data_PCOD9222403
_publ_section_title
;
Structure prediction by ZEFSAII (Michael W. Deem and Ramdas Pophale) SiO2 
 PCOD9222403
Probable space group: C 2/M
;
_chemical_formula_sum "Si O2"
_cell_formula_units_Z 40
_cell_length_a 22.048034
_cell_length_b 15.451774
_cell_length_c 9.461720
_cell_angle_alpha 90.000000
_cell_angle_beta 148.498419
_cell_angle_gamma 90.000000
_cell_volume 1684.313642
_symmetry_space_group_name_H-M "C 2/M"
_symmetry_group_IT_number 12
_symmetry_cell_setting 'monoclinic'
loop_
_space_group_symop_operation_xyz
x,y,z
-x,y,-z
-x,-y,-z
x,-y,z
1/2+x,1/2+y,z
1/2-x,1/2+y,-z
1/2-x,1/2-y,-z
1/2+x,1/2-y,z
loop_
_atom_site_type_symbol
_atom_site_label
_atom_site_fract_x
_atom_site_fract_y
_atom_site_fract_z
Si Si1 0.620044 0.600916 0.155467
Si Si2 0.671894 0.899762 0.268044
Si Si3 0.957676 0.401082 0.688577
Si Si4 0.976183 0.903153 0.619145
Si Si5 0.371595 0.757127 0.324001
O O1 0.656844 0.500000 0.214413
O O2 0.712250 0.644060 0.442673
O O3 0.500000 0.605025 0.000000
O O4 0.587151 0.627825 0.931150
O O5 0.601381 0.903874 0.275482
O O6 0.692964 0.000000 0.264483
O O7 0.586485 0.863163 0.978141
O O8 0.967024 0.500000 0.655313
O O9 0.880503 0.342988 0.434605
O O10 0.880056 0.829559 0.436197
O O11 0.000000 0.912260 0.500000
O O12 0.945455 0.000000 0.610553
O O13 0.500000 0.758871 0.500000
O O14 0.250000 0.750000 0.000000
#
# Coordination Sequence:
#
# PCOD9222403 Si02
#       5
#     8   8   8   8   8
#     4   9  17  31  56  90 122 151 198 265 315 361
#     4   8  16  33  61  91 117 154 205 252 308 380
#     4   9  19  38  64  91 122 162 204 253 312 373
#     4   9  20  39  61  85 119 167 211 252 313 381
#     4  11  26  43  61  90 127 161 212 262 304 371
#
# _framework density 23.748546000000001
#
# number of rings (size 3 to 8) (size 9 to 14) (size 15 to 20)
#    0.000    2.800    0.000    1.200    5.600    2.800 
#    3.600    3.000    0.000    0.000    0.000    0.000 
#    0.000    0.000    0.000    0.000    0.000    0.000 
#
# Total GULP energy -111374.762415 kJ/mol
# GULP energy per Si atom -5568.738121 kJ/mol
# Density = 2.369449 g / cm^3
# Si number density = 23.748546 Si / 1000 Ang^3
#
#
#
# Elastic Constant Matrix: (Units=GPa)
#
#
# Indices 1 2 3 4 5 6 
#
# 1 51.0604 0.0520 38.3813 0.0000 -4.8210 0.0000
# 2 0.0520 103.4425 72.6995 0.0000 -5.4359 0.0000
# 3 38.3813 72.6995 279.1266 0.0000 3.9789 0.0000
# 4 0.0000 0.0000 0.0000 26.8956 0.0000 2.7236
# 5 -4.8210 -5.4359 3.9789 0.0000 32.1369 0.0000
# 6 0.0000 0.0000 0.0000 2.7236 0.0000 -5.5384
#
#
#
# Elastic Compliance Matrix: (Units=1/GPa)
#
#
# Indices 1 2 3 4 5 6 
#
# 1 0.023029 0.003052 -0.004025 0.000000 0.004469 0.000000
# 2 0.003052 0.012424 -0.003698 0.000000 0.003017 0.000000
# 3 -0.004025 -0.003698 0.005126 0.000000 -0.001864 0.000000
# 4 0.000000 0.000000 0.000000 0.035417 0.000000 0.017417
# 5 0.004469 0.003017 -0.001864 0.000000 0.032529 0.000000
# 6 0.000000 0.000000 0.000000 0.017417 0.000000 -0.171993
#
#
# Mechanical properties :
#
#
# Convention : Reuss Voigt Hill
#
# Bulk Modulus (GPa) = 32.01457 72.87726 52.44591
# Shear Modulus (GPa) = -114.38202 32.19858 -41.09172
#
# Velocity S-wave (km/s) = -6.94754 3.68613 -4.16418
# Velocity P-wave (km/s) = 7.13077 6.99074 0.99436
#
# Compressibility (1/GPa) = 0.03123578
#
# Stress axis : x y z
#
# Youngs Moduli (GPa) = 43.42289 80.49257 195.08550
#
# Poissons Ratio (x) = -0.24569 0.78529
# Poissons Ratio (y) = -0.13254 0.72152
# Poissons Ratio (z) = 0.17479 0.29770
#
# Static dielectric constant tensor:
#      x y z
#    x 1.984720 0.000000 0.043720 
#    y 0.000000 1.977620 0.000000 
#    z 0.043720 0.000000 1.995110 
# 
# From -- ./inp_files/98323.got.cif
#   From: 2010.05.17/outbox.cif.g08.bks.cpg/sg12_50_cif.got.tgz:98323.got - 2010.06.03 13:09:07.
