data_PCOD9222498
_publ_section_title
;
Structure prediction by ZEFSAII (Michael W. Deem and Ramdas Pophale) SiO2 
 PCOD9222498
Probable space group: C 2/M
;
_chemical_formula_sum "Si O2"
_cell_formula_units_Z 40
_cell_length_a 13.091950
_cell_length_b 18.758200
_cell_length_c 9.502573
_cell_angle_alpha 90.000000
_cell_angle_beta 133.795258
_cell_angle_gamma 90.000000
_cell_volume 1684.473285
_symmetry_space_group_name_H-M "C 2/M"
_symmetry_group_IT_number 12
_symmetry_cell_setting 'monoclinic'
loop_
_space_group_symop_operation_xyz
x,y,z
-x,y,-z
-x,-y,-z
x,-y,z
1/2+x,1/2+y,z
1/2-x,1/2+y,-z
1/2-x,1/2-y,-z
1/2+x,1/2-y,z
loop_
_atom_site_type_symbol
_atom_site_label
_atom_site_fract_x
_atom_site_fract_y
_atom_site_fract_z
Si Si1 0.987380 0.196361 0.722873
Si Si2 0.923815 0.348844 0.108160
Si Si3 0.948742 0.500000 0.786563
Si Si4 0.329646 0.000000 0.392661
Si Si5 0.192694 0.858248 0.130723
Si Si6 0.273657 0.295926 0.295789
O O1 0.987521 0.277729 0.777940
O O2 0.103580 0.197565 0.706881
O O3 0.842383 0.178923 0.505893
O O4 0.042663 0.146365 0.902431
O O5 0.989776 0.424249 0.200296
O O6 0.798629 0.344594 0.101675
O O7 0.851534 0.343826 0.885935
O O8 0.815829 0.500000 0.550645
O O9 0.000000 0.500000 0.000000
O O10 0.500000 0.000000 0.500000
O O11 0.248226 0.069864 0.255409
O O12 0.221602 0.786198 0.247677
#
# Coordination Sequence:
#
# PCOD9222498 Si02
#       6
#     8   8   4   4   8   8
#     4   8  14  25  45  72 100 121 156 196 242 288
#     4   9  16  29  45  69  98 127 162 196 237 288
#     4  12  24  34  47  69 101 133 162 198 242 289
#     4  12  20  30  51  69  95 125 158 206 248 278
#     4   9  16  26  46  76  96 122 158 199 240 289
#     4   8  14  24  45  71 101 126 150 197 247 283
#
# _framework density 23.746293999999999
#
# number of rings (size 3 to 8) (size 9 to 14) (size 15 to 20)
#    0.000    2.800    2.000    3.600    2.800    0.000 
#    0.000    1.000    0.000   15.600    0.000    1.400 
#    0.000    0.000    0.000    0.000    0.000    0.000 
#
# Total GULP energy -111556.599886 kJ/mol
# GULP energy per Si atom -5577.829994 kJ/mol
# Density = 2.369225 g / cm^3
# Si number density = 23.746294 Si / 1000 Ang^3
#
#
#
# Elastic Constant Matrix: (Units=GPa)
#
#
# Indices 1 2 3 4 5 6 
#
# 1 49.1521 14.4105 33.9767 0.0000 -1.0557 0.0000
# 2 14.4105 126.7531 69.9537 0.0000 22.3161 0.0000
# 3 33.9767 69.9537 232.5556 0.0000 11.0736 0.0000
# 4 0.0000 0.0000 0.0000 13.9931 0.0000 15.5509
# 5 -1.0557 22.3161 11.0736 0.0000 44.7322 0.0000
# 6 0.0000 0.0000 0.0000 15.5509 0.0000 14.9692
#
#
#
# Elastic Compliance Matrix: (Units=1/GPa)
#
#
# Indices 1 2 3 4 5 6 
#
# 1 0.022865 -0.001251 -0.003056 0.000000 0.001920 0.000000
# 2 -0.001251 0.010319 -0.002707 0.000000 -0.004507 0.000000
# 3 -0.003056 -0.002707 0.005565 0.000000 -0.000100 0.000000
# 4 0.000000 0.000000 0.000000 -0.462533 0.000000 0.480506
# 5 0.001920 -0.004507 -0.000100 0.000000 0.024674 0.000000
# 6 0.000000 0.000000 0.000000 0.480506 0.000000 -0.432373
#
#
# Mechanical properties :
#
#
# Convention : Reuss Voigt Hill
#
# Bulk Modulus (GPa) = 40.44871 71.68253 56.06562
# Shear Modulus (GPa) = -6.17883 34.08025 13.95071
#
# Velocity S-wave (km/s) = -1.61483 3.79249 2.42645
# Velocity P-wave (km/s) = 3.68697 7.03062 5.61353
#
# Compressibility (1/GPa) = 0.02472267
#
# Stress axis : x y z
#
# Youngs Moduli (GPa) = 43.73427 96.90964 179.68259
#
# Poissons Ratio (x) = 0.12126 0.54906
# Poissons Ratio (y) = 0.05472 0.48632
# Poissons Ratio (z) = 0.13364 0.26229
#
# Static dielectric constant tensor:
#      x y z
#    x 2.058480 0.000000 -0.031580 
#    y 0.000000 1.784540 0.000000 
#    z -0.031580 0.000000 1.925960 
# 
# From -- ./inp_files/74989.got.cif
#   From: 2010.05.17/outbox.cif.g08.bks.cpg/sg12_38_cif.got.tgz:74989.got - 2010.06.03 13:09:07.
