data_PCOD9222195
_publ_section_title
;
Structure prediction by ZEFSAII (Michael W. Deem and Ramdas Pophale) SiO2 
 PCOD9222195
Probable space group: C 2/M
;
_chemical_formula_sum "Si O2"
_cell_formula_units_Z 38
_cell_length_a 22.401310
_cell_length_b 14.937658
_cell_length_c 18.683074
_cell_angle_alpha 90.000000
_cell_angle_beta 17.180667
_cell_angle_gamma 90.000000
_cell_volume 1846.688850
_symmetry_space_group_name_H-M "C 2/M"
_symmetry_group_IT_number 12
_symmetry_cell_setting 'monoclinic'
loop_
_space_group_symop_operation_xyz
x,y,z
-x,y,-z
-x,-y,-z
x,-y,z
1/2+x,1/2+y,z
1/2-x,1/2+y,-z
1/2-x,1/2-y,-z
1/2+x,1/2-y,z
loop_
_atom_site_type_symbol
_atom_site_label
_atom_site_fract_x
_atom_site_fract_y
_atom_site_fract_z
Si Si1 0.760766 0.606102 0.420265
Si Si2 0.776150 0.395209 0.573282
Si Si3 0.295926 0.164878 0.142980
Si Si4 0.500000 0.304747 0.000000
Si Si5 0.000000 0.000000 0.500000
Si Si6 0.427549 0.739806 0.739128
O O1 0.732786 0.500000 0.438540
O O2 0.751731 0.621310 0.516355
O O3 0.586935 0.664883 0.582991
O O4 0.980581 0.636674 0.140571
O O5 0.813368 0.500000 0.540733
O O6 0.582766 0.363423 0.839979
O O7 0.958037 0.334259 0.393109
O O8 0.174737 0.078361 0.306465
O O9 0.173419 0.209089 0.218530
O O10 0.328319 0.238479 0.166923
O O11 0.250000 0.750000 0.000000
#
# Coordination Sequence:
#
# PCOD9222195 Si02
#       6
#     8   8   8   4   2   8
#     4  11  24  45  74 103 140 185 231 289 356 419
#     4  11  24  45  71 102 135 185 238 288 344 414
#     4  12  26  44  70 101 144 187 229 287 357 423
#     4  12  25  47  68  96 146 188 227 292 353 410
#     4  12  28  42  68 112 140 178 238 282 356 440
#     4  12  24  43  74 102 140 181 240 289 345 416
#
# _framework density 20.577370999999999
#
# number of rings (size 3 to 8) (size 9 to 14) (size 15 to 20)
#    0.000    0.421    5.263    3.474    1.474    1.263 
#    0.000    3.158    0.000    0.000    0.000    0.000 
#    0.000    0.000    0.000    0.000    0.000    0.000 
#
# Total GULP energy -106149.606445 kJ/mol
# GULP energy per Si atom -5586.821392 kJ/mol
# Density = 2.053054 g / cm^3
# Si number density = 20.577371 Si / 1000 Ang^3
#
#
#
# Elastic Constant Matrix: (Units=GPa)
#
#
# Indices 1 2 3 4 5 6 
#
# 1 97.9321 74.6795 39.6928 0.0023 -15.7803 -0.0031
# 2 74.6795 142.5138 46.7909 0.0216 -17.0517 -0.0125
# 3 39.6928 46.7909 127.9826 0.0216 -6.4456 -0.0138
# 4 0.0023 0.0216 0.0216 39.4224 -0.0076 6.5827
# 5 -15.7803 -17.0517 -6.4456 -0.0076 43.0941 0.0054
# 6 -0.0031 -0.0125 -0.0138 6.5827 0.0054 9.2680
#
#
#
# Elastic Compliance Matrix: (Units=1/GPa)
#
#
# Indices 1 2 3 4 5 6 
#
# 1 0.017969 -0.008276 -0.002399 0.000008 0.002947 -0.000016
# 2 -0.008276 0.012120 -0.001789 -0.000007 0.001498 0.000015
# 3 -0.002399 -0.001789 0.009201 -0.000007 -0.000210 0.000015
# 4 0.000008 -0.000007 -0.000007 0.028780 0.000007 -0.020441
# 5 0.002947 0.001498 -0.000210 0.000007 0.024845 -0.000017
# 6 -0.000016 0.000015 0.000015 -0.020441 -0.000017 0.122417
#
#
# Mechanical properties :
#
#
# Convention : Reuss Voigt Hill
#
# Bulk Modulus (GPa) = 69.62499 76.75054 73.18777
# Shear Modulus (GPa) = 20.40423 32.17457 26.28940
#
# Velocity S-wave (km/s) = 3.15236 3.95852 3.57821
# Velocity P-wave (km/s) = 6.86724 7.63365 7.26057
#
# Compressibility (1/GPa) = 0.01436266
#
# Stress axis : x y z
#
# Youngs Moduli (GPa) = 55.65072 82.50683 108.68323
#
# Poissons Ratio (x) = 0.68283 0.26072
# Poissons Ratio (y) = 0.46057 0.19444
# Poissons Ratio (z) = 0.13350 0.14761
#
# Static dielectric constant tensor:
#      x y z
#    x 1.729550 -0.000010 0.027810 
#    y -0.000010 1.695110 0.000010 
#    z 0.027810 0.000010 1.750410 
# 
# From -- ./inp_files/284443.got.cif
#   From: 2010.05.17/outbox.cif.g08.bks.cpg/sg12_143_cif.got.tgz:284443.got - 2010.06.03 13:09:07.
