data_PCOD9222410
_publ_section_title
;
Structure prediction by ZEFSAII (Michael W. Deem and Ramdas Pophale) SiO2 
 PCOD9222410
Probable space group: C 2/M
;
_chemical_formula_sum "Si O2"
_cell_formula_units_Z 28
_cell_length_a 26.782209
_cell_length_b 8.397755
_cell_length_c 4.806444
_cell_angle_alpha 90.000000
_cell_angle_beta 73.074719
_cell_angle_gamma 90.000000
_cell_volume 1034.195270
_symmetry_space_group_name_H-M "C 2/M"
_symmetry_group_IT_number 12
_symmetry_cell_setting 'monoclinic'
loop_
_space_group_symop_operation_xyz
x,y,z
-x,y,-z
-x,-y,-z
x,-y,z
1/2+x,1/2+y,z
1/2-x,1/2+y,-z
1/2-x,1/2-y,-z
1/2+x,1/2-y,z
loop_
_atom_site_type_symbol
_atom_site_label
_atom_site_fract_x
_atom_site_fract_y
_atom_site_fract_z
Si Si1 0.718035 0.000000 0.993202
Si Si2 0.924982 0.500000 0.118637
Si Si3 0.549183 0.671728 0.213943
Si Si4 0.287154 0.500000 0.382093
Si Si5 0.145767 0.254081 0.413805
O O1 0.683982 0.148410 0.148271
O O2 0.771205 0.000000 0.087672
O O3 0.733111 0.000000 0.647370
O O4 0.890047 0.365894 0.341160
O O5 0.953515 0.351665 0.905566
O O6 0.500000 0.665375 0.500000
O O7 0.549358 0.500000 0.050423
O O8 0.603671 0.668763 0.289832
O O9 0.319539 0.648788 0.438777
#
# Coordination Sequence:
#
# PCOD9222410 Si02
#       5
#     4   4   8   4   8
#     4  11  27  44  74 114 158 206 266 321 397 457
#     4  11  26  44  75 109 152 195 258 317 393 462
#     4  11  26  49  78 110 151 202 256 324 398 477
#     4  12  26  47  74 114 154 212 263 324 386 470
#     4  11  26  44  74 108 155 199 259 325 392 458
#
# _framework density 27.074190000000002
#
# number of rings (size 3 to 8) (size 9 to 14) (size 15 to 20)
#    0.000    0.857    1.429    3.857   14.000    2.286 
#    0.000    2.857    0.000    0.000    0.000    0.000 
#    0.000    0.000    0.000    0.000    0.000    0.000 
#
# Total GULP energy -78016.930325 kJ/mol
# GULP energy per Si atom -5572.637880 kJ/mol
# Density = 2.701257 g / cm^3
# Si number density = 27.074190 Si / 1000 Ang^3
#
#
#
# Elastic Constant Matrix: (Units=GPa)
#
#
# Indices 1 2 3 4 5 6 
#
# 1 150.7195 32.1247 -0.9064 0.0000 7.7792 0.0000
# 2 32.1247 275.4104 51.2467 0.0000 -2.2206 0.0000
# 3 -0.9064 51.2467 89.4856 0.0000 -8.5458 0.0000
# 4 0.0000 0.0000 0.0000 8.0032 0.0000 -28.4866
# 5 7.7792 -2.2206 -8.5458 0.0000 26.3894 0.0000
# 6 0.0000 0.0000 0.0000 -28.4866 0.0000 2.2255
#
#
#
# Elastic Compliance Matrix: (Units=1/GPa)
#
#
# Indices 1 2 3 4 5 6 
#
# 1 0.006931 -0.000898 0.000394 0.000000 -0.001991 0.000000
# 2 -0.000898 0.004185 -0.002422 0.000000 -0.000167 0.000000
# 3 0.000394 -0.002422 0.012935 0.000000 0.003869 0.000000
# 4 0.000000 0.000000 0.000000 -0.002804 0.000000 -0.035892
# 5 -0.001991 -0.000167 0.003869 0.000000 0.039720 0.000000
# 6 0.000000 0.000000 0.000000 -0.035892 0.000000 -0.010084
#
#
# Mechanical properties :
#
#
# Convention : Reuss Voigt Hill
#
# Bulk Modulus (GPa) = 54.94231 75.61619 65.27925
# Shear Modulus (GPa) = 79.61622 36.20033 57.90828
#
# Velocity S-wave (km/s) = 5.42868 3.66058 4.62981
# Velocity P-wave (km/s) = 7.72213 6.77173 7.26249
#
# Compressibility (1/GPa) = 0.01820091
#
# Stress axis : x y z
#
# Youngs Moduli (GPa) = 144.27168 238.95150 77.30769
#
# Poissons Ratio (x) = 0.21456 -0.03048
# Poissons Ratio (y) = 0.12954 0.18722
# Poissons Ratio (z) = -0.05688 0.57867
#
# Static dielectric constant tensor:
#      x y z
#    x 2.121930 0.000000 0.037710 
#    y 0.000000 1.684270 0.000000 
#    z 0.037710 0.000000 2.047290 
# 
# From -- ./inp_files/30167.got.cif
#   From: 2010.05.17/outbox.cif.g08.bks.cpg/sg12_16_cif.got.tgz:30167.got - 2010.06.03 13:09:07.
