data_PCOD9222925
_publ_section_title
;
Structure prediction by ZEFSAII (Michael W. Deem and Ramdas Pophale) SiO2 
 PCOD9222925
Probable space group: C 2/M
;
_chemical_formula_sum "Si O2"
_cell_formula_units_Z 48
_cell_length_a 34.461066
_cell_length_b 8.974480
_cell_length_c 7.361354
_cell_angle_alpha 90.000000
_cell_angle_beta 76.005137
_cell_angle_gamma 90.000000
_cell_volume 2209.070263
_symmetry_space_group_name_H-M "C 2/M"
_symmetry_group_IT_number 12
_symmetry_cell_setting 'monoclinic'
loop_
_space_group_symop_operation_xyz
x,y,z
-x,y,-z
-x,-y,-z
x,-y,z
1/2+x,1/2+y,z
1/2-x,1/2+y,-z
1/2-x,1/2-y,-z
1/2+x,1/2-y,z
loop_
_atom_site_type_symbol
_atom_site_label
_atom_site_fract_x
_atom_site_fract_y
_atom_site_fract_z
Si Si1 0.043349 0.829748 0.981645
Si Si2 0.789764 0.672463 0.735841
Si Si3 0.043932 0.829664 0.415778
Si Si4 0.128670 0.820264 0.916245
Si Si5 0.790746 0.671107 0.178874
Si Si6 0.376387 0.821158 0.675462
O O1 0.047151 0.836868 0.194688
O O2 0.086736 0.770035 0.871167
O O3 0.040309 0.000000 0.913613
O O4 0.000000 0.755866 0.000000
O O5 0.783519 0.500000 0.693537
O O6 0.752395 0.768414 0.713963
O O7 0.834444 0.719789 0.627874
O O8 0.790136 0.678525 0.957489
O O9 0.081879 0.740753 0.446591
O O10 0.000000 0.764721 0.500000
O O11 0.044711 0.000000 0.483696
O O12 0.126969 0.750425 0.120215
O O13 0.128017 0.000000 0.926199
O O14 0.171275 0.764639 0.796086
O O15 0.796272 0.500000 0.223638
O O16 0.377474 0.000000 0.688397
#
# Coordination Sequence:
#
# PCOD9222925 Si02
#       6
#     8   8   8   8   8   8
#     4   8  14  25  41  59  78 103 135 166 194 228
#     4   8  14  22  31  46  69  97 128 158 189 229
#     4   9  17  28  42  60  81 105 133 165 199 234
#     4   9  15  23  36  52  73 101 130 162 198 234
#     4   9  15  21  31  48  71  99 129 159 192 234
#     4   9  16  25  37  53  74 101 131 162 196 235
#
# _framework density 21.728598999999999
#
# number of rings (size 3 to 8) (size 9 to 14) (size 15 to 20)
#    0.000    3.333    0.000    3.500    0.000    5.000 
#    0.000    0.000    0.000   12.500    0.000    0.000 
#    0.000    1.333    0.000    2.667    0.000    7.167 
#
# Total GULP energy -133685.725532 kJ/mol
# GULP energy per Si atom -5570.238564 kJ/mol
# Density = 2.167914 g / cm^3
# Si number density = 21.728599 Si / 1000 Ang^3
#
#
#
# Elastic Constant Matrix: (Units=GPa)
#
#
# Indices 1 2 3 4 5 6 
#
# 1 217.7938 76.2369 41.7552 0.0000 -72.1630 0.0000
# 2 76.2369 62.8233 13.0787 0.0000 -24.9490 0.0000
# 3 41.7552 13.0787 55.7957 0.0000 5.3939 0.0000
# 4 0.0000 0.0000 0.0000 0.6055 0.0000 -18.9465
# 5 -72.1630 -24.9490 5.3939 0.0000 44.3442 0.0000
# 6 0.0000 0.0000 0.0000 -18.9465 0.0000 30.6728
#
#
#
# Elastic Compliance Matrix: (Units=1/GPa)
#
#
# Indices 1 2 3 4 5 6 
#
# 1 0.022641 -0.010720 -0.017617 0.000000 0.032956 0.000000
# 2 -0.010720 0.027763 0.001711 0.000000 -0.002033 0.000000
# 3 -0.017617 0.001711 0.033781 0.000000 -0.031814 0.000000
# 4 0.000000 0.000000 0.000000 -0.090109 0.000000 -0.055660
# 5 0.032956 -0.002033 -0.031814 0.000000 0.078907 0.000000
# 6 0.000000 0.000000 0.000000 -0.055660 0.000000 -0.001779
#
#
# Mechanical properties :
#
#
# Convention : Reuss Voigt Hill
#
# Bulk Modulus (GPa) = 32.32750 66.50604 49.41677
# Shear Modulus (GPa) = 37.10186 28.81397 32.95792
#
# Velocity S-wave (km/s) = 4.13669 3.64550 3.89884
# Velocity P-wave (km/s) = 6.14218 6.95655 6.56201
#
# Compressibility (1/GPa) = 0.03093342
#
# Stress axis : x y z
#
# Youngs Moduli (GPa) = 44.16828 36.01970 29.60287
#
# Poissons Ratio (x) = 0.38612 0.52150
# Poissons Ratio (y) = 0.47347 -0.05065
# Poissons Ratio (z) = 0.77809 -0.06163
#
# Static dielectric constant tensor:
#      x y z
#    x 1.852790 0.000000 -0.011050 
#    y 0.000000 1.727410 0.000000 
#    z -0.011050 0.000000 2.159460 
# 
# From -- ./inp_files/185743.got.cif
#   From: 2010.05.17/outbox.cif.g08.bks.cpg/sg12_93_cif.got.tgz:185743.got - 2010.06.03 13:09:07.
