data_PCOD9222333
_publ_section_title
;
Structure prediction by ZEFSAII (Michael W. Deem and Ramdas Pophale) SiO2 
 PCOD9222333
Probable space group: C 2/M
;
_chemical_formula_sum "Si O2"
_cell_formula_units_Z 24
_cell_length_a 7.415266
_cell_length_b 18.216448
_cell_length_c 7.941226
_cell_angle_alpha 90.000000
_cell_angle_beta 93.766979
_cell_angle_gamma 90.000000
_cell_volume 1070.381710
_symmetry_space_group_name_H-M "C 2/M"
_symmetry_group_IT_number 12
_symmetry_cell_setting 'monoclinic'
loop_
_space_group_symop_operation_xyz
x,y,z
-x,y,-z
-x,-y,-z
x,-y,z
1/2+x,1/2+y,z
1/2-x,1/2+y,-z
1/2-x,1/2-y,-z
1/2+x,1/2-y,z
loop_
_atom_site_type_symbol
_atom_site_label
_atom_site_fract_x
_atom_site_fract_y
_atom_site_fract_z
Si Si1 0.401132 0.841360 0.319733
Si Si2 0.745511 0.701400 0.831612
Si Si3 0.467486 0.584526 0.699034
O O1 0.500000 0.858038 0.500000
O O2 0.304472 0.761794 0.313168
O O3 0.562239 0.834422 0.195893
O O4 0.241489 0.898185 0.276108
O O5 0.592830 0.639742 0.811191
O O6 0.750000 0.750000 0.000000
O O7 0.500000 0.597775 0.500000
O O8 0.511543 0.500000 0.735985
#
# Coordination Sequence:
#
# PCOD9222333 Si02
#       3
#     8   8   8
#     4  12  23  41  72 104 134 189 246 287 344 426
#     4  12  25  42  70 107 142 186 240 301 353 418
#     4  11  25  45  71 107 147 186 234 297 360 423
#
# _framework density 22.421906
#
# number of rings (size 3 to 8) (size 9 to 14) (size 15 to 20)
#    0.000    0.333    6.667    3.000    0.000    2.000 
#    0.000    3.333    0.000    4.000    0.000    0.000 
#    0.000    0.000    0.000    0.000    0.000    0.000 
#
# Total GULP energy -67202.219779 kJ/mol
# GULP energy per Si atom -5600.184982 kJ/mol
# Density = 2.237087 g / cm^3
# Si number density = 22.421906 Si / 1000 Ang^3
#
#
#
# Elastic Constant Matrix: (Units=GPa)
#
#
# Indices 1 2 3 4 5 6 
#
# 1 154.4895 31.6966 66.9981 0.0000 -2.5804 0.0000
# 2 31.6966 121.4092 50.4159 0.0000 20.0170 0.0000
# 3 66.9981 50.4159 116.7802 0.0000 -0.0736 0.0000
# 4 0.0000 0.0000 0.0000 25.4745 0.0000 3.6216
# 5 -2.5804 20.0170 -0.0736 0.0000 33.1920 0.0000
# 6 0.0000 0.0000 0.0000 3.6216 0.0000 38.7007
#
#
#
# Elastic Compliance Matrix: (Units=1/GPa)
#
#
# Indices 1 2 3 4 5 6 
#
# 1 0.008647 -0.000425 -0.004777 0.000000 0.000918 0.000000
# 2 -0.000425 0.011445 -0.004701 0.000000 -0.006946 0.000000
# 3 -0.004777 -0.004701 0.013335 0.000000 0.002493 0.000000
# 4 0.000000 0.000000 0.000000 0.039784 0.000000 -0.003723
# 5 0.000918 -0.006946 0.002493 0.000000 0.034393 0.000000
# 6 0.000000 0.000000 0.000000 -0.003723 0.000000 0.026188
#
#
# Mechanical properties :
#
#
# Convention : Reuss Voigt Hill
#
# Bulk Modulus (GPa) = 73.42108 76.76667 75.09387
# Shear Modulus (GPa) = 31.61775 35.71134 33.66455
#
# Velocity S-wave (km/s) = 3.75924 3.99519 3.87901
# Velocity P-wave (km/s) = 7.18741 7.45612 7.32300
#
# Compressibility (1/GPa) = 0.01362007
#
# Stress axis : x y z
#
# Youngs Moduli (GPa) = 115.64605 87.37391 74.99183
#
# Poissons Ratio (x) = 0.03716 0.35822
# Poissons Ratio (y) = 0.04919 0.35257
# Poissons Ratio (z) = 0.55241 0.41078
#
# Static dielectric constant tensor:
#      x y z
#    x 1.839550 0.000000 -0.009500 
#    y 0.000000 1.780780 0.000000 
#    z -0.009500 0.000000 1.908290 
# 
# From -- ./inp_files/36383.got.cif
#   From: 2010.05.17/outbox.cif.g08.bks.cpg/sg12_19_cif.got.tgz:36383.got - 2010.06.03 13:09:07.
