data_PCOD9222584
_publ_section_title
;
Structure prediction by ZEFSAII (Michael W. Deem and Ramdas Pophale) SiO2 
 PCOD9222584
Probable space group: C 2/M
;
_chemical_formula_sum "Si O2"
_cell_formula_units_Z 48
_cell_length_a 23.947951
_cell_length_b 10.465926
_cell_length_c 13.965189
_cell_angle_alpha 90.000000
_cell_angle_beta 137.398401
_cell_angle_gamma 90.000000
_cell_volume 2369.273051
_symmetry_space_group_name_H-M "C 2/M"
_symmetry_group_IT_number 12
_symmetry_cell_setting 'monoclinic'
loop_
_space_group_symop_operation_xyz
x,y,z
-x,y,-z
-x,-y,-z
x,-y,z
1/2+x,1/2+y,z
1/2-x,1/2+y,-z
1/2-x,1/2-y,-z
1/2+x,1/2-y,z
loop_
_atom_site_type_symbol
_atom_site_label
_atom_site_fract_x
_atom_site_fract_y
_atom_site_fract_z
Si Si1 0.918529 0.348186 0.768975
Si Si2 0.491961 0.000000 0.605072
Si Si3 0.488676 0.500000 0.601685
Si Si4 0.111223 0.749010 0.463198
Si Si5 0.720119 0.250368 0.775603
Si Si6 0.177013 0.500000 0.838108
Si Si7 0.608391 0.151533 0.041495
Si Si8 0.170878 0.000000 0.824818
O O1 0.904808 0.500000 0.736188
O O2 0.874701 0.266841 0.631951
O O3 0.895030 0.321499 0.848914
O O4 0.017237 0.325137 0.886123
O O5 0.500000 0.000000 0.500000
O O6 0.443119 0.125808 0.575176
O O7 0.584793 0.000000 0.763741
O O8 0.500000 0.500000 0.500000
O O9 0.439587 0.375245 0.573623
O O10 0.581439 0.500000 0.760320
O O11 0.192960 0.747399 0.630918
O O12 0.687591 0.125238 0.786834
O O13 0.817878 0.268499 0.910635
O O14 0.677901 0.373653 0.769474
O O15 0.250800 0.500000 0.006813
O O16 0.626704 0.000000 0.054489
#
# Coordination Sequence:
#
# PCOD9222584 Si02
#       8
#     8   4   4   8   8   4   8   4
#     4   9  20  40  66  94 113 154 205 252 299 351
#     4  12  22  42  61  86 119 159 202 253 288 344
#     4  12  24  42  57  86 129 165 192 239 296 376
#     4  12  23  38  65  89 118 162 202 242 301 353
#     4  12  23  41  61  90 122 159 201 248 299 353
#     4  12  28  38  59  94 123 155 204 257 296 342
#     4   9  20  40  66  90 121 152 200 252 299 360
#     4  12  26  42  59  86 123 167 202 237 300 362
#
# _framework density 20.259378000000002
#
# number of rings (size 3 to 8) (size 9 to 14) (size 15 to 20)
#    0.000    1.000    5.000    3.000    4.667    0.667 
#    0.000    0.833    0.000    2.000    0.000    0.000 
#    0.000    0.000    0.000    0.000    0.000    0.000 
#
# Total GULP energy -134233.704444 kJ/mol
# GULP energy per Si atom -5593.071018 kJ/mol
# Density = 2.021327 g / cm^3
# Si number density = 20.259378 Si / 1000 Ang^3
#
#
#
# Elastic Constant Matrix: (Units=GPa)
#
#
# Indices 1 2 3 4 5 6 
#
# 1 21.7576 11.4243 -11.6865 0.0000 -3.0716 0.0000
# 2 11.4243 116.8171 1.3588 0.0000 0.2687 0.0000
# 3 -11.6865 1.3588 81.5670 0.0000 -10.7080 0.0000
# 4 0.0000 0.0000 0.0000 33.7001 0.0000 9.6313
# 5 -3.0716 0.2687 -10.7080 0.0000 48.5570 0.0000
# 6 0.0000 0.0000 0.0000 9.6313 0.0000 23.7828
#
#
#
# Elastic Compliance Matrix: (Units=1/GPa)
#
#
# Indices 1 2 3 4 5 6 
#
# 1 0.054146 -0.005407 0.008549 0.000000 0.005340 0.000000
# 2 -0.005407 0.009102 -0.001007 0.000000 -0.000614 0.000000
# 3 0.008549 -0.001007 0.013978 0.000000 0.003629 0.000000
# 4 0.000000 0.000000 0.000000 0.033557 0.000000 -0.013590
# 5 0.005340 -0.000614 0.003629 0.000000 0.021736 0.000000
# 6 0.000000 0.000000 0.000000 -0.013590 0.000000 0.047550
#
#
# Mechanical properties :
#
#
# Convention : Reuss Voigt Hill
#
# Bulk Modulus (GPa) = 12.27061 24.70388 18.48725
# Shear Modulus (GPa) = 24.63481 35.81099 30.22290
#
# Velocity S-wave (km/s) = 3.49086 4.20887 3.86657
# Velocity P-wave (km/s) = 4.72420 5.98663 5.39249
#
# Compressibility (1/GPa) = 0.08149556
#
# Stress axis : x y z
#
# Youngs Moduli (GPa) = 18.46871 109.86233 71.54174
#
# Poissons Ratio (x) = 0.59402 -0.61160
# Poissons Ratio (y) = 0.09986 0.07204
# Poissons Ratio (z) = -0.15789 0.11063
#
# Static dielectric constant tensor:
#      x y z
#    x 1.715900 0.000000 -0.026950 
#    y 0.000000 1.665800 0.000000 
#    z -0.026950 0.000000 1.748660 
# 
# From -- ./inp_files/295949.got.cif
#   From: 2010.05.17/outbox.cif.g08.bks.cpg/sg12_148_cif.got.tgz:295949.got - 2010.06.03 13:09:07.
