data_PCOD9222885
_publ_section_title
;
Structure prediction by ZEFSAII (Michael W. Deem and Ramdas Pophale) SiO2 
 PCOD9222885
Probable space group: C 2/M
;
_chemical_formula_sum "Si O2"
_cell_formula_units_Z 56
_cell_length_a 28.746394
_cell_length_b 7.297345
_cell_length_c 24.940368
_cell_angle_alpha 90.000000
_cell_angle_beta 29.821292
_cell_angle_gamma 90.000000
_cell_volume 2601.755175
_symmetry_space_group_name_H-M "C 2/M"
_symmetry_group_IT_number 12
_symmetry_cell_setting 'monoclinic'
loop_
_space_group_symop_operation_xyz
x,y,z
-x,y,-z
-x,-y,-z
x,-y,z
1/2+x,1/2+y,z
1/2-x,1/2+y,-z
1/2-x,1/2-y,-z
1/2+x,1/2-y,z
loop_
_atom_site_type_symbol
_atom_site_label
_atom_site_fract_x
_atom_site_fract_y
_atom_site_fract_z
Si Si1 0.646901 0.777031 0.372028
Si Si2 0.955945 0.218958 0.231109
Si Si3 0.960212 0.777450 0.957225
Si Si4 0.646903 0.277029 0.834177
Si Si5 0.039768 0.277453 0.377667
Si Si6 0.749997 0.782497 0.436051
Si Si7 0.955952 0.281036 0.356983
O O1 0.750002 0.715467 0.285557
O O2 0.620918 0.719676 0.337244
O O3 0.558929 0.723757 0.496268
O O4 0.648025 0.000000 0.372608
O O5 0.852225 0.289003 0.318039
O O6 0.973075 0.249974 0.276921
O O7 0.032449 0.283141 0.111683
O O8 0.950440 0.000000 0.231266
O O9 0.058915 0.723793 0.885897
O O10 0.956050 0.000000 0.961868
O O11 0.879061 0.719630 0.079095
O O12 0.648034 0.500000 0.831348
O O13 0.043903 0.500000 0.374012
O O14 0.032452 0.216868 0.323412
O O15 0.750000 0.750000 0.500000
O O16 0.647765 0.711003 0.522503
O O17 0.749997 0.000000 0.423796
O O18 0.950448 0.500000 0.367818
#
# Coordination Sequence:
#
# PCOD9222885 Si02
#       7
#     8   8   8   8   8   8   8
#     4   8  13  21  34  52  74  97 122 156 195 228
#     4   9  16  25  37  54  78 103 127 155 187 225
#     4   8  14  22  33  53  76  98 124 153 189 230
#     4   8  13  21  34  52  74  97 122 156 195 228
#     4   8  14  22  33  53  76  98 124 153 189 230
#     4   8  14  22  32  48  70  98 124 146 177 216
#     4   9  16  25  37  54  78 103 127 155 187 225
#
# _framework density 21.523931000000001
#
# number of rings (size 3 to 8) (size 9 to 14) (size 15 to 20)
#    0.000    3.714    0.000    1.714    2.000    0.000 
#    0.000    0.000    0.000    0.857    0.000    4.000 
#    0.000    2.286    0.000    0.000    0.000    0.000 
#
# Total GULP energy -155937.967673 kJ/mol
# GULP energy per Si atom -5569.213131 kJ/mol
# Density = 2.147494 g / cm^3
# Si number density = 21.523931 Si / 1000 Ang^3
#
#
#
# Elastic Constant Matrix: (Units=GPa)
#
#
# Indices 1 2 3 4 5 6 
#
# 1 67.7083 -6.9675 -2.6778 0.0802 12.0810 -0.0309
# 2 -6.9675 87.5516 -5.2610 0.0894 -1.3363 -0.0405
# 3 -2.6778 -5.2610 42.8815 0.1211 7.3132 -0.0710
# 4 0.0802 0.0894 0.1211 1.5788 -0.0313 0.7220
# 5 12.0810 -1.3363 7.3132 -0.0313 31.1837 0.0115
# 6 -0.0309 -0.0405 -0.0710 0.7220 0.0115 2.5428
#
#
#
# Elastic Compliance Matrix: (Units=1/GPa)
#
#
# Indices 1 2 3 4 5 6 
#
# 1 0.016209 0.001329 0.002336 -0.001558 -0.006772 0.000757
# 2 0.001329 0.011618 0.001579 -0.001112 -0.000389 0.000563
# 3 0.002336 0.001579 0.024806 -0.002986 -0.006659 0.001625
# 4 -0.001558 -0.001112 -0.002986 0.728424 0.002064 -0.206952
# 5 -0.006772 -0.000389 -0.006659 0.002064 0.036239 -0.001025
# 6 0.000757 0.000563 0.001625 -0.206952 -0.001025 0.452098
#
#
# Mechanical properties :
#
#
# Convention : Reuss Voigt Hill
#
# Bulk Modulus (GPa) = 15.84284 18.70320 17.27302
# Shear Modulus (GPa) = 3.90641 21.26426 12.58534
#
# Velocity S-wave (km/s) = 1.34865 3.14655 2.42071
# Velocity P-wave (km/s) = 3.13077 4.68075 3.98190
#
# Compressibility (1/GPa) = 0.06311999
#
# Stress axis : x y z
#
# Youngs Moduli (GPa) = 61.69445 86.07396 40.31229
#
# Poissons Ratio (x) = -0.11438 -0.09416
# Poissons Ratio (y) = -0.08198 -0.06364
# Poissons Ratio (z) = -0.14411 -0.13588
#
# Static dielectric constant tensor:
#      x y z
#    x 1.808790 -0.000030 0.025580 
#    y -0.000030 1.821780 0.000060 
#    z 0.025580 0.000060 1.776110 
# 
# From -- ./inp_files/351601.got.cif
#   From: 2010.05.17/outbox.cif.g08.bks.cpg/sg12_176_cif.got.tgz:351601.got - 2010.06.03 13:09:07.
