data_PCOD9222523
_publ_section_title
;
Structure prediction by ZEFSAII (Michael W. Deem and Ramdas Pophale) SiO2 
 PCOD9222523
Probable space group: C 2/M
;
_chemical_formula_sum "Si O2"
_cell_formula_units_Z 40
_cell_length_a 17.162623
_cell_length_b 9.772966
_cell_length_c 19.308119
_cell_angle_alpha 90.000000
_cell_angle_beta 139.292219
_cell_angle_gamma 90.000000
_cell_volume 2112.183835
_symmetry_space_group_name_H-M "C 2/M"
_symmetry_group_IT_number 12
_symmetry_cell_setting 'monoclinic'
loop_
_space_group_symop_operation_xyz
x,y,z
-x,y,-z
-x,-y,-z
x,-y,z
1/2+x,1/2+y,z
1/2-x,1/2+y,-z
1/2-x,1/2-y,-z
1/2+x,1/2-y,z
loop_
_atom_site_type_symbol
_atom_site_label
_atom_site_fract_x
_atom_site_fract_y
_atom_site_fract_z
Si Si1 0.399459 0.000000 0.029747
Si Si2 0.151543 0.000000 0.940490
Si Si3 0.457633 0.500000 0.281556
Si Si4 0.000000 0.767443 0.500000
Si Si5 0.815323 0.767914 0.269651
Si Si6 0.380664 0.297946 0.958613
Si Si7 0.170743 0.500000 0.255660
Si Si8 0.857808 0.000000 0.487757
O O1 0.528910 0.000000 0.152775
O O2 0.287594 0.000000 0.005982
O O3 0.387030 0.135310 0.975272
O O4 0.067000 0.000000 0.816307
O O5 0.129539 0.129687 0.974626
O O6 0.391473 0.369133 0.271236
O O7 0.594209 0.500000 0.401428
O O8 0.092604 0.697716 0.614849
O O9 0.079924 0.869366 0.506753
O O10 0.733298 0.674891 0.166431
O O11 0.727690 0.868174 0.254944
O O12 0.500000 0.341123 0.000000
O O13 0.222566 0.500000 0.369076
#
# Coordination Sequence:
#
# PCOD9222523 Si02
#       8
#     4   4   4   4   8   8   4   4
#     4  12  21  36  60  83 107 140 184 239 267 305
#     4  12  26  37  51  81 122 150 173 213 290 340
#     4   9  16  29  51  76 112 144 174 218 272 326
#     4   7  12  22  44  79 106 128 170 234 268 296
#     4   9  15  28  52  80 106 135 183 227 265 311
#     4  12  23  38  57  80 111 149 184 226 269 324
#     4   9  15  28  53  84 103 130 186 237 262 300
#     4   7  12  23  45  77 107 133 169 226 274 303
#
# _framework density 18.937746000000001
#
# number of rings (size 3 to 8) (size 9 to 14) (size 15 to 20)
#    0.000    2.200    4.000    4.200    0.000    0.000 
#    0.000    0.000    0.000    4.200    0.000    0.000 
#    0.000    0.000    0.000    0.000    0.000    0.000 
#
# Total GULP energy -111486.371980 kJ/mol
# GULP energy per Si atom -5574.318599 kJ/mol
# Density = 1.889464 g / cm^3
# Si number density = 18.937746 Si / 1000 Ang^3
#
#
#
# Elastic Constant Matrix: (Units=GPa)
#
#
# Indices 1 2 3 4 5 6 
#
# 1 69.9106 9.8056 44.3702 0.0000 -9.6127 0.0000
# 2 9.8056 48.6865 19.6375 0.0000 -7.7603 0.0000
# 3 44.3702 19.6375 237.4472 0.0000 -16.0901 0.0000
# 4 0.0000 0.0000 0.0000 18.0876 0.0000 9.6009
# 5 -9.6127 -7.7603 -16.0901 0.0000 24.8905 0.0000
# 6 0.0000 0.0000 0.0000 9.6009 0.0000 -16.8514
#
#
#
# Elastic Compliance Matrix: (Units=1/GPa)
#
#
# Indices 1 2 3 4 5 6 
#
# 1 0.016844 -0.001617 -0.002727 0.000000 0.004238 0.000000
# 2 -0.001617 0.022218 -0.001159 0.000000 0.005553 0.000000
# 3 -0.002727 -0.001159 0.004937 0.000000 0.001777 0.000000
# 4 0.000000 0.000000 0.000000 0.042449 0.000000 0.024185
# 5 0.004238 0.005553 0.001777 0.000000 0.044693 0.000000
# 6 0.000000 0.000000 0.000000 0.024185 0.000000 -0.045563
#
#
# Mechanical properties :
#
#
# Convention : Reuss Voigt Hill
#
# Bulk Modulus (GPa) = 30.30868 55.96342 43.13605
# Shear Modulus (GPa) = 46.47622 24.04072 35.25847
#
# Velocity S-wave (km/s) = 4.95932 3.56681 4.31955
# Velocity P-wave (km/s) = 6.98801 6.82483 6.90690
#
# Compressibility (1/GPa) = 0.03299385
#
# Stress axis : x y z
#
# Youngs Moduli (GPa) = 59.36803 45.00879 202.54209
#
# Poissons Ratio (x) = 0.07278 0.55225
# Poissons Ratio (y) = 0.09600 0.23474
# Poissons Ratio (z) = 0.16187 0.05216
#
# Static dielectric constant tensor:
#      x y z
#    x 1.620110 0.000000 0.000540 
#    y 0.000000 1.678220 0.000000 
#    z 0.000540 0.000000 1.724170 
# 
# From -- ./inp_files/268272.got.cif
#   From: 2010.05.17/outbox.cif.g08.bks.cpg/sg12_135_cif.got.tgz:268272.got - 2010.06.03 13:09:07.
