data_PCOD9222675
_publ_section_title
;
Structure prediction by ZEFSAII (Michael W. Deem and Ramdas Pophale) SiO2 
 PCOD9222675
Probable space group: C 2/M
;
_chemical_formula_sum "Si O2"
_cell_formula_units_Z 42
_cell_length_a 11.414864
_cell_length_b 20.085614
_cell_length_c 8.853163
_cell_angle_alpha 90.000000
_cell_angle_beta 107.294907
_cell_angle_gamma 90.000000
_cell_volume 1938.031875
_symmetry_space_group_name_H-M "C 2/M"
_symmetry_group_IT_number 12
_symmetry_cell_setting 'monoclinic'
loop_
_space_group_symop_operation_xyz
x,y,z
-x,y,-z
-x,-y,-z
x,-y,z
1/2+x,1/2+y,z
1/2-x,1/2+y,-z
1/2-x,1/2-y,-z
1/2+x,1/2-y,z
loop_
_atom_site_type_symbol
_atom_site_label
_atom_site_fract_x
_atom_site_fract_y
_atom_site_fract_z
Si Si1 0.001869 0.694228 0.184472
Si Si2 0.364457 0.574364 0.235656
Si Si3 0.593029 0.664347 0.289453
Si Si4 0.805516 0.607823 0.562905
Si Si5 0.500000 0.000000 0.500000
Si Si6 0.739875 0.672892 0.049204
O O1 0.020369 0.765891 0.269826
O O2 0.109659 0.650053 0.291472
O O3 0.872470 0.660471 0.172298
O O4 0.000000 0.699234 0.000000
O O5 0.371422 0.500000 0.174889
O O6 0.498727 0.606772 0.297960
O O7 0.293017 0.572399 0.365913
O O8 0.289357 0.623438 0.097126
O O9 0.718822 0.656201 0.430152
O O10 0.635359 0.662230 0.132039
O O11 0.896166 0.558337 0.507823
O O12 0.750000 0.750000 0.000000
#
# Coordination Sequence:
#
# PCOD9222675 Si02
#       6
#     8   8   8   8   2   8
#     4  12  23  46  78 107 148 194 248 314 364 437
#     4  12  26  48  77 109 151 201 252 308 375 450
#     4  12  26  45  77 112 153 194 251 313 374 440
#     4  12  27  50  75 108 148 198 254 305 378 446
#     4  12  28  56  72 104 160 196 244 314 372 454
#     4  12  23  46  74 111 151 195 247 302 368 444
#
# _framework density 21.671468999999998
#
# number of rings (size 3 to 8) (size 9 to 14) (size 15 to 20)
#    0.000    0.000    6.667    2.857    1.333    2.286 
#   12.000    1.429    0.000    0.000    0.000    0.000 
#    0.000    0.000    0.000    0.000    0.000    0.000 
#
# Total GULP energy -117091.248836 kJ/mol
# GULP energy per Si atom -5575.773754 kJ/mol
# Density = 2.162214 g / cm^3
# Si number density = 21.671469 Si / 1000 Ang^3
#
#
#
# Elastic Constant Matrix: (Units=GPa)
#
#
# Indices 1 2 3 4 5 6 
#
# 1 167.5341 31.4719 46.0430 0.0000 11.1180 0.0000
# 2 31.4719 109.1587 47.0659 0.0000 20.3892 0.0000
# 3 46.0430 47.0659 100.2275 0.0000 30.2213 0.0000
# 4 0.0000 0.0000 0.0000 5.5374 0.0000 -7.7875
# 5 11.1180 20.3892 30.2213 0.0000 45.2839 0.0000
# 6 0.0000 0.0000 0.0000 -7.7875 0.0000 16.9732
#
#
#
# Elastic Compliance Matrix: (Units=1/GPa)
#
#
# Indices 1 2 3 4 5 6 
#
# 1 0.006900 -0.000828 -0.002983 0.000000 0.000669 0.000000
# 2 -0.000828 0.011728 -0.004502 0.000000 -0.002073 0.000000
# 3 -0.002983 -0.004502 0.015811 0.000000 -0.007793 0.000000
# 4 0.000000 0.000000 0.000000 0.509072 0.000000 0.233568
# 5 0.000669 -0.002073 -0.007793 0.000000 0.028053 0.000000
# 6 0.000000 0.000000 0.000000 0.233568 0.000000 0.166080
#
#
# Mechanical properties :
#
#
# Convention : Reuss Voigt Hill
#
# Bulk Modulus (GPa) = 56.13696 69.56466 62.85081
# Shear Modulus (GPa) = 6.57716 30.38152 18.47934
#
# Velocity S-wave (km/s) = 1.74400 3.74827 2.92328
# Velocity P-wave (km/s) = 5.47862 7.13457 6.36071
#
# Compressibility (1/GPa) = 0.01781358
#
# Stress axis : x y z
#
# Youngs Moduli (GPa) = 144.93172 85.26585 63.24639
#
# Poissons Ratio (x) = 0.07063 0.18863
# Poissons Ratio (y) = 0.12006 0.28472
# Poissons Ratio (z) = 0.43226 0.38385
#
# Static dielectric constant tensor:
#      x y z
#    x 1.857850 0.000000 -0.008020 
#    y 0.000000 1.777040 0.000000 
#    z -0.008020 0.000000 1.803610 
# 
# From -- ./inp_files/49482.got.cif
#   From: 2010.05.17/outbox.cif.g08.bks.cpg/sg12_25_cif.got.tgz:49482.got - 2010.06.03 13:09:07.
