data_PCOD9222702
_publ_section_title
;
Structure prediction by ZEFSAII (Michael W. Deem and Ramdas Pophale) SiO2 
 PCOD9222702
Probable space group: C 2/M
;
_chemical_formula_sum "Si O2"
_cell_formula_units_Z 40
_cell_length_a 10.326373
_cell_length_b 14.692189
_cell_length_c 31.658788
_cell_angle_alpha 90.000000
_cell_angle_beta 153.161690
_cell_angle_gamma 90.000000
_cell_volume 2168.510797
_symmetry_space_group_name_H-M "C 2/M"
_symmetry_group_IT_number 12
_symmetry_cell_setting 'monoclinic'
loop_
_space_group_symop_operation_xyz
x,y,z
-x,y,-z
-x,-y,-z
x,-y,z
1/2+x,1/2+y,z
1/2-x,1/2+y,-z
1/2-x,1/2-y,-z
1/2+x,1/2-y,z
loop_
_atom_site_type_symbol
_atom_site_label
_atom_site_fract_x
_atom_site_fract_y
_atom_site_fract_z
Si Si1 0.898315 0.892239 0.792486
Si Si2 0.197157 0.745529 0.934858
Si Si3 0.316205 0.888910 0.578741
Si Si4 0.803874 0.107555 0.211696
Si Si5 0.895540 0.611119 0.423925
O O1 0.573795 0.863883 0.685600
O O2 0.038387 0.834687 0.870398
O O3 0.084569 0.878380 0.803907
O O4 0.898444 0.000000 0.801710
O O5 0.981023 0.663103 0.862793
O O6 0.500000 0.735272 0.000000
O O7 0.250000 0.750000 0.000000
O O8 0.408284 0.859426 0.558460
O O9 0.000000 0.858975 0.500000
O O10 0.315627 0.000000 0.578110
O O11 0.068976 0.136879 0.318422
O O12 0.759217 0.000000 0.204257
O O13 0.901443 0.500000 0.425391
O O14 0.000000 0.641670 0.500000
#
# Coordination Sequence:
#
# PCOD9222702 Si02
#       5
#     8   8   8   8   8
#     4   9  19  38  62  83 110 153 191 220 275 348
#     4  12  24  40  60  83 111 144 189 246 287 324
#     4   8  14  28  52  81 110 140 179 223 263 319
#     4   9  19  38  61  83 113 151 187 225 278 341
#     4   8  14  28  52  80 110 144 177 215 270 330
#
# _framework density 18.445837999999998
#
# number of rings (size 3 to 8) (size 9 to 14) (size 15 to 20)
#    0.000    2.800    2.000    2.400    0.000    1.600 
#    3.600    1.000    0.000    4.800    0.000    0.000 
#    0.000    0.000    0.000    0.000    0.000    0.000 
#
# Total GULP energy -111578.181369 kJ/mol
# GULP energy per Si atom -5578.909068 kJ/mol
# Density = 1.840385 g / cm^3
# Si number density = 18.445838 Si / 1000 Ang^3
#
#
#
# Elastic Constant Matrix: (Units=GPa)
#
#
# Indices 1 2 3 4 5 6 
#
# 1 118.2336 40.0991 114.9234 0.0002 -4.0976 -0.0001
# 2 40.0991 58.5524 58.3547 0.0007 -2.6066 -0.0002
# 3 114.9234 58.3547 181.2629 0.0027 2.0724 -0.0009
# 4 0.0002 0.0007 0.0027 63.6518 -0.0002 -4.5728
# 5 -4.0976 -2.6066 2.0724 -0.0002 43.7167 -0.0002
# 6 -0.0001 -0.0002 -0.0009 -4.5728 -0.0002 14.5266
#
#
#
# Elastic Compliance Matrix: (Units=1/GPa)
#
#
# Indices 1 2 3 4 5 6 
#
# 1 0.022464 -0.001532 -0.013780 0.000001 0.002667 0.000000
# 2 -0.001532 0.025408 -0.007228 0.000000 0.001714 0.000000
# 3 -0.013780 -0.007228 0.016609 -0.000001 -0.002510 0.000001
# 4 0.000001 0.000000 -0.000001 0.016074 0.000000 0.005060
# 5 0.002667 0.001714 -0.002510 0.000000 0.023346 0.000000
# 6 0.000000 0.000000 0.000001 0.005060 0.000000 0.070432
#
#
# Mechanical properties :
#
#
# Convention : Reuss Voigt Hill
#
# Bulk Modulus (GPa) = 51.54331 87.20037 69.37184
# Shear Modulus (GPa) = 22.13583 34.02379 28.07981
#
# Velocity S-wave (km/s) = 3.46792 4.29945 3.90588
# Velocity P-wave (km/s) = 6.63619 8.48666 7.61782
#
# Compressibility (1/GPa) = 0.01940116
#
# Stress axis : x y z
#
# Youngs Moduli (GPa) = 44.51628 39.35814 60.20906
#
# Poissons Ratio (x) = 0.06031 0.82965
# Poissons Ratio (y) = 0.06821 0.43517
# Poissons Ratio (z) = 0.61341 0.28447
#
# Static dielectric constant tensor:
#      x y z
#    x 1.612390 0.000000 -0.002960 
#    y 0.000000 1.655090 0.000000 
#    z -0.002960 0.000000 1.628400 
# 
# From -- ./inp_files/129154.got.cif
#   From: 2010.05.17/outbox.cif.g08.bks.cpg/sg12_65_cif.got.tgz:129154.got - 2010.06.03 13:09:07.
