data_PCOD9222110
_publ_section_title
;
Structure prediction by ZEFSAII (Michael W. Deem and Ramdas Pophale) SiO2 
 PCOD9222110
Probable space group: C 2/M
;
_chemical_formula_sum "Si O2"
_cell_formula_units_Z 32
_cell_length_a 15.109917
_cell_length_b 15.208495
_cell_length_c 6.950188
_cell_angle_alpha 90.000000
_cell_angle_beta 104.509385
_cell_angle_gamma 90.000000
_cell_volume 1546.208506
_symmetry_space_group_name_H-M "C 2/M"
_symmetry_group_IT_number 12
_symmetry_cell_setting 'monoclinic'
loop_
_space_group_symop_operation_xyz
x,y,z
-x,y,-z
-x,-y,-z
x,-y,z
1/2+x,1/2+y,z
1/2-x,1/2+y,-z
1/2-x,1/2-y,-z
1/2+x,1/2-y,z
loop_
_atom_site_type_symbol
_atom_site_label
_atom_site_fract_x
_atom_site_fract_y
_atom_site_fract_z
Si Si1 0.405186 0.271977 0.549140
Si Si2 0.271611 0.332476 0.145209
Si Si3 0.080905 0.397702 0.198066
Si Si4 0.894114 0.904836 0.886239
O O1 0.500000 0.300786 0.500000
O O2 0.325223 0.293437 0.356696
O O3 0.419243 0.171696 0.626907
O O4 0.382434 0.327497 0.727292
O O5 0.179201 0.382050 0.152568
O O6 0.250000 0.250000 0.000000
O O7 0.336854 0.391631 0.048609
O O8 0.070613 0.500000 0.248526
O O9 0.000000 0.376597 0.000000
O O10 0.871065 0.000000 0.786023
O O11 0.000000 0.903743 0.000000
#
# Coordination Sequence:
#
# PCOD9222110 Si02
#       4
#     8   8   8   8
#     4  12  24  44  72 100 135 179 223 278 343 404
#     4  12  24  44  71  98 134 180 224 276 340 396
#     4  11  25  46  70  99 137 182 231 279 329 398
#     4  11  24  43  69 101 136 172 216 277 342 403
#
# _framework density 20.695785999999998
#
# number of rings (size 3 to 8) (size 9 to 14) (size 15 to 20)
#    0.000    0.500    5.000    3.750    0.000    3.000 
#    0.000    1.250    0.000    0.000    0.000    0.000 
#    0.000    0.000    0.000    0.000    0.000    0.000 
#
# Total GULP energy -89472.139414 kJ/mol
# GULP energy per Si atom -5592.008713 kJ/mol
# Density = 2.064868 g / cm^3
# Si number density = 20.695786 Si / 1000 Ang^3
#
#
#
# Elastic Constant Matrix: (Units=GPa)
#
#
# Indices 1 2 3 4 5 6 
#
# 1 140.8660 17.3524 50.4973 0.0000 3.9017 0.0000
# 2 17.3524 122.3269 57.0325 0.0000 10.3483 0.0000
# 3 50.4973 57.0325 126.5755 0.0000 14.0509 0.0000
# 4 0.0000 0.0000 0.0000 4.8589 0.0000 -2.0642
# 5 3.9017 10.3483 14.0509 0.0000 38.8028 0.0000
# 6 0.0000 0.0000 0.0000 -2.0642 0.0000 19.4757
#
#
#
# Elastic Compliance Matrix: (Units=1/GPa)
#
#
# Indices 1 2 3 4 5 6 
#
# 1 0.008308 0.000451 -0.003554 0.000000 0.000332 0.000000
# 2 0.000451 0.010420 -0.004752 0.000000 -0.001103 0.000000
# 3 -0.003554 -0.004752 0.011752 0.000000 -0.002631 0.000000
# 4 0.000000 0.000000 0.000000 0.215511 0.000000 0.022841
# 5 0.000332 -0.001103 -0.002631 0.000000 0.026985 0.000000
# 6 0.000000 0.000000 0.000000 0.022841 0.000000 0.053767
#
#
# Mechanical properties :
#
#
# Convention : Reuss Voigt Hill
#
# Bulk Modulus (GPa) = 67.71497 71.05919 69.38708
# Shear Modulus (GPa) = 14.39353 30.28656 22.34004
#
# Velocity S-wave (km/s) = 2.64006 3.82961 3.28906
# Velocity P-wave (km/s) = 6.48718 7.34603 6.92992
#
# Compressibility (1/GPa) = 0.01476778
#
# Stress axis : x y z
#
# Youngs Moduli (GPa) = 120.35926 95.97016 85.09334
#
# Poissons Ratio (x) = -0.04324 0.30246
# Poissons Ratio (y) = -0.05423 0.40439
# Poissons Ratio (z) = 0.42782 0.45608
#
# Static dielectric constant tensor:
#      x y z
#    x 1.732500 0.000000 -0.031630 
#    y 0.000000 1.757130 0.000000 
#    z -0.031630 0.000000 1.669100 
# 
# From -- ./inp_files/10157.got.cif
#   From: 2010.05.17/outbox.cif.g08.bks.cpg/sg12_6_cif.got.tgz:10157.got - 2010.06.03 13:09:07.
