data_PCOD9222916
_publ_section_title
;
Structure prediction by ZEFSAII (Michael W. Deem and Ramdas Pophale) SiO2 
 PCOD9222916
Probable space group: C 2/M
;
_chemical_formula_sum "Si O2"
_cell_formula_units_Z 56
_cell_length_a 26.234445
_cell_length_b 7.357376
_cell_length_c 14.358213
_cell_angle_alpha 90.000000
_cell_angle_beta 105.453297
_cell_angle_gamma 90.000000
_cell_volume 2671.183716
_symmetry_space_group_name_H-M "C 2/M"
_symmetry_group_IT_number 12
_symmetry_cell_setting 'monoclinic'
loop_
_space_group_symop_operation_xyz
x,y,z
-x,y,-z
-x,-y,-z
x,-y,z
1/2+x,1/2+y,z
1/2-x,1/2+y,-z
1/2-x,1/2-y,-z
1/2+x,1/2-y,z
loop_
_atom_site_type_symbol
_atom_site_label
_atom_site_fract_x
_atom_site_fract_y
_atom_site_fract_z
Si Si1 0.690733 0.712862 0.582263
Si Si2 0.868968 0.777506 0.267493
Si Si3 0.970992 0.220987 0.208035
Si Si4 0.189857 0.780282 0.370087
Si Si5 0.589658 0.278664 0.007153
Si Si6 0.083993 0.222036 0.215892
Si Si7 0.689863 0.283945 0.945293
O O1 0.678103 0.500000 0.568229
O O2 0.652868 0.787063 0.644206
O O3 0.752453 0.728436 0.639960
O O4 0.686163 0.787169 0.475204
O O5 0.927586 0.721689 0.262932
O O6 0.829467 0.718652 0.165193
O O7 0.868565 0.000000 0.269433
O O8 0.031612 0.278432 0.246502
O O9 0.970338 0.000000 0.208720
O O10 0.949436 0.275791 0.095286
O O11 0.139436 0.718751 0.286724
O O12 0.189239 0.000000 0.371099
O O13 0.587720 0.500000 0.008413
O O14 0.578179 0.218970 0.105912
O O15 0.647935 0.219821 0.001966
O O16 0.084768 0.000000 0.216418
O O17 0.682987 0.500000 0.938868
O O18 0.750000 0.250000 0.000000
#
# Coordination Sequence:
#
# PCOD9222916 Si02
#       7
#     8   8   8   8   8   8   8
#     4   9  17  31  46  59  84 118 143 167 209 259
#     4   8  15  27  42  58  81 114 144 167 202 255
#     4   8  13  23  38  58  84 113 139 165 206 258
#     4   9  18  29  43  66  88 106 138 182 215 243
#     4   8  14  23  36  56  83 112 136 164 208 252
#     4   9  15  23  38  61  87 108 134 176 216 244
#     4   9  17  27  39  59  85 110 139 172 202 242
#
# _framework density 20.964489
#
# number of rings (size 3 to 8) (size 9 to 14) (size 15 to 20)
#    0.000    3.429    0.000    2.143    2.000    1.714 
#    0.000    0.714    0.000    4.286    0.000    5.000 
#    0.000   10.286    0.000    0.000    0.000    0.000 
#
# Total GULP energy -156151.291471 kJ/mol
# GULP energy per Si atom -5576.831838 kJ/mol
# Density = 2.091677 g / cm^3
# Si number density = 20.964489 Si / 1000 Ang^3
#
#
#
# Elastic Constant Matrix: (Units=GPa)
#
#
# Indices 1 2 3 4 5 6 
#
# 1 111.7638 -8.4598 52.4802 0.0000 -17.2130 0.0000
# 2 -8.4598 73.8364 -2.1827 0.0000 -5.3716 0.0000
# 3 52.4802 -2.1827 52.2359 0.0000 -17.3921 0.0000
# 4 0.0000 0.0000 0.0000 -2.8734 0.0000 10.2513
# 5 -17.2130 -5.3716 -17.3921 0.0000 32.9146 0.0000
# 6 0.0000 0.0000 0.0000 10.2513 0.0000 6.0472
#
#
#
# Elastic Compliance Matrix: (Units=1/GPa)
#
#
# Indices 1 2 3 4 5 6 
#
# 1 0.017093 0.001466 -0.017057 0.000000 0.000166 0.000000
# 2 0.001466 0.013943 0.000149 0.000000 0.003121 0.000000
# 3 -0.017057 0.000149 0.040439 0.000000 0.012472 0.000000
# 4 0.000000 0.000000 0.000000 -0.049379 0.000000 0.083708
# 5 0.000166 0.003121 0.012472 0.000000 0.037568 0.000000
# 6 0.000000 0.000000 0.000000 0.083708 0.000000 0.023463
#
#
# Mechanical properties :
#
#
# Convention : Reuss Voigt Hill
#
# Bulk Modulus (GPa) = 24.63567 35.72351 30.17959
# Shear Modulus (GPa) = 39.20303 20.28424 29.74364
#
# Velocity S-wave (km/s) = 4.32901 3.11392 3.77073
# Velocity P-wave (km/s) = 6.06331 5.47775 5.77795
#
# Compressibility (1/GPa) = 0.04059155
#
# Stress axis : x y z
#
# Youngs Moduli (GPa) = 58.50311 71.72123 24.72840
#
# Poissons Ratio (x) = -0.10516 0.42178
# Poissons Ratio (y) = -0.08578 -0.00367
# Poissons Ratio (z) = 0.99787 -0.01065
#
# Static dielectric constant tensor:
#      x y z
#    x 1.753800 0.000000 -0.007450 
#    y 0.000000 1.848680 0.000000 
#    z -0.007450 0.000000 1.725480 
# 
# From -- ./inp_files/231939.got.cif
#   From: 2010.05.17/outbox.cif.g08.bks.cpg/sg12_116_cif.got.tgz:231939.got - 2010.06.03 13:09:07.
