data_PCOD9222161
_publ_section_title
;
Structure prediction by ZEFSAII (Michael W. Deem and Ramdas Pophale) SiO2 
 PCOD9222161
Probable space group: C 2/M
;
_chemical_formula_sum "Si O2"
_cell_formula_units_Z 24
_cell_length_a 15.038417
_cell_length_b 14.911920
_cell_length_c 9.617895
_cell_angle_alpha 90.000000
_cell_angle_beta 147.778618
_cell_angle_gamma 90.000000
_cell_volume 1150.004040
_symmetry_space_group_name_H-M "C 2/M"
_symmetry_group_IT_number 12
_symmetry_cell_setting 'monoclinic'
loop_
_space_group_symop_operation_xyz
x,y,z
-x,y,-z
-x,-y,-z
x,-y,z
1/2+x,1/2+y,z
1/2-x,1/2+y,-z
1/2-x,1/2-y,-z
1/2+x,1/2-y,z
loop_
_atom_site_type_symbol
_atom_site_label
_atom_site_fract_x
_atom_site_fract_y
_atom_site_fract_z
Si Si1 0.880650 0.174288 0.717082
Si Si2 0.685896 0.000000 0.428006
Si Si3 0.119183 0.176400 0.776378
Si Si4 0.706897 0.000000 0.119591
O O1 0.750000 0.250000 0.500000
O O2 0.772561 0.086819 0.607959
O O3 0.001987 0.151277 0.750061
O O4 0.000000 0.204424 0.000000
O O5 0.715893 0.000000 0.299803
O O6 0.487053 0.000000 0.180109
O O7 0.206086 0.088834 0.825962
O O8 0.000000 0.216432 0.500000
O O9 0.250000 0.250000 0.000000
#
# Coordination Sequence:
#
# PCOD9222161 Si02
#       4
#     8   4   8   4
#     4  12  26  44  69 103 139 178 225 282 342 401
#     4  11  24  45  70  99 139 177 232 277 343 401
#     4  12  24  44  69 101 135 177 230 278 338 404
#     4  11  24  44  72 100 133 186 224 282 341 402
#
# _framework density 20.869492000000001
#
# number of rings (size 3 to 8) (size 9 to 14) (size 15 to 20)
#    0.000    0.333    3.333    6.000    4.667    0.000 
#    0.000    2.500    0.000    0.000    0.000    0.000 
#    0.000    0.000    0.000    0.000    0.000    0.000 
#
# Total GULP energy -67205.795075 kJ/mol
# GULP energy per Si atom -5600.482923 kJ/mol
# Density = 2.082199 g / cm^3
# Si number density = 20.869492 Si / 1000 Ang^3
#
#
#
# Elastic Constant Matrix: (Units=GPa)
#
#
# Indices 1 2 3 4 5 6 
#
# 1 87.2540 0.6476 34.2315 0.0000 12.5108 0.0000
# 2 0.6476 138.2283 74.3853 0.0000 18.0671 0.0000
# 3 34.2315 74.3853 205.2756 0.0000 4.2476 0.0000
# 4 0.0000 0.0000 0.0000 30.5620 0.0000 -10.6021
# 5 12.5108 18.0671 4.2476 0.0000 36.9653 0.0000
# 6 0.0000 0.0000 0.0000 -10.6021 0.0000 9.1096
#
#
#
# Elastic Compliance Matrix: (Units=1/GPa)
#
#
# Indices 1 2 3 4 5 6 
#
# 1 0.013339 0.002189 -0.002909 0.000000 -0.005250 0.000000
# 2 0.002189 0.009987 -0.003877 0.000000 -0.005177 0.000000
# 3 -0.002909 -0.003877 0.006718 0.000000 0.002107 0.000000
# 4 0.000000 0.000000 0.000000 0.054876 0.000000 0.063868
# 5 -0.005250 -0.005177 0.002107 0.000000 0.031117 0.000000
# 6 0.000000 0.000000 0.000000 0.063868 0.000000 0.184107
#
#
# Mechanical properties :
#
#
# Convention : Reuss Voigt Hill
#
# Bulk Modulus (GPa) = 47.96168 72.14297 60.05233
# Shear Modulus (GPa) = 15.80840 36.76027 26.28433
#
# Velocity S-wave (km/s) = 2.75524 4.20150 3.55274
# Velocity P-wave (km/s) = 5.75790 7.62761 6.75773
#
# Compressibility (1/GPa) = 0.02084998
#
# Stress axis : x y z
#
# Youngs Moduli (GPa) = 74.97060 100.12936 148.85682
#
# Poissons Ratio (x) = -0.21920 0.43302
# Poissons Ratio (y) = -0.16412 0.57711
# Poissons Ratio (z) = 0.21809 0.38820
#
# Static dielectric constant tensor:
#      x y z
#    x 1.776720 0.000000 -0.007280 
#    y 0.000000 1.736460 0.000000 
#    z -0.007280 0.000000 1.734360 
# 
# From -- ./inp_files/35919.got.cif
#   From: 2010.05.17/outbox.cif.g08.bks.cpg/sg12_18_cif.got.tgz:35919.got - 2010.06.03 13:09:07.
