data_PCOD9222128
_publ_section_title
;
Structure prediction by ZEFSAII (Michael W. Deem and Ramdas Pophale) SiO2 
 PCOD9222128
Probable space group: C 2/M
;
_chemical_formula_sum "Si O2"
_cell_formula_units_Z 48
_cell_length_a 11.453745
_cell_length_b 21.402597
_cell_length_c 14.944288
_cell_angle_alpha 90.000000
_cell_angle_beta 36.405574
_cell_angle_gamma 90.000000
_cell_volume 2174.241985
_symmetry_space_group_name_H-M "C 2/M"
_symmetry_group_IT_number 12
_symmetry_cell_setting 'monoclinic'
loop_
_space_group_symop_operation_xyz
x,y,z
-x,y,-z
-x,-y,-z
x,-y,z
1/2+x,1/2+y,z
1/2-x,1/2+y,-z
1/2-x,1/2-y,-z
1/2+x,1/2-y,z
loop_
_atom_site_type_symbol
_atom_site_label
_atom_site_fract_x
_atom_site_fract_y
_atom_site_fract_z
Si Si1 0.736142 0.642282 0.656750
Si Si2 0.311922 0.000000 0.380829
Si Si3 0.701016 0.281308 0.327646
Si Si4 0.857418 0.000000 0.714375
Si Si5 0.692328 0.369058 0.162747
Si Si6 0.373639 0.811582 0.891953
Si Si7 0.445125 0.112268 0.684781
O O1 0.778992 0.706815 0.682366
O O2 0.515049 0.636746 0.761031
O O3 0.802920 0.591953 0.690118
O O4 0.874083 0.642052 0.484128
O O5 0.444640 0.941227 0.327246
O O6 0.244450 0.000000 0.319733
O O7 0.097421 0.000000 0.561547
O O8 0.500000 0.300352 0.500000
O O9 0.703053 0.314570 0.230549
O O10 0.895458 0.299371 0.261729
O O11 0.796209 0.063539 0.800358
O O12 0.853671 0.357715 0.987960
O O13 0.323156 0.845552 0.830632
O O14 0.250000 0.750000 0.000000
#
# Coordination Sequence:
#
# PCOD9222128 Si02
#       7
#     8   4   8   4   8   8   8
#     4  11  24  43  72 107 141 196 242 313 361 445
#     4  11  24  45  76 103 144 189 259 311 345 449
#     4  12  25  43  72 105 145 192 247 301 369 434
#     4  11  26  46  75 108 141 201 249 306 368 431
#     4  12  26  46  70 107 151 191 250 300 375 441
#     4  12  26  44  72 107 153 191 238 308 377 442
#     4  11  24  44  67 107 140 191 249 294 372 425
#
# _framework density 22.07666
#
# number of rings (size 3 to 8) (size 9 to 14) (size 15 to 20)
#    0.000    0.500    5.000    3.500    2.333    4.667 
#    0.000    2.500    0.000    2.000    0.000    0.000 
#    0.000    0.000    0.000    0.000    0.000    0.000 
#
# Total GULP energy -134066.100280 kJ/mol
# GULP energy per Si atom -5586.087512 kJ/mol
# Density = 2.202641 g / cm^3
# Si number density = 22.076660 Si / 1000 Ang^3
#
#
#
# Elastic Constant Matrix: (Units=GPa)
#
#
# Indices 1 2 3 4 5 6 
#
# 1 99.3760 36.5817 25.7654 0.0019 6.2240 0.0000
# 2 36.5817 119.2494 43.1472 0.0006 22.7635 -0.0006
# 3 25.7654 43.1472 77.0387 -0.0082 28.4564 0.0023
# 4 0.0019 0.0006 -0.0082 17.1196 0.0020 -8.8191
# 5 6.2240 22.7635 28.4564 0.0020 47.8139 -0.0017
# 6 0.0000 -0.0006 0.0023 -8.8191 -0.0017 34.6068
#
#
#
# Elastic Compliance Matrix: (Units=1/GPa)
#
#
# Indices 1 2 3 4 5 6 
#
# 1 0.011772 -0.002854 -0.002915 -0.000003 0.001562 -0.000001
# 2 -0.002854 0.011349 -0.004542 -0.000002 -0.002329 0.000000
# 3 -0.002915 -0.004542 0.019945 0.000012 -0.009328 0.000001
# 4 -0.000003 -0.000002 0.000012 0.067240 -0.000008 0.017135
# 5 0.001562 -0.002329 -0.009328 -0.000008 0.027372 0.000000
# 6 -0.000001 0.000000 0.000001 0.017135 0.000000 0.033263
#
#
# Mechanical properties :
#
#
# Convention : Reuss Voigt Hill
#
# Bulk Modulus (GPa) = 44.55652 56.29475 50.42563
# Shear Modulus (GPa) = 25.12021 32.58603 28.85312
#
# Velocity S-wave (km/s) = 3.37688 3.84609 3.61910
# Velocity P-wave (km/s) = 5.95239 6.72891 6.35253
#
# Compressibility (1/GPa) = 0.02244341
#
# Stress axis : x y z
#
# Youngs Moduli (GPa) = 84.95054 88.11191 50.13859
#
# Poissons Ratio (x) = 0.25151 0.14616
# Poissons Ratio (y) = 0.24249 0.22770
# Poissons Ratio (z) = 0.24764 0.40016
#
# Static dielectric constant tensor:
#      x y z
#    x 1.896660 0.000000 -0.040960 
#    y 0.000000 1.894410 0.000000 
#    z -0.040960 0.000000 1.815090 
# 
# From -- ./inp_files/207948.got.cif
#   From: 2010.05.17/outbox.cif.g08.bks.cpg/sg12_104_cif.got.tgz:207948.got - 2010.06.03 13:09:07.
