data_PCOD9222663
_publ_section_title
;
Structure prediction by ZEFSAII (Michael W. Deem and Ramdas Pophale) SiO2 
 PCOD9222663
Probable space group: C 2/M
;
_chemical_formula_sum "Si O2"
_cell_formula_units_Z 48
_cell_length_a 19.671895
_cell_length_b 14.080287
_cell_length_c 8.438363
_cell_angle_alpha 90.000000
_cell_angle_beta 90.382049
_cell_angle_gamma 90.000000
_cell_volume 2337.255841
_symmetry_space_group_name_H-M "C 2/M"
_symmetry_group_IT_number 12
_symmetry_cell_setting 'monoclinic'
loop_
_space_group_symop_operation_xyz
x,y,z
-x,y,-z
-x,-y,-z
x,-y,z
1/2+x,1/2+y,z
1/2-x,1/2+y,-z
1/2-x,1/2-y,-z
1/2+x,1/2-y,z
loop_
_atom_site_type_symbol
_atom_site_label
_atom_site_fract_x
_atom_site_fract_y
_atom_site_fract_z
Si Si1 0.251603 0.500000 0.438610
Si Si2 0.402016 0.206231 0.161605
Si Si3 0.638237 0.000000 0.939407
Si Si4 0.780410 0.792483 0.338643
Si Si5 0.400073 0.000000 0.690046
Si Si6 0.843279 0.207304 0.839246
Si Si7 0.962986 0.293115 0.661546
Si Si8 0.787105 0.000000 0.812437
O O1 0.281791 0.405168 0.360898
O O2 0.170671 0.500000 0.406661
O O3 0.265695 0.500000 0.626674
O O4 0.352279 0.246426 0.296715
O O5 0.480231 0.222299 0.203144
O O6 0.390638 0.094065 0.142156
O O7 0.376169 0.254366 0.000284
O O8 0.719038 0.000000 0.916104
O O9 0.618722 0.000000 0.123706
O O10 0.750000 0.750000 0.500000
O O11 0.726714 0.762122 0.201965
O O12 0.440623 0.096452 0.655933
O O13 0.896355 0.233211 0.701762
O O14 0.827598 0.096275 0.845548
O O15 0.000000 0.267479 0.500000
#
# Coordination Sequence:
#
# PCOD9222663 Si02
#       8
#     4   8   4   8   4   8   8   4
#     4  12  24  42  73 106 144 176 237 286 356 413
#     4  12  26  43  73 102 146 188 233 292 357 418
#     4  12  23  43  73 107 144 177 232 287 367 411
#     4  12  23  43  70 103 142 186 234 290 350 416
#     4  12  26  42  72 108 147 182 227 287 365 437
#     4  12  25  47  68 103 140 188 238 291 350 418
#     4  12  27  46  69 102 146 185 237 288 357 425
#     4  12  28  43  75 105 142 183 241 297 346 415
#
# _framework density 20.536904
#
# number of rings (size 3 to 8) (size 9 to 14) (size 15 to 20)
#    0.000    0.000    6.667    2.750    4.667    0.667 
#    0.000    2.917    0.000    0.000    0.000    0.000 
#    0.000    0.000    0.000    0.000    0.000    0.000 
#
# Total GULP energy -134485.049229 kJ/mol
# GULP energy per Si atom -5603.543718 kJ/mol
# Density = 2.049016 g / cm^3
# Si number density = 20.536904 Si / 1000 Ang^3
#
#
#
# Elastic Constant Matrix: (Units=GPa)
#
#
# Indices 1 2 3 4 5 6 
#
# 1 80.5724 7.8464 -4.2983 0.0000 1.9338 0.0000
# 2 7.8464 125.7363 10.0941 0.0000 2.2532 0.0000
# 3 -4.2983 10.0941 56.6328 0.0000 -1.6427 0.0000
# 4 0.0000 0.0000 0.0000 18.2153 0.0000 -19.9098
# 5 1.9338 2.2532 -1.6427 0.0000 45.0817 0.0000
# 6 0.0000 0.0000 0.0000 -19.9098 0.0000 14.0555
#
#
#
# Elastic Compliance Matrix: (Units=1/GPa)
#
#
# Indices 1 2 3 4 5 6 
#
# 1 0.012565 -0.000864 0.001094 0.000000 -0.000456 0.000000
# 2 -0.000864 0.008137 -0.001528 0.000000 -0.000425 0.000000
# 3 0.001094 -0.001528 0.018033 0.000000 0.000687 0.000000
# 4 0.000000 0.000000 0.000000 -0.100128 0.000000 -0.141833
# 5 -0.000456 -0.000425 0.000687 0.000000 0.022248 0.000000
# 6 0.000000 0.000000 0.000000 -0.141833 0.000000 -0.129762
#
#
# Mechanical properties :
#
#
# Convention : Reuss Voigt Hill
#
# Bulk Modulus (GPa) = 27.67045 32.24732 29.95889
# Shear Modulus (GPa) = -32.41165 32.09047 -0.16059
#
# Velocity S-wave (km/s) = -3.97699 3.95723 -0.27994
# Velocity P-wave (km/s) = 2.75423 6.05110 3.80986
#
# Compressibility (1/GPa) = 0.03613963
#
# Stress axis : x y z
#
# Youngs Moduli (GPa) = 79.58845 122.88988 55.45390
#
# Poissons Ratio (x) = 0.10615 -0.06069
# Poissons Ratio (y) = 0.06875 0.08475
# Poissons Ratio (z) = -0.08710 0.18781
#
# Static dielectric constant tensor:
#      x y z
#    x 1.692750 0.000000 0.004280 
#    y 0.000000 1.690340 0.000000 
#    z 0.004280 0.000000 1.773760 
# 
# From -- ./inp_files/73699.got.cif
#   From: 2010.05.17/outbox.cif.g08.bks.cpg/sg12_37_cif.got.tgz:73699.got - 2010.06.03 13:09:07.
