data_PCOD9222630
_publ_section_title
;
Structure prediction by ZEFSAII (Michael W. Deem and Ramdas Pophale) SiO2 
 PCOD9222630
Probable space group: C 2/M
;
_chemical_formula_sum "Si O2"
_cell_formula_units_Z 44
_cell_length_a 11.557981
_cell_length_b 28.161547
_cell_length_c 11.200878
_cell_angle_alpha 90.000000
_cell_angle_beta 140.900114
_cell_angle_gamma 90.000000
_cell_volume 2299.300109
_symmetry_space_group_name_H-M "C 2/M"
_symmetry_group_IT_number 12
_symmetry_cell_setting 'monoclinic'
loop_
_space_group_symop_operation_xyz
x,y,z
-x,y,-z
-x,-y,-z
x,-y,z
1/2+x,1/2+y,z
1/2-x,1/2+y,-z
1/2-x,1/2-y,-z
1/2+x,1/2-y,z
loop_
_atom_site_type_symbol
_atom_site_label
_atom_site_fract_x
_atom_site_fract_y
_atom_site_fract_z
Si Si1 0.706673 0.053226 0.750865
Si Si2 0.487586 0.552418 0.194409
Si Si3 0.500000 0.861108 0.500000
Si Si4 0.058138 0.141863 0.680699
Si Si5 0.624344 0.785552 0.985108
Si Si6 0.309282 0.804405 0.546270
O O1 0.588351 0.100845 0.662221
O O2 0.814352 0.057599 0.710792
O O3 0.622989 0.000000 0.691158
O O4 0.850459 0.054007 0.972767
O O5 0.479161 0.500000 0.242734
O O6 0.430558 0.593732 0.236115
O O7 0.372449 0.825818 0.471251
O O8 0.233647 0.175984 0.844614
O O9 0.000000 0.130283 0.500000
O O10 0.877801 0.169055 0.577973
O O11 0.500000 0.766263 0.000000
O O12 0.750000 0.750000 0.000000
O O13 0.474702 0.808373 0.774757
O O14 0.250000 0.750000 0.500000
#
# Coordination Sequence:
#
# PCOD9222630 Si02
#       6
#     8   8   4   8   8   8
#     4   9  18  36  64  97 131 158 204 276 334 387
#     4   9  19  39  63  94 127 165 211 262 326 395
#     4  12  23  38  66  96 130 168 219 266 336 400
#     4  12  24  44  67  89 134 173 217 266 320 386
#     4  12  27  45  69  95 130 176 222 277 332 384
#     4  12  27  43  63  97 130 172 223 269 326 390
#
# _framework density 19.136258000000002
#
# number of rings (size 3 to 8) (size 9 to 14) (size 15 to 20)
#    0.000    1.091    5.455    2.455    3.818    0.364 
#    3.273    0.000    0.000    0.545    0.000    0.000 
#    0.000    0.000    0.000    0.000    0.000    0.000 
#
# Total GULP energy -122506.242677 kJ/mol
# GULP energy per Si atom -5568.465576 kJ/mol
# Density = 1.909270 g / cm^3
# Si number density = 19.136258 Si / 1000 Ang^3
#
#
#
# Elastic Constant Matrix: (Units=GPa)
#
#
# Indices 1 2 3 4 5 6 
#
# 1 100.7746 62.9996 19.5750 0.0000 -3.0624 0.0000
# 2 62.9996 143.9619 32.8668 0.0000 -4.8988 0.0000
# 3 19.5750 32.8668 105.7736 0.0000 5.2358 0.0000
# 4 0.0000 0.0000 0.0000 20.4775 0.0000 -10.3205
# 5 -3.0624 -4.8988 5.2358 0.0000 26.6413 0.0000
# 6 0.0000 0.0000 0.0000 -10.3205 0.0000 32.4556
#
#
#
# Elastic Compliance Matrix: (Units=1/GPa)
#
#
# Indices 1 2 3 4 5 6 
#
# 1 0.013723 -0.005808 -0.000768 0.000000 0.000660 0.000000
# 2 -0.005808 0.010026 -0.002119 0.000000 0.001592 0.000000
# 3 -0.000768 -0.002119 0.010379 0.000000 -0.002518 0.000000
# 4 0.000000 0.000000 0.000000 0.058154 0.000000 0.018492
# 5 0.000660 0.001592 -0.002518 0.000000 0.038399 0.000000
# 6 0.000000 0.000000 0.000000 0.018492 0.000000 0.036692
#
#
# Mechanical properties :
#
#
# Convention : Reuss Voigt Hill
#
# Bulk Modulus (GPa) = 59.74144 64.59923 62.17034
# Shear Modulus (GPa) = 26.26853 31.58614 28.92733
#
# Velocity S-wave (km/s) = 3.70903 4.06715 3.89221
# Velocity P-wave (km/s) = 7.04481 7.47572 7.26346
#
# Compressibility (1/GPa) = 0.01673880
#
# Stress axis : x y z
#
# Youngs Moduli (GPa) = 72.87051 99.74268 96.34457
#
# Poissons Ratio (x) = 0.57927 0.07397
# Poissons Ratio (y) = 0.42320 0.20419
# Poissons Ratio (z) = 0.05595 0.21139
#
# Static dielectric constant tensor:
#      x y z
#    x 1.633240 0.000000 0.028070 
#    y 0.000000 1.651850 0.000000 
#    z 0.028070 0.000000 1.693700 
# 
# From -- ./inp_files/136091.got.cif
#   From: 2010.05.17/outbox.cif.g08.bks.cpg/sg12_69_cif.got.tgz:136091.got - 2010.06.03 13:09:07.
