data_PCOD9222854
_publ_section_title
;
Structure prediction by ZEFSAII (Michael W. Deem and Ramdas Pophale) SiO2 
 PCOD9222854
Probable space group: C 2/M
;
_chemical_formula_sum "Si O2"
_cell_formula_units_Z 56
_cell_length_a 20.092999
_cell_length_b 7.414839
_cell_length_c 22.758761
_cell_angle_alpha 90.000000
_cell_angle_beta 125.139645
_cell_angle_gamma 90.000000
_cell_volume 2772.787164
_symmetry_space_group_name_H-M "C 2/M"
_symmetry_group_IT_number 12
_symmetry_cell_setting 'monoclinic'
loop_
_space_group_symop_operation_xyz
x,y,z
-x,y,-z
-x,-y,-z
x,-y,z
1/2+x,1/2+y,z
1/2-x,1/2+y,-z
1/2-x,1/2-y,-z
1/2+x,1/2-y,z
loop_
_atom_site_type_symbol
_atom_site_label
_atom_site_fract_x
_atom_site_fract_y
_atom_site_fract_z
Si Si1 0.525817 0.288454 0.696031
Si Si2 0.793266 0.282122 0.189603
Si Si3 0.761112 0.284874 0.306235
Si Si4 0.869550 0.219440 0.946439
Si Si5 0.510369 0.280743 0.098952
Si Si6 0.587429 0.278709 0.260092
Si Si7 0.557168 0.284240 0.580923
O O1 0.508643 0.500000 0.680058
O O2 0.613756 0.273295 0.772063
O O3 0.456373 0.214489 0.703170
O O4 0.535523 0.212301 0.635124
O O5 0.792561 0.500000 0.189689
O O6 0.768528 0.218504 0.242731
O O7 0.723190 0.220837 0.109319
O O8 0.752283 0.500000 0.297117
O O9 0.680298 0.219414 0.297469
O O10 0.847159 0.248064 0.380406
O O11 0.921558 0.270129 0.914826
O O12 0.868775 0.000000 0.947230
O O13 0.923164 0.278800 0.029239
O O14 0.509995 0.500000 0.099325
O O15 0.536484 0.222303 0.176672
O O16 0.586526 0.500000 0.260575
O O17 0.500000 0.214163 0.500000
O O18 0.546692 0.500000 0.577656
#
# Coordination Sequence:
#
# PCOD9222854 Si02
#       7
#     8   8   8   8   8   8   8
#     4   9  18  30  45  63  85 115 144 171 210 258
#     4   9  15  26  43  64  87 111 143 181 213 244
#     4   9  16  27  47  70  87 107 139 179 215 245
#     4   8  12  19  35  61  87 109 139 179 215 242
#     4   8  12  19  35  60  87 111 138 176 215 246
#     4   9  15  26  42  63  89 113 141 177 214 250
#     4   9  18  33  49  64  85 114 144 170 202 254
#
# _framework density 20.196286000000001
#
# number of rings (size 3 to 8) (size 9 to 14) (size 15 to 20)
#    0.000    3.286    1.429    0.857    0.000    0.286 
#    0.000    2.143    0.000    0.000    0.000    3.000 
#    0.000    0.000    0.000    0.000    0.000    0.000 
#
# Total GULP energy -156092.580244 kJ/mol
# GULP energy per Si atom -5574.735009 kJ/mol
# Density = 2.015032 g / cm^3
# Si number density = 20.196286 Si / 1000 Ang^3
#
#
#
# Elastic Constant Matrix: (Units=GPa)
#
#
# Indices 1 2 3 4 5 6 
#
# 1 138.2583 3.7051 71.6411 0.0000 12.2812 0.0000
# 2 3.7051 63.9388 -4.1667 0.0000 -3.9377 -0.0001
# 3 71.6411 -4.1667 130.7154 0.0000 18.0352 0.0000
# 4 0.0000 0.0000 0.0000 21.5562 0.0000 16.1494
# 5 12.2812 -3.9377 18.0352 0.0000 19.1919 0.0000
# 6 0.0000 -0.0001 0.0000 16.1494 0.0000 3.4840
#
#
#
# Elastic Compliance Matrix: (Units=1/GPa)
#
#
# Indices 1 2 3 4 5 6 
#
# 1 0.010205 -0.001046 -0.005396 0.000000 -0.001675 0.000000
# 2 -0.001046 0.015948 0.000618 0.000000 0.003361 0.000000
# 3 -0.005396 0.000618 0.011643 0.000000 -0.007362 0.000000
# 4 0.000000 0.000000 0.000000 -0.018761 0.000000 0.086964
# 5 -0.001675 0.003361 -0.007362 0.000000 0.060785 0.000000
# 6 0.000000 0.000000 0.000000 0.086964 0.000000 -0.116080
#
#
# Mechanical properties :
#
#
# Convention : Reuss Voigt Hill
#
# Bulk Modulus (GPa) = 38.24288 52.80796 45.52542
# Shear Modulus (GPa) = -314.52114 26.29527 -144.11293
#
# Velocity S-wave (km/s) = -12.49281 3.61222 -8.45642
# Velocity P-wave (km/s) = 13.75198 6.60315 8.52981
#
# Compressibility (1/GPa) = 0.02614866
#
# Stress axis : x y z
#
# Youngs Moduli (GPa) = 97.98678 62.70444 85.89049
#
# Poissons Ratio (x) = 0.06560 0.46343
# Poissons Ratio (y) = 0.10251 -0.05308
# Poissons Ratio (z) = 0.52869 -0.03875
#
# Static dielectric constant tensor:
#      x y z
#    x 1.698880 0.000000 0.006650 
#    y 0.000000 1.782270 0.000000 
#    z 0.006650 0.000000 1.713530 
# 
# From -- ./inp_files/313275.got.cif
#   From: 2010.05.17/outbox.cif.g08.bks.cpg/sg12_157_cif.got.tgz:313275.got - 2010.06.03 13:09:07.
