data_PCOD9222755
_publ_section_title
;
Structure prediction by ZEFSAII (Michael W. Deem and Ramdas Pophale) SiO2 
 PCOD9222755
Probable space group: C 2/M
;
_chemical_formula_sum "Si O2"
_cell_formula_units_Z 20
_cell_length_a 5.021502
_cell_length_b 19.860298
_cell_length_c 8.181330
_cell_angle_alpha 90.000000
_cell_angle_beta 81.977573
_cell_angle_gamma 90.000000
_cell_volume 807.927074
_symmetry_space_group_name_H-M "C 2/M"
_symmetry_group_IT_number 12
_symmetry_cell_setting 'monoclinic'
loop_
_space_group_symop_operation_xyz
x,y,z
-x,y,-z
-x,-y,-z
x,-y,z
1/2+x,1/2+y,z
1/2-x,1/2+y,-z
1/2-x,1/2-y,-z
1/2+x,1/2-y,z
loop_
_atom_site_type_symbol
_atom_site_label
_atom_site_fract_x
_atom_site_fract_y
_atom_site_fract_z
Si Si1 0.378022 0.139172 0.690076
Si Si2 0.134977 0.190728 0.131378
Si Si3 0.273869 0.000000 0.876162
O O1 0.500000 0.139378 0.500000
O O2 0.299974 0.064616 0.754781
O O3 0.119854 0.190048 0.722554
O O4 0.612375 0.162419 0.794441
O O5 0.250000 0.250000 0.000000
O O6 0.000000 0.145524 0.000000
O O7 0.500000 0.000000 0.000000
O O8 0.000000 0.000000 0.000000
#
# Coordination Sequence:
#
# PCOD9222755 Si02
#       3
#     8   8   4
#     4  12  26  47  74 112 150 187 242 314 371 426
#     4  12  25  47  74 100 143 199 248 295 359 445
#     4  12  25  44  77 108 143 196 243 290 368 456
#
# _framework density 24.754708000000001
#
# number of rings (size 3 to 8) (size 9 to 14) (size 15 to 20)
#    0.000    0.000    0.000   12.600    0.000    0.000 
#    0.000   26.000    0.000    0.000    0.000    0.000 
#    0.000    0.000    0.000    0.000    0.000    0.000 
#
# Total GULP energy -55801.374765 kJ/mol
# GULP energy per Si atom -5580.137476 kJ/mol
# Density = 2.469836 g / cm^3
# Si number density = 24.754708 Si / 1000 Ang^3
#
#
#
# Elastic Constant Matrix: (Units=GPa)
#
#
# Indices 1 2 3 4 5 6 
#
# 1 247.5227 61.5191 82.1046 0.0000 -32.9812 0.0000
# 2 61.5191 182.8353 101.7389 0.0000 -23.9646 0.0000
# 3 82.1046 101.7389 216.4347 0.0000 -39.0728 0.0000
# 4 0.0000 0.0000 0.0000 42.5576 0.0000 -3.0186
# 5 -32.9812 -23.9646 -39.0728 0.0000 58.0955 0.0000
# 6 0.0000 0.0000 0.0000 -3.0186 0.0000 27.0786
#
#
#
# Elastic Compliance Matrix: (Units=1/GPa)
#
#
# Indices 1 2 3 4 5 6 
#
# 1 0.004839 -0.000754 -0.001186 0.000000 0.001639 0.000000
# 2 -0.000754 0.007558 -0.003166 0.000000 0.000561 0.000000
# 3 -0.001186 -0.003166 0.007058 0.000000 0.002768 0.000000
# 4 0.000000 0.000000 0.000000 0.023685 0.000000 0.002640
# 5 0.001639 0.000561 0.002768 0.000000 0.020236 0.000000
# 6 0.000000 0.000000 0.000000 0.002640 0.000000 0.037224
#
#
# Mechanical properties :
#
#
# Convention : Reuss Voigt Hill
#
# Bulk Modulus (GPa) = 108.16506 126.39088 117.27797
# Shear Modulus (GPa) = 43.90151 52.30833 48.10492
#
# Velocity S-wave (km/s) = 4.21582 4.60180 4.41303
# Velocity P-wave (km/s) = 8.21505 8.91087 8.57002
#
# Compressibility (1/GPa) = 0.00924513
#
# Stress axis : x y z
#
# Youngs Moduli (GPa) = 206.65551 132.30984 141.68694
#
# Poissons Ratio (x) = 0.09972 0.16797
# Poissons Ratio (y) = 0.15575 0.44853
# Poissons Ratio (z) = 0.24499 0.41884
#
# Static dielectric constant tensor:
#      x y z
#    x 2.311930 0.000000 -0.061810 
#    y 0.000000 2.156690 0.000000 
#    z -0.061810 0.000000 1.971050 
# 
# From -- ./inp_files/33458.got.cif
#   From: 2010.05.17/outbox.cif.g08.bks.cpg/sg12_17_cif.got.tgz:33458.got - 2010.06.03 13:09:07.
