data_PCOD9222134
_publ_section_title
;
Structure prediction by ZEFSAII (Michael W. Deem and Ramdas Pophale) SiO2 
 PCOD9222134
Probable space group: C 2/M
;
_chemical_formula_sum "Si O2"
_cell_formula_units_Z 52
_cell_length_a 21.654317
_cell_length_b 23.395647
_cell_length_c 5.369226
_cell_angle_alpha 90.000000
_cell_angle_beta 54.496933
_cell_angle_gamma 90.000000
_cell_volume 2214.423516
_symmetry_space_group_name_H-M "C 2/M"
_symmetry_group_IT_number 12
_symmetry_cell_setting 'monoclinic'
loop_
_space_group_symop_operation_xyz
x,y,z
-x,y,-z
-x,-y,-z
x,-y,z
1/2+x,1/2+y,z
1/2-x,1/2+y,-z
1/2-x,1/2-y,-z
1/2+x,1/2-y,z
loop_
_atom_site_type_symbol
_atom_site_label
_atom_site_fract_x
_atom_site_fract_y
_atom_site_fract_z
Si Si1 0.356255 0.869861 0.283225
Si Si2 0.856238 0.500000 0.334139
Si Si3 0.085386 0.808662 0.201133
Si Si4 0.164607 0.902023 0.257443
Si Si5 0.221494 0.500000 0.993153
Si Si6 0.549818 0.500000 0.639628
Si Si7 0.793224 0.810329 0.443255
Si Si8 0.589194 0.811904 0.349734
O O1 0.267243 0.854883 0.545438
O O2 0.398156 0.839189 0.412406
O O3 0.383998 0.935709 0.215113
O O4 0.372363 0.844772 0.971099
O O5 0.788921 0.500000 0.279894
O O6 0.847918 0.500000 0.653689
O O7 0.119087 0.871872 0.146577
O O8 0.117428 0.753573 0.274677
O O9 0.000000 0.812701 0.500000
O O10 0.120124 0.796365 0.848023
O O11 0.232761 0.943864 0.038508
O O12 0.193943 0.846982 0.338124
O O13 0.103897 0.944292 0.525632
O O14 0.500000 0.500000 0.500000
O O15 0.500000 0.500000 0.000000
O O16 0.750000 0.750000 0.500000
O O17 0.500000 0.810666 0.500000
#
# Coordination Sequence:
#
# PCOD9222134 Si02
#       8
#     8   4   8   8   4   4   8   8
#     4  12  25  46  75 107 145 189 247 304 375 444
#     4  12  24  43  73 105 141 187 241 294 377 430
#     4  11  26  44  71 104 149 200 249 304 377 445
#     4  11  26  42  72 102 152 194 253 311 372 447
#     4  11  24  44  66 105 145 192 235 310 358 436
#     4  11  28  49  74 106 149 209 263 311 378 451
#     4  12  25  42  71 109 147 192 253 310 377 446
#     4  11  26  49  73 106 148 190 239 309 380 451
#
# _framework density 23.482410000000002
#
# number of rings (size 3 to 8) (size 9 to 14) (size 15 to 20)
#    0.000    0.615    3.077    3.692    6.462    2.462 
#    0.000    2.308    0.000    0.000    0.000    0.000 
#    0.000    0.000    0.000    0.000    0.000    0.000 
#
# Total GULP energy -144758.689673 kJ/mol
# GULP energy per Si atom -5567.641911 kJ/mol
# Density = 2.342896 g / cm^3
# Si number density = 23.482410 Si / 1000 Ang^3
#
#
#
# Elastic Constant Matrix: (Units=GPa)
#
#
# Indices 1 2 3 4 5 6 
#
# 1 56.9014 8.8873 12.1891 0.0000 4.9669 0.0000
# 2 8.8873 148.4450 13.2958 0.0000 16.6767 0.0000
# 3 12.1891 13.2958 78.4194 0.0000 -3.9783 0.0000
# 4 0.0000 0.0000 0.0000 25.9418 0.0000 21.2794
# 5 4.9669 16.6767 -3.9783 0.0000 28.3083 0.0000
# 6 0.0000 0.0000 0.0000 21.2794 0.0000 63.2111
#
#
#
# Elastic Compliance Matrix: (Units=1/GPa)
#
#
# Indices 1 2 3 4 5 6 
#
# 1 0.018583 -0.000463 -0.002983 0.000000 -0.003407 0.000000
# 2 -0.000463 0.007393 -0.001408 0.000000 -0.004472 0.000000
# 3 -0.002983 -0.001408 0.013620 0.000000 0.003267 0.000000
# 4 0.000000 0.000000 0.000000 0.053253 0.000000 -0.017927
# 5 -0.003407 -0.004472 0.003267 0.000000 0.039017 0.000000
# 6 0.000000 0.000000 0.000000 -0.017927 0.000000 0.021855
#
#
# Mechanical properties :
#
#
# Convention : Reuss Voigt Hill
#
# Bulk Modulus (GPa) = 33.45814 39.16779 36.31296
# Shear Modulus (GPa) = 28.83659 40.11846 34.47753
#
# Velocity S-wave (km/s) = 3.50810 4.13782 3.83590
# Velocity P-wave (km/s) = 5.53968 6.28845 5.92590
#
# Compressibility (1/GPa) = 0.02988810
#
# Stress axis : x y z
#
# Youngs Moduli (GPa) = 53.81290 135.26806 73.42078
#
# Poissons Ratio (x) = 0.06258 0.21900
# Poissons Ratio (y) = 0.02489 0.10340
# Poissons Ratio (z) = 0.16052 0.19051
#
# Static dielectric constant tensor:
#      x y z
#    x 1.978550 0.000000 -0.069110 
#    y 0.000000 1.900650 0.000000 
#    z -0.069110 0.000000 1.871110 
# 
# From -- ./inp_files/26185.got.cif
#   From: 2010.05.17/outbox.cif.g08.bks.cpg/sg12_14_cif.got.tgz:26185.got - 2010.06.03 13:09:07.
