data_PCOD9222794
_publ_section_title
;
Structure prediction by ZEFSAII (Michael W. Deem and Ramdas Pophale) SiO2 
 PCOD9222794
Probable space group: C 2/M
;
_chemical_formula_sum "Si O2"
_cell_formula_units_Z 64
_cell_length_a 6.911773
_cell_length_b 29.494988
_cell_length_c 16.401353
_cell_angle_alpha 90.000000
_cell_angle_beta 102.276205
_cell_angle_gamma 90.000000
_cell_volume 3267.168056
_symmetry_space_group_name_H-M "C 2/M"
_symmetry_group_IT_number 12
_symmetry_cell_setting 'monoclinic'
loop_
_space_group_symop_operation_xyz
x,y,z
-x,y,-z
-x,-y,-z
x,-y,z
1/2+x,1/2+y,z
1/2-x,1/2+y,-z
1/2-x,1/2-y,-z
1/2+x,1/2-y,z
loop_
_atom_site_type_symbol
_atom_site_label
_atom_site_fract_x
_atom_site_fract_y
_atom_site_fract_z
Si Si1 0.259393 0.447564 0.300704
Si Si2 0.745959 0.398092 0.862081
Si Si3 0.268507 0.554975 0.481197
Si Si4 0.235319 0.889421 0.181562
Si Si5 0.250134 0.697268 0.073646
Si Si6 0.242782 0.052976 0.339937
Si Si7 0.241001 0.948676 0.025429
Si Si8 0.780620 0.796693 0.890917
O O1 0.203564 0.500000 0.281709
O O2 0.193560 0.417096 0.219720
O O3 0.191198 0.432430 0.384633
O O4 0.500978 0.447083 0.322651
O O5 0.505327 0.394559 0.838416
O O6 0.819729 0.348136 0.889803
O O7 0.801014 0.430734 0.941956
O O8 0.500000 0.568371 0.500000
O O9 0.261186 0.500000 0.481564
O O10 0.189872 0.568286 0.563361
O O11 0.299162 0.915522 0.269067
O O12 0.291755 0.836342 0.175885
O O13 0.295414 0.915125 0.103670
O O14 0.223934 0.742712 0.124472
O O15 0.486734 0.692643 0.083715
O O16 0.183479 0.700774 0.972860
O O17 0.298696 0.000000 0.332358
O O18 0.306044 0.000000 0.047233
O O19 0.000000 0.949080 0.000000
#
# Coordination Sequence:
#
# PCOD9222794 Si02
#       8
#     8   8   8   8   8   8   8   8
#     4   8  12  17  26  41  63  90 115 137 165 203
#     4   9  14  20  29  44  65  89 113 138 170 205
#     4   7  10  16  24  36  57  86 117 141 159 191
#     4   9  14  20  29  44  65  89 113 138 170 205
#     4   9  16  26  38  51  69  91 117 150 182 208
#     4   8  12  17  26  41  63  90 115 137 165 203
#     4   9  14  18  25  40  65  91 109 127 160 207
#     4   9  16  26  38  51  69  91 117 150 182 208
#
# _framework density 19.588830000000002
#
# number of rings (size 3 to 8) (size 9 to 14) (size 15 to 20)
#    0.000    3.500    1.250    2.250    0.000    3.000 
#    0.000    0.000    0.000    0.000    0.000    0.875 
#    0.000    5.000    0.000    0.000    0.000    7.000 
#
# Total GULP energy -178553.789381 kJ/mol
# GULP energy per Si atom -5579.805918 kJ/mol
# Density = 1.954425 g / cm^3
# Si number density = 19.588830 Si / 1000 Ang^3
#
#
#
# Elastic Constant Matrix: (Units=GPa)
#
#
# Indices 1 2 3 4 5 6 
#
# 1 59.2406 0.0269 15.1942 0.0000 -9.8424 0.0000
# 2 0.0269 135.1639 83.8809 0.0000 2.4339 0.0000
# 3 15.1942 83.8809 164.8396 0.0000 -7.5533 0.0000
# 4 0.0000 0.0000 0.0000 -1.1039 0.0000 3.0909
# 5 -9.8424 2.4339 -7.5533 0.0000 33.6771 0.0000
# 6 0.0000 0.0000 0.0000 3.0909 0.0000 10.4218
#
#
#
# Elastic Compliance Matrix: (Units=1/GPa)
#
#
# Indices 1 2 3 4 5 6 
#
# 1 0.018202 0.001193 -0.002066 0.000000 0.004770 0.000000
# 2 0.001193 0.011031 -0.005804 0.000000 -0.001750 0.000000
# 3 -0.002066 -0.005804 0.009297 0.000000 0.001901 0.000000
# 4 0.000000 0.000000 0.000000 -0.494902 0.000000 0.146777
# 5 0.004770 -0.001750 0.001901 0.000000 0.031641 0.000000
# 6 0.000000 0.000000 0.000000 0.146777 0.000000 0.052422
#
#
# Mechanical properties :
#
#
# Convention : Reuss Voigt Hill
#
# Bulk Modulus (GPa) = 39.71913 61.93867 50.82890
# Shear Modulus (GPa) = -14.26284 25.94180 5.83948
#
# Velocity S-wave (km/s) = -2.70128 3.64306 1.72844
# Velocity P-wave (km/s) = 3.25442 7.02737 5.47609
#
# Compressibility (1/GPa) = 0.02517679
#
# Stress axis : x y z
#
# Youngs Moduli (GPa) = 54.93833 90.65089 107.55826
#
# Poissons Ratio (x) = -0.10812 0.22223
# Poissons Ratio (y) = -0.06552 0.62422
# Poissons Ratio (z) = 0.11351 0.52610
#
# Static dielectric constant tensor:
#      x y z
#    x 1.839900 0.000000 -0.010320 
#    y 0.000000 1.655990 0.000000 
#    z -0.010320 0.000000 1.678270 
# 
# From -- ./inp_files/209549.got.cif
#   From: 2010.05.17/outbox.cif.g08.bks.cpg/sg12_105_cif.got.tgz:209549.got - 2010.06.03 13:09:07.
