data_PCOD9222652
_publ_section_title
;
Structure prediction by ZEFSAII (Michael W. Deem and Ramdas Pophale) SiO2 
 PCOD9222652
Probable space group: C 2/M
;
_chemical_formula_sum "Si O2"
_cell_formula_units_Z 28
_cell_length_a 20.465351
_cell_length_b 12.663387
_cell_length_c 7.444885
_cell_angle_alpha 90.000000
_cell_angle_beta 32.150224
_cell_angle_gamma 90.000000
_cell_volume 1026.724070
_symmetry_space_group_name_H-M "C 2/M"
_symmetry_group_IT_number 12
_symmetry_cell_setting 'monoclinic'
loop_
_space_group_symop_operation_xyz
x,y,z
-x,y,-z
-x,-y,-z
x,-y,z
1/2+x,1/2+y,z
1/2-x,1/2+y,-z
1/2-x,1/2-y,-z
1/2+x,1/2-y,z
loop_
_atom_site_type_symbol
_atom_site_label
_atom_site_fract_x
_atom_site_fract_y
_atom_site_fract_z
Si Si1 0.372131 0.000000 0.078730
Si Si2 0.837799 0.000000 0.166093
Si Si3 0.130043 0.203110 0.688305
Si Si4 0.748613 0.000000 0.999689
Si Si5 0.936623 0.313846 0.473683
O O1 0.454798 0.102725 0.846696
O O2 0.255873 0.000000 0.208757
O O3 0.306434 0.000000 0.426853
O O4 0.892783 0.101413 0.136780
O O5 0.849002 0.000000 0.925817
O O6 0.250000 0.250000 0.500000
O O7 0.135925 0.220225 0.462593
O O8 0.000000 0.264192 0.000000
O O9 0.668127 0.897526 0.235405
O O10 0.000000 0.263928 0.500000
#
# Coordination Sequence:
#
# PCOD9222652 Si02
#       5
#     4   4   8   4   8
#     4   9  20  39  68  96 124 169 232 267 320 377
#     4  12  23  41  62  96 137 169 211 271 344 385
#     4  12  25  43  66  98 131 175 221 267 331 395
#     4   9  18  37  65  97 126 166 220 284 310 381
#     4   9  19  39  65  97 124 168 228 275 309 384
#
# _framework density 27.271204999999998
#
# number of rings (size 3 to 8) (size 9 to 14) (size 15 to 20)
#    0.000    1.714    2.857    3.857    0.000    1.143 
#    5.143    5.000    0.000    0.000    0.000    0.000 
#    0.000    0.000    0.000    0.000    0.000    0.000 
#
# Total GULP energy -77965.613416 kJ/mol
# GULP energy per Si atom -5568.972387 kJ/mol
# Density = 2.720913 g / cm^3
# Si number density = 27.271205 Si / 1000 Ang^3
#
#
#
# Elastic Constant Matrix: (Units=GPa)
#
#
# Indices 1 2 3 4 5 6 
#
# 1 281.7518 95.4255 6.0061 0.0000 -40.5233 0.0000
# 2 95.4255 95.2104 -6.0873 0.0000 -21.6136 0.0000
# 3 6.0061 -6.0873 84.8277 0.0000 -15.5423 0.0000
# 4 0.0000 0.0000 0.0000 23.1448 0.0000 -15.0410
# 5 -40.5233 -21.6136 -15.5423 0.0000 36.1343 0.0000
# 6 0.0000 0.0000 0.0000 -15.0410 0.0000 41.0338
#
#
#
# Elastic Compliance Matrix: (Units=1/GPa)
#
#
# Indices 1 2 3 4 5 6 
#
# 1 0.005725 -0.004980 -0.000143 0.000000 0.003380 0.000000
# 2 -0.004980 0.016949 0.002609 0.000000 0.005676 0.000000
# 3 -0.000143 0.002609 0.013290 0.000000 0.007116 0.000000
# 4 0.000000 0.000000 0.000000 0.056717 0.000000 0.020790
# 5 0.003380 0.005676 0.007116 0.000000 0.037921 0.000000
# 6 0.000000 0.000000 0.000000 0.020790 0.000000 0.031991
#
#
# Mechanical properties :
#
#
# Convention : Reuss Voigt Hill
#
# Bulk Modulus (GPa) = 32.32566 72.49763 52.41165
# Shear Modulus (GPa) = 28.10051 44.49229 36.29640
#
# Velocity S-wave (km/s) = 3.21348 4.04353 3.65217
# Velocity P-wave (km/s) = 5.06436 6.96002 6.08645
#
# Compressibility (1/GPa) = 0.03093517
#
# Stress axis : x y z
#
# Youngs Moduli (GPa) = 174.67188 58.99945 75.24593
#
# Poissons Ratio (x) = 0.29381 0.01079
# Poissons Ratio (y) = 0.86983 -0.19630
# Poissons Ratio (z) = 0.02505 -0.15392
#
# Static dielectric constant tensor:
#      x y z
#    x 1.177570 0.000000 -0.679260 
#    y 0.000000 2.235410 0.000000 
#    z -0.679260 0.000000 1.598120 
# 
# From -- ./inp_files/44506.got.cif
#   From: 2010.05.17/outbox.cif.g08.bks.cpg/sg12_23_cif.got.tgz:44506.got - 2010.06.03 13:09:07.
