data_PCOD9222674
_publ_section_title
;
Structure prediction by ZEFSAII (Michael W. Deem and Ramdas Pophale) SiO2 
 PCOD9222674
Probable space group: C 2/M
;
_chemical_formula_sum "Si O2"
_cell_formula_units_Z 36
_cell_length_a 17.531097
_cell_length_b 13.753543
_cell_length_c 15.192557
_cell_angle_alpha 90.000000
_cell_angle_beta 152.352944
_cell_angle_gamma 90.000000
_cell_volume 1699.787853
_symmetry_space_group_name_H-M "C 2/M"
_symmetry_group_IT_number 12
_symmetry_cell_setting 'monoclinic'
loop_
_space_group_symop_operation_xyz
x,y,z
-x,y,-z
-x,-y,-z
x,-y,z
1/2+x,1/2+y,z
1/2-x,1/2+y,-z
1/2-x,1/2-y,-z
1/2+x,1/2-y,z
loop_
_atom_site_type_symbol
_atom_site_label
_atom_site_fract_x
_atom_site_fract_y
_atom_site_fract_z
Si Si1 0.612928 0.000000 0.363734
Si Si2 0.567583 0.785603 0.329905
Si Si3 0.776883 0.500000 0.919354
Si Si4 0.071618 0.808947 0.975899
Si Si5 0.501254 0.500000 0.211566
Si Si6 0.619984 0.303102 0.704295
O O1 0.574306 0.103350 0.369697
O O2 0.813621 0.000000 0.555274
O O3 0.470682 0.000000 0.142296
O O4 0.750000 0.750000 0.500000
O O5 0.482269 0.774646 0.148059
O O6 0.479311 0.714148 0.307379
O O7 0.653238 0.500000 0.878623
O O8 0.723221 0.402590 0.813730
O O9 0.264237 0.791013 0.183526
O O10 0.018098 0.906732 0.871695
O O11 0.000000 0.801607 0.000000
O O12 0.500000 0.307864 0.500000
#
# Coordination Sequence:
#
# PCOD9222674 Si02
#       6
#     4   8   4   8   4   8
#     4  12  24  40  76 105 131 186 238 278 356 422
#     4  12  23  46  71  99 142 186 232 291 355 414
#     4  12  23  47  74 104 140 185 237 292 356 416
#     4  12  25  45  69 102 143 186 230 290 350 413
#     4  12  25  45  74 103 145 183 235 296 346 420
#     4  12  26  45  71 104 142 186 235 292 351 418
#
# _framework density 21.179114999999999
#
# number of rings (size 3 to 8) (size 9 to 14) (size 15 to 20)
#    0.000    0.000    6.667    4.000    0.000    0.000 
#    0.000    5.556    0.000    0.000    0.000    0.000 
#    0.000    0.000    0.000    0.000    0.000    0.000 
#
# Total GULP energy -100476.117075 kJ/mol
# GULP energy per Si atom -5582.006504 kJ/mol
# Density = 2.113091 g / cm^3
# Si number density = 21.179115 Si / 1000 Ang^3
#
#
#
# Elastic Constant Matrix: (Units=GPa)
#
#
# Indices 1 2 3 4 5 6 
#
# 1 91.6839 0.8668 42.8671 -0.0003 -10.7274 -0.0002
# 2 0.8668 132.2043 46.3015 -0.0002 -0.3501 -0.0002
# 3 42.8671 46.3015 180.5545 -0.0008 -0.2789 -0.0008
# 4 -0.0003 -0.0002 -0.0008 47.3790 -0.0003 -3.6463
# 5 -10.7274 -0.3501 -0.2789 -0.0003 30.8496 -0.0003
# 6 -0.0002 -0.0002 -0.0008 -3.6463 -0.0003 41.3164
#
#
#
# Elastic Compliance Matrix: (Units=1/GPa)
#
#
# Indices 1 2 3 4 5 6 
#
# 1 0.012995 0.001104 -0.003361 0.000000 0.004501 0.000000
# 2 0.001104 0.008404 -0.002417 0.000000 0.000457 0.000000
# 3 -0.003361 -0.002417 0.006955 0.000000 -0.001133 0.000000
# 4 0.000000 0.000000 0.000000 0.021251 0.000000 0.001875
# 5 0.004501 0.000457 -0.001133 0.000000 0.033975 0.000000
# 6 0.000000 0.000000 0.000000 0.001875 0.000000 0.024369
#
#
# Mechanical properties :
#
#
# Convention : Reuss Voigt Hill
#
# Bulk Modulus (GPa) = 52.61582 64.94594 58.78088
# Shear Modulus (GPa) = 40.44258 44.86951 42.65605
#
# Velocity S-wave (km/s) = 4.37458 4.60779 4.49270
# Velocity P-wave (km/s) = 7.10022 7.68379 7.39776
#
# Compressibility (1/GPa) = 0.01900569
#
# Stress axis : x y z
#
# Youngs Moduli (GPa) = 76.95363 118.98545 143.79148
#
# Poissons Ratio (x) = -0.13136 0.48334
# Poissons Ratio (y) = -0.08495 0.34749
# Poissons Ratio (z) = 0.25867 0.28754
#
# Static dielectric constant tensor:
#      x y z
#    x 1.741590 0.000000 0.074040 
#    y 0.000000 1.768680 0.000000 
#    z 0.074040 0.000000 1.777130 
# 
# From -- ./inp_files/225516.got.cif
#   From: 2010.05.17/outbox.cif.g08.bks.cpg/sg12_113_cif.got.tgz:225516.got - 2010.06.03 13:09:07.
