data_PCOD9222948
_publ_section_title
;
Structure prediction by ZEFSAII (Michael W. Deem and Ramdas Pophale) SiO2 
 PCOD9222948
Probable space group: C 2/M
;
_chemical_formula_sum "Si O2"
_cell_formula_units_Z 40
_cell_length_a 21.177795
_cell_length_b 13.753415
_cell_length_c 10.311134
_cell_angle_alpha 90.000000
_cell_angle_beta 38.451129
_cell_angle_gamma 90.000000
_cell_volume 1867.588436
_symmetry_space_group_name_H-M "C 2/M"
_symmetry_group_IT_number 12
_symmetry_cell_setting 'monoclinic'
loop_
_space_group_symop_operation_xyz
x,y,z
-x,y,-z
-x,-y,-z
x,-y,z
1/2+x,1/2+y,z
1/2-x,1/2+y,-z
1/2-x,1/2-y,-z
1/2+x,1/2-y,z
loop_
_atom_site_type_symbol
_atom_site_label
_atom_site_fract_x
_atom_site_fract_y
_atom_site_fract_z
Si Si1 0.567779 0.500000 0.193174
Si Si2 0.161198 0.000000 0.314916
Si Si3 0.209055 0.391357 0.455122
Si Si4 0.210982 0.820342 0.398648
Si Si5 0.477583 0.897339 0.881710
Si Si6 0.980795 0.813444 0.877429
O O1 0.645352 0.500000 0.187084
O O2 0.453070 0.500000 0.438372
O O3 0.575288 0.404030 0.094580
O O4 0.212147 0.900572 0.284453
O O5 0.250253 0.500000 0.360948
O O6 0.243529 0.292399 0.328241
O O7 0.231138 0.366336 0.570804
O O8 0.087673 0.398026 0.637118
O O9 0.093653 0.812704 0.634016
O O10 0.431937 0.792078 0.928271
O O11 0.425948 0.000000 0.932940
O O12 0.500000 0.897594 0.000000
O O13 0.000000 0.825724 0.000000
#
# Coordination Sequence:
#
# PCOD9222948 Si02
#       6
#     4   4   8   8   8   8
#     4   9  17  26  40  58  81 113 137 163 202 240
#     4   9  16  28  40  56  83 110 139 166 196 243
#     4   9  15  24  39  61  86 104 132 166 206 240
#     4   9  16  25  40  61  85 108 133 165 202 239
#     4   8  14  24  39  60  85 103 128 163 207 243
#     4   9  16  26  40  61  87 106 134 171 202 236
#
# _framework density 21.417995000000001
#
# number of rings (size 3 to 8) (size 9 to 14) (size 15 to 20)
#    0.000    3.200    1.000    0.300    0.000    0.000 
#    0.000    0.000    0.000    1.200    0.000   30.800 
#    0.000    0.000    0.000    0.000    0.000    0.000 
#
# Total GULP energy -111510.952665 kJ/mol
# GULP energy per Si atom -5575.547633 kJ/mol
# Density = 2.136925 g / cm^3
# Si number density = 21.417995 Si / 1000 Ang^3
#
#
#
# Elastic Constant Matrix: (Units=GPa)
#
#
# Indices 1 2 3 4 5 6 
#
# 1 65.3343 85.9942 21.6363 0.0000 14.7619 0.0000
# 2 85.9942 308.7661 55.9287 0.0000 28.0127 0.0000
# 3 21.6363 55.9287 41.9556 0.0000 -6.4244 0.0000
# 4 0.0000 0.0000 0.0000 17.4502 0.0000 -13.4816
# 5 14.7619 28.0127 -6.4244 0.0000 30.1592 0.0000
# 6 0.0000 0.0000 0.0000 -13.4816 0.0000 -0.0899
#
#
#
# Elastic Compliance Matrix: (Units=1/GPa)
#
#
# Indices 1 2 3 4 5 6 
#
# 1 0.027276 -0.004995 -0.009036 0.000000 -0.010636 0.000000
# 2 -0.004995 0.006224 -0.006442 0.000000 -0.004708 0.000000
# 3 -0.009036 -0.006442 0.039979 0.000000 0.018922 0.000000
# 4 0.000000 0.000000 0.000000 0.000491 0.000000 -0.073540
# 5 -0.010636 -0.004708 0.018922 0.000000 0.046767 0.000000
# 6 0.000000 0.000000 0.000000 -0.073540 0.000000 -0.095189
#
#
# Mechanical properties :
#
#
# Convention : Reuss Voigt Hill
#
# Bulk Modulus (GPa) = 30.73789 82.57490 56.65640
# Shear Modulus (GPa) = 64.65126 26.33703 45.49414
#
# Velocity S-wave (km/s) = 5.50009 3.51047 4.61381
# Velocity P-wave (km/s) = 7.39711 7.42084 7.40899
#
# Compressibility (1/GPa) = 0.03253314
#
# Stress axis : x y z
#
# Youngs Moduli (GPa) = 36.66249 160.67436 25.01298
#
# Poissons Ratio (x) = 0.80254 0.22603
# Poissons Ratio (y) = 0.18312 0.16113
# Poissons Ratio (z) = 0.33130 1.03502
#
# Static dielectric constant tensor:
#      x y z
#    x 1.741300 0.000000 -0.082890 
#    y 0.000000 1.833360 0.000000 
#    z -0.082890 0.000000 1.821040 
# 
# From -- ./inp_files/84975.got.cif
#   From: 2010.05.17/outbox.cif.g08.bks.cpg/sg12_43_cif.got.tgz:84975.got - 2010.06.03 13:09:07.
