data_PCOD9222198
_publ_section_title
;
Structure prediction by ZEFSAII (Michael W. Deem and Ramdas Pophale) SiO2 
 PCOD9222198
Probable space group: C 2/M
;
_chemical_formula_sum "Si O2"
_cell_formula_units_Z 32
_cell_length_a 11.998185
_cell_length_b 14.951657
_cell_length_c 9.522768
_cell_angle_alpha 90.000000
_cell_angle_beta 124.936284
_cell_angle_gamma 90.000000
_cell_volume 1400.458921
_symmetry_space_group_name_H-M "C 2/M"
_symmetry_group_IT_number 12
_symmetry_cell_setting 'monoclinic'
loop_
_space_group_symop_operation_xyz
x,y,z
-x,y,-z
-x,-y,-z
x,-y,z
1/2+x,1/2+y,z
1/2-x,1/2+y,-z
1/2-x,1/2-y,-z
1/2+x,1/2-y,z
loop_
_atom_site_type_symbol
_atom_site_label
_atom_site_fract_x
_atom_site_fract_y
_atom_site_fract_z
Si Si1 0.450102 0.103340 0.806955
Si Si2 0.886942 0.656612 0.325164
Si Si3 0.137019 0.846539 0.534389
Si Si4 0.599929 0.603163 0.190347
O O1 0.540664 0.164923 0.771362
O O2 0.287640 0.114681 0.670172
O O3 0.482640 0.000000 0.795914
O O4 0.500000 0.119773 0.000000
O O5 0.860106 0.750274 0.386018
O O6 0.746920 0.605606 0.224517
O O7 0.000000 0.607856 0.500000
O O8 0.113526 0.847765 0.349751
O O9 0.000000 0.890998 0.500000
O O10 0.560000 0.500000 0.191082
O O11 0.500000 0.641648 0.000000
#
# Coordination Sequence:
#
# PCOD9222198 Si02
#       4
#     8   8   8   8
#     4  11  26  46  72 105 139 184 238 290 348 416
#     4  11  24  45  72 100 139 185 236 283 348 417
#     4  11  26  45  69 103 143 185 230 288 352 416
#     4  11  25  44  71 105 142 185 233 288 353 418
#
# _framework density 22.849654000000001
#
# number of rings (size 3 to 8) (size 9 to 14) (size 15 to 20)
#    0.000    1.000    2.500    2.250    7.000    5.000 
#    0.000    0.000    0.000    0.000    0.000    0.000 
#    0.000    0.000    0.000    0.000    0.000    0.000 
#
# Total GULP energy -89394.519076 kJ/mol
# GULP energy per Si atom -5587.157442 kJ/mol
# Density = 2.279765 g / cm^3
# Si number density = 22.849654 Si / 1000 Ang^3
#
#
#
# Elastic Constant Matrix: (Units=GPa)
#
#
# Indices 1 2 3 4 5 6 
#
# 1 167.7157 18.1252 85.3464 0.0000 0.1475 0.0000
# 2 18.1252 95.6705 35.3886 0.0000 -19.4589 0.0000
# 3 85.3464 35.3886 199.8279 0.0000 -1.8336 0.0000
# 4 0.0000 0.0000 0.0000 11.6007 0.0000 -11.6003
# 5 0.1475 -19.4589 -1.8336 0.0000 40.0649 0.0000
# 6 0.0000 0.0000 0.0000 -11.6003 0.0000 16.2551
#
#
#
# Elastic Compliance Matrix: (Units=1/GPa)
#
#
# Indices 1 2 3 4 5 6 
#
# 1 0.007628 -0.000328 -0.003203 0.000000 -0.000334 0.000000
# 2 -0.000328 0.012473 -0.002014 0.000000 0.005967 0.000000
# 3 -0.003203 -0.002014 0.006723 0.000000 -0.000659 0.000000
# 4 0.000000 0.000000 0.000000 0.301001 0.000000 0.214807
# 5 -0.000334 0.005967 -0.000659 0.000000 0.027829 0.000000
# 6 0.000000 0.000000 0.000000 0.214807 0.000000 0.214814
#
#
# Mechanical properties :
#
#
# Convention : Reuss Voigt Hill
#
# Bulk Modulus (GPa) = 63.55696 82.32604 72.94150
# Shear Modulus (GPa) = 8.52075 35.20776 21.86425
#
# Velocity S-wave (km/s) = 1.93317 3.92962 3.09669
# Velocity P-wave (km/s) = 5.73224 7.52973 6.69161
#
# Compressibility (1/GPa) = 0.01573392
#
# Stress axis : x y z
#
# Youngs Moduli (GPa) = 131.09390 80.17053 148.74595
#
# Poissons Ratio (x) = 0.02633 0.47641
# Poissons Ratio (y) = 0.04305 0.29957
# Poissons Ratio (z) = 0.41988 0.16146
#
# Static dielectric constant tensor:
#      x y z
#    x 1.905020 0.000000 -0.041310 
#    y 0.000000 1.917280 0.000000 
#    z -0.041310 0.000000 1.864400 
# 
# From -- ./inp_files/46720.got.cif
#   From: 2010.05.17/outbox.cif.g08.bks.cpg/sg12_24_cif.got.tgz:46720.got - 2010.06.03 13:09:07.
