data_PCOD9222281
_publ_section_title
;
Structure prediction by ZEFSAII (Michael W. Deem and Ramdas Pophale) SiO2 
 PCOD9222281
Probable space group: C 2/M
;
_chemical_formula_sum "Si O2"
_cell_formula_units_Z 32
_cell_length_a 23.556813
_cell_length_b 14.130216
_cell_length_c 4.816146
_cell_angle_alpha 90.000000
_cell_angle_beta 115.654748
_cell_angle_gamma 90.000000
_cell_volume 1445.079712
_symmetry_space_group_name_H-M "C 2/M"
_symmetry_group_IT_number 12
_symmetry_cell_setting 'monoclinic'
loop_
_space_group_symop_operation_xyz
x,y,z
-x,y,-z
-x,-y,-z
x,-y,z
1/2+x,1/2+y,z
1/2-x,1/2+y,-z
1/2-x,1/2-y,-z
1/2+x,1/2-y,z
loop_
_atom_site_type_symbol
_atom_site_label
_atom_site_fract_x
_atom_site_fract_y
_atom_site_fract_z
Si Si1 0.699915 0.107887 0.370209
Si Si2 0.542652 0.313454 0.826826
Si Si3 0.658687 0.393812 0.400889
Si Si4 0.144175 0.712757 0.749613
O O1 0.773535 0.113149 0.604689
O O2 0.655480 0.138705 0.527753
O O3 0.687229 0.000000 0.255723
O O4 0.688296 0.179589 0.093385
O O5 0.500000 0.362056 0.500000
O O6 0.575614 0.225356 0.741238
O O7 0.500000 0.288131 0.000000
O O8 0.600451 0.373432 0.073848
O O9 0.653588 0.500000 0.504749
O O10 0.657409 0.313667 0.633697
#
# Coordination Sequence:
#
# PCOD9222281 Si02
#       4
#     8   8   8   8
#     4  11  25  43  72 107 137 171 224 286 348 409
#     4  12  25  45  66  97 135 191 232 273 323 401
#     4  11  26  43  69 107 143 178 222 273 341 416
#     4  12  23  46  70  98 142 180 223 279 347 394
#
# _framework density 22.144105
#
# number of rings (size 3 to 8) (size 9 to 14) (size 15 to 20)
#    0.000    0.500    5.000    2.250    3.500    2.000 
#    0.000    0.000    0.000   15.000    0.000    0.000 
#    0.000    0.000    0.000    0.000    0.000    0.000 
#
# Total GULP energy -89457.989627 kJ/mol
# GULP energy per Si atom -5591.124352 kJ/mol
# Density = 2.209370 g / cm^3
# Si number density = 22.144105 Si / 1000 Ang^3
#
#
#
# Elastic Constant Matrix: (Units=GPa)
#
#
# Indices 1 2 3 4 5 6 
#
# 1 89.6691 50.4888 12.5155 0.0000 -18.9534 0.0000
# 2 50.4888 127.3738 56.8521 0.0000 8.0471 0.0000
# 3 12.5155 56.8521 111.7015 0.0000 -1.7754 0.0000
# 4 0.0000 0.0000 0.0000 14.0912 0.0000 -12.3862
# 5 -18.9534 8.0471 -1.7754 0.0000 37.5821 0.0000
# 6 0.0000 0.0000 0.0000 -12.3862 0.0000 -19.5680
#
#
#
# Elastic Compliance Matrix: (Units=1/GPa)
#
#
# Indices 1 2 3 4 5 6 
#
# 1 0.018387 -0.009277 0.002843 0.000000 0.011394 0.000000
# 2 -0.009277 0.015064 -0.006758 0.000000 -0.008223 0.000000
# 3 0.002843 -0.006758 0.012129 0.000000 0.003454 0.000000
# 4 0.000000 0.000000 0.000000 0.045597 0.000000 -0.028862
# 5 0.011394 -0.008223 0.003454 0.000000 0.034278 0.000000
# 6 0.000000 0.000000 0.000000 -0.028862 0.000000 -0.032835
#
#
# Mechanical properties :
#
#
# Convention : Reuss Voigt Hill
#
# Bulk Modulus (GPa) = 52.09868 63.16191 57.63030
# Shear Modulus (GPa) = 39.87118 20.34690 30.10904
#
# Velocity S-wave (km/s) = 4.24787 3.03453 3.69139
# Velocity P-wave (km/s) = 6.90199 6.39241 6.65208
#
# Compressibility (1/GPa) = 0.01919434
#
# Stress axis : x y z
#
# Youngs Moduli (GPa) = 54.38614 66.38260 82.44948
#
# Poissons Ratio (x) = 0.61582 -0.23436
# Poissons Ratio (y) = 0.50453 0.55723
# Poissons Ratio (z) = -0.15459 0.44864
#
# Static dielectric constant tensor:
#      x y z
#    x 1.852020 0.000000 0.010850 
#    y 0.000000 1.788360 0.000000 
#    z 0.010850 0.000000 1.836260 
# 
# From -- ./inp_files/23952.got.cif
#   From: 2010.05.17/outbox.cif.g08.bks.cpg/sg12_12_cif.got.tgz:23952.got - 2010.06.03 13:09:07.
