data_PCOD9222123
_publ_section_title
;
Structure prediction by ZEFSAII (Michael W. Deem and Ramdas Pophale) SiO2 
 PCOD9222123
Probable space group: C 2/M
;
_chemical_formula_sum "Si O2"
_cell_formula_units_Z 44
_cell_length_a 24.632816
_cell_length_b 18.844558
_cell_length_c 10.636738
_cell_angle_alpha 90.000000
_cell_angle_beta 157.169223
_cell_angle_gamma 90.000000
_cell_volume 1915.808974
_symmetry_space_group_name_H-M "C 2/M"
_symmetry_group_IT_number 12
_symmetry_cell_setting 'monoclinic'
loop_
_space_group_symop_operation_xyz
x,y,z
-x,y,-z
-x,-y,-z
x,-y,z
1/2+x,1/2+y,z
1/2-x,1/2+y,-z
1/2-x,1/2-y,-z
1/2+x,1/2-y,z
loop_
_atom_site_type_symbol
_atom_site_label
_atom_site_fract_x
_atom_site_fract_y
_atom_site_fract_z
Si Si1 0.655787 0.648688 0.321285
Si Si2 0.707823 0.500000 0.389998
Si Si3 0.156392 0.848213 0.875383
Si Si4 0.881390 0.629963 0.149007
Si Si5 0.682973 0.755717 0.152728
Si Si6 0.287705 0.500000 0.311585
Si Si7 0.408481 0.500000 0.141591
O O1 0.758863 0.583666 0.503552
O O2 0.642204 0.707766 0.184025
O O3 0.701492 0.690478 0.543979
O O4 0.500000 0.617398 0.000000
O O5 0.658067 0.500000 0.430200
O O6 0.641006 0.500000 0.108768
O O7 0.143591 0.928957 0.900132
O O8 0.000000 0.826555 0.500000
O O9 0.256138 0.841688 0.969161
O O10 0.215028 0.800087 0.112343
O O11 0.000000 0.607897 0.500000
O O12 0.926245 0.690617 0.146576
O O13 0.812498 0.565839 0.927799
O O14 0.422365 0.500000 0.508263
#
# Coordination Sequence:
#
# PCOD9222123 Si02
#       7
#     8   4   8   8   8   4   4
#     4  11  24  43  71 101 136 178 231 298 341 410
#     4  12  23  42  77 104 133 181 234 299 346 393
#     4  12  25  44  73 101 140 184 237 287 340 406
#     4  12  27  45  69 100 145 191 225 280 350 423
#     4  11  26  42  65 102 142 182 231 280 354 415
#     4  12  23  45  73 104 139 181 240 288 341 410
#     4  12  23  44  74 110 132 176 244 300 335 394
#
# _framework density 22.966799999999999
#
# number of rings (size 3 to 8) (size 9 to 14) (size 15 to 20)
#    0.000    0.364    5.455    3.818    5.091    0.000 
#    0.000    0.000    0.000    1.091    0.000    0.000 
#    0.000    0.000    0.000    0.000    0.000    0.000 
#
# Total GULP energy -122704.995527 kJ/mol
# GULP energy per Si atom -5577.499797 kJ/mol
# Density = 2.291453 g / cm^3
# Si number density = 22.966800 Si / 1000 Ang^3
#
#
#
# Elastic Constant Matrix: (Units=GPa)
#
#
# Indices 1 2 3 4 5 6 
#
# 1 68.4223 33.1134 46.3080 0.0000 -38.0501 0.0000
# 2 33.1134 168.0275 49.5253 0.0000 -32.2764 0.0000
# 3 46.3080 49.5253 102.3998 0.0000 -25.4832 0.0000
# 4 0.0000 0.0000 0.0000 13.8323 0.0000 -22.6507
# 5 -38.0501 -32.2764 -25.4832 0.0000 44.2447 0.0000
# 6 0.0000 0.0000 0.0000 -22.6507 0.0000 42.5586
#
#
#
# Elastic Compliance Matrix: (Units=1/GPa)
#
#
# Indices 1 2 3 4 5 6 
#
# 1 0.034677 0.000843 -0.009940 0.000000 0.024711 0.000000
# 2 0.000843 0.007507 -0.002882 0.000000 0.004541 0.000000
# 3 -0.009940 -0.002882 0.015180 0.000000 -0.001907 0.000000
# 4 0.000000 0.000000 0.000000 0.562737 0.000000 0.299502
# 5 0.024711 0.004541 -0.001907 0.000000 0.046068 0.000000
# 6 0.000000 0.000000 0.000000 0.299502 0.000000 0.182899
#
#
# Mechanical properties :
#
#
# Convention : Reuss Voigt Hill
#
# Bulk Modulus (GPa) = 29.93457 66.30478 48.11967
# Shear Modulus (GPa) = 5.65509 34.12064 19.88787
#
# Velocity S-wave (km/s) = 1.57087 3.85860 2.94588
# Velocity P-wave (km/s) = 4.04380 6.98457 5.70686
#
# Compressibility (1/GPa) = 0.03340620
#
# Stress axis : x y z
#
# Youngs Moduli (GPa) = 28.83797 133.20814 65.87761
#
# Poissons Ratio (x) = -0.11226 0.65479
# Poissons Ratio (y) = -0.02430 0.18984
# Poissons Ratio (z) = 0.28664 0.38387
#
# Static dielectric constant tensor:
#      x y z
#    x 1.793500 0.000000 -0.007180 
#    y 0.000000 1.906690 0.000000 
#    z -0.007180 0.000000 1.855200 
# 
# From -- ./inp_files/190129.got.cif
#   From: 2010.05.17/outbox.cif.g08.bks.cpg/sg12_96_cif.got.tgz:190129.got - 2010.06.03 13:09:07.
