data_PCOD9222337
_publ_section_title
;
Structure prediction by ZEFSAII (Michael W. Deem and Ramdas Pophale) SiO2 
 PCOD9222337
Probable space group: C 2/M
;
_chemical_formula_sum "Si O2"
_cell_formula_units_Z 58
_cell_length_a 8.900735
_cell_length_b 24.526811
_cell_length_c 20.712378
_cell_angle_alpha 90.000000
_cell_angle_beta 37.378265
_cell_angle_gamma 90.000000
_cell_volume 2744.977978
_symmetry_space_group_name_H-M "C 2/M"
_symmetry_group_IT_number 12
_symmetry_cell_setting 'monoclinic'
loop_
_space_group_symop_operation_xyz
x,y,z
-x,y,-z
-x,-y,-z
x,-y,z
1/2+x,1/2+y,z
1/2-x,1/2+y,-z
1/2-x,1/2-y,-z
1/2+x,1/2-y,z
loop_
_atom_site_type_symbol
_atom_site_label
_atom_site_fract_x
_atom_site_fract_y
_atom_site_fract_z
Si Si1 0.523413 0.416744 0.115367
Si Si2 0.286762 0.326407 0.384077
Si Si3 0.971410 0.268012 0.082315
Si Si4 0.870591 0.782491 0.614354
Si Si5 0.000000 0.000000 0.000000
Si Si6 0.029716 0.622594 0.110235
Si Si7 0.858440 0.338057 0.792788
Si Si8 0.556540 0.560480 0.251958
O O1 0.501433 0.454119 0.058987
O O2 0.282715 0.378748 0.205729
O O3 0.560094 0.441949 0.173031
O O4 0.770400 0.383043 0.014141
O O5 0.255052 0.278371 0.340071
O O6 0.439741 0.299082 0.392735
O O7 0.405430 0.385160 0.325023
O O8 0.000000 0.337485 0.500000
O O9 0.885363 0.320501 0.150488
O O10 0.789515 0.218220 0.154611
O O11 0.000000 0.285196 0.000000
O O12 0.250000 0.250000 0.000000
O O13 0.645492 0.825244 0.686551
O O14 0.000000 0.783245 0.500000
O O15 0.839306 0.573155 0.177054
O O16 0.168888 0.632967 0.128888
O O17 0.477707 0.500000 0.302744
#
# Coordination Sequence:
#
# PCOD9222337 Si02
#       8
#     8   8   8   8   2   8   8   8
#     4  12  25  43  67  96 135 192 233 291 340 418
#     4  11  25  48  77 107 142 182 236 302 367 438
#     4  12  22  37  58  94 136 181 225 274 348 423
#     4  11  25  45  73 112 140 184 229 299 375 440
#     4  12  24  44  66  96 136 188 254 288 334 406
#     4  12  24  43  60  97 138 184 231 284 344 414
#     4  12  24  40  67  96 141 179 231 284 356 431
#     4  12  28  45  71 104 137 191 247 297 355 418
#
# _framework density 21.129494999999999
#
# number of rings (size 3 to 8) (size 9 to 14) (size 15 to 20)
#    0.000    0.276    6.207    3.724    4.828    0.828 
#    0.000    0.000    0.000    0.414    0.000    0.000 
#    0.000    0.000    0.000    0.000    0.000    0.000 
#
# Total GULP energy -161575.181162 kJ/mol
# GULP energy per Si atom -5571.557971 kJ/mol
# Density = 2.108140 g / cm^3
# Si number density = 21.129495 Si / 1000 Ang^3
#
#
#
# Elastic Constant Matrix: (Units=GPa)
#
#
# Indices 1 2 3 4 5 6 
#
# 1 99.5158 63.7476 29.4290 0.0001 -7.5521 0.0000
# 2 63.7476 152.6891 31.4566 0.0000 -4.2246 0.0000
# 3 29.4290 31.4566 65.0109 0.0009 -16.2644 -0.0009
# 4 0.0001 0.0000 0.0009 -16.0512 -0.0003 62.3972
# 5 -7.5521 -4.2246 -16.2644 -0.0003 36.3474 0.0003
# 6 0.0000 0.0000 -0.0009 62.3972 0.0003 -23.1572
#
#
#
# Elastic Compliance Matrix: (Units=1/GPa)
#
#
# Indices 1 2 3 4 5 6 
#
# 1 0.014643 -0.005292 -0.003897 0.000000 0.000684 0.000000
# 2 -0.005292 0.009208 -0.002328 0.000000 -0.001071 0.000000
# 3 -0.003897 -0.002328 0.020272 0.000000 0.007991 0.000000
# 4 0.000000 0.000000 0.000000 0.006576 0.000000 0.017718
# 5 0.000684 -0.001071 0.007991 0.000000 0.031106 0.000000
# 6 0.000000 0.000000 0.000000 0.017718 0.000000 0.004558
#
#
# Mechanical properties :
#
#
# Convention : Reuss Voigt Hill
#
# Bulk Modulus (GPa) = 47.41723 62.94247 55.17985
# Shear Modulus (GPa) = 42.94609 12.26664 27.60636
#
# Velocity S-wave (km/s) = 4.51324 2.41207 3.61852
# Velocity P-wave (km/s) = 7.04621 6.13278 6.60530
#
# Compressibility (1/GPa) = 0.02108938
#
# Stress axis : x y z
#
# Youngs Moduli (GPa) = 68.29406 108.59545 49.32954
#
# Poissons Ratio (x) = 0.57463 0.19224
# Poissons Ratio (y) = 0.36138 0.11485
# Poissons Ratio (z) = 0.26614 0.25284
#
# Static dielectric constant tensor:
#      x y z
#    x 1.881790 0.000000 -0.050700 
#    y 0.000000 1.782410 0.000000 
#    z -0.050700 0.000000 1.787780 
# 
# From -- ./inp_files/302449.got.cif
#   From: 2010.05.17/outbox.cif.g08.bks.cpg/sg12_152_cif.got.tgz:302449.got - 2010.06.03 13:09:07.
