data_PCOD9222650
_publ_section_title
;
Structure prediction by ZEFSAII (Michael W. Deem and Ramdas Pophale) SiO2 
 PCOD9222650
Probable space group: C 2/M
;
_chemical_formula_sum "Si O2"
_cell_formula_units_Z 38
_cell_length_a 17.036540
_cell_length_b 15.582110
_cell_length_c 10.858656
_cell_angle_alpha 90.000000
_cell_angle_beta 39.623024
_cell_angle_gamma 90.000000
_cell_volume 1838.328047
_symmetry_space_group_name_H-M "C 2/M"
_symmetry_group_IT_number 12
_symmetry_cell_setting 'monoclinic'
loop_
_space_group_symop_operation_xyz
x,y,z
-x,y,-z
-x,-y,-z
x,-y,z
1/2+x,1/2+y,z
1/2-x,1/2+y,-z
1/2-x,1/2-y,-z
1/2+x,1/2-y,z
loop_
_atom_site_type_symbol
_atom_site_label
_atom_site_fract_x
_atom_site_fract_y
_atom_site_fract_z
Si Si1 0.187737 0.099323 0.603353
Si Si2 0.080888 0.341917 0.550800
Si Si3 0.500000 0.297003 0.000000
Si Si4 0.127004 0.850911 0.404272
Si Si5 0.000000 0.500000 0.500000
Si Si6 0.337824 0.197089 0.988671
O O1 0.318153 0.145473 0.465632
O O2 0.089969 0.146207 0.808037
O O3 0.148837 0.108744 0.509748
O O4 0.196899 0.000000 0.624492
O O5 0.110345 0.252020 0.448682
O O6 0.086689 0.423348 0.454930
O O7 0.945972 0.341891 0.774781
O O8 0.587375 0.246088 0.992016
O O9 0.000000 0.881870 0.500000
O O10 0.242166 0.863994 0.174998
O O11 0.250000 0.250000 0.000000
#
# Coordination Sequence:
#
# PCOD9222650 Si02
#       6
#     8   8   4   8   2   8
#     4  12  26  44  66 100 140 179 225 281 337 397
#     4  12  23  44  68 101 133 170 226 282 336 394
#     4  12  23  42  70  99 132 178 228 275 334 402
#     4  12  23  45  72  95 136 181 223 277 339 408
#     4  12  24  44  72 100 134 172 220 290 334 388
#     4  12  23  40  72 102 128 176 231 271 336 413
#
# _framework density 20.670956
#
# number of rings (size 3 to 8) (size 9 to 14) (size 15 to 20)
#    0.000    0.000    8.421    2.211    0.000    0.421 
#    1.895    1.053    0.000    0.000    0.000    0.000 
#    0.000    0.000    0.000    0.000    0.000    0.000 
#
# Total GULP energy -105941.097442 kJ/mol
# GULP energy per Si atom -5575.847234 kJ/mol
# Density = 2.062391 g / cm^3
# Si number density = 20.670956 Si / 1000 Ang^3
#
#
#
# Elastic Constant Matrix: (Units=GPa)
#
#
# Indices 1 2 3 4 5 6 
#
# 1 178.3611 2.9830 24.0182 0.0000 -15.6076 0.0000
# 2 2.9830 27.4082 -4.0202 0.0000 -8.9264 0.0000
# 3 24.0182 -4.0202 137.7953 0.0000 -20.2201 0.0000
# 4 0.0000 0.0000 0.0000 -4.5435 0.0000 -6.2459
# 5 -15.6076 -8.9264 -20.2201 0.0000 40.9836 0.0000
# 6 0.0000 0.0000 0.0000 -6.2459 0.0000 28.4588
#
#
#
# Elastic Compliance Matrix: (Units=1/GPa)
#
#
# Indices 1 2 3 4 5 6 
#
# 1 0.005871 -0.000155 -0.000760 0.000000 0.001827 0.000000
# 2 -0.000155 0.040151 0.002666 0.000000 0.010001 0.000000
# 3 -0.000760 0.002666 0.008096 0.000000 0.004286 0.000000
# 4 0.000000 0.000000 0.000000 -0.169082 0.000000 -0.037109
# 5 0.001827 0.010001 0.004286 0.000000 0.029389 0.000000
# 6 0.000000 0.000000 0.000000 -0.037109 0.000000 0.026994
#
#
# Mechanical properties :
#
#
# Convention : Reuss Voigt Hill
#
# Bulk Modulus (GPa) = 17.35509 43.28074 30.31792
# Shear Modulus (GPa) = -116.61371 34.35202 -41.13085
#
# Velocity S-wave (km/s) = -7.51909 4.08100 -4.46554
# Velocity P-wave (km/s) = 8.18341 6.57187 3.44810
#
# Compressibility (1/GPa) = 0.05761997
#
# Stress axis : x y z
#
# Youngs Moduli (GPa) = 170.31667 24.90624 123.51391
#
# Poissons Ratio (x) = 0.00387 0.09385
# Poissons Ratio (y) = 0.02646 -0.32929
# Poissons Ratio (z) = 0.12941 -0.06640
#
# Static dielectric constant tensor:
#      x y z
#    x 1.817180 0.000000 0.011020 
#    y 0.000000 1.705580 0.000000 
#    z 0.011020 0.000000 1.726770 
# 
# From -- ./inp_files/155774.got.cif
#   From: 2010.05.17/outbox.cif.g08.bks.cpg/sg12_78_cif.got.tgz:155774.got - 2010.06.03 13:09:07.
