data_PCOD9222526
_publ_section_title
;
Structure prediction by ZEFSAII (Michael W. Deem and Ramdas Pophale) SiO2 
 PCOD9222526
Probable space group: C 2/M
;
_chemical_formula_sum "Si O2"
_cell_formula_units_Z 60
_cell_length_a 9.376094
_cell_length_b 28.128013
_cell_length_c 12.724574
_cell_angle_alpha 90.000000
_cell_angle_beta 65.925729
_cell_angle_gamma 90.000000
_cell_volume 3063.961725
_symmetry_space_group_name_H-M "C 2/M"
_symmetry_group_IT_number 12
_symmetry_cell_setting 'monoclinic'
loop_
_space_group_symop_operation_xyz
x,y,z
-x,y,-z
-x,-y,-z
x,-y,z
1/2+x,1/2+y,z
1/2-x,1/2+y,-z
1/2-x,1/2-y,-z
1/2+x,1/2-y,z
loop_
_atom_site_type_symbol
_atom_site_label
_atom_site_fract_x
_atom_site_fract_y
_atom_site_fract_z
Si Si1 0.947775 0.557430 0.192077
Si Si2 0.326882 0.233847 0.083267
Si Si3 0.815496 0.831115 0.219874
Si Si4 0.500000 0.394165 0.000000
Si Si5 0.556309 0.292067 0.288322
Si Si6 0.237013 0.443054 0.951331
Si Si7 0.194867 0.714406 0.605843
Si Si8 0.011634 0.621835 0.616840
O O1 0.943847 0.500000 0.207193
O O2 0.809758 0.572346 0.152685
O O3 0.951874 0.583787 0.302440
O O4 0.101569 0.569597 0.076399
O O5 0.320368 0.278267 0.166245
O O6 0.201649 0.197619 0.166661
O O7 0.500000 0.217944 0.000000
O O8 0.250000 0.250000 0.000000
O O9 0.889202 0.862447 0.105876
O O10 0.649693 0.851991 0.302316
O O11 0.923200 0.828370 0.291769
O O12 0.603516 0.424299 0.049228
O O13 0.652152 0.291299 0.367277
O O14 0.462793 0.241440 0.303753
O O15 0.238390 0.500000 0.947252
O O16 0.250000 0.750000 0.500000
O O17 0.140447 0.663443 0.582468
O O18 0.000000 0.603715 0.500000
#
# Coordination Sequence:
#
# PCOD9222526 Si02
#       8
#     8   8   8   4   8   8   8   8
#     4   9  20  42  68  97 130 165 209 262 325 395
#     4  12  21  37  54  78 114 161 200 253 323 370
#     4  12  24  39  56  92 125 162 215 266 318 384
#     4  12  21  36  62  96 136 160 206 264 325 386
#     4  12  22  40  57  80 118 160 208 264 316 373
#     4   9  19  38  67  99 131 164 202 260 335 396
#     4  12  24  40  64  85 114 164 221 269 315 360
#     4  12  25  43  64  92 128 171 220 266 317 384
#
# _framework density 19.58249
#
# number of rings (size 3 to 8) (size 9 to 14) (size 15 to 20)
#    0.000    0.800    6.000    3.000    1.867    0.267 
#    0.000    0.000    0.000    0.000    0.000    1.867 
#    0.000    0.000    0.000    0.000    0.000    0.000 
#
# Total GULP energy -167282.747669 kJ/mol
# GULP energy per Si atom -5576.091589 kJ/mol
# Density = 1.953792 g / cm^3
# Si number density = 19.582490 Si / 1000 Ang^3
#
#
#
# Elastic Constant Matrix: (Units=GPa)
#
#
# Indices 1 2 3 4 5 6 
#
# 1 147.1302 39.1917 51.6930 0.0000 27.6706 0.0000
# 2 39.1917 52.0690 39.3967 0.0000 15.0108 0.0000
# 3 51.6930 39.3967 116.7776 0.0000 24.7555 0.0000
# 4 0.0000 0.0000 0.0000 6.4572 0.0000 10.8746
# 5 27.6706 15.0108 24.7555 0.0000 48.5559 0.0000
# 6 0.0000 0.0000 0.0000 10.8746 0.0000 25.4518
#
#
#
# Elastic Compliance Matrix: (Units=1/GPa)
#
#
# Indices 1 2 3 4 5 6 
#
# 1 0.009255 -0.004702 -0.001907 0.000000 -0.002848 0.000000
# 2 -0.004702 0.028876 -0.007104 0.000000 -0.002626 0.000000
# 3 -0.001907 -0.007104 0.012454 0.000000 -0.003067 0.000000
# 4 0.000000 0.000000 0.000000 0.552198 0.000000 -0.235933
# 5 -0.002848 -0.002626 -0.003067 0.000000 0.024593 0.000000
# 6 0.000000 0.000000 0.000000 -0.235933 0.000000 0.140095
#
#
# Mechanical properties :
#
#
# Convention : Reuss Voigt Hill
#
# Bulk Modulus (GPa) = 43.17801 64.05994 53.61898
# Shear Modulus (GPa) = 6.22962 28.47267 17.35114
#
# Velocity S-wave (km/s) = 1.78553 3.81725 2.97990
# Velocity P-wave (km/s) = 5.13303 7.22582 6.26739
#
# Compressibility (1/GPa) = 0.02315994
#
# Stress axis : x y z
#
# Youngs Moduli (GPa) = 108.05191 34.63024 80.29569
#
# Poissons Ratio (x) = 0.16284 0.15309
# Poissons Ratio (y) = 0.50809 0.57041
# Poissons Ratio (z) = 0.20601 0.24601
#
# Static dielectric constant tensor:
#      x y z
#    x 1.713520 0.000000 0.017450 
#    y 0.000000 1.702710 0.000000 
#    z 0.017450 0.000000 1.693250 
# 
# From -- ./inp_files/125716.got.cif
#   From: 2010.05.17/outbox.cif.g08.bks.cpg/sg12_63_cif.got.tgz:125716.got - 2010.06.03 13:09:07.
