data_PCOD9222382
_publ_section_title
;
Structure prediction by ZEFSAII (Michael W. Deem and Ramdas Pophale) SiO2 
 PCOD9222382
Probable space group: C 2/M
;
_chemical_formula_sum "Si O2"
_cell_formula_units_Z 40
_cell_length_a 17.536140
_cell_length_b 21.960100
_cell_length_c 9.385339
_cell_angle_alpha 90.000000
_cell_angle_beta 151.197138
_cell_angle_gamma 90.000000
_cell_volume 1741.336788
_symmetry_space_group_name_H-M "C 2/M"
_symmetry_group_IT_number 12
_symmetry_cell_setting 'monoclinic'
loop_
_space_group_symop_operation_xyz
x,y,z
-x,y,-z
-x,-y,-z
x,-y,z
1/2+x,1/2+y,z
1/2-x,1/2+y,-z
1/2-x,1/2-y,-z
1/2+x,1/2-y,z
loop_
_atom_site_type_symbol
_atom_site_label
_atom_site_fract_x
_atom_site_fract_y
_atom_site_fract_z
Si Si1 0.728755 0.167634 0.662837
Si Si2 0.345321 0.379358 0.337954
Si Si3 0.188763 0.434998 0.821282
Si Si4 0.846215 0.068276 0.648353
Si Si5 0.925978 0.714880 0.029529
O O1 0.734630 0.123741 0.807168
O O2 0.744462 0.121482 0.555351
O O3 0.868098 0.216330 0.908784
O O4 0.564543 0.203907 0.371191
O O5 0.500000 0.362005 0.500000
O O6 0.386722 0.411547 0.554514
O O7 0.226854 0.324052 0.177208
O O8 0.247431 0.425413 0.077189
O O9 0.252000 0.500000 0.868914
O O10 0.000000 0.437172 0.500000
O O11 0.775111 0.000000 0.531179
O O12 0.000000 0.066467 0.000000
O O13 0.000000 0.695078 0.000000
#
# Coordination Sequence:
#
# PCOD9222382 Si02
#       5
#     8   8   8   8   8
#     4  12  26  47  78 109 146 199 252 307 365 440
#     4  12  27  47  75 114 152 194 243 309 378 438
#     4  11  25  48  75 110 156 197 243 307 379 446
#     4  11  25  47  78 112 148 195 252 308 371 445
#     4  12  27  48  75 111 149 198 251 307 368 439
#
# _framework density 22.970858
#
# number of rings (size 3 to 8) (size 9 to 14) (size 15 to 20)
#    0.000    0.400    4.000    3.600    5.600    4.800 
#    0.000    1.000    0.000    0.000    0.000    0.000 
#    0.000    0.000    0.000    0.000    0.000    0.000 
#
# Total GULP energy -111945.679727 kJ/mol
# GULP energy per Si atom -5597.283986 kJ/mol
# Density = 2.291857 g / cm^3
# Si number density = 22.970858 Si / 1000 Ang^3
#
#
#
# Elastic Constant Matrix: (Units=GPa)
#
#
# Indices 1 2 3 4 5 6 
#
# 1 112.4222 63.8009 54.9477 0.0000 -12.5720 0.0000
# 2 63.8009 167.0125 63.8854 0.0000 8.3485 0.0000
# 3 54.9477 63.8854 131.0086 0.0000 -15.8612 0.0000
# 4 0.0000 0.0000 0.0000 -70.0147 0.0000 -0.8609
# 5 -12.5720 8.3485 -15.8612 0.0000 43.6787 0.0000
# 6 0.0000 0.0000 0.0000 -0.8609 0.0000 38.6747
#
#
#
# Elastic Compliance Matrix: (Units=1/GPa)
#
#
# Indices 1 2 3 4 5 6 
#
# 1 0.013049 -0.003954 -0.003137 0.000000 0.003372 0.000000
# 2 -0.003954 0.008910 -0.003170 0.000000 -0.003992 0.000000
# 3 -0.003137 -0.003170 0.010940 0.000000 0.003676 0.000000
# 4 0.000000 0.000000 0.000000 -0.014279 0.000000 -0.000318
# 5 0.003372 -0.003992 0.003676 0.000000 0.025963 0.000000
# 6 0.000000 0.000000 0.000000 -0.000318 0.000000 0.025850
#
#
# Mechanical properties :
#
#
# Convention : Reuss Voigt Hill
#
# Bulk Modulus (GPa) = 80.78967 86.19016 83.48992
# Shear Modulus (GPa) = 52.58779 17.65503 35.12141
#
# Velocity S-wave (km/s) = 4.78988 2.77534 3.91443
# Velocity P-wave (km/s) = 8.11403 6.91903 7.54024
#
# Compressibility (1/GPa) = 0.01237782
#
# Stress axis : x y z
#
# Youngs Moduli (GPa) = 76.63408 112.23277 91.41133
#
# Poissons Ratio (x) = 0.44372 0.28674
# Poissons Ratio (y) = 0.30298 0.28978
# Poissons Ratio (z) = 0.24038 0.35578
#
# Static dielectric constant tensor:
#      x y z
#    x 1.878520 0.000000 0.006790 
#    y 0.000000 1.878990 0.000000 
#    z 0.006790 0.000000 1.854480 
# 
# From -- ./inp_files/79321.got.cif
#   From: 2010.05.17/outbox.cif.g08.bks.cpg/sg12_40_cif.got.tgz:79321.got - 2010.06.03 13:09:07.
