data_PCOD9222777
_publ_section_title
;
Structure prediction by ZEFSAII (Michael W. Deem and Ramdas Pophale) SiO2 
 PCOD9222777
Probable space group: C 2/M
;
_chemical_formula_sum "Si O2"
_cell_formula_units_Z 26
_cell_length_a 26.230907
_cell_length_b 9.096113
_cell_length_c 4.953782
_cell_angle_alpha 90.000000
_cell_angle_beta 81.335603
_cell_angle_gamma 90.000000
_cell_volume 1168.479891
_symmetry_space_group_name_H-M "C 2/M"
_symmetry_group_IT_number 12
_symmetry_cell_setting 'monoclinic'
loop_
_space_group_symop_operation_xyz
x,y,z
-x,y,-z
-x,-y,-z
x,-y,z
1/2+x,1/2+y,z
1/2-x,1/2+y,-z
1/2-x,1/2-y,-z
1/2+x,1/2-y,z
loop_
_atom_site_type_symbol
_atom_site_label
_atom_site_fract_x
_atom_site_fract_y
_atom_site_fract_z
Si Si1 0.615012 0.332795 0.742778
Si Si2 0.720890 0.822625 0.773584
Si Si3 0.047138 0.228961 0.299349
Si Si4 0.500000 0.000000 0.000000
O O1 0.631177 0.500000 0.658192
O O2 0.662280 0.234487 0.806888
O O3 0.590021 0.256898 0.499823
O O4 0.574316 0.342989 0.019702
O O5 0.750000 0.750000 0.500000
O O6 0.723303 0.000000 0.773731
O O7 0.750000 0.750000 0.000000
O O8 0.000000 0.155488 0.500000
O O9 0.022994 0.373607 0.186773
#
# Coordination Sequence:
#
# PCOD9222777 Si02
#       4
#     8   8   8   2
#     4  12  27  46  74 108 146 190 244 302 370 439
#     4  12  27  50  79 109 148 191 244 307 373 441
#     4  12  26  45  72 101 148 192 244 297 360 429
#     4  12  26  48  68 104 150 196 248 308 354 440
#
# _framework density 22.251128999999999
#
# number of rings (size 3 to 8) (size 9 to 14) (size 15 to 20)
#    0.000    0.000    3.077    6.000    4.308    3.692 
#    0.000    0.000    0.000    0.000    0.000    0.000 
#    0.000    0.000    0.000    0.000    0.000    0.000 
#
# Total GULP energy -72417.029964 kJ/mol
# GULP energy per Si atom -5570.540766 kJ/mol
# Density = 2.220048 g / cm^3
# Si number density = 22.251129 Si / 1000 Ang^3
#
#
#
# Elastic Constant Matrix: (Units=GPa)
#
#
# Indices 1 2 3 4 5 6 
#
# 1 113.1276 98.3903 63.2498 0.0000 43.9115 0.0000
# 2 98.3903 241.5336 78.2692 0.0000 19.8940 0.0000
# 3 63.2498 78.2692 180.2907 0.0000 36.9554 0.0000
# 4 0.0000 0.0000 0.0000 8.5068 0.0000 21.6080
# 5 43.9115 19.8940 36.9554 0.0000 62.8497 0.0000
# 6 0.0000 0.0000 0.0000 21.6080 0.0000 120.2541
#
#
#
# Elastic Compliance Matrix: (Units=1/GPa)
#
#
# Indices 1 2 3 4 5 6 
#
# 1 0.019688 -0.006532 -0.001905 0.000000 -0.010568 0.000000
# 2 -0.006532 0.006992 -0.001393 0.000000 0.003170 0.000000
# 3 -0.001905 -0.001393 0.007341 0.000000 -0.002545 0.000000
# 4 0.000000 0.000000 0.000000 0.216256 0.000000 -0.038858
# 5 -0.010568 0.003170 -0.002545 0.000000 0.023787 0.000000
# 6 0.000000 0.000000 0.000000 -0.038858 0.000000 0.015298
#
#
# Mechanical properties :
#
#
# Convention : Reuss Voigt Hill
#
# Bulk Modulus (GPa) = 69.63978 112.75228 91.19603
# Shear Modulus (GPa) = 15.93320 57.99162 36.96241
#
# Velocity S-wave (km/s) = 2.67884 5.11067 4.08014
# Velocity P-wave (km/s) = 6.39792 9.25245 7.95428
#
# Compressibility (1/GPa) = 0.01435961
#
# Stress axis : x y z
#
# Youngs Moduli (GPa) = 50.79271 143.02895 136.21341
#
# Poissons Ratio (x) = 0.93430 0.25948
# Poissons Ratio (y) = 0.33179 0.18980
# Poissons Ratio (z) = 0.09676 0.19930
#
# Static dielectric constant tensor:
#      x y z
#    x 1.849880 0.000000 -0.047220 
#    y 0.000000 1.662030 0.000000 
#    z -0.047220 0.000000 1.715000 
# 
# From -- ./inp_files/26923.got.cif
#   From: 2010.05.17/outbox.cif.g08.bks.cpg/sg12_14_cif.got.tgz:26923.got - 2010.06.03 13:09:07.
