data_PCOD9222006
_publ_section_title
;
Structure prediction by ZEFSAII (Michael W. Deem and Ramdas Pophale) SiO2 
 PCOD9222006
Probable space group: C 2/M
;
_chemical_formula_sum "Si O2"
_cell_formula_units_Z 48
_cell_length_a 25.070729
_cell_length_b 16.059983
_cell_length_c 10.827873
_cell_angle_alpha 90.000000
_cell_angle_beta 30.389502
_cell_angle_gamma 90.000000
_cell_volume 2205.459231
_symmetry_space_group_name_H-M "C 2/M"
_symmetry_group_IT_number 12
_symmetry_cell_setting 'monoclinic'
loop_
_space_group_symop_operation_xyz
x,y,z
-x,y,-z
-x,-y,-z
x,-y,z
1/2+x,1/2+y,z
1/2-x,1/2+y,-z
1/2-x,1/2-y,-z
1/2+x,1/2-y,z
loop_
_atom_site_type_symbol
_atom_site_label
_atom_site_fract_x
_atom_site_fract_y
_atom_site_fract_z
Si Si1 0.064498 0.124089 0.991730
Si Si2 0.056447 0.090286 0.520410
Si Si3 0.699542 0.092417 0.564082
Si Si4 0.128538 0.703578 0.926624
Si Si5 0.305561 0.755457 0.757951
Si Si6 0.945142 0.402920 0.386925
O O1 0.185670 0.101474 0.725385
O O2 0.053533 0.223826 0.026166
O O3 0.000000 0.096312 0.000000
O O4 0.022891 0.090494 0.205106
O O5 0.126588 0.171872 0.395277
O O6 0.000000 0.096624 0.500000
O O7 0.112854 0.000000 0.409841
O O8 0.611051 0.100036 0.635418
O O9 0.690077 0.000000 0.638005
O O10 0.683769 0.159113 0.701936
O O11 0.060551 0.636910 0.139156
O O12 0.214474 0.750323 0.837846
O O13 0.376229 0.838398 0.605209
O O14 0.250000 0.750000 0.000000
O O15 0.945753 0.500000 0.425317
#
# Coordination Sequence:
#
# PCOD9222006 Si02
#       6
#     8   8   8   8   8   8
#     4  12  23  40  70 104 141 180 234 291 356 413
#     4  11  26  47  72 102 140 185 233 291 358 424
#     4  11  24  41  67 104 141 181 229 283 354 431
#     4  12  24  43  69 101 139 186 231 287 355 419
#     4  12  27  46  72 100 138 186 242 291 347 422
#     4  11  25  46  72 104 143 185 229 287 359 426
#
# _framework density 21.764175000000002
#
# number of rings (size 3 to 8) (size 9 to 14) (size 15 to 20)
#    0.000    0.500    3.333    5.000    0.000    6.000 
#    0.000    0.833    0.000    0.000    0.000    0.000 
#    0.000    0.000    0.000    0.000    0.000    0.000 
#
# Total GULP energy -134287.086323 kJ/mol
# GULP energy per Si atom -5595.295263 kJ/mol
# Density = 2.171464 g / cm^3
# Si number density = 21.764175 Si / 1000 Ang^3
#
#
#
# Elastic Constant Matrix: (Units=GPa)
#
#
# Indices 1 2 3 4 5 6 
#
# 1 62.1754 17.6490 17.4345 0.0000 16.7734 0.0000
# 2 17.6490 170.8829 49.1042 0.0000 8.4710 0.0000
# 3 17.4345 49.1042 109.3722 0.0000 19.2280 0.0000
# 4 0.0000 0.0000 0.0000 6.2547 0.0000 -0.9455
# 5 16.7734 8.4710 19.2280 0.0000 38.5986 0.0000
# 6 0.0000 0.0000 0.0000 -0.9455 0.0000 37.8827
#
#
#
# Elastic Compliance Matrix: (Units=1/GPa)
#
#
# Indices 1 2 3 4 5 6 
#
# 1 0.018725 -0.001244 -0.001144 0.000000 -0.007294 0.000000
# 2 -0.001244 0.006801 -0.002946 0.000000 0.000515 0.000000
# 3 -0.001144 -0.002946 0.011450 0.000000 -0.004560 0.000000
# 4 0.000000 0.000000 0.000000 0.160485 0.000000 0.004006
# 5 -0.007294 0.000515 -0.004560 0.000000 0.031236 0.000000
# 6 0.000000 0.000000 0.000000 0.004006 0.000000 0.026497
#
#
# Mechanical properties :
#
#
# Convention : Reuss Voigt Hill
#
# Bulk Modulus (GPa) = 38.00991 56.75619 47.38305
# Shear Modulus (GPa) = 18.20619 33.76337 25.98478
#
# Velocity S-wave (km/s) = 2.89540 3.94296 3.45907
# Velocity P-wave (km/s) = 5.35539 6.84571 6.14589
#
# Compressibility (1/GPa) = 0.02630893
#
# Stress axis : x y z
#
# Youngs Moduli (GPa) = 53.40393 147.02883 87.33807
#
# Poissons Ratio (x) = 0.18284 0.09993
# Poissons Ratio (y) = 0.06641 0.25729
# Poissons Ratio (z) = 0.06111 0.43314
#
# Static dielectric constant tensor:
#      x y z
#    x 1.759300 0.000000 -0.026330 
#    y 0.000000 1.846820 0.000000 
#    z -0.026330 0.000000 1.757080 
# 
# From -- ./inp_files/183661.got.cif
#   From: 2010.05.17/outbox.cif.g08.bks.cpg/sg12_92_cif.got.tgz:183661.got - 2010.06.03 13:09:07.
