data_PCOD9222274
_publ_section_title
;
Structure prediction by ZEFSAII (Michael W. Deem and Ramdas Pophale) SiO2 
 PCOD9222274
Probable space group: C 2/M
;
_chemical_formula_sum "Si O2"
_cell_formula_units_Z 40
_cell_length_a 12.397869
_cell_length_b 29.574920
_cell_length_c 5.104998
_cell_angle_alpha 90.000000
_cell_angle_beta 75.578819
_cell_angle_gamma 90.000000
_cell_volume 1812.849950
_symmetry_space_group_name_H-M "C 2/M"
_symmetry_group_IT_number 12
_symmetry_cell_setting 'monoclinic'
loop_
_space_group_symop_operation_xyz
x,y,z
-x,y,-z
-x,-y,-z
x,-y,z
1/2+x,1/2+y,z
1/2-x,1/2+y,-z
1/2-x,1/2-y,-z
1/2+x,1/2-y,z
loop_
_atom_site_type_symbol
_atom_site_label
_atom_site_fract_x
_atom_site_fract_y
_atom_site_fract_z
Si Si1 0.873271 0.448509 0.174503
Si Si2 0.110281 0.693762 0.105786
Si Si3 0.929241 0.136030 0.306400
Si Si4 0.310571 0.895028 0.712920
Si Si5 0.178175 0.780317 0.349298
O O1 0.831170 0.500000 0.203965
O O2 0.867650 0.426641 0.463450
O O3 0.811987 0.417530 0.998151
O O4 0.000000 0.449183 0.000000
O O5 0.127410 0.653393 0.302227
O O6 0.106905 0.744256 0.226927
O O7 0.228853 0.693968 0.880224
O O8 0.000000 0.685846 0.000000
O O9 0.815338 0.111338 0.305259
O O10 0.891452 0.184254 0.444547
O O11 0.000000 0.114213 0.500000
O O12 0.000000 0.141209 0.000000
O O13 0.250000 0.750000 0.500000
#
# Coordination Sequence:
#
# PCOD9222274 Si02
#       5
#     8   8   8   8   8
#     4  11  25  46  77 110 144 181 218 277 370 449
#     4  11  26  43  66 101 142 186 234 293 351 401
#     4  12  27  46  72  96 137 195 243 288 345 406
#     4  12  24  47  71 105 143 178 235 295 344 424
#     4  11  25  43  64  96 141 189 245 288 336 408
#
# _framework density 22.064706000000001
#
# number of rings (size 3 to 8) (size 9 to 14) (size 15 to 20)
#    0.000    0.600    2.000    5.400    5.600    3.200 
#    0.000    1.000    0.000   12.000    0.000    0.000 
#    0.000    0.000    0.000    0.000    0.000    0.000 
#
# Total GULP energy -112079.497982 kJ/mol
# GULP energy per Si atom -5603.974899 kJ/mol
# Density = 2.201449 g / cm^3
# Si number density = 22.064706 Si / 1000 Ang^3
#
#
#
# Elastic Constant Matrix: (Units=GPa)
#
#
# Indices 1 2 3 4 5 6 
#
# 1 126.6608 26.1402 8.3536 0.0000 17.5005 0.0000
# 2 26.1402 91.5057 24.0989 0.0000 -1.4762 0.0000
# 3 8.3536 24.0989 104.8098 0.0000 -8.5770 0.0000
# 4 0.0000 0.0000 0.0000 27.5377 0.0000 7.3791
# 5 17.5005 -1.4762 -8.5770 0.0000 41.3669 0.0000
# 6 0.0000 0.0000 0.0000 7.3791 0.0000 5.7500
#
#
#
# Elastic Compliance Matrix: (Units=1/GPa)
#
#
# Indices 1 2 3 4 5 6 
#
# 1 0.008996 -0.002511 -0.000466 0.000000 -0.003992 0.000000
# 2 -0.002511 0.012335 -0.002556 0.000000 0.000973 0.000000
# 3 -0.000466 -0.002556 0.010350 0.000000 0.002252 0.000000
# 4 0.000000 0.000000 0.000000 0.055347 0.000000 -0.071028
# 5 -0.003992 0.000973 0.002252 0.000000 0.026364 0.000000
# 6 0.000000 0.000000 0.000000 -0.071028 0.000000 0.265065
#
#
# Mechanical properties :
#
#
# Convention : Reuss Voigt Hill
#
# Bulk Modulus (GPa) = 48.51363 48.90684 48.71023
# Shear Modulus (GPa) = 12.61365 32.55648 22.58506
#
# Velocity S-wave (km/s) = 2.39355 3.84539 3.20282
# Velocity P-wave (km/s) = 5.44734 6.47529 5.98343
#
# Compressibility (1/GPa) = 0.02061277
#
# Stress axis : x y z
#
# Youngs Moduli (GPa) = 111.16400 81.07252 96.61533
#
# Poissons Ratio (x) = 0.20361 0.04504
# Poissons Ratio (y) = 0.27918 0.24698
# Poissons Ratio (z) = 0.05183 0.20725
#
# Static dielectric constant tensor:
#      x y z
#    x 1.960950 0.000000 -0.186830 
#    y 0.000000 1.800640 0.000000 
#    z -0.186830 0.000000 2.119140 
# 
# From -- ./inp_files/8332.got.cif
#   From: 2010.05.17/outbox.cif.g08.bks.cpg/sg12_5_cif.got.tgz:8332.got - 2010.06.03 13:09:07.
