data_PCOD9222324
_publ_section_title
;
Structure prediction by ZEFSAII (Michael W. Deem and Ramdas Pophale) SiO2 
 PCOD9222324
Probable space group: C 2/M
;
_chemical_formula_sum "Si O2"
_cell_formula_units_Z 24
_cell_length_a 11.823220
_cell_length_b 19.974559
_cell_length_c 9.573357
_cell_angle_alpha 90.000000
_cell_angle_beta 154.024841
_cell_angle_gamma 90.000000
_cell_volume 990.222794
_symmetry_space_group_name_H-M "C 2/M"
_symmetry_group_IT_number 12
_symmetry_cell_setting 'monoclinic'
loop_
_space_group_symop_operation_xyz
x,y,z
-x,y,-z
-x,-y,-z
x,-y,z
1/2+x,1/2+y,z
1/2-x,1/2+y,-z
1/2-x,1/2-y,-z
1/2+x,1/2-y,z
loop_
_atom_site_type_symbol
_atom_site_label
_atom_site_fract_x
_atom_site_fract_y
_atom_site_fract_z
Si Si1 0.772846 0.423348 0.828479
Si Si2 0.708452 0.720436 0.113285
Si Si3 0.747084 0.928271 0.873846
O O1 0.500000 0.389687 0.500000
O O2 0.747125 0.500000 0.742964
O O3 0.842320 0.427178 0.065722
O O4 0.000000 0.389461 0.000000
O O5 0.617093 0.642696 0.992179
O O6 0.000000 0.721067 0.500000
O O7 0.500000 0.745862 0.000000
O O8 0.750000 0.750000 0.000000
O O9 0.500000 0.929373 0.500000
O O10 0.890731 0.000000 0.017913
#
# Coordination Sequence:
#
# PCOD9222324 Si02
#       3
#     8   8   8
#     4   9  18  32  51  79 116 157 199 245 303 371
#     4  11  25  45  69  97 132 176 223 272 328 393
#     4   9  20  39  64  95 130 167 212 269 330 388
#
# _framework density 24.236968999999998
#
# number of rings (size 3 to 8) (size 9 to 14) (size 15 to 20)
#    0.000    2.333    0.000    1.000    0.000    8.667 
#    0.000   10.000    0.000    0.000    0.000    0.000 
#    0.000    0.000    0.000    0.000    0.000    0.000 
#
# Total GULP energy -66833.954252 kJ/mol
# GULP energy per Si atom -5569.496188 kJ/mol
# Density = 2.418180 g / cm^3
# Si number density = 24.236969 Si / 1000 Ang^3
#
#
#
# Elastic Constant Matrix: (Units=GPa)
#
#
# Indices 1 2 3 4 5 6 
#
# 1 237.0129 46.8145 79.6391 0.0002 1.8991 -0.0004
# 2 46.8145 186.5177 -7.0243 -0.0001 -5.9739 -0.0001
# 3 79.6391 -7.0243 128.9242 0.0002 -10.0877 -0.0005
# 4 0.0002 -0.0001 0.0002 4.3675 0.0002 -31.9655
# 5 1.8991 -5.9739 -10.0877 0.0002 53.1939 -0.0004
# 6 -0.0004 -0.0001 -0.0005 -31.9655 -0.0004 45.8864
#
#
#
# Elastic Compliance Matrix: (Units=1/GPa)
#
#
# Indices 1 2 3 4 5 6 
#
# 1 0.005818 -0.001638 -0.003770 0.000000 -0.001107 0.000000
# 2 -0.001638 0.005857 0.001408 0.000000 0.000983 0.000000
# 3 -0.003770 0.001408 0.010338 0.000000 0.002253 0.000000
# 4 0.000000 0.000000 0.000000 -0.055865 0.000000 -0.038917
# 5 -0.001107 0.000983 0.002253 0.000000 0.019376 0.000000
# 6 0.000000 0.000000 0.000000 -0.038917 0.000000 -0.005317
#
#
# Mechanical properties :
#
#
# Convention : Reuss Voigt Hill
#
# Bulk Modulus (GPa) = 71.35895 87.92370 79.64133
# Shear Modulus (GPa) = -702.16137 49.55792 -326.30172
#
# Velocity S-wave (km/s) = -17.03924 4.52677 -11.61559
# Velocity P-wave (km/s) = 18.91053 7.97983 12.12292
#
# Compressibility (1/GPa) = 0.01401366
#
# Stress axis : x y z
#
# Youngs Moduli (GPa) = 171.87285 170.73611 96.72839
#
# Poissons Ratio (x) = 0.27962 0.36465
# Poissons Ratio (y) = 0.28149 -0.13617
# Poissons Ratio (z) = 0.64794 -0.24035
#
# Static dielectric constant tensor:
#      x y z
#    x 1.967510 0.000000 0.076500 
#    y 0.000000 2.048090 0.000000 
#    z 0.076500 0.000000 1.858540 
# 
# From -- ./inp_files/5540.got.cif
#   From: 2010.05.17/outbox.cif.g08.bks.cpg/sg12_3_cif.got.tgz:5540.got - 2010.06.03 13:09:07.
