data_PCOD9222958
_publ_section_title
;
Structure prediction by ZEFSAII (Michael W. Deem and Ramdas Pophale) SiO2 
 PCOD9222958
Probable space group: C 2/M
;
_chemical_formula_sum "Si O2"
_cell_formula_units_Z 48
_cell_length_a 16.172065
_cell_length_b 7.317969
_cell_length_c 18.389080
_cell_angle_alpha 90.000000
_cell_angle_beta 52.464064
_cell_angle_gamma 90.000000
_cell_volume 1725.732795
_symmetry_space_group_name_H-M "C 2/M"
_symmetry_group_IT_number 12
_symmetry_cell_setting 'monoclinic'
loop_
_space_group_symop_operation_xyz
x,y,z
-x,y,-z
-x,-y,-z
x,-y,z
1/2+x,1/2+y,z
1/2-x,1/2+y,-z
1/2-x,1/2-y,-z
1/2+x,1/2-y,z
loop_
_atom_site_type_symbol
_atom_site_label
_atom_site_fract_x
_atom_site_fract_y
_atom_site_fract_z
Si Si1 0.606484 0.783143 0.307789
Si Si2 0.866119 0.781351 0.867365
Si Si3 0.845292 0.776526 0.191376
Si Si4 0.379401 0.710489 0.016745
Si Si5 0.401919 0.790677 0.478705
Si Si6 0.821487 0.777478 0.361613
O O1 0.577179 0.755941 0.238810
O O2 0.724351 0.715830 0.251144
O O3 0.518002 0.710004 0.409510
O O4 0.611008 0.000000 0.317572
O O5 0.747752 0.710931 0.920325
O O6 0.860250 0.000000 0.877143
O O7 0.908858 0.710973 0.921922
O O8 0.899977 0.715044 0.087125
O O9 0.875462 0.725184 0.257021
O O10 0.847761 0.000000 0.187392
O O11 0.413509 0.500000 0.997703
O O12 0.300262 0.716511 0.573602
O O13 0.367260 0.791985 0.412337
O O14 0.410459 0.000000 0.498452
O O15 0.822952 0.000000 0.364810
#
# Coordination Sequence:
#
# PCOD9222958 Si02
#       6
#     8   8   8   8   8   8
#     4   9  17  29  44  63  89 116 142 176 214 250
#     4   9  15  23  39  63  88 113 142 174 209 251
#     4   8  14  26  45  67  87 109 140 177 214 249
#     4   8  14  25  40  60  88 116 140 171 211 253
#     4   9  18  31  46  64  86 114 144 174 213 258
#     4   9  17  30  48  66  84 110 144 178 212 256
#
# _framework density 27.814268999999999
#
# number of rings (size 3 to 8) (size 9 to 14) (size 15 to 20)
#    0.000    3.333    0.000    1.500    0.000    2.000 
#    0.000    6.667    0.000    1.000    0.000   16.333 
#    0.000    0.000    0.000    0.000    0.000    0.000 
#
# Total GULP energy -134170.703350 kJ/mol
# GULP energy per Si atom -5590.445973 kJ/mol
# Density = 2.775096 g / cm^3
# Si number density = 27.814269 Si / 1000 Ang^3
#
#
#
# Elastic Constant Matrix: (Units=GPa)
#
#
# Indices 1 2 3 4 5 6 
#
# 1 102.7558 0.9414 50.3715 0.0000 16.0534 -0.0002
# 2 0.9414 122.6805 6.8291 0.0001 -1.3004 -0.0005
# 3 50.3715 6.8291 248.7385 0.0000 19.9131 -0.0002
# 4 0.0000 0.0001 0.0000 4.5297 0.0000 4.3489
# 5 16.0534 -1.3004 19.9131 0.0000 72.7152 0.0001
# 6 -0.0002 -0.0005 -0.0002 4.3489 0.0001 -4.8940
#
#
#
# Elastic Compliance Matrix: (Units=1/GPa)
#
#
# Indices 1 2 3 4 5 6 
#
# 1 0.011047 0.000012 -0.002088 0.000000 -0.001867 0.000000
# 2 0.000012 0.008167 -0.000243 0.000000 0.000210 -0.000001
# 3 -0.002088 -0.000243 0.004512 0.000000 -0.000779 0.000000
# 4 0.000000 0.000000 0.000000 0.119130 0.000000 0.105861
# 5 -0.001867 0.000210 -0.000779 0.000000 0.014382 0.000000
# 6 0.000000 -0.000001 0.000000 0.105861 0.000000 -0.110262
#
#
# Mechanical properties :
#
#
# Convention : Reuss Voigt Hill
#
# Bulk Modulus (GPa) = 52.39276 65.60655 58.99966
# Shear Modulus (GPa) = 86.24116 42.20571 64.22343
#
# Velocity S-wave (km/s) = 5.57435 3.89962 4.81043
# Velocity P-wave (km/s) = 7.76587 6.62681 7.21884
#
# Compressibility (1/GPa) = 0.01908661
#
# Stress axis : x y z
#
# Youngs Moduli (GPa) = 90.52331 122.44482 221.62323
#
# Poissons Ratio (x) = -0.00143 0.46274
# Poissons Ratio (y) = -0.00106 0.05394
# Poissons Ratio (z) = 0.18901 0.02980
#
# Static dielectric constant tensor:
#      x y z
#    x 2.244860 0.000000 0.005650 
#    y 0.000000 2.166150 0.000000 
#    z 0.005650 0.000000 2.133710 
# 
# From -- ./inp_files/280038.got.cif
#   From: 2010.05.17/outbox.cif.g08.bks.cpg/sg12_141_cif.got.tgz:280038.got - 2010.06.03 13:09:07.
