data_PCOD9222533
_publ_section_title
;
Structure prediction by ZEFSAII (Michael W. Deem and Ramdas Pophale) SiO2 
 PCOD9222533
Probable space group: C 2/M
;
_chemical_formula_sum "Si O2"
_cell_formula_units_Z 64
_cell_length_a 20.064482
_cell_length_b 19.701171
_cell_length_c 24.278045
_cell_angle_alpha 90.000000
_cell_angle_beta 158.193694
_cell_angle_gamma 90.000000
_cell_volume 3564.983116
_symmetry_space_group_name_H-M "C 2/M"
_symmetry_group_IT_number 12
_symmetry_cell_setting 'monoclinic'
loop_
_space_group_symop_operation_xyz
x,y,z
-x,y,-z
-x,-y,-z
x,-y,z
1/2+x,1/2+y,z
1/2-x,1/2+y,-z
1/2-x,1/2-y,-z
1/2+x,1/2-y,z
loop_
_atom_site_type_symbol
_atom_site_label
_atom_site_fract_x
_atom_site_fract_y
_atom_site_fract_z
Si Si1 0.224286 0.793628 0.925260
Si Si2 0.013966 0.785851 0.445878
Si Si3 0.403454 0.079309 0.111522
Si Si4 0.197465 0.781118 0.127564
Si Si5 0.698768 0.714899 0.402680
Si Si6 0.711571 0.927416 0.500536
Si Si7 0.324715 0.578325 0.462915
Si Si8 0.292544 0.075451 0.150576
O O1 0.292372 0.757176 0.922861
O O2 0.011357 0.794301 0.757259
O O3 0.250000 0.750000 0.000000
O O4 0.317989 0.866300 0.005089
O O5 0.855077 0.749549 0.288357
O O6 0.000000 0.772358 0.500000
O O7 0.204674 0.758788 0.569420
O O8 0.034452 0.866754 0.451092
O O9 0.617720 0.091307 0.284629
O O10 0.299887 0.089314 0.090519
O O11 0.382596 0.000000 0.080309
O O12 0.222587 0.861029 0.131882
O O13 0.000000 0.770771 0.000000
O O14 0.750000 0.750000 0.500000
O O15 0.768924 0.638922 0.449038
O O16 0.814546 0.916806 0.521697
O O17 0.502872 0.930433 0.325680
O O18 0.767542 0.000000 0.567480
O O19 0.366868 0.500000 0.481150
O O20 0.211737 0.000000 0.098331
#
# Coordination Sequence:
#
# PCOD9222533 Si02
#       8
#     8   8   8   8   8   8   8   8
#     4  12  23  37  65  92 122 159 200 256 306 360
#     4  12  26  40  61  90 124 163 207 258 303 360
#     4   9  19  35  61  96 125 153 200 256 308 361
#     4  12  26  41  58  92 130 161 202 254 315 363
#     4  12  21  39  63  87 119 158 207 252 300 362
#     4   9  16  31  60  90 113 145 196 255 301 344
#     4   9  18  36  63  89 116 156 207 252 300 368
#     4   9  17  36  62  88 119 158 201 245 298 367
#
# _framework density 17.952399
#
# number of rings (size 3 to 8) (size 9 to 14) (size 15 to 20)
#    0.000    1.500    5.000    2.250    3.500    1.000 
#    0.000    0.625    0.000    2.250    0.000    0.000 
#    0.000    0.000    0.000    0.000    0.000    0.000 
#
# Total GULP energy -178354.223996 kJ/mol
# GULP energy per Si atom -5573.569500 kJ/mol
# Density = 1.791154 g / cm^3
# Si number density = 17.952399 Si / 1000 Ang^3
#
#
#
# Elastic Constant Matrix: (Units=GPa)
#
#
# Indices 1 2 3 4 5 6 
#
# 1 87.8612 47.7722 15.3059 0.0122 3.0107 -0.0012
# 2 47.7722 143.9191 44.0067 0.0219 -7.3271 0.0193
# 3 15.3059 44.0067 46.6881 0.0689 -0.5212 0.0167
# 4 0.0122 0.0219 0.0689 33.7728 0.0085 3.6703
# 5 3.0107 -7.3271 -0.5212 0.0085 20.8410 0.0022
# 6 -0.0012 0.0193 0.0167 3.6703 0.0022 21.7673
#
#
#
# Elastic Compliance Matrix: (Units=1/GPa)
#
#
# Indices 1 2 3 4 5 6 
#
# 1 0.014173 -0.004865 -0.000103 -0.000001 -0.003760 0.000006
# 2 -0.004865 0.011650 -0.009335 0.000013 0.004565 -0.000006
# 3 -0.000103 -0.009335 0.030224 -0.000054 -0.002511 -0.000005
# 4 -0.000001 0.000013 -0.000054 0.030162 -0.000008 -0.005086
# 5 -0.003760 0.004565 -0.002511 -0.000008 0.050068 -0.000006
# 6 0.000006 -0.000006 -0.000005 -0.005086 -0.000006 0.046798
#
#
# Mechanical properties :
#
#
# Convention : Reuss Voigt Hill
#
# Bulk Modulus (GPa) = 36.44191 54.73757 45.58974
# Shear Modulus (GPa) = 22.64205 26.70180 24.67192
#
# Velocity S-wave (km/s) = 3.55523 3.86082 3.71117
# Velocity P-wave (km/s) = 6.09886 7.10149 6.61919
#
# Compressibility (1/GPa) = 0.02744093
#
# Stress axis : x y z
#
# Youngs Moduli (GPa) = 70.55467 85.83762 33.08672
#
# Poissons Ratio (x) = 0.41756 0.00342
# Poissons Ratio (y) = 0.34322 0.30887
# Poissons Ratio (z) = 0.00729 0.80130
#
# Static dielectric constant tensor:
#      x y z
#    x 1.597480 0.000000 -0.031030 
#    y 0.000000 1.655460 0.000050 
#    z -0.031030 0.000050 1.406430 
# 
# From -- ./inp_files/366813.got.cif
#   From: 2010.05.17/outbox.cif.g08.bks.cpg/sg12_184_cif.got.tgz:366813.got - 2010.06.03 13:09:07.
