data_PCOD9222381
_publ_section_title
;
Structure prediction by ZEFSAII (Michael W. Deem and Ramdas Pophale) SiO2 
 PCOD9222381
Probable space group: C 2/M
;
_chemical_formula_sum "Si O2"
_cell_formula_units_Z 28
_cell_length_a 5.004046
_cell_length_b 24.624495
_cell_length_c 10.122527
_cell_angle_alpha 90.000000
_cell_angle_beta 111.357462
_cell_angle_gamma 90.000000
_cell_volume 1161.661267
_symmetry_space_group_name_H-M "C 2/M"
_symmetry_group_IT_number 12
_symmetry_cell_setting 'monoclinic'
loop_
_space_group_symop_operation_xyz
x,y,z
-x,y,-z
-x,-y,-z
x,-y,z
1/2+x,1/2+y,z
1/2-x,1/2+y,-z
1/2-x,1/2-y,-z
1/2+x,1/2-y,z
loop_
_atom_site_type_symbol
_atom_site_label
_atom_site_fract_x
_atom_site_fract_y
_atom_site_fract_z
Si Si1 0.771591 0.940205 0.646844
Si Si2 0.469358 0.213336 0.718422
Si Si3 0.000000 0.145908 0.500000
Si Si4 0.331711 0.111554 0.094680
O O1 0.500000 0.941110 0.500000
O O2 0.669410 0.925145 0.774350
O O3 0.965943 0.892821 0.620904
O O4 0.908126 0.000000 0.668213
O O5 0.773313 0.236400 0.727539
O O6 0.525502 0.168927 0.841004
O O7 0.277605 0.182814 0.574063
O O8 0.500000 0.087816 0.000000
O O9 0.000000 0.120007 0.000000
#
# Coordination Sequence:
#
# PCOD9222381 Si02
#       4
#     8   8   4   8
#     4  11  25  47  78 109 144 194 248 306 370 440
#     4  12  26  44  74 108 147 197 247 301 366 435
#     4  12  23  46  74 112 152 186 245 320 364 434
#     4  12  27  49  73 108 156 197 242 304 368 440
#
# _framework density 24.103413
#
# number of rings (size 3 to 8) (size 9 to 14) (size 15 to 20)
#    0.000    0.286    2.857    6.429    0.000    4.571 
#    0.000    0.000    0.000    0.000    0.000    0.000 
#    0.000    0.000    0.000    0.000    0.000    0.000 
#
# Total GULP energy -78526.045446 kJ/mol
# GULP energy per Si atom -5609.003246 kJ/mol
# Density = 2.404855 g / cm^3
# Si number density = 24.103413 Si / 1000 Ang^3
#
#
#
# Elastic Constant Matrix: (Units=GPa)
#
#
# Indices 1 2 3 4 5 6 
#
# 1 91.8306 2.9066 46.0032 0.0000 -5.9473 0.0000
# 2 2.9066 87.8853 34.2979 0.0000 -8.6614 0.0000
# 3 46.0032 34.2979 147.0617 0.0000 -13.3822 0.0000
# 4 0.0000 0.0000 0.0000 -27.1344 0.0000 9.3644
# 5 -5.9473 -8.6614 -13.3822 0.0000 55.2432 0.0000
# 6 0.0000 0.0000 0.0000 9.3644 0.0000 19.1344
#
#
#
# Elastic Compliance Matrix: (Units=1/GPa)
#
#
# Indices 1 2 3 4 5 6 
#
# 1 0.013059 0.001318 -0.004341 0.000000 0.000561 0.000000
# 2 0.001318 0.012740 -0.003261 0.000000 0.001349 0.000000
# 3 -0.004341 -0.003261 0.009028 0.000000 0.001208 0.000000
# 4 0.000000 0.000000 0.000000 -0.031528 0.000000 0.015430
# 5 0.000561 0.001349 0.001208 0.000000 0.018666 0.000000
# 6 0.000000 0.000000 0.000000 0.015430 0.000000 0.044711
#
#
# Mechanical properties :
#
#
# Convention : Reuss Voigt Hill
#
# Bulk Modulus (GPa) = 44.92577 54.79922 49.86250
# Shear Modulus (GPa) = 57.69356 25.68662 41.69009
#
# Velocity S-wave (km/s) = 4.89774 3.26802 4.16340
# Velocity P-wave (km/s) = 7.11779 6.08477 6.62146
#
# Compressibility (1/GPa) = 0.02225894
#
# Stress axis : x y z
#
# Youngs Moduli (GPa) = 76.57516 78.49050 110.76241
#
# Poissons Ratio (x) = -0.10342 0.48086
# Poissons Ratio (y) = -0.10090 0.36116
# Poissons Ratio (z) = 0.33244 0.25593
#
# Static dielectric constant tensor:
#      x y z
#    x 1.891920 0.000000 -0.013620 
#    y 0.000000 1.898080 0.000000 
#    z -0.013620 0.000000 1.910790 
# 
# From -- ./inp_files/34425.got.cif
#   From: 2010.05.17/outbox.cif.g08.bks.cpg/sg12_18_cif.got.tgz:34425.got - 2010.06.03 13:09:07.
