data_PCOD9222046
_publ_section_title
;
Structure prediction by ZEFSAII (Michael W. Deem and Ramdas Pophale) SiO2 
 PCOD9222046
Probable space group: C 2/M
;
_chemical_formula_sum "Si O2"
_cell_formula_units_Z 64
_cell_length_a 14.054707
_cell_length_b 17.877035
_cell_length_c 17.706281
_cell_angle_alpha 90.000000
_cell_angle_beta 136.217877
_cell_angle_gamma 90.000000
_cell_volume 3078.216992
_symmetry_space_group_name_H-M "C 2/M"
_symmetry_group_IT_number 12
_symmetry_cell_setting 'monoclinic'
loop_
_space_group_symop_operation_xyz
x,y,z
-x,y,-z
-x,-y,-z
x,-y,z
1/2+x,1/2+y,z
1/2-x,1/2+y,-z
1/2-x,1/2-y,-z
1/2+x,1/2-y,z
loop_
_atom_site_type_symbol
_atom_site_label
_atom_site_fract_x
_atom_site_fract_y
_atom_site_fract_z
Si Si1 0.393545 0.783639 0.502565
Si Si2 0.158659 0.748488 0.100621
Si Si3 0.915135 0.117182 0.527712
Si Si4 0.892121 0.339864 0.145622
Si Si5 0.523861 0.578834 0.266221
Si Si6 0.364060 0.725118 0.744334
Si Si7 0.302220 0.085242 0.939716
Si Si8 0.110374 0.586154 0.378440
O O1 0.500000 0.807929 0.500000
O O2 0.444328 0.704823 0.563961
O O3 0.251637 0.757878 0.383326
O O4 0.375819 0.851757 0.548521
O O5 0.264096 0.792642 0.106461
O O6 0.199553 0.768161 0.209413
O O7 0.159922 0.658484 0.088580
O O8 0.000000 0.773469 0.000000
O O9 0.951723 0.082106 0.629627
O O10 0.757058 0.094915 0.420170
O O11 0.000000 0.099772 0.500000
O O12 0.005525 0.279621 0.183684
O O13 0.976978 0.389839 0.253964
O O14 0.846793 0.390555 0.049368
O O15 0.581538 0.500000 0.272186
O O16 0.588440 0.643977 0.254224
O O17 0.361752 0.582025 0.159922
O O18 0.351379 0.000000 0.949721
O O19 0.098415 0.500000 0.396535
#
# Coordination Sequence:
#
# PCOD9222046 Si02
#       8
#     8   8   8   8   8   8   8   8
#     4  11  24  42  67 100 135 182 234 282 341 416
#     4  12  25  43  74 104 130 187 240 285 338 419
#     4  11  24  42  70 101 137 183 236 282 339 423
#     4  12  24  47  70 100 142 183 237 283 343 424
#     4  11  24  43  68  97 136 181 227 287 346 401
#     4  12  23  43  71  99 137 185 236 284 338 411
#     4  11  25  45  70 103 143 180 223 293 358 406
#     4  12  25  43  69 103 144 183 224 290 356 405
#
# _framework density 20.791257999999999
#
# number of rings (size 3 to 8) (size 9 to 14) (size 15 to 20)
#    0.000    0.500    5.000    3.750    3.500    1.500 
#    0.000    3.750    0.000    3.375    0.000    0.000 
#    0.000    0.000    0.000    0.000    0.000    0.000 
#
# Total GULP energy -178741.988035 kJ/mol
# GULP energy per Si atom -5585.687126 kJ/mol
# Density = 2.074394 g / cm^3
# Si number density = 20.791258 Si / 1000 Ang^3
#
#
#
# Elastic Constant Matrix: (Units=GPa)
#
#
# Indices 1 2 3 4 5 6 
#
# 1 88.4377 38.0294 18.9788 0.0000 5.8374 0.0000
# 2 38.0294 121.2930 36.9735 0.0000 -10.7290 0.0000
# 3 18.9788 36.9735 102.6523 0.0000 -2.2535 0.0000
# 4 0.0000 0.0000 0.0000 188.4485 0.0000 -210.7788
# 5 5.8374 -10.7290 -2.2535 0.0000 33.5419 0.0000
# 6 0.0000 0.0000 0.0000 -210.7788 0.0000 295.2244
#
#
#
# Elastic Compliance Matrix: (Units=1/GPa)
#
#
# Indices 1 2 3 4 5 6 
#
# 1 0.013630 -0.004288 -0.001059 0.000000 -0.003815 0.000000
# 2 -0.004288 0.010869 -0.003034 0.000000 0.004019 0.000000
# 3 -0.001059 -0.003034 0.011029 0.000000 -0.000045 0.000000
# 4 0.000000 0.000000 0.000000 0.026343 0.000000 0.018808
# 5 -0.003815 0.004019 -0.000045 0.000000 0.031760 0.000000
# 6 0.000000 0.000000 0.000000 0.018808 0.000000 0.016815
#
#
# Mechanical properties :
#
#
# Convention : Reuss Voigt Hill
#
# Bulk Modulus (GPa) = 53.28687 55.59406 54.44047
# Shear Modulus (GPa) = 37.46284 118.00307 77.73296
#
# Velocity S-wave (km/s) = 4.24943 7.54184 6.12115
# Velocity P-wave (km/s) = 7.05422 10.13096 8.72921
#
# Compressibility (1/GPa) = 0.01876635
#
# Stress axis : x y z
#
# Youngs Moduli (GPa) = 73.36492 92.00214 90.66816
#
# Poissons Ratio (x) = 0.39452 0.09604
# Poissons Ratio (y) = 0.31460 0.27508
# Poissons Ratio (z) = 0.07772 0.27912
#
# Static dielectric constant tensor:
#      x y z
#    x 1.739560 0.000000 0.003210 
#    y 0.000000 1.757520 0.000000 
#    z 0.003210 0.000000 1.766850 
# 
# From -- ./inp_files/271748.got.cif
#   From: 2010.05.17/outbox.cif.g08.bks.cpg/sg12_136_cif.got.tgz:271748.got - 2010.06.03 13:09:07.
