data_PCOD9222797
_publ_section_title
;
Structure prediction by ZEFSAII (Michael W. Deem and Ramdas Pophale) SiO2 
 PCOD9222797
Probable space group: C 2/M
;
_chemical_formula_sum "Si O2"
_cell_formula_units_Z 40
_cell_length_a 14.146919
_cell_length_b 7.288038
_cell_length_c 14.507309
_cell_angle_alpha 90.000000
_cell_angle_beta 81.319752
_cell_angle_gamma 90.000000
_cell_volume 1478.618815
_symmetry_space_group_name_H-M "C 2/M"
_symmetry_group_IT_number 12
_symmetry_cell_setting 'monoclinic'
loop_
_space_group_symop_operation_xyz
x,y,z
-x,y,-z
-x,-y,-z
x,-y,z
1/2+x,1/2+y,z
1/2-x,1/2+y,-z
1/2-x,1/2-y,-z
1/2+x,1/2-y,z
loop_
_atom_site_type_symbol
_atom_site_label
_atom_site_fract_x
_atom_site_fract_y
_atom_site_fract_z
Si Si1 0.782295 0.701895 0.890924
Si Si2 0.053070 0.723051 0.704603
Si Si3 0.668422 0.223152 0.308738
Si Si4 0.612014 0.221201 0.508038
Si Si5 0.506579 0.208424 0.900163
O O1 0.741533 0.500000 0.885500
O O2 0.773444 0.793077 0.789863
O O3 0.897158 0.695004 0.884326
O O4 0.750000 0.750000 0.000000
O O5 0.058819 0.500000 0.706963
O O6 0.119671 0.789192 0.612029
O O7 0.943434 0.765568 0.694474
O O8 0.064492 0.790203 0.806999
O O9 0.677004 0.288495 0.413764
O O10 0.676562 0.000000 0.307055
O O11 0.500000 0.256270 0.500000
O O12 0.621597 0.000000 0.508150
O O13 0.545180 0.000000 0.909709
O O14 0.500000 0.299412 0.000000
#
# Coordination Sequence:
#
# PCOD9222797 Si02
#       5
#     8   8   8   8   8
#     4   9  16  25  37  53  73  96 120 145 174 208
#     4   7   9  13  23  41  64  86 106 133 172 210
#     4   7  10  16  26  42  64  86 106 133 171 207
#     4   7   8  11  21  38  61  84 102 128 171 211
#     4   8  13  21  33  50  72  95 117 143 176 211
#
# _framework density 27.052274000000001
#
# number of rings (size 3 to 8) (size 9 to 14) (size 15 to 20)
#    0.000    4.400    0.000    4.800    0.000    0.000 
#    0.000    0.000    0.000    0.600    0.000    1.400 
#    0.000   20.000    0.000    0.000    0.000    0.000 
#
# Total GULP energy -111347.931700 kJ/mol
# GULP energy per Si atom -5567.396585 kJ/mol
# Density = 2.699070 g / cm^3
# Si number density = 27.052274 Si / 1000 Ang^3
#
#
#
# Elastic Constant Matrix: (Units=GPa)
#
#
# Indices 1 2 3 4 5 6 
#
# 1 86.5976 -5.3353 20.3238 0.0000 -31.8450 0.0000
# 2 -5.3353 112.5711 34.5168 0.0000 2.0665 0.0000
# 3 20.3238 34.5168 449.0939 0.0000 12.6678 0.0000
# 4 0.0000 0.0000 0.0000 -27.7076 0.0000 -4.6695
# 5 -31.8450 2.0665 12.6678 0.0000 22.5225 0.0000
# 6 0.0000 0.0000 0.0000 -4.6695 0.0000 -5.0544
#
#
#
# Elastic Compliance Matrix: (Units=1/GPa)
#
#
# Indices 1 2 3 4 5 6 
#
# 1 0.026310 0.001269 -0.002372 0.000000 0.038418 0.000000
# 2 0.001269 0.009163 -0.000801 0.000000 0.001404 0.000000
# 3 -0.002372 -0.000801 0.002528 0.000000 -0.004702 0.000000
# 4 0.000000 0.000000 0.000000 -0.042746 0.000000 0.039490
# 5 0.038418 0.001404 -0.004702 0.000000 0.101236 0.000000
# 6 0.000000 0.000000 0.000000 0.039490 0.000000 -0.234328
#
#
# Mechanical properties :
#
#
# Convention : Reuss Voigt Hill
#
# Bulk Modulus (GPa) = 29.24541 83.03033 56.13787
# Shear Modulus (GPa) = -40.77279 37.86925 -1.45177
#
# Velocity S-wave (km/s) = -3.88646 3.74552 -0.73336
# Velocity P-wave (km/s) = 3.05045 7.03310 4.48103
#
# Compressibility (1/GPa) = 0.03419340
#
# Stress axis : x y z
#
# Youngs Moduli (GPa) = 38.00810 109.13045 395.52761
#
# Poissons Ratio (x) = -0.13849 0.93814
# Poissons Ratio (y) = -0.04823 0.31694
# Poissons Ratio (z) = 0.09015 0.08745
#
# Static dielectric constant tensor:
#      x y z
#    x 2.176110 0.000000 0.059630 
#    y 0.000000 2.137180 0.000000 
#    z 0.059630 0.000000 2.237790 
# 
# From -- ./inp_files/211906.got.cif
#   From: 2010.05.17/outbox.cif.g08.bks.cpg/sg12_106_cif.got.tgz:211906.got - 2010.06.03 13:09:07.
