data_PCOD9222975
_publ_section_title
;
Structure prediction by ZEFSAII (Michael W. Deem and Ramdas Pophale) SiO2 
 PCOD9222975
Probable space group: C 2/M
;
_chemical_formula_sum "Si O2"
_cell_formula_units_Z 40
_cell_length_a 30.324947
_cell_length_b 7.308188
_cell_length_c 7.242428
_cell_angle_alpha 90.000000
_cell_angle_beta 89.142969
_cell_angle_gamma 90.000000
_cell_volume 1604.890332
_symmetry_space_group_name_H-M "C 2/M"
_symmetry_group_IT_number 12
_symmetry_cell_setting 'monoclinic'
loop_
_space_group_symop_operation_xyz
x,y,z
-x,y,-z
-x,-y,-z
x,-y,z
1/2+x,1/2+y,z
1/2-x,1/2+y,-z
1/2-x,1/2-y,-z
1/2+x,1/2-y,z
loop_
_atom_site_type_symbol
_atom_site_label
_atom_site_fract_x
_atom_site_fract_y
_atom_site_fract_z
Si Si1 0.807193 0.279593 0.849819
Si Si2 0.217959 0.210434 0.721478
Si Si3 0.545507 0.276280 0.406384
Si Si4 0.124306 0.775650 0.668217
Si Si5 0.096886 0.211332 0.072169
O O1 0.806534 0.500000 0.850707
O O2 0.767581 0.212692 0.719798
O O3 0.857170 0.217888 0.815523
O O4 0.795219 0.215404 0.058863
O O5 0.174292 0.290465 0.629838
O O6 0.221892 0.000000 0.665649
O O7 0.500000 0.216227 0.500000
O O8 0.544628 0.500000 0.402855
O O9 0.586733 0.221996 0.529624
O O10 0.557710 0.213264 0.199666
O O11 0.126753 0.000000 0.670806
O O12 0.108556 0.711275 0.871842
O O13 0.085931 0.000000 0.038277
#
# Coordination Sequence:
#
# PCOD9222975 Si02
#       5
#     8   8   8   8   8
#     4   9  15  24  42  66  91 119 149 178 209 254
#     4   8  14  25  42  65  92 120 146 175 215 256
#     4   9  17  28  44  67  89 110 144 188 226 260
#     4   8  14  26  43  63  89 116 141 176 220 260
#     4   9  17  29  45  65  90 118 145 177 220 262
#
# _framework density 24.923824
#
# number of rings (size 3 to 8) (size 9 to 14) (size 15 to 20)
#    0.000    3.400    0.000    1.800    0.000    1.600 
#    0.000    5.000    0.000    5.400    0.000    5.600 
#    0.000    0.000    0.000    0.000    0.000    0.000 
#
# Total GULP energy -111676.440786 kJ/mol
# GULP energy per Si atom -5583.822039 kJ/mol
# Density = 2.486710 g / cm^3
# Si number density = 24.923824 Si / 1000 Ang^3
#
#
#
# Elastic Constant Matrix: (Units=GPa)
#
#
# Indices 1 2 3 4 5 6 
#
# 1 67.4303 -18.2864 47.3782 0.0000 -26.9777 0.0000
# 2 -18.2864 115.8432 3.8705 0.0000 -0.6936 0.0000
# 3 47.3782 3.8705 79.7672 0.0000 -24.1853 0.0000
# 4 0.0000 0.0000 0.0000 -3.6364 0.0000 5.9985
# 5 -26.9777 -0.6936 -24.1853 0.0000 46.9930 0.0000
# 6 0.0000 0.0000 0.0000 5.9985 0.0000 7.0731
#
#
#
# Elastic Compliance Matrix: (Units=1/GPa)
#
#
# Indices 1 2 3 4 5 6 
#
# 1 0.031577 0.005579 -0.016002 0.000000 0.009975 0.000000
# 2 0.005579 0.009632 -0.003278 0.000000 0.001658 0.000000
# 3 -0.016002 -0.003278 0.022987 0.000000 0.002596 0.000000
# 4 0.000000 0.000000 0.000000 -0.114632 0.000000 0.097216
# 5 0.009975 0.001658 0.002596 0.000000 0.028366 0.000000
# 6 0.000000 0.000000 0.000000 0.097216 0.000000 0.058935
#
#
# Mechanical properties :
#
#
# Convention : Reuss Voigt Hill
#
# Bulk Modulus (GPa) = 27.17843 36.55168 31.86506
# Shear Modulus (GPa) = 65.33153 25.42448 45.37801
#
# Velocity S-wave (km/s) = 5.12537 3.19735 4.27156
# Velocity P-wave (km/s) = 6.77895 5.32240 6.09434
#
# Compressibility (1/GPa) = 0.03679388
#
# Stress axis : x y z
#
# Youngs Moduli (GPa) = 31.66869 103.81544 43.50308
#
# Poissons Ratio (x) = -0.57918 0.69612
# Poissons Ratio (y) = -0.17668 0.14262
# Poissons Ratio (z) = 0.50675 0.34035
#
# Static dielectric constant tensor:
#      x y z
#    x 1.956820 0.000000 0.001620 
#    y 0.000000 1.972770 0.000000 
#    z 0.001620 0.000000 2.005330 
# 
# From -- ./inp_files/101103.got.cif
#   From: 2010.05.17/outbox.cif.g08.bks.cpg/sg12_51_cif.got.tgz:101103.got - 2010.06.03 13:09:07.
