data_PCOD9222735
_publ_section_title
;
Structure prediction by ZEFSAII (Michael W. Deem and Ramdas Pophale) SiO2 
 PCOD9222735
Probable space group: C 2/M
;
_chemical_formula_sum "Si O2"
_cell_formula_units_Z 48
_cell_length_a 8.045831
_cell_length_b 18.818180
_cell_length_c 17.846186
_cell_angle_alpha 90.000000
_cell_angle_beta 89.999420
_cell_angle_gamma 90.000000
_cell_volume 2702.053474
_symmetry_space_group_name_H-M "C 2/M"
_symmetry_group_IT_number 12
_symmetry_cell_setting 'monoclinic'
loop_
_space_group_symop_operation_xyz
x,y,z
-x,y,-z
-x,-y,-z
x,-y,z
1/2+x,1/2+y,z
1/2-x,1/2+y,-z
1/2-x,1/2-y,-z
1/2+x,1/2-y,z
loop_
_atom_site_type_symbol
_atom_site_label
_atom_site_fract_x
_atom_site_fract_y
_atom_site_fract_z
Si Si1 0.199345 0.419630 0.355888
Si Si2 0.695942 0.331325 0.499992
Si Si3 0.307901 0.913359 0.188871
Si Si4 0.499967 0.413297 0.913586
Si Si5 0.692178 0.086642 0.188890
Si Si6 0.800654 0.580370 0.355871
O O1 0.265177 0.500000 0.367027
O O2 0.243334 0.370856 0.425385
O O3 0.247983 0.392874 0.273172
O O4 0.000001 0.424422 0.352566
O O5 0.500000 0.334620 0.500000
O O6 0.750000 0.250000 0.500000
O O7 0.756638 0.370847 0.425358
O O8 0.500043 0.890620 0.174808
O O9 0.252054 0.892880 0.273150
O O10 0.168043 0.890794 0.129696
O O11 0.311467 0.000000 0.189144
O O12 0.499966 0.500000 0.912561
O O13 0.667949 0.390795 0.870280
O O14 0.500000 0.390749 0.000000
O O15 0.688615 0.000000 0.189168
O O16 0.734820 0.500000 0.367011
#
# Coordination Sequence:
#
# PCOD9222735 Si02
#       6
#     8   8   8   8   8   8
#     4   9  18  34  54  73  97 132 171 211 252 298
#     4  12  25  36  49  71 101 135 165 212 257 302
#     4   8  15  27  43  64  92 128 165 202 244 292
#     4   9  16  24  38  63  97 131 161 202 248 293
#     4   8  15  27  43  64  92 128 165 202 244 292
#     4   9  18  34  54  73  97 132 171 211 252 298
#
# _framework density 17.764268000000001
#
# number of rings (size 3 to 8) (size 9 to 14) (size 15 to 20)
#    0.000    2.833    0.000    4.000    2.333    3.333 
#    0.000    3.333    0.000    0.000    0.000    0.000 
#    0.000    1.333    0.667    0.000    0.000    0.000 
#
# Total GULP energy -133708.811272 kJ/mol
# GULP energy per Si atom -5571.200470 kJ/mol
# Density = 1.772384 g / cm^3
# Si number density = 17.764268 Si / 1000 Ang^3
#
#
#
# Elastic Constant Matrix: (Units=GPa)
#
#
# Indices 1 2 3 4 5 6 
#
# 1 81.8623 16.5202 86.5849 0.0000 0.0495 0.0000
# 2 16.5202 34.8814 48.9328 0.0000 0.0200 0.0000
# 3 86.5849 48.9328 200.2220 0.0000 0.0860 0.0000
# 4 0.0000 0.0000 0.0000 -4.2307 0.0000 -0.0038
# 5 0.0495 0.0200 0.0860 0.0000 31.9766 0.0000
# 6 0.0000 0.0000 0.0000 -0.0038 0.0000 15.1952
#
#
#
# Elastic Compliance Matrix: (Units=1/GPa)
#
#
# Indices 1 2 3 4 5 6 
#
# 1 0.022999 0.004656 -0.011084 0.000000 -0.000009 0.000000
# 2 0.004656 0.044568 -0.012906 0.000000 0.000000 0.000000
# 3 -0.011084 -0.012906 0.012942 0.000000 -0.000010 0.000000
# 4 0.000000 0.000000 0.000000 -0.236368 0.000000 -0.000060
# 5 -0.000009 0.000000 -0.000010 0.000000 0.031273 0.000000
# 6 0.000000 0.000000 0.000000 -0.000060 0.000000 0.065810
#
#
# Mechanical properties :
#
#
# Convention : Reuss Voigt Hill
#
# Bulk Modulus (GPa) = 23.89936 69.00460 46.45198
# Shear Modulus (GPa) = -811.44545 19.58341 -395.93102
#
# Velocity S-wave (km/s) = -21.39572 3.32385 -14.94538
# Velocity P-wave (km/s) = 24.43126 7.32527 16.48070
#
# Compressibility (1/GPa) = 0.04184213
#
# Stress axis : x y z
#
# Youngs Moduli (GPa) = 43.47968 22.43773 77.27008
#
# Poissons Ratio (x) = -0.10447 0.85645
# Poissons Ratio (y) = -0.20245 0.99721
# Poissons Ratio (z) = 0.48192 0.28957
#
# Static dielectric constant tensor:
#      x y z
#    x 1.621310 0.000000 0.000030 
#    y 0.000000 1.564500 0.000000 
#    z 0.000030 0.000000 1.704280 
# 
# From -- ./inp_files/255781.got.cif
#   From: 2010.05.17/outbox.cif.g08.bks.cpg/sg12_128_cif.got.tgz:255781.got - 2010.06.03 13:09:07.
