data_PCOD9222293
_publ_section_title
;
Structure prediction by ZEFSAII (Michael W. Deem and Ramdas Pophale) SiO2 
 PCOD9222293
Probable space group: C 2/M
;
_chemical_formula_sum "Si O2"
_cell_formula_units_Z 26
_cell_length_a 9.907479
_cell_length_b 7.668273
_cell_length_c 20.354492
_cell_angle_alpha 90.000000
_cell_angle_beta 138.062191
_cell_angle_gamma 90.000000
_cell_volume 1033.493561
_symmetry_space_group_name_H-M "C 2/M"
_symmetry_group_IT_number 12
_symmetry_cell_setting 'monoclinic'
loop_
_space_group_symop_operation_xyz
x,y,z
-x,y,-z
-x,-y,-z
x,-y,z
1/2+x,1/2+y,z
1/2-x,1/2+y,-z
1/2-x,1/2-y,-z
1/2+x,1/2-y,z
loop_
_atom_site_type_symbol
_atom_site_label
_atom_site_fract_x
_atom_site_fract_y
_atom_site_fract_z
Si Si1 0.013484 0.801434 0.410027
Si Si2 0.471417 0.791264 0.106612
Si Si3 0.500000 0.000000 0.500000
Si Si4 0.603197 0.799541 0.776073
O O1 0.250000 0.750000 0.500000
O O2 0.914621 0.654692 0.419417
O O3 0.952561 0.791625 0.311970
O O4 0.982741 0.000000 0.420547
O O5 0.483430 0.730757 0.186860
O O6 0.653648 0.709933 0.131760
O O7 0.497621 0.000000 0.115088
O O8 0.250000 0.750000 0.000000
O O9 0.537309 0.000000 0.745639
#
# Coordination Sequence:
#
# PCOD9222293 Si02
#       4
#     8   8   2   8
#     4  12  26  46  72 105 143 189 238 296 353 429
#     4  11  25  44  69 101 138 182 234 293 355 423
#     4  12  26  48  72 100 146 190 240 288 364 418
#     4  11  25  45  69 102 140 184 235 293 355 423
#
# _framework density 25.157391000000001
#
# number of rings (size 3 to 8) (size 9 to 14) (size 15 to 20)
#    0.000    0.615    3.077    3.231    4.308    8.615 
#    0.000    0.000    0.000    0.000    0.000    0.000 
#    0.000    0.000    0.000    0.000    0.000    0.000 
#
# Total GULP energy -72616.184539 kJ/mol
# GULP energy per Si atom -5585.860349 kJ/mol
# Density = 2.510013 g / cm^3
# Si number density = 25.157391 Si / 1000 Ang^3
#
#
#
# Elastic Constant Matrix: (Units=GPa)
#
#
# Indices 1 2 3 4 5 6 
#
# 1 89.5239 6.4179 1.6774 0.0000 -5.6738 0.0000
# 2 6.4179 194.9442 15.9671 0.0000 -25.7286 0.0000
# 3 1.6774 15.9671 103.2347 0.0000 -8.0910 0.0000
# 4 0.0000 0.0000 0.0000 40.5017 0.0000 -4.0349
# 5 -5.6738 -25.7286 -8.0910 0.0000 52.3028 0.0000
# 6 0.0000 0.0000 0.0000 -4.0349 0.0000 10.5831
#
#
#
# Elastic Compliance Matrix: (Units=1/GPa)
#
#
# Indices 1 2 3 4 5 6 
#
# 1 0.011257 -0.000220 -0.000062 0.000000 0.001103 0.000000
# 2 -0.000220 0.005533 -0.000649 0.000000 0.002598 0.000000
# 3 -0.000062 -0.000649 0.009882 0.000000 0.001203 0.000000
# 4 0.000000 0.000000 0.000000 0.025665 0.000000 0.009785
# 5 0.001103 0.002598 0.001203 0.000000 0.020703 0.000000
# 6 0.000000 0.000000 0.000000 0.009785 0.000000 0.098221
#
#
# Mechanical properties :
#
#
# Convention : Reuss Voigt Hill
#
# Bulk Modulus (GPa) = 40.30568 48.42530 44.36549
# Shear Modulus (GPa) = 27.56447 44.92021 36.24234
#
# Velocity S-wave (km/s) = 3.31370 4.23018 3.79967
# Velocity P-wave (km/s) = 5.54049 6.56886 6.07647
#
# Compressibility (1/GPa) = 0.02481040
#
# Stress axis : x y z
#
# Youngs Moduli (GPa) = 88.83311 180.73853 101.19127
#
# Poissons Ratio (x) = 0.03974 0.00632
# Poissons Ratio (y) = 0.01953 0.06563
# Poissons Ratio (z) = 0.00555 0.11723
#
# Static dielectric constant tensor:
#      x y z
#    x 2.108480 0.000000 0.064770 
#    y 0.000000 1.939690 0.000000 
#    z 0.064770 0.000000 2.000160 
# 
# From -- ./inp_files/201787.got.cif
#   From: 2010.05.17/outbox.cif.g08.bks.cpg/sg12_101_cif.got.tgz:201787.got - 2010.06.03 13:09:07.
