data_PCOD9222341
_publ_section_title
;
Structure prediction by ZEFSAII (Michael W. Deem and Ramdas Pophale) SiO2 
 PCOD9222341
Probable space group: C 2/M
;
_chemical_formula_sum "Si O2"
_cell_formula_units_Z 56
_cell_length_a 9.223234
_cell_length_b 15.609235
_cell_length_c 24.311157
_cell_angle_alpha 90.000000
_cell_angle_beta 126.556933
_cell_angle_gamma 90.000000
_cell_volume 2811.444655
_symmetry_space_group_name_H-M "C 2/M"
_symmetry_group_IT_number 12
_symmetry_cell_setting 'monoclinic'
loop_
_space_group_symop_operation_xyz
x,y,z
-x,y,-z
-x,-y,-z
x,-y,z
1/2+x,1/2+y,z
1/2-x,1/2+y,-z
1/2-x,1/2-y,-z
1/2+x,1/2-y,z
loop_
_atom_site_type_symbol
_atom_site_label
_atom_site_fract_x
_atom_site_fract_y
_atom_site_fract_z
Si Si1 0.116186 0.902851 0.363834
Si Si2 0.924168 0.257723 0.266715
Si Si3 0.328045 0.656933 0.501290
Si Si4 0.961168 0.403154 0.366420
Si Si5 0.091804 0.597641 0.933056
Si Si6 0.708529 0.402397 0.910214
Si Si7 0.522816 0.240647 0.172053
O O1 0.121509 0.888807 0.430298
O O2 0.316113 0.891162 0.382810
O O3 0.992744 0.830230 0.308948
O O4 0.057755 0.000000 0.337828
O O5 0.927093 0.332224 0.312427
O O6 0.726038 0.246478 0.196660
O O7 0.045233 0.279832 0.241528
O O8 0.500000 0.664049 0.500000
O O9 0.250000 0.750000 0.500000
O O10 0.162974 0.608938 0.434525
O O11 0.937142 0.500000 0.339984
O O12 0.116993 0.500000 0.918775
O O13 0.896355 0.601099 0.918917
O O14 0.087851 0.668078 0.884895
O O15 0.237219 0.614345 0.013950
O O16 0.640044 0.500000 0.890107
O O17 0.571567 0.331905 0.857788
#
# Coordination Sequence:
#
# PCOD9222341 Si02
#       7
#     8   8   8   8   8   8   8
#     4  11  25  46  69  94 127 170 216 262 320 381
#     4  12  26  41  62  93 128 173 210 260 310 377
#     4  12  25  42  71 100 129 164 212 269 321 371
#     4  11  25  46  68  94 129 169 213 263 323 380
#     4   9  19  38  64  94 123 161 211 262 310 372
#     4   9  19  38  65  92 123 164 211 257 312 377
#     4  12  23  40  63  92 129 165 213 255 318 371
#
# _framework density 19.918585
#
# number of rings (size 3 to 8) (size 9 to 14) (size 15 to 20)
#    0.000    1.143    4.286    3.000    2.000    4.571 
#    0.000    0.000    0.000    1.714    0.000    0.000 
#    0.000    0.000    0.000    0.000    0.000    0.000 
#
# Total GULP energy -156477.774935 kJ/mol
# GULP energy per Si atom -5588.491962 kJ/mol
# Density = 1.987325 g / cm^3
# Si number density = 19.918585 Si / 1000 Ang^3
#
#
#
# Elastic Constant Matrix: (Units=GPa)
#
#
# Indices 1 2 3 4 5 6 
#
# 1 71.2898 54.3697 26.9428 0.0000 4.7220 0.0000
# 2 54.3697 132.2924 55.2103 0.0000 -16.8341 0.0000
# 3 26.9428 55.2103 72.3359 0.0000 -14.3871 0.0000
# 4 0.0000 0.0000 0.0000 -26.1593 0.0000 7.8978
# 5 4.7220 -16.8341 -14.3871 0.0000 31.3888 0.0000
# 6 0.0000 0.0000 0.0000 7.8978 0.0000 23.7770
#
#
#
# Elastic Compliance Matrix: (Units=1/GPa)
#
#
# Indices 1 2 3 4 5 6 
#
# 1 0.023135 -0.009330 -0.003503 0.000000 -0.010090 0.000000
# 2 -0.009330 0.015005 -0.006709 0.000000 0.006376 0.000000
# 3 -0.003503 -0.006709 0.021609 0.000000 0.006833 0.000000
# 4 0.000000 0.000000 0.000000 -0.034743 0.000000 0.011540
# 5 -0.010090 0.006376 0.006833 0.000000 0.039928 0.000000
# 6 0.000000 0.000000 0.000000 0.011540 0.000000 0.038224
#
#
# Mechanical properties :
#
#
# Convention : Reuss Voigt Hill
#
# Bulk Modulus (GPa) = 48.39129 60.99597 54.69363
# Shear Modulus (GPa) = 33.52790 15.09431 24.31111
#
# Velocity S-wave (km/s) = 4.10719 2.75580 3.49739
# Velocity P-wave (km/s) = 6.84392 6.38867 6.62021
#
# Compressibility (1/GPa) = 0.02066487
#
# Stress axis : x y z
#
# Youngs Moduli (GPa) = 43.22440 66.64522 46.27750
#
# Poissons Ratio (x) = 0.62182 0.16209
# Poissons Ratio (y) = 0.40329 0.31048
# Poissons Ratio (z) = 0.15139 0.44713
#
# Static dielectric constant tensor:
#      x y z
#    x 1.687380 0.000000 -0.001350 
#    y 0.000000 1.692870 0.000000 
#    z -0.001350 0.000000 1.684280 
# 
# From -- ./inp_files/332819.got.cif
#   From: 2010.05.17/outbox.cif.g08.bks.cpg/sg12_167_cif.got.tgz:332819.got - 2010.06.03 13:09:07.
