data_PCOD9222795
_publ_section_title
;
Structure prediction by ZEFSAII (Michael W. Deem and Ramdas Pophale) SiO2 
 PCOD9222795
Probable space group: C 2/M
;
_chemical_formula_sum "Si O2"
_cell_formula_units_Z 64
_cell_length_a 9.714815
_cell_length_b 28.181175
_cell_length_c 16.247262
_cell_angle_alpha 90.000000
_cell_angle_beta 44.806953
_cell_angle_gamma 90.000000
_cell_volume 3134.661179
_symmetry_space_group_name_H-M "C 2/M"
_symmetry_group_IT_number 12
_symmetry_cell_setting 'monoclinic'
loop_
_space_group_symop_operation_xyz
x,y,z
-x,y,-z
-x,-y,-z
x,-y,z
1/2+x,1/2+y,z
1/2-x,1/2+y,-z
1/2-x,1/2-y,-z
1/2+x,1/2-y,z
loop_
_atom_site_type_symbol
_atom_site_label
_atom_site_fract_x
_atom_site_fract_y
_atom_site_fract_z
Si Si1 0.261831 0.054859 0.278312
Si Si2 0.262049 0.055831 0.919088
Si Si3 0.736564 0.946797 0.409451
Si Si4 0.770458 0.442520 0.094774
Si Si5 0.161737 0.698574 0.355956
Si Si6 0.826151 0.279309 0.390326
Si Si7 0.756729 0.603220 0.752522
Si Si8 0.730745 0.113403 0.567243
O O1 0.500094 0.056289 0.177542
O O2 0.192921 0.071702 0.217316
O O3 0.200558 0.085464 0.381798
O O4 0.207563 0.000000 0.312755
O O5 0.197732 0.087543 0.869125
O O6 0.211703 0.000000 0.928472
O O7 0.195109 0.073424 0.037729
O O8 0.500000 0.944624 0.500000
O O9 0.803942 0.936317 0.288258
O O10 0.797954 0.909445 0.453007
O O11 0.787300 0.000000 0.414167
O O12 0.761635 0.500000 0.097130
O O13 0.000000 0.429598 0.000000
O O14 0.277498 0.744969 0.336091
O O15 0.286308 0.652592 0.277456
O O16 0.000000 0.687642 0.500000
O O17 0.048951 0.711698 0.319964
O O18 0.750000 0.250000 0.500000
O O19 0.730400 0.331185 0.434154
O O20 0.994442 0.606628 0.660226
#
# Coordination Sequence:
#
# PCOD9222795 Si02
#       8
#     8   8   8   8   8   8   8   8
#     4   8  12  18  28  43  65  90 113 138 170 206
#     4   8  12  17  26  42  65  92 117 137 163 204
#     4   9  14  18  25  40  65  92 111 129 162 208
#     4   7  10  16  25  38  59  88 117 139 160 196
#     4   9  16  26  38  51  69  91 118 152 184 210
#     4   9  16  26  38  51  69  91 117 151 184 210
#     4   9  14  20  29  44  66  91 115 140 170 204
#     4   9  15  21  30  45  65  89 114 141 173 207
#
# _framework density 20.416879999999999
#
# number of rings (size 3 to 8) (size 9 to 14) (size 15 to 20)
#    0.000    3.500    0.000    4.875    0.000    3.000 
#    0.000    0.000    0.000    0.000    0.000    0.875 
#    0.000   35.000    0.000    0.000    0.000    7.000 
#
# Total GULP energy -178283.852241 kJ/mol
# GULP energy per Si atom -5571.370383 kJ/mol
# Density = 2.037041 g / cm^3
# Si number density = 20.416880 Si / 1000 Ang^3
#
#
#
# Elastic Constant Matrix: (Units=GPa)
#
#
# Indices 1 2 3 4 5 6 
#
# 1 78.6961 26.3554 39.9075 0.0000 18.7181 0.0000
# 2 26.3554 117.2633 70.5185 0.0000 35.5508 0.0000
# 3 39.9075 70.5185 145.9359 0.0000 38.0135 0.0000
# 4 0.0000 0.0000 0.0000 -16.0995 0.0000 42.8260
# 5 18.7181 35.5508 38.0135 0.0000 36.9001 0.0000
# 6 0.0000 0.0000 0.0000 42.8260 0.0000 -5.5376
#
#
#
# Elastic Compliance Matrix: (Units=1/GPa)
#
#
# Indices 1 2 3 4 5 6 
#
# 1 0.015344 -0.000377 -0.002844 0.000000 -0.004490 0.000000
# 2 -0.000377 0.013850 -0.004324 0.000000 -0.008698 0.000000
# 3 -0.002844 -0.004324 0.011287 0.000000 -0.006020 0.000000
# 4 0.000000 0.000000 0.000000 0.003174 0.000000 0.024543
# 5 -0.004490 -0.008698 -0.006020 0.000000 0.043959 0.000000
# 6 0.000000 0.000000 0.000000 0.024543 0.000000 0.009227
#
#
# Mechanical properties :
#
#
# Convention : Reuss Voigt Hill
#
# Bulk Modulus (GPa) = 39.38362 68.38424 53.88393
# Shear Modulus (GPa) = 41.53075 16.72684 29.12880
#
# Velocity S-wave (km/s) = 4.51503 2.86539 3.78127
# Velocity P-wave (km/s) = 6.82000 6.67188 6.74634
#
# Compressibility (1/GPa) = 0.02539127
#
# Stress axis : x y z
#
# Youngs Moduli (GPa) = 65.17363 72.20444 88.59498
#
# Poissons Ratio (x) = 0.02721 0.25198
# Poissons Ratio (y) = 0.02456 0.38305
# Poissons Ratio (z) = 0.18536 0.31219
#
# Static dielectric constant tensor:
#      x y z
#    x 0.704440 0.000000 0.363650 
#    y 0.000000 1.726130 0.000000 
#    z 0.363650 0.000000 1.621860 
# 
# From -- ./inp_files/209547.got.cif
#   From: 2010.05.17/outbox.cif.g08.bks.cpg/sg12_105_cif.got.tgz:209547.got - 2010.06.03 13:09:07.
