data_PCOD9222684
_publ_section_title
;
Structure prediction by ZEFSAII (Michael W. Deem and Ramdas Pophale) SiO2 
 PCOD9222684
Probable space group: C 2/M
;
_chemical_formula_sum "Si O2"
_cell_formula_units_Z 56
_cell_length_a 24.548469
_cell_length_b 9.593931
_cell_length_c 14.478711
_cell_angle_alpha 90.000000
_cell_angle_beta 123.644145
_cell_angle_gamma 90.000000
_cell_volume 2838.783923
_symmetry_space_group_name_H-M "C 2/M"
_symmetry_group_IT_number 12
_symmetry_cell_setting 'monoclinic'
loop_
_space_group_symop_operation_xyz
x,y,z
-x,y,-z
-x,-y,-z
x,-y,z
1/2+x,1/2+y,z
1/2-x,1/2+y,-z
1/2-x,1/2-y,-z
1/2+x,1/2-y,z
loop_
_atom_site_type_symbol
_atom_site_label
_atom_site_fract_x
_atom_site_fract_y
_atom_site_fract_z
Si Si1 0.892276 0.840822 0.435448
Si Si2 0.511256 0.165039 0.198616
Si Si3 0.725024 0.336303 0.063856
Si Si4 0.080375 0.155592 0.999837
Si Si5 0.369793 0.339985 0.742213
Si Si6 0.267906 0.167520 0.311414
Si Si7 0.471234 0.659991 0.326700
O O1 0.834707 0.736889 0.406256
O O2 0.916697 0.817163 0.353390
O O3 0.958089 0.829527 0.557280
O O4 0.868716 0.000000 0.420735
O O5 0.582466 0.237558 0.267039
O O6 0.471262 0.226435 0.247483
O O7 0.515372 0.000000 0.201499
O O8 0.471322 0.227638 0.074862
O O9 0.740954 0.500000 0.066490
O O10 0.646575 0.326777 0.002679
O O11 0.753986 0.291029 0.191073
O O12 0.750000 0.250000 0.000000
O O13 0.103467 0.158421 0.127260
O O14 0.052636 0.000000 0.956029
O O15 0.373365 0.500000 0.710519
O O16 0.294535 0.295264 0.683861
O O17 0.271470 0.000000 0.315377
O O18 0.464651 0.500000 0.286212
#
# Coordination Sequence:
#
# PCOD9222684 Si02
#       7
#     8   8   8   8   8   8   8
#     4   9  19  37  61  83 104 137 180 222 265 320
#     4  12  24  34  52  83 112 138 179 232 274 308
#     4   9  19  33  49  75 109 142 178 216 255 312
#     4   9  19  36  55  74 104 149 188 214 259 323
#     4   9  19  38  58  76 105 149 187 215 260 325
#     4   9  19  35  56  80 108 140 175 218 271 322
#     4   9  20  39  58  79 108 141 179 218 264 328
#
# _framework density 19.726756000000002
#
# number of rings (size 3 to 8) (size 9 to 14) (size 15 to 20)
#    0.000    2.571    0.000    4.286    2.000    5.143 
#    0.000    5.000    0.000    0.000    0.000    0.000 
#    0.000    0.000    0.000    0.000    0.000    0.000 
#
# Total GULP energy -156312.299730 kJ/mol
# GULP energy per Si atom -5582.582133 kJ/mol
# Density = 1.968186 g / cm^3
# Si number density = 19.726756 Si / 1000 Ang^3
#
#
#
# Elastic Constant Matrix: (Units=GPa)
#
#
# Indices 1 2 3 4 5 6 
#
# 1 45.0357 29.7189 -0.5402 0.0000 10.7541 0.0000
# 2 29.7189 75.5470 5.1756 0.0000 5.4995 0.0000
# 3 -0.5402 5.1756 9.6127 0.0000 5.5548 0.0000
# 4 0.0000 0.0000 0.0000 22.6664 0.0000 6.5857
# 5 10.7541 5.4995 5.5548 0.0000 28.1399 0.0000
# 6 0.0000 0.0000 0.0000 6.5857 0.0000 23.5548
#
#
#
# Elastic Compliance Matrix: (Units=1/GPa)
#
#
# Indices 1 2 3 4 5 6 
#
# 1 0.034993 -0.013945 0.017640 0.000000 -0.014130 0.000000
# 2 -0.013945 0.019349 -0.013654 0.000000 0.004243 0.000000
# 3 0.017640 -0.013654 0.129496 0.000000 -0.029636 0.000000
# 4 0.000000 0.000000 0.000000 0.048019 0.000000 -0.013426
# 5 -0.014130 0.004243 -0.029636 0.000000 0.045958 0.000000
# 6 0.000000 0.000000 0.000000 -0.013426 0.000000 0.046208
#
#
# Mechanical properties :
#
#
# Convention : Reuss Voigt Hill
#
# Bulk Modulus (GPa) = 6.10052 22.10044 14.10048
# Shear Modulus (GPa) = 12.54450 21.26163 16.90306
#
# Velocity S-wave (km/s) = 2.52447 3.28656 2.93039
# Velocity P-wave (km/s) = 3.40536 5.06256 4.31428
#
# Compressibility (1/GPa) = 0.16392040
#
# Stress axis : x y z
#
# Youngs Moduli (GPa) = 28.57724 51.68170 7.72222
#
# Poissons Ratio (x) = 0.72073 -0.13622
# Poissons Ratio (y) = 0.39852 0.10544
# Poissons Ratio (z) = -0.50410 0.70564
#
# Static dielectric constant tensor:
#      x y z
#    x 1.706350 0.000000 -0.011860 
#    y 0.000000 1.653000 0.000000 
#    z -0.011860 0.000000 1.734890 
# 
# From -- ./inp_files/238374.got.cif
#   From: 2010.05.17/outbox.cif.g08.bks.cpg/sg12_120_cif.got.tgz:238374.got - 2010.06.03 13:09:07.
