data_PCOD9222338
_publ_section_title
;
Structure prediction by ZEFSAII (Michael W. Deem and Ramdas Pophale) SiO2 
 PCOD9222338
Probable space group: C 2/M
;
_chemical_formula_sum "Si O2"
_cell_formula_units_Z 40
_cell_length_a 7.848784
_cell_length_b 27.841693
_cell_length_c 8.411974
_cell_angle_alpha 90.000000
_cell_angle_beta 89.331713
_cell_angle_gamma 90.000000
_cell_volume 1838.088412
_symmetry_space_group_name_H-M "C 2/M"
_symmetry_group_IT_number 12
_symmetry_cell_setting 'monoclinic'
loop_
_space_group_symop_operation_xyz
x,y,z
-x,y,-z
-x,-y,-z
x,-y,z
1/2+x,1/2+y,z
1/2-x,1/2+y,-z
1/2-x,1/2-y,-z
1/2+x,1/2-y,z
loop_
_atom_site_type_symbol
_atom_site_label
_atom_site_fract_x
_atom_site_fract_y
_atom_site_fract_z
Si Si1 0.639423 0.717596 0.881682
Si Si2 0.645070 0.213102 0.610965
Si Si3 0.687609 0.119621 0.793010
Si Si4 0.002048 0.055498 0.309320
Si Si5 0.203077 0.621833 0.175353
O O1 0.566450 0.754279 0.752880
O O2 0.738886 0.676124 0.788676
O O3 0.500000 0.694852 0.000000
O O4 0.750000 0.750000 0.000000
O O5 0.500000 0.192436 0.500000
O O6 0.750000 0.250000 0.500000
O O7 0.736070 0.168772 0.698848
O O8 0.819580 0.078817 0.744176
O O9 0.487020 0.110549 0.762228
O O10 0.697823 0.123630 0.983385
O O11 0.000000 0.057904 0.500000
O O12 0.845474 0.085778 0.238456
O O13 0.989588 0.000000 0.259641
#
# Coordination Sequence:
#
# PCOD9222338 Si02
#       5
#     8   8   8   8   8
#     4  12  23  41  65  99 146 193 238 286 347 427
#     4  12  27  40  62 104 144 191 241 290 353 426
#     4  11  25  47  71 106 143 188 241 297 358 428
#     4  11  28  50  75 108 144 184 236 303 374 432
#     4  11  25  45  75 105 143 190 243 299 355 428
#
# _framework density 21.761738999999999
#
# number of rings (size 3 to 8) (size 9 to 14) (size 15 to 20)
#    0.000    0.600    2.000    5.400    8.400    2.400 
#    0.000    4.000    0.000    0.000    0.000    0.000 
#    0.000    0.000    0.000    0.000    0.000    0.000 
#
# Total GULP energy -111884.841561 kJ/mol
# GULP energy per Si atom -5594.242078 kJ/mol
# Density = 2.171221 g / cm^3
# Si number density = 21.761739 Si / 1000 Ang^3
#
#
#
# Elastic Constant Matrix: (Units=GPa)
#
#
# Indices 1 2 3 4 5 6 
#
# 1 143.8506 79.9384 33.9563 0.0000 3.0890 0.0000
# 2 79.9384 165.7527 47.9803 0.0000 15.8190 0.0000
# 3 33.9563 47.9803 98.0130 0.0000 10.0331 0.0000
# 4 0.0000 0.0000 0.0000 37.5212 0.0000 3.7429
# 5 3.0890 15.8190 10.0331 0.0000 38.4418 0.0000
# 6 0.0000 0.0000 0.0000 3.7429 0.0000 33.8562
#
#
#
# Elastic Compliance Matrix: (Units=1/GPa)
#
#
# Indices 1 2 3 4 5 6 
#
# 1 0.009694 -0.004421 -0.001336 0.000000 0.001389 0.000000
# 2 -0.004421 0.009206 -0.002696 0.000000 -0.002730 0.000000
# 3 -0.001336 -0.002696 0.012186 0.000000 -0.001964 0.000000
# 4 0.000000 0.000000 0.000000 0.026949 0.000000 -0.002979
# 5 0.001389 -0.002730 -0.001964 0.000000 0.027537 0.000000
# 6 0.000000 0.000000 0.000000 -0.002979 0.000000 0.029866
#
#
# Mechanical properties :
#
#
# Convention : Reuss Voigt Hill
#
# Bulk Modulus (GPa) = 70.51984 81.26291 75.89138
# Shear Modulus (GPa) = 36.47736 38.34661 37.41199
#
# Velocity S-wave (km/s) = 4.09860 4.20231 4.15078
# Velocity P-wave (km/s) = 7.40769 7.80826 7.61061
#
# Compressibility (1/GPa) = 0.01418041
#
# Stress axis : x y z
#
# Youngs Moduli (GPa) = 103.15656 108.62546 82.05892
#
# Poissons Ratio (x) = 0.48022 0.10967
# Poissons Ratio (y) = 0.45604 0.22120
# Poissons Ratio (z) = 0.13787 0.29281
#
# Static dielectric constant tensor:
#      x y z
#    x 1.841390 0.000000 -0.009020 
#    y 0.000000 1.769270 0.000000 
#    z -0.009020 0.000000 1.836420 
# 
# From -- ./inp_files/40545.got.cif
#   From: 2010.05.17/outbox.cif.g08.bks.cpg/sg12_21_cif.got.tgz:40545.got - 2010.06.03 13:09:07.
