data_PCOD9222248
_publ_section_title
;
Structure prediction by ZEFSAII (Michael W. Deem and Ramdas Pophale) SiO2 
 PCOD9222248
Probable space group: C 2/M
;
_chemical_formula_sum "Si O2"
_cell_formula_units_Z 42
_cell_length_a 16.078763
_cell_length_b 28.582031
_cell_length_c 4.983882
_cell_angle_alpha 90.000000
_cell_angle_beta 54.678156
_cell_angle_gamma 90.000000
_cell_volume 1868.785998
_symmetry_space_group_name_H-M "C 2/M"
_symmetry_group_IT_number 12
_symmetry_cell_setting 'monoclinic'
loop_
_space_group_symop_operation_xyz
x,y,z
-x,y,-z
-x,-y,-z
x,-y,z
1/2+x,1/2+y,z
1/2-x,1/2+y,-z
1/2-x,1/2-y,-z
1/2+x,1/2-y,z
loop_
_atom_site_type_symbol
_atom_site_label
_atom_site_fract_x
_atom_site_fract_y
_atom_site_fract_z
Si Si1 0.884960 0.884301 0.279019
Si Si2 0.722598 0.802040 0.461550
Si Si3 0.667327 0.553008 0.119780
Si Si4 0.603026 0.176412 0.174781
Si Si5 0.000000 0.500000 0.000000
Si Si6 0.102396 0.565119 0.158843
O O1 0.806637 0.841173 0.384432
O O2 0.873826 0.909319 0.587409
O O3 0.857926 0.925306 0.120043
O O4 0.000000 0.868651 0.000000
O O5 0.750000 0.750000 0.500000
O O6 0.694002 0.807449 0.202896
O O7 0.624037 0.811768 0.829065
O O8 0.628147 0.500000 0.228456
O O9 0.789433 0.551247 0.926435
O O10 0.500000 0.195132 0.500000
O O11 0.599155 0.120426 0.179084
O O12 0.085943 0.541187 0.903338
O O13 0.000000 0.547033 0.500000
#
# Coordination Sequence:
#
# PCOD9222248 Si02
#       6
#     8   8   8   8   2   8
#     4  12  27  48  70 100 141 186 243 307 352 412
#     4  12  25  48  75 107 138 186 240 296 362 437
#     4  12  26  45  72 101 142 191 240 292 355 424
#     4  11  25  44  73 103 144 182 224 289 364 435
#     4  12  26  36  68 110 146 194 238 276 362 448
#     4  11  25  39  65 103 146 187 231 288 355 439
#
# _framework density 22.474484
#
# number of rings (size 3 to 8) (size 9 to 14) (size 15 to 20)
#    0.000    0.381    4.762    2.571    8.000    3.810 
#    0.000    0.000    0.000    0.000    0.000    0.000 
#    0.000    0.000    0.000    0.000    0.000    0.000 
#
# Total GULP energy -117186.624018 kJ/mol
# GULP energy per Si atom -5580.315429 kJ/mol
# Density = 2.242333 g / cm^3
# Si number density = 22.474484 Si / 1000 Ang^3
#
#
#
# Elastic Constant Matrix: (Units=GPa)
#
#
# Indices 1 2 3 4 5 6 
#
# 1 74.9588 6.5752 6.2431 0.0000 -5.8821 0.0000
# 2 6.5752 115.7728 -5.8700 0.0000 -3.0055 0.0000
# 3 6.2431 -5.8700 82.9823 0.0000 -15.0097 0.0000
# 4 0.0000 0.0000 0.0000 -8.7734 0.0000 3.5603
# 5 -5.8821 -3.0055 -15.0097 0.0000 45.8777 0.0000
# 6 0.0000 0.0000 0.0000 3.5603 0.0000 15.1961
#
#
#
# Elastic Compliance Matrix: (Units=1/GPa)
#
#
# Indices 1 2 3 4 5 6 
#
# 1 0.013589 -0.000776 -0.000820 0.000000 0.001423 0.000000
# 2 -0.000776 0.008742 0.000810 0.000000 0.000738 0.000000
# 3 -0.000820 0.000810 0.012925 0.000000 0.004177 0.000000
# 4 0.000000 0.000000 0.000000 -0.104085 0.000000 0.024386
# 5 0.001423 0.000738 0.004177 0.000000 0.023394 0.000000
# 6 0.000000 0.000000 0.000000 0.024386 0.000000 0.060093
#
#
# Mechanical properties :
#
#
# Convention : Reuss Voigt Hill
#
# Bulk Modulus (GPa) = 29.68756 31.95673 30.82215
# Shear Modulus (GPa) = 182.09330 28.24444 105.16887
#
# Velocity S-wave (km/s) = 9.01100 3.54889 6.84809
# Velocity P-wave (km/s) = 11.02281 5.57161 8.73342
#
# Compressibility (1/GPa) = 0.03368414
#
# Stress axis : x y z
#
# Youngs Moduli (GPa) = 73.59040 114.39093 77.36806
#
# Poissons Ratio (x) = 0.08881 0.06343
# Poissons Ratio (y) = 0.05713 -0.06269
# Poissons Ratio (z) = 0.06033 -0.09269
#
# Static dielectric constant tensor:
#      x y z
#    x 1.889870 0.000000 0.064820 
#    y 0.000000 1.801160 0.000000 
#    z 0.064820 0.000000 2.168170 
# 
# From -- ./inp_files/12307.got.cif
#   From: 2010.05.17/outbox.cif.g08.bks.cpg/sg12_7_cif.got.tgz:12307.got - 2010.06.03 13:09:07.
