data_PCOD9222549
_publ_section_title
;
Structure prediction by ZEFSAII (Michael W. Deem and Ramdas Pophale) SiO2 
 PCOD9222549
Probable space group: C 2/M
;
_chemical_formula_sum "Si O2"
_cell_formula_units_Z 34
_cell_length_a 13.016385
_cell_length_b 7.407674
_cell_length_c 12.192348
_cell_angle_alpha 90.000000
_cell_angle_beta 95.675509
_cell_angle_gamma 90.000000
_cell_volume 1169.837184
_symmetry_space_group_name_H-M "C 2/M"
_symmetry_group_IT_number 12
_symmetry_cell_setting 'monoclinic'
loop_
_space_group_symop_operation_xyz
x,y,z
-x,y,-z
-x,-y,-z
x,-y,z
1/2+x,1/2+y,z
1/2-x,1/2+y,-z
1/2-x,1/2-y,-z
1/2+x,1/2-y,z
loop_
_atom_site_type_symbol
_atom_site_label
_atom_site_fract_x
_atom_site_fract_y
_atom_site_fract_z
Si Si1 0.329953 0.782744 0.354280
Si Si2 0.100411 0.788358 0.404164
Si Si3 0.012025 0.782334 0.176022
Si Si4 0.754997 0.787051 0.872680
Si Si5 0.500000 0.000000 0.000000
O O1 0.214597 0.720860 0.382431
O O2 0.400685 0.727059 0.464586
O O3 0.327127 0.713997 0.226797
O O4 0.331130 0.000000 0.356258
O O5 0.017750 0.719395 0.305075
O O6 0.099224 0.000000 0.379459
O O7 0.130940 0.729694 0.153555
O O8 0.000284 0.000000 0.159128
O O9 0.956737 0.657353 0.081432
O O10 0.754374 0.000000 0.858190
O O11 0.750000 0.750000 0.000000
#
# Coordination Sequence:
#
# PCOD9222549 Si02
#       5
#     8   8   8   8   2
#     4   8  14  24  40  65  95 125 154 192 248 301
#     4   8  14  26  42  63  95 124 152 199 251 296
#     4   9  20  35  48  74 105 129 169 215 249 291
#     4   9  18  31  47  71 106 135 160 204 250 302
#     4  12  22  32  56  74  94 148 178 202 254 298
#
# _framework density 29.063872
#
# number of rings (size 3 to 8) (size 9 to 14) (size 15 to 20)
#    0.000    3.294    0.000    3.176    3.294    0.941 
#    4.235    0.000    0.000    0.000    0.000    3.294 
#    0.000    7.529    0.000    0.000    0.000    0.000 
#
# Total GULP energy -94822.443114 kJ/mol
# GULP energy per Si atom -5577.790771 kJ/mol
# Density = 2.899772 g / cm^3
# Si number density = 29.063872 Si / 1000 Ang^3
#
#
#
# Elastic Constant Matrix: (Units=GPa)
#
#
# Indices 1 2 3 4 5 6 
#
# 1 36.7840 18.0618 60.8781 0.0000 41.0719 0.0000
# 2 18.0618 137.7475 42.7880 0.0000 4.5623 0.0000
# 3 60.8781 42.7880 301.6524 0.0000 4.5893 0.0000
# 4 0.0000 0.0000 0.0000 35.8102 0.0000 -13.1671
# 5 41.0719 4.5623 4.5893 0.0000 92.4684 0.0000
# 6 0.0000 0.0000 0.0000 -13.1671 0.0000 -57.6446
#
#
#
# Elastic Compliance Matrix: (Units=1/GPa)
#
#
# Indices 1 2 3 4 5 6 
#
# 1 0.151488 -0.008901 -0.028314 0.000000 -0.065442 0.000000
# 2 -0.008901 0.008127 0.000590 0.000000 0.003523 0.000000
# 3 -0.028314 0.000590 0.008761 0.000000 0.012113 0.000000
# 4 0.000000 0.000000 0.000000 0.025761 0.000000 -0.005884
# 5 -0.065442 0.003523 0.012113 0.000000 0.039107 0.000000
# 6 0.000000 0.000000 0.000000 -0.005884 0.000000 -0.016004
#
#
# Mechanical properties :
#
#
# Convention : Reuss Voigt Hill
#
# Bulk Modulus (GPa) = 10.51241 79.95997 45.23619
# Shear Modulus (GPa) = 15.51831 37.75719 26.63775
#
# Velocity S-wave (km/s) = 2.31322 3.60823 3.03070
# Velocity P-wave (km/s) = 3.28017 6.70303 5.27684
#
# Compressibility (1/GPa) = 0.09512566
#
# Stress axis : x y z
#
# Youngs Moduli (GPa) = 6.60119 123.04972 114.13689
#
# Poissons Ratio (x) = 1.09523 3.23172
# Poissons Ratio (y) = 0.05876 -0.06734
# Poissons Ratio (z) = 0.18691 -0.07259
#
# Static dielectric constant tensor:
#      x y z
#    x 8.215060 0.000000 -5.948590 
#    y 0.000000 2.044010 0.000000 
#    z -5.948590 0.000000 8.811890 
# 
# From -- ./inp_files/151257.got.cif
#   From: 2010.05.17/outbox.cif.g08.bks.cpg/sg12_76_cif.got.tgz:151257.got - 2010.06.03 13:09:07.
