data_PCOD9222163
_publ_section_title
;
Structure prediction by ZEFSAII (Michael W. Deem and Ramdas Pophale) SiO2 
 PCOD9222163
Probable space group: C 2/M
;
_chemical_formula_sum "Si O2"
_cell_formula_units_Z 40
_cell_length_a 9.961613
_cell_length_b 24.067475
_cell_length_c 8.602954
_cell_angle_alpha 90.000000
_cell_angle_beta 62.396356
_cell_angle_gamma 90.000000
_cell_volume 1827.792347
_symmetry_space_group_name_H-M "C 2/M"
_symmetry_group_IT_number 12
_symmetry_cell_setting 'monoclinic'
loop_
_space_group_symop_operation_xyz
x,y,z
-x,y,-z
-x,-y,-z
x,-y,z
1/2+x,1/2+y,z
1/2-x,1/2+y,-z
1/2-x,1/2-y,-z
1/2+x,1/2-y,z
loop_
_atom_site_type_symbol
_atom_site_label
_atom_site_fract_x
_atom_site_fract_y
_atom_site_fract_z
Si Si1 0.684407 0.500000 0.192889
Si Si2 0.672665 0.500000 0.544278
Si Si3 0.178596 0.784442 0.176092
Si Si4 0.338096 0.897710 0.596852
Si Si5 0.842467 0.105370 0.999224
Si Si6 0.120849 0.711251 0.635517
O O1 0.749619 0.500000 0.331733
O O2 0.507501 0.500000 0.335145
O O3 0.715363 0.554067 0.072703
O O4 0.721667 0.442826 0.597552
O O5 0.314624 0.796519 0.224470
O O6 0.035526 0.745610 0.300864
O O7 0.250000 0.750000 0.000000
O O8 0.124976 0.842797 0.131841
O O9 0.500000 0.927253 0.500000
O O10 0.278808 0.880296 0.799736
O O11 0.364606 0.845518 0.468657
O O12 0.000000 0.090521 0.000000
O O13 0.250000 0.750000 0.500000
#
# Coordination Sequence:
#
# PCOD9222163 Si02
#       6
#     4   4   8   8   8   8
#     4  11  24  44  72 102 132 172 231 290 324 405
#     4  11  24  45  70 101 134 175 226 276 350 400
#     4  12  25  43  68  98 136 181 229 281 336 401
#     4  12  25  44  68 100 140 179 220 281 344 410
#     4  12  23  43  70 101 134 177 233 280 334 398
#     4  12  25  43  65  97 136 178 227 276 341 401
#
# _framework density 21.884323999999999
#
# number of rings (size 3 to 8) (size 9 to 14) (size 15 to 20)
#    0.000    0.200    2.000    9.600    0.000    0.000 
#    0.000    4.000    0.000    0.000    0.000    0.000 
#    0.000    0.000    0.000    0.000    0.000    0.000 
#
# Total GULP energy -111714.782146 kJ/mol
# GULP energy per Si atom -5585.739107 kJ/mol
# Density = 2.183451 g / cm^3
# Si number density = 21.884324 Si / 1000 Ang^3
#
#
#
# Elastic Constant Matrix: (Units=GPa)
#
#
# Indices 1 2 3 4 5 6 
#
# 1 53.4533 8.6522 28.3449 0.0000 3.0210 0.0000
# 2 8.6522 145.5465 46.0294 0.0000 14.5846 0.0000
# 3 28.3449 46.0294 126.7517 0.0000 5.5145 0.0000
# 4 0.0000 0.0000 0.0000 46.2138 0.0000 12.6252
# 5 3.0210 14.5846 5.5145 0.0000 50.0065 0.0000
# 6 0.0000 0.0000 0.0000 12.6252 0.0000 50.2033
#
#
#
# Elastic Compliance Matrix: (Units=1/GPa)
#
#
# Indices 1 2 3 4 5 6 
#
# 1 0.021270 0.000354 -0.004848 0.000000 -0.000854 0.000000
# 2 0.000354 0.007965 -0.002883 0.000000 -0.002026 0.000000
# 3 -0.004848 -0.002883 0.010019 0.000000 0.000029 0.000000
# 4 0.000000 0.000000 0.000000 0.023235 0.000000 -0.005843
# 5 -0.000854 -0.002026 0.000029 0.000000 0.020637 0.000000
# 6 0.000000 0.000000 0.000000 -0.005843 0.000000 0.021388
#
#
# Mechanical properties :
#
#
# Convention : Reuss Voigt Hill
#
# Bulk Modulus (GPa) = 40.81718 54.64494 47.73106
# Shear Modulus (GPa) = 39.23601 45.46639 42.35120
#
# Velocity S-wave (km/s) = 4.23884 4.56299 4.40390
# Velocity P-wave (km/s) = 6.53061 7.26535 6.90775
#
# Compressibility (1/GPa) = 0.02449949
#
# Stress axis : x y z
#
# Youngs Moduli (GPa) = 47.01561 125.55695 99.80659
#
# Poissons Ratio (x) = -0.04449 0.48386
# Poissons Ratio (y) = -0.01666 0.28778
# Poissons Ratio (z) = 0.22793 0.36203
#
# Static dielectric constant tensor:
#      x y z
#    x 2.053820 0.000000 0.107970 
#    y 0.000000 1.743310 0.000000 
#    z 0.107970 0.000000 1.845790 
# 
# From -- ./inp_files/50458.got.cif
#   From: 2010.05.17/outbox.cif.g08.bks.cpg/sg12_26_cif.got.tgz:50458.got - 2010.06.03 13:09:07.
