data_PCOD9222910
_publ_section_title
;
Structure prediction by ZEFSAII (Michael W. Deem and Ramdas Pophale) SiO2 
 PCOD9222910
Probable space group: C 2/M
;
_chemical_formula_sum "Si O2"
_cell_formula_units_Z 48
_cell_length_a 17.836056
_cell_length_b 22.153766
_cell_length_c 7.706992
_cell_angle_alpha 90.000000
_cell_angle_beta 135.571757
_cell_angle_gamma 90.000000
_cell_volume 2131.763002
_symmetry_space_group_name_H-M "C 2/M"
_symmetry_group_IT_number 12
_symmetry_cell_setting 'monoclinic'
loop_
_space_group_symop_operation_xyz
x,y,z
-x,y,-z
-x,-y,-z
x,-y,z
1/2+x,1/2+y,z
1/2-x,1/2+y,-z
1/2-x,1/2-y,-z
1/2+x,1/2-y,z
loop_
_atom_site_type_symbol
_atom_site_label
_atom_site_fract_x
_atom_site_fract_y
_atom_site_fract_z
Si Si1 0.829162 0.820822 0.778334
Si Si2 0.910093 0.263664 0.621065
Si Si3 0.717277 0.933701 0.598078
Si Si4 0.839002 0.196798 0.180840
Si Si5 0.989841 0.383082 0.272321
Si Si6 0.236246 0.431744 0.051745
O O1 0.892830 0.779399 0.753881
O O2 0.704706 0.798885 0.581565
O O3 0.808472 0.888721 0.682463
O O4 0.877994 0.816997 0.050730
O O5 0.910613 0.224819 0.448467
O O6 0.002912 0.313838 0.779337
O O7 0.594103 0.914770 0.364898
O O8 0.725987 0.932920 0.823713
O O9 0.735257 0.000000 0.560539
O O10 0.750000 0.250000 0.000000
O O11 0.797370 0.131770 0.182950
O O12 0.000000 0.380007 0.500000
O O13 0.880880 0.418683 0.060925
O O14 0.273266 0.500000 0.161603
#
# Coordination Sequence:
#
# PCOD9222910 Si02
#       6
#     8   8   8   8   8   8
#     4   8  15  26  41  61  82 112 154 195 232 264
#     4   9  16  27  44  62  84 118 157 197 228 263
#     4   8  13  22  38  60  87 118 149 182 222 274
#     4   9  16  28  46  65  88 121 159 196 230 269
#     4   9  15  24  41  65  92 126 159 185 230 287
#     4   9  16  26  43  69 101 132 157 188 238 294
#
# _framework density 22.516573000000001
#
# number of rings (size 3 to 8) (size 9 to 14) (size 15 to 20)
#    0.000    3.333    0.000    3.500    0.000    2.000 
#    0.000    0.833    0.000   29.000    0.000   19.833 
#    0.000   12.000    0.000   60.667    0.000    0.000 
#
# Total GULP energy -133872.314736 kJ/mol
# GULP energy per Si atom -5578.013114 kJ/mol
# Density = 2.246532 g / cm^3
# Si number density = 22.516573 Si / 1000 Ang^3
#
#
#
# Elastic Constant Matrix: (Units=GPa)
#
#
# Indices 1 2 3 4 5 6 
#
# 1 39.8903 22.9843 13.8037 0.0000 -7.1048 0.0000
# 2 22.9843 189.0228 24.3956 0.0000 1.9371 0.0000
# 3 13.8037 24.3956 32.0129 0.0000 -0.7951 0.0000
# 4 0.0000 0.0000 0.0000 -11.0358 0.0000 9.7967
# 5 -7.1048 1.9371 -0.7951 0.0000 15.3095 0.0000
# 6 0.0000 0.0000 0.0000 9.7967 0.0000 35.3460
#
#
#
# Elastic Compliance Matrix: (Units=1/GPa)
#
#
# Indices 1 2 3 4 5 6 
#
# 1 0.033488 -0.002677 -0.012021 0.000000 0.015255 0.000000
# 2 -0.002677 0.006096 -0.003546 0.000000 -0.002198 0.000000
# 3 -0.012021 -0.003546 0.039046 0.000000 -0.003102 0.000000
# 4 0.000000 0.000000 0.000000 -0.072721 0.000000 0.020156
# 5 0.015255 -0.002198 -0.003102 0.000000 0.072516 0.000000
# 6 0.000000 0.000000 0.000000 0.020156 0.000000 0.022705
#
#
# Mechanical properties :
#
#
# Convention : Reuss Voigt Hill
#
# Bulk Modulus (GPa) = 23.72900 42.58812 33.15856
# Shear Modulus (GPa) = 32.96760 21.24010 27.10385
#
# Velocity S-wave (km/s) = 3.83057 3.07467 3.47324
# Velocity P-wave (km/s) = 5.48869 5.61782 5.55363
#
# Compressibility (1/GPa) = 0.04214253
#
# Stress axis : x y z
#
# Youngs Moduli (GPa) = 29.86146 164.04155 25.61092
#
# Poissons Ratio (x) = 0.43912 0.30787
# Poissons Ratio (y) = 0.07994 0.09081
# Poissons Ratio (z) = 0.35896 0.58166
#
# Static dielectric constant tensor:
#      x y z
#    x 1.838030 0.000000 0.002920 
#    y 0.000000 1.900050 0.000000 
#    z 0.002920 0.000000 1.877020 
# 
# From -- ./inp_files/77708.got.cif
#   From: 2010.05.17/outbox.cif.g08.bks.cpg/sg12_39_cif.got.tgz:77708.got - 2010.06.03 13:09:07.
