data_PCOD9222754
_publ_section_title
;
Structure prediction by ZEFSAII (Michael W. Deem and Ramdas Pophale) SiO2 
 PCOD9222754
Probable space group: C 2/M
;
_chemical_formula_sum "Si O2"
_cell_formula_units_Z 28
_cell_length_a 9.357048
_cell_length_b 32.931325
_cell_length_c 5.022882
_cell_angle_alpha 90.000000
_cell_angle_beta 122.992410
_cell_angle_gamma 90.000000
_cell_volume 1298.164702
_symmetry_space_group_name_H-M "C 2/M"
_symmetry_group_IT_number 12
_symmetry_cell_setting 'monoclinic'
loop_
_space_group_symop_operation_xyz
x,y,z
-x,y,-z
-x,-y,-z
x,-y,z
1/2+x,1/2+y,z
1/2-x,1/2+y,-z
1/2-x,1/2-y,-z
1/2+x,1/2-y,z
loop_
_atom_site_type_symbol
_atom_site_label
_atom_site_fract_x
_atom_site_fract_y
_atom_site_fract_z
Si Si1 0.689367 0.418086 0.076821
Si Si2 0.624258 0.711785 0.377446
Si Si3 0.191533 0.371327 0.301653
Si Si4 0.124551 0.500000 0.875073
O O1 0.798585 0.402454 0.440580
O O2 0.760239 0.459986 0.030573
O O3 0.500000 0.422185 0.000000
O O4 0.700040 0.386735 0.842271
O O5 0.500000 0.715618 0.500000
O O6 0.750000 0.750000 0.500000
O O7 0.734067 0.670888 0.517444
O O8 0.500000 0.709942 0.000000
O O9 0.000000 0.367480 0.000000
O O10 0.000000 0.500000 0.500000
O O11 0.000000 0.500000 0.000000
#
# Coordination Sequence:
#
# PCOD9222754 Si02
#       4
#     8   8   8   4
#     4  12  25  44  69  99 134 176 224 278 334 395
#     4  12  26  46  70 101 137 177 222 275 332 396
#     4  12  25  44  69  99 134 177 224 275 333 397
#     4  12  25  44  67  98 135 176 223 276 333 396
#
# _framework density 21.568912000000001
#
# number of rings (size 3 to 8) (size 9 to 14) (size 15 to 20)
#    0.000    0.000    0.000   12.429    0.000    2.286 
#    0.000    4.286    0.000    0.000    0.000    0.000 
#    0.000    0.000    0.000    0.000    0.000    0.000 
#
# Total GULP energy -78507.733388 kJ/mol
# GULP energy per Si atom -5607.695242 kJ/mol
# Density = 2.151982 g / cm^3
# Si number density = 21.568912 Si / 1000 Ang^3
#
#
#
# Elastic Constant Matrix: (Units=GPa)
#
#
# Indices 1 2 3 4 5 6 
#
# 1 173.8889 86.4161 77.1235 0.0000 -6.0958 0.0000
# 2 86.4161 172.5916 82.4800 0.0000 11.1365 0.0000
# 3 77.1235 82.4800 194.9987 0.0000 -2.8281 0.0000
# 4 0.0000 0.0000 0.0000 35.8368 0.0000 1.3922
# 5 -6.0958 11.1365 -2.8281 0.0000 51.9138 0.0000
# 6 0.0000 0.0000 0.0000 1.3922 0.0000 41.4739
#
#
#
# Elastic Compliance Matrix: (Units=1/GPa)
#
#
# Indices 1 2 3 4 5 6 
#
# 1 0.008300 -0.003386 -0.001827 0.000000 0.001601 0.000000
# 2 -0.003386 0.008801 -0.002419 0.000000 -0.002417 0.000000
# 3 -0.001827 -0.002419 0.006884 0.000000 0.000679 0.000000
# 4 0.000000 0.000000 0.000000 0.027941 0.000000 -0.000938
# 5 0.001601 -0.002417 0.000679 0.000000 0.020006 0.000000
# 6 0.000000 0.000000 0.000000 -0.000938 0.000000 0.024143
#
#
# Mechanical properties :
#
#
# Convention : Reuss Voigt Hill
#
# Bulk Modulus (GPa) = 114.66097 114.83537 114.74817
# Shear Modulus (GPa) = 43.76525 45.54220 44.65372
#
# Velocity S-wave (km/s) = 4.50943 4.60006 4.55497
# Velocity P-wave (km/s) = 8.96599 9.03166 8.99888
#
# Compressibility (1/GPa) = 0.00872136
#
# Stress axis : x y z
#
# Youngs Moduli (GPa) = 120.48112 113.62183 145.26780
#
# Poissons Ratio (x) = 0.38471 0.26546
# Poissons Ratio (y) = 0.40793 0.35134
# Poissons Ratio (z) = 0.22016 0.27481
#
# Static dielectric constant tensor:
#      x y z
#    x 1.743990 0.000000 0.007490 
#    y 0.000000 1.809840 0.000000 
#    z 0.007490 0.000000 1.736270 
# 
# From -- ./inp_files/3984.got.cif
#   From: 2010.05.17/outbox.cif.g08.bks.cpg/sg12_2_cif.got.tgz:3984.got - 2010.06.03 13:09:07.
