data_PCOD9222816
_publ_section_title
;
Structure prediction by ZEFSAII (Michael W. Deem and Ramdas Pophale) SiO2 
 PCOD9222816
Probable space group: C 2/M
;
_chemical_formula_sum "Si O2"
_cell_formula_units_Z 64
_cell_length_a 13.397102
_cell_length_b 7.704048
_cell_length_c 25.788490
_cell_angle_alpha 90.000000
_cell_angle_beta 61.612365
_cell_angle_gamma 90.000000
_cell_volume 2341.615713
_symmetry_space_group_name_H-M "C 2/M"
_symmetry_group_IT_number 12
_symmetry_cell_setting 'monoclinic'
loop_
_space_group_symop_operation_xyz
x,y,z
-x,y,-z
-x,-y,-z
x,-y,z
1/2+x,1/2+y,z
1/2-x,1/2+y,-z
1/2-x,1/2-y,-z
1/2+x,1/2-y,z
loop_
_atom_site_type_symbol
_atom_site_label
_atom_site_fract_x
_atom_site_fract_y
_atom_site_fract_z
Si Si1 0.177584 0.699157 0.268013
Si Si2 0.185724 0.292082 0.642362
Si Si3 0.013408 0.286349 0.389747
Si Si4 0.924416 0.196375 0.895421
Si Si5 0.148339 0.294658 0.485064
Si Si6 0.189048 0.201667 0.860297
Si Si7 0.370274 0.712834 0.016060
Si Si8 0.975987 0.307685 0.235868
O O1 0.213912 0.500000 0.268137
O O2 0.260007 0.783012 0.204734
O O3 0.128285 0.779732 0.333193
O O4 0.062779 0.686686 0.261930
O O5 0.180162 0.500000 0.647195
O O6 0.089789 0.238107 0.623826
O O7 0.301957 0.248595 0.583800
O O8 0.137051 0.224689 0.710229
O O9 0.022572 0.500000 0.387830
O O10 0.964265 0.226778 0.457417
O O11 0.055221 0.198887 0.883327
O O12 0.947516 0.242955 0.830286
O O13 0.885945 0.000000 0.905550
O O14 0.858831 0.285499 0.960017
O O15 0.133116 0.500000 0.488085
O O16 0.250000 0.250000 0.500000
O O17 0.204196 0.269844 0.915370
O O18 0.229695 0.000000 0.851542
O O19 0.365798 0.500000 0.017129
O O20 0.500000 0.758204 0.000000
O O21 0.942748 0.500000 0.227702
#
# Coordination Sequence:
#
# PCOD9222816 Si02
#       8
#     8   8   8   8   8   8   8   8
#     4   8  13  23  39  58  80 106 136 164 192 234
#     4   8  14  24  35  49  72 101 131 160 192 230
#     4   7  11  19  31  49  73  97 121 156 197 227
#     4   9  16  26  42  63  83 102 130 169 204 234
#     4   9  14  20  32  51  75 101 128 159 195 232
#     4   8  13  23  42  63  78 100 137 172 196 226
#     4   7  11  21  37  57  79 101 128 164 201 231
#     4   9  17  28  41  58  83 111 133 160 202 246
#
# _framework density 27.331555000000002
#
# number of rings (size 3 to 8) (size 9 to 14) (size 15 to 20)
#    0.000    3.875    0.000    4.125    0.000    0.500 
#    0.000    0.625    0.000    4.125    0.000    0.875 
#    0.000    7.000    0.000    0.000    0.000    0.000 
#
# Total GULP energy -178393.064066 kJ/mol
# GULP energy per Si atom -5574.783252 kJ/mol
# Density = 2.726935 g / cm^3
# Si number density = 27.331555 Si / 1000 Ang^3
#
#
#
# Elastic Constant Matrix: (Units=GPa)
#
#
# Indices 1 2 3 4 5 6 
#
# 1 59.5588 14.7657 50.2378 0.0000 -17.3496 0.0000
# 2 14.7657 46.8016 32.5436 0.0000 0.0505 0.0000
# 3 50.2378 32.5436 386.2584 0.0000 -18.3189 0.0000
# 4 0.0000 0.0000 0.0000 20.3169 0.0000 0.4676
# 5 -17.3496 0.0505 -18.3189 0.0000 73.4141 0.0000
# 6 0.0000 0.0000 0.0000 0.4676 0.0000 10.5850
#
#
#
# Elastic Compliance Matrix: (Units=1/GPa)
#
#
# Indices 1 2 3 4 5 6 
#
# 1 0.021161 -0.005221 -0.002100 0.000000 0.004480 0.000000
# 2 -0.005221 0.024003 -0.001419 0.000000 -0.001604 0.000000
# 3 -0.002100 -0.001419 0.002994 0.000000 0.000252 0.000000
# 4 0.000000 0.000000 0.000000 0.049270 0.000000 -0.002177
# 5 0.004480 -0.001604 0.000252 0.000000 0.014744 0.000000
# 6 0.000000 0.000000 0.000000 -0.002177 0.000000 0.094569
#
#
# Mechanical properties :
#
#
# Convention : Reuss Voigt Hill
#
# Bulk Modulus (GPa) = 32.59777 76.41255 54.50516
# Shear Modulus (GPa) = 21.32682 47.20132 34.26407
#
# Velocity S-wave (km/s) = 2.79642 4.16022 3.54453
# Velocity P-wave (km/s) = 4.73067 7.14807 6.06111
#
# Compressibility (1/GPa) = 0.03067694
#
# Stress axis : x y z
#
# Youngs Moduli (GPa) = 47.25708 41.66207 334.04824
#
# Poissons Ratio (x) = 0.21751 0.70146
# Poissons Ratio (y) = 0.24672 0.47414
# Poissons Ratio (z) = 0.09923 0.05913
#
# Static dielectric constant tensor:
#      x y z
#    x 2.292730 0.000000 0.022540 
#    y 0.000000 2.001440 0.000000 
#    z 0.022540 0.000000 2.311050 
# 
# From -- ./inp_files/346655.got.cif
#   From: 2010.05.17/outbox.cif.g08.bks.cpg/sg12_174_cif.got.tgz:346655.got - 2010.06.03 13:09:07.
