data_PCOD9222567
_publ_section_title
;
Structure prediction by ZEFSAII (Michael W. Deem and Ramdas Pophale) SiO2 
 PCOD9222567
Probable space group: C 2/M
;
_chemical_formula_sum "Si O2"
_cell_formula_units_Z 64
_cell_length_a 13.281151
_cell_length_b 28.547963
_cell_length_c 21.708708
_cell_angle_alpha 90.000000
_cell_angle_beta 154.875814
_cell_angle_gamma 90.000000
_cell_volume 3494.668904
_symmetry_space_group_name_H-M "C 2/M"
_symmetry_group_IT_number 12
_symmetry_cell_setting 'monoclinic'
loop_
_space_group_symop_operation_xyz
x,y,z
-x,y,-z
-x,-y,-z
x,-y,z
1/2+x,1/2+y,z
1/2-x,1/2+y,-z
1/2-x,1/2-y,-z
1/2+x,1/2-y,z
loop_
_atom_site_type_symbol
_atom_site_label
_atom_site_fract_x
_atom_site_fract_y
_atom_site_fract_z
Si Si1 0.975185 0.682138 0.916120
Si Si2 0.414150 0.286644 0.862203
Si Si3 0.274223 0.295184 0.643802
Si Si4 0.408708 0.053792 0.732084
Si Si5 0.674535 0.855850 0.904117
Si Si6 0.920435 0.701083 0.659899
Si Si7 0.474906 0.446074 0.587292
Si Si8 0.543218 0.349345 0.363969
O O1 0.037875 0.737322 0.947665
O O2 0.698694 0.675014 0.747665
O O3 0.118970 0.654170 0.944733
O O4 0.000000 0.665812 0.000000
O O5 0.377375 0.286795 0.768511
O O6 0.163075 0.288291 0.757762
O O7 0.573662 0.331226 0.968497
O O8 0.299848 0.248748 0.616203
O O9 0.408734 0.334622 0.679465
O O10 0.000000 0.307445 0.500000
O O11 0.619908 0.090585 0.857350
O O12 0.252846 0.060334 0.583718
O O13 0.211253 0.060216 0.676487
O O14 0.489159 0.000000 0.778396
O O15 0.487947 0.827611 0.758382
O O16 0.751006 0.671670 0.521555
O O17 0.472825 0.500000 0.608085
O O18 0.472663 0.404821 0.635284
#
# Coordination Sequence:
#
# PCOD9222567 Si02
#       8
#     8   8   8   8   8   8   8   8
#     4  12  24  39  58  87 124 165 204 238 299 366
#     4  12  25  42  54  81 126 169 203 242 293 357
#     4  12  24  39  58  86 120 163 206 253 297 353
#     4   9  18  35  61  94 121 150 196 253 313 361
#     4  12  23  36  62  86 125 162 194 246 300 370
#     4  12  24  38  58  89 118 157 206 250 297 351
#     4   9  18  35  61  92 124 150 191 259 316 355
#     4  12  22  37  63  89 123 154 201 256 301 360
#
# _framework density 18.313609
#
# number of rings (size 3 to 8) (size 9 to 14) (size 15 to 20)
#    0.000    0.750    6.250    4.125    0.000    0.000 
#    0.000    0.000    0.000    6.375    0.000    0.000 
#    0.000    0.000    0.000    0.000    0.000    0.000 
#
# Total GULP energy -178852.841366 kJ/mol
# GULP energy per Si atom -5589.151293 kJ/mol
# Density = 1.827193 g / cm^3
# Si number density = 18.313609 Si / 1000 Ang^3
#
#
#
# Elastic Constant Matrix: (Units=GPa)
#
#
# Indices 1 2 3 4 5 6 
#
# 1 78.7800 16.9405 -8.2924 -0.0052 -9.8943 0.0034
# 2 16.9405 110.7195 -2.1161 -0.0040 2.6503 0.0002
# 3 -8.2924 -2.1161 29.6728 -0.0044 4.5473 -0.0155
# 4 -0.0052 -0.0040 -0.0044 29.3248 0.0084 0.4856
# 5 -9.8943 2.6503 4.5473 0.0084 32.7147 0.0006
# 6 0.0034 0.0002 -0.0155 0.4856 0.0006 22.4865
#
#
#
# Elastic Compliance Matrix: (Units=1/GPa)
#
#
# Indices 1 2 3 4 5 6 
#
# 1 0.013991 -0.002176 0.003146 0.000002 0.003970 0.000000
# 2 -0.002176 0.009405 0.000286 0.000001 -0.001460 0.000000
# 3 0.003146 0.000286 0.035208 0.000007 -0.003966 0.000024
# 4 0.000002 0.000001 0.000007 0.034113 -0.000009 -0.000737
# 5 0.003970 -0.001460 -0.003966 -0.000009 0.032438 -0.000004
# 6 0.000000 0.000000 0.000024 -0.000737 -0.000004 0.044487
#
#
# Mechanical properties :
#
#
# Convention : Reuss Voigt Hill
#
# Bulk Modulus (GPa) = 16.36151 25.80405 21.08278
# Shear Modulus (GPa) = 26.66652 31.08122 28.87387
#
# Velocity S-wave (km/s) = 3.82003 4.12414 3.97499
# Velocity P-wave (km/s) = 5.33013 6.06619 5.71004
#
# Compressibility (1/GPa) = 0.06111906
#
# Stress axis : x y z
#
# Youngs Moduli (GPa) = 71.47319 106.32497 28.40238
#
# Poissons Ratio (x) = 0.23132 -0.08936
# Poissons Ratio (y) = 0.15550 -0.00814
# Poissons Ratio (z) = -0.22488 -0.03045
#
# Static dielectric constant tensor:
#      x y z
#    x 1.632190 -0.000010 -0.002770 
#    y -0.000010 1.624630 -0.000010 
#    z -0.002770 -0.000010 1.648700 
# 
# From -- ./inp_files/307518.got.cif
#   From: 2010.05.17/outbox.cif.g08.bks.cpg/sg12_154_cif.got.tgz:307518.got - 2010.06.03 13:09:07.
