data_PCOD9222473
_publ_section_title
;
Structure prediction by ZEFSAII (Michael W. Deem and Ramdas Pophale) SiO2 
 PCOD9222473
Probable space group: C 2/M
;
_chemical_formula_sum "Si O2"
_cell_formula_units_Z 48
_cell_length_a 14.479518
_cell_length_b 12.885470
_cell_length_c 19.443062
_cell_angle_alpha 90.000000
_cell_angle_beta 37.358342
_cell_angle_gamma 90.000000
_cell_volume 2201.218893
_symmetry_space_group_name_H-M "C 2/M"
_symmetry_group_IT_number 12
_symmetry_cell_setting 'monoclinic'
loop_
_space_group_symop_operation_xyz
x,y,z
-x,y,-z
-x,-y,-z
x,-y,z
1/2+x,1/2+y,z
1/2-x,1/2+y,-z
1/2-x,1/2-y,-z
1/2+x,1/2-y,z
loop_
_atom_site_type_symbol
_atom_site_label
_atom_site_fract_x
_atom_site_fract_y
_atom_site_fract_z
Si Si1 0.252135 0.000000 0.290602
Si Si2 0.000000 0.302773 0.500000
Si Si3 0.178178 0.270070 0.743013
Si Si4 0.897213 0.680114 0.419862
Si Si5 0.950926 0.000000 0.721744
Si Si6 0.094561 0.777668 0.201071
Si Si7 0.177306 0.878142 0.877268
Si Si8 0.258897 0.500000 0.547959
O O1 0.340374 0.108665 0.227448
O O2 0.181953 0.000000 0.409487
O O3 0.128933 0.000000 0.304312
O O4 0.153588 0.239020 0.391680
O O5 0.054753 0.363037 0.535080
O O6 0.181847 0.185983 0.802596
O O7 0.037954 0.242941 0.775725
O O8 0.750000 0.750000 0.500000
O O9 0.858011 0.593541 0.389327
O O10 0.029377 0.752634 0.315559
O O11 0.894718 0.901275 0.799088
O O12 0.127971 0.000000 0.586463
O O13 0.233741 0.695153 0.119199
O O14 0.233300 0.000000 0.839961
O O15 0.000000 0.883478 0.000000
#
# Coordination Sequence:
#
# PCOD9222473 Si02
#       8
#     4   4   8   8   4   8   8   4
#     4  12  23  36  65 103 132 192 226 274 344 400
#     4  12  22  40  64 102 148 186 229 273 346 408
#     4  12  26  42  72 106 144 185 232 278 347 417
#     4  12  22  38  57  97 141 192 230 276 332 412
#     4  12  23  40  63 103 145 189 227 286 345 406
#     4  12  25  44  69 103 144 181 235 292 346 408
#     4  11  28  54  78  98 131 181 236 294 352 420
#     4  12  23  35  60  94 148 191 239 270 332 418
#
# _framework density 21.806100000000001
#
# number of rings (size 3 to 8) (size 9 to 14) (size 15 to 20)
#    0.000    0.167    8.333    0.250    5.833    1.000 
#    1.500    1.667    0.000    0.000    0.000    0.000 
#    0.000    0.000    0.000    0.000    0.000    0.000 
#
# Total GULP energy -133608.831667 kJ/mol
# GULP energy per Si atom -5567.034653 kJ/mol
# Density = 2.175647 g / cm^3
# Si number density = 21.806100 Si / 1000 Ang^3
#
#
#
# Elastic Constant Matrix: (Units=GPa)
#
#
# Indices 1 2 3 4 5 6 
#
# 1 172.3732 52.6509 14.2396 -0.0001 -19.9249 0.0000
# 2 52.6509 199.2816 26.2906 0.0000 -10.0922 -0.0001
# 3 14.2396 26.2906 44.5353 -0.0001 -17.9928 -0.0002
# 4 -0.0001 0.0000 -0.0001 -1.5123 0.0001 -24.4708
# 5 -19.9249 -10.0922 -17.9928 0.0001 24.2150 0.0000
# 6 0.0000 -0.0001 -0.0002 -24.4708 0.0000 -2.3307
#
#
#
# Elastic Compliance Matrix: (Units=1/GPa)
#
#
# Indices 1 2 3 4 5 6 
#
# 1 0.006892 -0.001676 0.001136 0.000000 0.005816 0.000000
# 2 -0.001676 0.005850 -0.003558 0.000000 -0.001585 0.000000
# 3 0.001136 -0.003558 0.034252 0.000000 0.024903 0.000000
# 4 0.000000 0.000000 0.000000 0.003915 0.000000 -0.041107
# 5 0.005816 -0.001585 0.024903 0.000000 0.063926 0.000000
# 6 0.000000 0.000000 0.000000 -0.041107 0.000000 0.002540
#
#
# Mechanical properties :
#
#
# Convention : Reuss Voigt Hill
#
# Bulk Modulus (GPa) = 25.77477 66.95026 46.36252
# Shear Modulus (GPa) = 36.10002 25.60833 30.85418
#
# Velocity S-wave (km/s) = 4.07320 3.43062 3.76564
# Velocity P-wave (km/s) = 5.82811 6.81626 6.34146
#
# Compressibility (1/GPa) = 0.03879763
#
# Stress axis : x y z
#
# Youngs Moduli (GPa) = 145.09981 170.94099 29.19527
#
# Poissons Ratio (x) = 0.28652 -0.03316
# Poissons Ratio (y) = 0.24321 0.10387
# Poissons Ratio (z) = -0.16479 0.60816
#
# Static dielectric constant tensor:
#      x y z
#    x 1.752750 0.000000 0.009460 
#    y 0.000000 1.938880 0.000000 
#    z 0.009460 0.000000 1.861010 
# 
# From -- ./inp_files/310241.got.cif
#   From: 2010.05.17/outbox.cif.g08.bks.cpg/sg12_156_cif.got.tgz:310241.got - 2010.06.03 13:09:07.
