data_PCOD9222096
_publ_section_title
;
Structure prediction by ZEFSAII (Michael W. Deem and Ramdas Pophale) SiO2 
 PCOD9222096
Probable space group: C 2/M
;
_chemical_formula_sum "Si O2"
_cell_formula_units_Z 64
_cell_length_a 8.119111
_cell_length_b 16.131555
_cell_length_c 22.397263
_cell_angle_alpha 90.000000
_cell_angle_beta 98.538644
_cell_angle_gamma 90.000000
_cell_volume 2900.941972
_symmetry_space_group_name_H-M "C 2/M"
_symmetry_group_IT_number 12
_symmetry_cell_setting 'monoclinic'
loop_
_space_group_symop_operation_xyz
x,y,z
-x,y,-z
-x,-y,-z
x,-y,z
1/2+x,1/2+y,z
1/2-x,1/2+y,-z
1/2-x,1/2-y,-z
1/2+x,1/2-y,z
loop_
_atom_site_type_symbol
_atom_site_label
_atom_site_fract_x
_atom_site_fract_y
_atom_site_fract_z
Si Si1 0.833945 0.214767 0.868825
Si Si2 0.643931 0.905854 0.090867
Si Si3 0.779666 0.092692 0.641219
Si Si4 0.248015 0.408535 0.963876
Si Si5 0.035789 0.303930 0.340594
Si Si6 0.424264 0.282095 0.217612
Si Si7 0.174638 0.094687 0.695455
Si Si8 0.871135 0.190332 0.542168
O O1 0.841444 0.314589 0.878459
O O2 0.826901 0.165280 0.929815
O O3 0.672441 0.206274 0.818141
O O4 0.975722 0.182053 0.832715
O O5 0.447918 0.909048 0.063457
O O6 0.680923 0.000000 0.117979
O O7 0.750016 0.898413 0.035199
O O8 0.643853 0.151703 0.664884
O O9 0.777294 0.117577 0.571570
O O10 0.977073 0.095433 0.668306
O O11 0.722806 0.000000 0.649473
O O12 0.316065 0.500000 0.951960
O O13 0.031270 0.253389 0.278310
O O14 0.198555 0.362279 0.344306
O O15 0.052042 0.245792 0.399666
O O16 0.315883 0.352633 0.243452
O O17 0.224721 0.000000 0.705773
O O18 0.750000 0.250000 0.500000
O O19 0.000000 0.158814 0.500000
#
# Coordination Sequence:
#
# PCOD9222096 Si02
#       8
#     8   8   8   8   8   8   8   8
#     4  12  22  38  62  96 125 165 221 268 326 385
#     4   9  19  38  62  89 128 168 213 267 323 393
#     4  11  24  43  68 100 130 165 217 270 324 389
#     4   9  19  38  63  90 123 171 215 263 328 391
#     4  12  23  47  68  91 135 177 221 263 331 401
#     4  12  24  40  64  90 128 173 213 266 322 402
#     4  11  24  43  67  95 130 173 219 272 329 387
#     4  12  23  41  71  98 126 174 220 266 326 394
#
# _framework density 22.061799000000001
#
# number of rings (size 3 to 8) (size 9 to 14) (size 15 to 20)
#    0.000    1.000    5.000    3.750    0.000    1.250 
#    0.000    3.125    0.000    1.500    0.000    0.000 
#    0.000    0.000    0.000    0.000    0.000    0.000 
#
# Total GULP energy -178441.273623 kJ/mol
# GULP energy per Si atom -5576.289801 kJ/mol
# Density = 2.201159 g / cm^3
# Si number density = 22.061799 Si / 1000 Ang^3
#
#
#
# Elastic Constant Matrix: (Units=GPa)
#
#
# Indices 1 2 3 4 5 6 
#
# 1 71.4862 20.2161 16.0409 0.0000 -19.1543 0.0000
# 2 20.2161 118.9646 39.2715 0.0000 -12.8254 0.0000
# 3 16.0409 39.2715 78.4468 0.0000 -19.3838 0.0000
# 4 0.0000 0.0000 0.0000 15.8215 0.0000 -4.0014
# 5 -19.1543 -12.8254 -19.3838 0.0000 42.8806 0.0000
# 6 0.0000 0.0000 0.0000 -4.0014 0.0000 19.7647
#
#
#
# Elastic Compliance Matrix: (Units=1/GPa)
#
#
# Indices 1 2 3 4 5 6 
#
# 1 0.016410 -0.001813 -0.000868 0.000000 0.006396 0.000000
# 2 -0.001813 0.010296 -0.004754 0.000000 0.000121 0.000000
# 3 -0.000868 -0.004754 0.016726 0.000000 0.005751 0.000000
# 4 0.000000 0.000000 0.000000 0.066616 0.000000 0.013487
# 5 0.006396 0.000121 0.005751 0.000000 0.028813 0.000000
# 6 0.000000 0.000000 0.000000 0.013487 0.000000 0.053326
#
#
# Mechanical properties :
#
#
# Convention : Reuss Voigt Hill
#
# Bulk Modulus (GPa) = 35.00991 46.66163 40.83577
# Shear Modulus (GPa) = 23.08650 28.58462 25.83556
#
# Velocity S-wave (km/s) = 3.23839 3.60343 3.42578
# Velocity P-wave (km/s) = 5.46684 6.20559 5.84789
#
# Compressibility (1/GPa) = 0.02856334
#
# Stress axis : x y z
#
# Youngs Moduli (GPa) = 60.93953 97.12283 59.78752
#
# Poissons Ratio (x) = 0.17605 0.05188
# Poissons Ratio (y) = 0.11046 0.28422
# Poissons Ratio (z) = 0.05288 0.46171
#
# Static dielectric constant tensor:
#      x y z
#    x 1.929230 0.000000 0.020330 
#    y 0.000000 1.849950 0.000000 
#    z 0.020330 0.000000 1.808090 
# 
# From -- ./inp_files/332943.got.cif
#   From: 2010.05.17/outbox.cif.g08.bks.cpg/sg12_167_cif.got.tgz:332943.got - 2010.06.03 13:09:07.
