data_PCOD9222035
_publ_section_title
;
Structure prediction by ZEFSAII (Michael W. Deem and Ramdas Pophale) SiO2 
 PCOD9222035
Probable space group: C 2/M
;
_chemical_formula_sum "Si O2"
_cell_formula_units_Z 44
_cell_length_a 29.077074
_cell_length_b 12.120315
_cell_length_c 17.679908
_cell_angle_alpha 90.000000
_cell_angle_beta 158.193614
_cell_angle_gamma 90.000000
_cell_volume 2314.567750
_symmetry_space_group_name_H-M "C 2/M"
_symmetry_group_IT_number 12
_symmetry_cell_setting 'monoclinic'
loop_
_space_group_symop_operation_xyz
x,y,z
-x,y,-z
-x,-y,-z
x,-y,z
1/2+x,1/2+y,z
1/2-x,1/2+y,-z
1/2-x,1/2-y,-z
1/2+x,1/2-y,z
loop_
_atom_site_type_symbol
_atom_site_label
_atom_site_fract_x
_atom_site_fract_y
_atom_site_fract_z
Si Si1 0.125412 0.000000 0.735289
Si Si2 0.506220 0.000000 0.100865
Si Si3 0.381852 0.773496 0.663601
Si Si4 0.645458 0.254554 0.557396
Si Si5 0.226226 0.000000 0.730151
Si Si6 0.378789 0.366757 0.989834
Si Si7 0.121705 0.206513 0.835563
O O1 0.116490 0.100755 0.776358
O O2 0.000000 0.000000 0.500000
O O3 0.225513 0.000000 0.820929
O O4 0.571412 0.109046 0.233567
O O5 0.500000 0.000000 0.000000
O O6 0.366001 0.000000 0.915465
O O7 0.250000 0.750000 0.500000
O O8 0.357554 0.768211 0.536604
O O9 0.493975 0.686040 0.849121
O O10 0.666028 0.385514 0.607620
O O11 0.757721 0.186187 0.765459
O O12 0.505894 0.226260 0.372037
O O13 0.379668 0.500000 0.987009
O O14 0.373904 0.326240 0.069631
O O15 0.250000 0.250000 0.000000
#
# Coordination Sequence:
#
# PCOD9222035 Si02
#       7
#     4   4   8   8   4   8   8
#     4  12  22  38  67  98 127 173 236 269 335 388
#     4  12  26  48  73 101 134 173 236 282 335 411
#     4  11  27  44  72 103 131 175 225 282 347 408
#     4  11  24  44  68  97 137 176 230 275 344 402
#     4  12  22  42  74  95 130 181 227 288 324 402
#     4  11  25  46  66  98 142 183 220 281 353 407
#     4  11  24  42  65  97 133 178 230 279 330 405
#
# _framework density 19.010028999999999
#
# number of rings (size 3 to 8) (size 9 to 14) (size 15 to 20)
#    0.000    0.727    4.545    2.182    8.909    0.000 
#    1.636    1.818    0.000    0.000    0.000    0.000 
#    0.000    0.000    0.000    0.000    0.000    0.000 
#
# Total GULP energy -122711.223874 kJ/mol
# GULP energy per Si atom -5577.782903 kJ/mol
# Density = 1.896676 g / cm^3
# Si number density = 19.010029 Si / 1000 Ang^3
#
#
#
# Elastic Constant Matrix: (Units=GPa)
#
#
# Indices 1 2 3 4 5 6 
#
# 1 135.3512 33.0184 73.8751 0.0000 26.5058 0.0000
# 2 33.0184 120.3568 76.9951 0.0000 8.4604 0.0000
# 3 73.8751 76.9951 180.3221 0.0000 25.4540 0.0000
# 4 0.0000 0.0000 0.0000 25.3849 0.0000 14.2263
# 5 26.5058 8.4604 25.4540 0.0000 54.2883 0.0000
# 6 0.0000 0.0000 0.0000 14.2263 0.0000 28.7415
#
#
#
# Elastic Compliance Matrix: (Units=1/GPa)
#
#
# Indices 1 2 3 4 5 6 
#
# 1 0.010007 -0.000256 -0.003541 0.000000 -0.003186 0.000000
# 2 -0.000256 0.011453 -0.004873 0.000000 0.000625 0.000000
# 3 -0.003541 -0.004873 0.009344 0.000000 -0.001893 0.000000
# 4 0.000000 0.000000 0.000000 0.054516 0.000000 -0.026984
# 5 -0.003186 0.000625 -0.001893 0.000000 0.020766 0.000000
# 6 0.000000 0.000000 0.000000 -0.026984 0.000000 0.048149
#
#
# Mechanical properties :
#
#
# Convention : Reuss Voigt Hill
#
# Bulk Modulus (GPa) = 74.27588 89.31190 81.79389
# Shear Modulus (GPa) = 28.39887 38.49238 33.44562
#
# Velocity S-wave (km/s) = 3.86928 4.50471 4.19903
# Velocity P-wave (km/s) = 7.68886 8.61046 8.16268
#
# Compressibility (1/GPa) = 0.01346332
#
# Stress axis : x y z
#
# Youngs Moduli (GPa) = 99.92948 87.31647 107.01814
#
# Poissons Ratio (x) = 0.02239 0.37890
# Poissons Ratio (y) = 0.02562 0.52153
# Poissons Ratio (z) = 0.35380 0.42552
#
# Static dielectric constant tensor:
#      x y z
#    x 2.162600 0.000000 0.323890 
#    y 0.000000 1.633120 0.000000 
#    z 0.323890 0.000000 1.815030 
# 
# From -- ./inp_files/296560.got.cif
#   From: 2010.05.17/outbox.cif.g08.bks.cpg/sg12_149_cif.got.tgz:296560.got - 2010.06.03 13:09:07.
