data_PCOD9222305
_publ_section_title
;
Structure prediction by ZEFSAII (Michael W. Deem and Ramdas Pophale) SiO2 
 PCOD9222305
Probable space group: C 2/M
;
_chemical_formula_sum "Si O2"
_cell_formula_units_Z 56
_cell_length_a 14.568498
_cell_length_b 17.928039
_cell_length_c 11.146196
_cell_angle_alpha 90.000000
_cell_angle_beta 60.611294
_cell_angle_gamma 90.000000
_cell_volume 2536.572151
_symmetry_space_group_name_H-M "C 2/M"
_symmetry_group_IT_number 12
_symmetry_cell_setting 'monoclinic'
loop_
_space_group_symop_operation_xyz
x,y,z
-x,y,-z
-x,-y,-z
x,-y,z
1/2+x,1/2+y,z
1/2-x,1/2+y,-z
1/2-x,1/2-y,-z
1/2+x,1/2-y,z
loop_
_atom_site_type_symbol
_atom_site_label
_atom_site_fract_x
_atom_site_fract_y
_atom_site_fract_z
Si Si1 0.243580 0.639523 0.318246
Si Si2 0.415241 0.584124 0.662347
Si Si3 0.991571 0.870409 0.144584
Si Si4 0.363222 0.227805 0.983313
Si Si5 0.883127 0.586137 0.819611
Si Si6 0.379580 0.082057 0.389028
Si Si7 0.233917 0.696957 0.709779
O O1 0.367981 0.632225 0.252516
O O2 0.208238 0.616717 0.207946
O O3 0.179298 0.586828 0.447476
O O4 0.215769 0.725466 0.366164
O O5 0.500000 0.597729 0.500000
O O6 0.375523 0.500000 0.668455
O O7 0.459434 0.588968 0.770033
O O8 0.324148 0.644721 0.706260
O O9 0.052340 0.790829 0.103605
O O10 0.000000 0.899312 0.000000
O O11 0.391813 0.145350 0.920548
O O12 0.250000 0.250000 0.000000
O O13 0.344982 0.223283 0.135999
O O14 0.864485 0.500000 0.865899
O O15 0.995129 0.590491 0.679961
O O16 0.329310 0.147859 0.343850
O O17 0.361602 0.000000 0.345306
#
# Coordination Sequence:
#
# PCOD9222305 Si02
#       7
#     8   8   8   8   8   8   8
#     4  12  24  43  71 103 137 183 234 292 347 416
#     4  11  26  46  68 102 146 186 231 291 358 426
#     4  12  24  44  74 103 141 186 236 292 350 416
#     4  12  23  48  69 100 141 179 231 294 346 421
#     4  11  25  44  71 102 138 184 231 286 357 421
#     4  11  26  46  69 103 142 183 232 291 354 424
#     4  12  24  43  71  99 134 185 234 287 351 420
#
# _framework density 22.077038999999999
#
# number of rings (size 3 to 8) (size 9 to 14) (size 15 to 20)
#    0.000    0.429    4.286    3.429    0.000    7.143 
#    0.000    1.429    0.000    0.000    0.000    0.000 
#    0.000    0.000    0.000    0.000    0.000    0.000 
#
# Total GULP energy -156582.929998 kJ/mol
# GULP energy per Si atom -5592.247500 kJ/mol
# Density = 2.202679 g / cm^3
# Si number density = 22.077039 Si / 1000 Ang^3
#
#
#
# Elastic Constant Matrix: (Units=GPa)
#
#
# Indices 1 2 3 4 5 6 
#
# 1 93.6228 25.1647 8.1715 0.0000 -9.5272 0.0000
# 2 25.1647 127.6668 20.6106 0.0000 -14.9544 0.0000
# 3 8.1715 20.6106 47.5425 0.0000 -1.9211 0.0000
# 4 0.0000 0.0000 0.0000 -74.2625 0.0000 7.3896
# 5 -9.5272 -14.9544 -1.9211 0.0000 35.0554 0.0000
# 6 0.0000 0.0000 0.0000 7.3896 0.0000 19.4108
#
#
#
# Elastic Compliance Matrix: (Units=1/GPa)
#
#
# Indices 1 2 3 4 5 6 
#
# 1 0.011499 -0.001822 -0.001094 0.000000 0.002288 0.000000
# 2 -0.001822 0.009136 -0.003518 0.000000 0.003209 0.000000
# 3 -0.001094 -0.003518 0.022725 0.000000 -0.000553 0.000000
# 4 0.000000 0.000000 0.000000 -0.012974 0.000000 0.004939
# 5 0.002288 0.003209 -0.000553 0.000000 0.030487 0.000000
# 6 0.000000 0.000000 0.000000 0.004939 0.000000 0.049637
#
#
# Mechanical properties :
#
#
# Convention : Reuss Voigt Hill
#
# Bulk Modulus (GPa) = 32.79562 41.85844 37.32703
# Shear Modulus (GPa) = 37.44159 10.36641 23.90400
#
# Velocity S-wave (km/s) = 4.12266 2.16928 3.29409
# Velocity P-wave (km/s) = 6.12773 5.02749 5.60468
#
# Compressibility (1/GPa) = 0.03049187
#
# Stress axis : x y z
#
# Youngs Moduli (GPa) = 86.96240 109.45877 44.00530
#
# Poissons Ratio (x) = 0.19943 0.04815
# Poissons Ratio (y) = 0.15844 0.15480
# Poissons Ratio (z) = 0.09515 0.38505
#
# Static dielectric constant tensor:
#      x y z
#    x 1.793560 0.000000 0.009390 
#    y 0.000000 1.829060 0.000000 
#    z 0.009390 0.000000 1.813120 
# 
# From -- ./inp_files/146045.got.cif
#   From: 2010.05.17/outbox.cif.g08.bks.cpg/sg12_74_cif.got.tgz:146045.got - 2010.06.03 13:09:07.
