data_PCOD9222734
_publ_section_title
;
Structure prediction by ZEFSAII (Michael W. Deem and Ramdas Pophale) SiO2 
 PCOD9222734
Probable space group: C 2/M
;
_chemical_formula_sum "Si O2"
_cell_formula_units_Z 40
_cell_length_a 9.232733
_cell_length_b 9.877969
_cell_length_c 20.653821
_cell_angle_alpha 90.000000
_cell_angle_beta 95.408281
_cell_angle_gamma 90.000000
_cell_volume 1875.256598
_symmetry_space_group_name_H-M "C 2/M"
_symmetry_group_IT_number 12
_symmetry_cell_setting 'monoclinic'
loop_
_space_group_symop_operation_xyz
x,y,z
-x,y,-z
-x,-y,-z
x,-y,z
1/2+x,1/2+y,z
1/2-x,1/2+y,-z
1/2-x,1/2-y,-z
1/2+x,1/2-y,z
loop_
_atom_site_type_symbol
_atom_site_label
_atom_site_fract_x
_atom_site_fract_y
_atom_site_fract_z
Si Si1 0.677403 0.000000 0.352050
Si Si2 0.108153 0.272157 0.451649
Si Si3 0.016769 0.000000 0.375280
Si Si4 0.982182 0.500000 0.217056
Si Si5 0.634409 0.500000 0.239181
Si Si6 0.011553 0.227790 0.852348
Si Si7 0.725363 0.337138 0.063356
O O1 0.642076 0.129948 0.394070
O O2 0.849393 0.000000 0.344561
O O3 0.571852 0.000000 0.286745
O O4 0.250000 0.250000 0.500000
O O5 0.000000 0.333273 0.500000
O O6 0.046700 0.132120 0.420041
O O7 0.118749 0.000000 0.315937
O O8 0.805827 0.500000 0.224682
O O9 0.030553 0.372553 0.177252
O O10 0.545064 0.624704 0.204308
O O11 0.935941 0.178367 0.915225
O O12 0.177809 0.258852 0.878507
O O13 0.760027 0.500000 0.059261
O O14 0.750000 0.250000 0.000000
#
# Coordination Sequence:
#
# PCOD9222734 Si02
#       7
#     4   8   4   4   4   8   8
#     4  12  28  46  72 110 139 193 241 295 366 419
#     4  12  25  47  74 103 148 189 235 299 364 432
#     4  12  28  47  70 111 145 181 251 299 352 436
#     4  12  28  48  71 105 141 187 252 290 356 427
#     4  12  28  48  71 104 143 188 242 304 350 426
#     4  12  24  50  72 101 147 185 236 296 359 421
#     4  12  28  48  73 112 144 184 240 293 354 430
#
# _framework density 21.330416
#
# number of rings (size 3 to 8) (size 9 to 14) (size 15 to 20)
#    0.000    0.000    6.000    3.000    8.400    4.800 
#    0.000    0.000    0.000    0.000    0.000    0.000 
#    0.000    0.000    0.000    0.000    0.000    0.000 
#
# Total GULP energy -111709.992035 kJ/mol
# GULP energy per Si atom -5585.499602 kJ/mol
# Density = 2.128187 g / cm^3
# Si number density = 21.330416 Si / 1000 Ang^3
#
#
#
# Elastic Constant Matrix: (Units=GPa)
#
#
# Indices 1 2 3 4 5 6 
#
# 1 87.5479 23.1522 8.2207 0.0000 7.6160 0.0000
# 2 23.1522 147.5360 27.7904 0.0000 7.0930 0.0000
# 3 8.2207 27.7904 96.2070 0.0000 3.1181 0.0000
# 4 0.0000 0.0000 0.0000 53.1650 0.0000 -5.2405
# 5 7.6160 7.0930 3.1181 0.0000 48.4676 0.0000
# 6 0.0000 0.0000 0.0000 -5.2405 0.0000 24.6107
#
#
#
# Elastic Compliance Matrix: (Units=1/GPa)
#
#
# Indices 1 2 3 4 5 6 
#
# 1 0.012064 -0.001725 -0.000480 0.000000 -0.001612 0.000000
# 2 -0.001725 0.007456 -0.001984 0.000000 -0.000692 0.000000
# 3 -0.000480 -0.001984 0.011019 0.000000 -0.000343 0.000000
# 4 0.000000 0.000000 0.000000 0.019213 0.000000 0.004091
# 5 -0.001612 -0.000692 -0.000343 0.000000 0.021009 0.000000
# 6 0.000000 0.000000 0.000000 0.004091 0.000000 0.041504
#
#
# Mechanical properties :
#
#
# Convention : Reuss Voigt Hill
#
# Bulk Modulus (GPa) = 45.12513 49.95752 47.54132
# Shear Modulus (GPa) = 39.05340 43.39052 41.22196
#
# Velocity S-wave (km/s) = 4.28352 4.51511 4.40084
# Velocity P-wave (km/s) = 6.75766 7.11711 6.93971
#
# Compressibility (1/GPa) = 0.02216060
#
# Stress axis : x y z
#
# Youngs Moduli (GPa) = 82.89201 134.12569 90.74859
#
# Poissons Ratio (x) = 0.23139 0.04358
# Poissons Ratio (y) = 0.14300 0.18003
# Poissons Ratio (z) = 0.03981 0.26608
#
# Static dielectric constant tensor:
#      x y z
#    x 1.739340 0.000000 0.017350 
#    y 0.000000 1.741370 0.000000 
#    z 0.017350 0.000000 1.809220 
# 
# From -- ./inp_files/331834.got.cif
#   From: 2010.05.17/outbox.cif.g08.bks.cpg/sg12_166_cif.got.tgz:331834.got - 2010.06.03 13:09:07.
