data_PCOD9222258
_publ_section_title
;
Structure prediction by ZEFSAII (Michael W. Deem and Ramdas Pophale) SiO2 
 PCOD9222258
Probable space group: C 2/M
;
_chemical_formula_sum "Si O2"
_cell_formula_units_Z 56
_cell_length_a 13.602973
_cell_length_b 21.458159
_cell_length_c 9.298214
_cell_angle_alpha 90.000000
_cell_angle_beta 87.807380
_cell_angle_gamma 90.000000
_cell_volume 2712.112800
_symmetry_space_group_name_H-M "C 2/M"
_symmetry_group_IT_number 12
_symmetry_cell_setting 'monoclinic'
loop_
_space_group_symop_operation_xyz
x,y,z
-x,y,-z
-x,-y,-z
x,-y,z
1/2+x,1/2+y,z
1/2-x,1/2+y,-z
1/2-x,1/2-y,-z
1/2+x,1/2-y,z
loop_
_atom_site_type_symbol
_atom_site_label
_atom_site_fract_x
_atom_site_fract_y
_atom_site_fract_z
Si Si1 0.462727 0.822710 0.835997
Si Si2 0.223498 0.072328 0.515815
Si Si3 0.962917 0.808343 0.167791
Si Si4 0.235941 0.843796 0.793455
Si Si5 0.108254 0.426706 0.735099
Si Si6 0.276626 0.431150 0.949601
Si Si7 0.053082 0.070503 0.299424
O O1 0.483869 0.753288 0.778512
O O2 0.346422 0.829296 0.829416
O O3 0.519621 0.877799 0.748282
O O4 0.500000 0.825178 0.000000
O O5 0.234111 0.120109 0.643999
O O6 0.314841 0.081247 0.400338
O O7 0.119178 0.080416 0.438513
O O8 0.227891 0.000000 0.562535
O O9 0.847453 0.791461 0.193755
O O10 0.986867 0.870915 0.257186
O O11 0.000000 0.816741 0.000000
O O12 0.197069 0.887627 0.922611
O O13 0.077246 0.500000 0.737623
O O14 0.176436 0.415412 0.871658
O O15 0.263464 0.500000 0.009860
O O16 0.363389 0.431559 0.829130
O O17 0.008719 0.000000 0.306551
#
# Coordination Sequence:
#
# PCOD9222258 Si02
#       7
#     8   8   8   8   8   8   8
#     4  11  25  42  64  95 127 167 213 268 323 371
#     4   9  21  40  66  98 135 168 204 260 321 377
#     4  11  25  42  64  95 127 167 213 268 323 371
#     4  12  23  39  62  96 122 163 215 268 304 377
#     4   9  19  40  64  90 127 172 205 250 322 378
#     4   9  17  32  61  92 120 155 209 257 298 365
#     4   9  19  40  64  90 127 172 205 250 322 378
#
# _framework density 20.648109000000002
#
# number of rings (size 3 to 8) (size 9 to 14) (size 15 to 20)
#    0.000    2.000    2.857    2.143    0.000    8.571 
#    0.000    7.143    0.000    0.000    0.000    0.000 
#    0.000    0.000    0.000    0.000    0.000    0.000 
#
# Total GULP energy -156244.850403 kJ/mol
# GULP energy per Si atom -5580.173229 kJ/mol
# Density = 2.060111 g / cm^3
# Si number density = 20.648109 Si / 1000 Ang^3
#
#
#
# Elastic Constant Matrix: (Units=GPa)
#
#
# Indices 1 2 3 4 5 6 
#
# 1 123.7111 43.0681 16.2255 0.0000 -0.9379 0.0000
# 2 43.0681 79.5847 38.0852 0.0000 -0.3295 0.0000
# 3 16.2255 38.0852 62.6896 0.0000 3.1123 0.0000
# 4 0.0000 0.0000 0.0000 3.3153 0.0000 -2.4660
# 5 -0.9379 -0.3295 3.1123 0.0000 17.7781 0.0000
# 6 0.0000 0.0000 0.0000 -2.4660 0.0000 6.4727
#
#
#
# Elastic Compliance Matrix: (Units=1/GPa)
#
#
# Indices 1 2 3 4 5 6 
#
# 1 0.010004 -0.005876 0.000968 0.000000 0.000249 0.000000
# 2 -0.005876 0.021255 -0.011496 0.000000 0.002096 0.000000
# 3 0.000968 -0.011496 0.022892 0.000000 -0.004170 0.000000
# 4 0.000000 0.000000 0.000000 0.420922 0.000000 0.160368
# 5 0.000249 0.002096 -0.004170 0.000000 0.057031 0.000000
# 6 0.000000 0.000000 0.000000 0.160368 0.000000 0.215595
#
#
# Mechanical properties :
#
#
# Convention : Reuss Voigt Hill
#
# Bulk Modulus (GPa) = 46.85322 51.19367 49.02345
# Shear Modulus (GPa) = 6.34822 16.75363 11.55093
#
# Velocity S-wave (km/s) = 1.75532 2.85158 2.36777
# Velocity P-wave (km/s) = 5.18158 5.97404 5.59187
#
# Compressibility (1/GPa) = 0.02134325
#
# Stress axis : x y z
#
# Youngs Moduli (GPa) = 99.96104 47.04708 43.68286
#
# Poissons Ratio (x) = 0.27645 -0.04229
# Poissons Ratio (y) = 0.58737 0.50219
# Poissons Ratio (z) = -0.09678 0.54087
#
# Static dielectric constant tensor:
#      x y z
#    x 1.769520 0.000000 -0.003970 
#    y 0.000000 1.723240 0.000000 
#    z -0.003970 0.000000 1.728680 
# 
# From -- ./inp_files/64082.got.cif
#   From: 2010.05.17/outbox.cif.g08.bks.cpg/sg12_33_cif.got.tgz:64082.got - 2010.06.03 13:09:07.
