data_PCOD9222283
_publ_section_title
;
Structure prediction by ZEFSAII (Michael W. Deem and Ramdas Pophale) SiO2 
 PCOD9222283
Probable space group: C 2/M
;
_chemical_formula_sum "Si O2"
_cell_formula_units_Z 40
_cell_length_a 27.314505
_cell_length_b 8.689044
_cell_length_c 9.654676
_cell_angle_alpha 90.000000
_cell_angle_beta 133.711892
_cell_angle_gamma 90.000000
_cell_volume 1656.286414
_symmetry_space_group_name_H-M "C 2/M"
_symmetry_group_IT_number 12
_symmetry_cell_setting 'monoclinic'
loop_
_space_group_symop_operation_xyz
x,y,z
-x,y,-z
-x,-y,-z
x,-y,z
1/2+x,1/2+y,z
1/2-x,1/2+y,-z
1/2-x,1/2-y,-z
1/2+x,1/2-y,z
loop_
_atom_site_type_symbol
_atom_site_label
_atom_site_fract_x
_atom_site_fract_y
_atom_site_fract_z
Si Si1 0.078353 0.176812 0.891943
Si Si2 0.705588 0.180184 0.251270
Si Si3 0.107089 0.825633 0.255885
Si Si4 0.940528 0.320188 0.559226
Si Si5 0.804722 0.182932 0.211239
O O1 0.937398 0.177381 0.972204
O O2 0.012691 0.237627 0.686676
O O3 0.094868 0.000000 0.888105
O O4 0.144570 0.283942 0.021088
O O5 0.679845 0.282686 0.329079
O O6 0.773409 0.219128 0.301708
O O7 0.704146 0.000000 0.283621
O O8 0.082832 0.712349 0.327267
O O9 0.107600 0.000000 0.312614
O O10 0.947596 0.500000 0.548064
O O11 0.879711 0.250556 0.350105
O O12 0.806955 0.000000 0.201278
O O13 0.750000 0.250000 0.000000
#
# Coordination Sequence:
#
# PCOD9222283 Si02
#       5
#     8   8   8   8   8
#     4   9  19  35  58  88 122 154 186 232 287 343
#     4   9  19  37  60  86 116 151 188 234 288 342
#     4   9  19  34  58  88 122 155 186 231 286 344
#     4  12  23  35  59  89 119 155 195 235 282 341
#     4  11  25  44  63  82 113 151 195 244 289 340
#
# _framework density 24.150414999999999
#
# number of rings (size 3 to 8) (size 9 to 14) (size 15 to 20)
#    1.200    0.800    0.000    4.200    0.000    6.400 
#    0.000    1.000    0.000    6.000    0.000    0.000 
#    0.000    0.000    0.000    0.000    0.000    0.000 
#
# Total GULP energy -111838.889271 kJ/mol
# GULP energy per Si atom -5591.944464 kJ/mol
# Density = 2.409545 g / cm^3
# Si number density = 24.150415 Si / 1000 Ang^3
#
#
#
# Elastic Constant Matrix: (Units=GPa)
#
#
# Indices 1 2 3 4 5 6 
#
# 1 91.5144 3.2403 17.8735 0.0000 5.5957 0.0000
# 2 3.2403 77.6592 20.3777 0.0000 -0.1990 0.0000
# 3 17.8735 20.3777 133.0010 0.0000 4.1600 0.0000
# 4 0.0000 0.0000 0.0000 38.8925 0.0000 6.8774
# 5 5.5957 -0.1990 4.1600 0.0000 42.5266 0.0000
# 6 0.0000 0.0000 0.0000 6.8774 0.0000 15.2896
#
#
#
# Elastic Compliance Matrix: (Units=1/GPa)
#
#
# Indices 1 2 3 4 5 6 
#
# 1 0.011298 -0.000091 -0.001462 0.000000 -0.001344 0.000000
# 2 -0.000091 0.013420 -0.002052 0.000000 0.000276 0.000000
# 3 -0.001462 -0.002052 0.008049 0.000000 -0.000605 0.000000
# 4 0.000000 0.000000 0.000000 0.027934 0.000000 -0.012565
# 5 -0.001344 0.000276 -0.000605 0.000000 0.023752 0.000000
# 6 0.000000 0.000000 0.000000 -0.012565 0.000000 0.071056
#
#
# Mechanical properties :
#
#
# Convention : Reuss Voigt Hill
#
# Bulk Modulus (GPa) = 39.13155 42.79528 40.96342
# Shear Modulus (GPa) = 29.19902 36.72058 32.95980
#
# Velocity S-wave (km/s) = 3.48091 3.90358 3.69829
# Velocity P-wave (km/s) = 5.69158 6.17058 5.93591
#
# Compressibility (1/GPa) = 0.02555483
#
# Stress axis : x y z
#
# Youngs Moduli (GPa) = 88.50921 74.51646 124.24467
#
# Poissons Ratio (x) = 0.00679 0.18169
# Poissons Ratio (y) = 0.00807 0.25501
# Poissons Ratio (z) = 0.12943 0.15294
#
# Static dielectric constant tensor:
#      x y z
#    x 2.006840 0.000000 -0.049150 
#    y 0.000000 1.785910 0.000000 
#    z -0.049150 0.000000 2.050060 
# 
# From -- ./inp_files/180297.got.cif
#   From: 2010.05.17/outbox.cif.g08.bks.cpg/sg12_91_cif.got.tgz:180297.got - 2010.06.03 13:09:07.
