data_PCOD9222357
_publ_section_title
;
Structure prediction by ZEFSAII (Michael W. Deem and Ramdas Pophale) SiO2 
 PCOD9222357
Probable space group: C 2/M
;
_chemical_formula_sum "Si O2"
_cell_formula_units_Z 56
_cell_length_a 9.354634
_cell_length_b 24.551125
_cell_length_c 11.197881
_cell_angle_alpha 90.000000
_cell_angle_beta 111.677161
_cell_angle_gamma 90.000000
_cell_volume 2389.904694
_symmetry_space_group_name_H-M "C 2/M"
_symmetry_group_IT_number 12
_symmetry_cell_setting 'monoclinic'
loop_
_space_group_symop_operation_xyz
x,y,z
-x,y,-z
-x,-y,-z
x,-y,z
1/2+x,1/2+y,z
1/2-x,1/2+y,-z
1/2-x,1/2-y,-z
1/2+x,1/2-y,z
loop_
_atom_site_type_symbol
_atom_site_label
_atom_site_fract_x
_atom_site_fract_y
_atom_site_fract_z
Si Si1 0.828622 0.124976 0.986443
Si Si2 0.178928 0.139531 0.401602
Si Si3 0.124498 0.744181 0.307626
Si Si4 0.437970 0.133894 0.294806
Si Si5 0.223720 0.561358 0.368740
Si Si6 0.311594 0.281601 0.134328
Si Si7 0.562074 0.559186 0.790667
O O1 0.772851 0.157332 0.087101
O O2 0.866909 0.066921 0.055881
O O3 0.697059 0.133603 0.847711
O O4 0.000000 0.144754 0.000000
O O5 0.157382 0.205105 0.407252
O O6 0.342040 0.132485 0.386629
O O7 0.184458 0.105511 0.524275
O O8 0.054743 0.107921 0.280637
O O9 0.256652 0.733133 0.250632
O O10 0.046937 0.687790 0.325787
O O11 0.990913 0.770753 0.187419
O O12 0.550101 0.083106 0.310752
O O13 0.232885 0.500000 0.422230
O O14 0.303731 0.559929 0.265544
O O15 0.250000 0.250000 0.000000
O O16 0.483317 0.500000 0.757596
#
# Coordination Sequence:
#
# PCOD9222357 Si02
#       7
#     8   8   8   8   8   8   8
#     4  12  23  44  72 107 148 187 234 290 361 436
#     4  12  24  48  72 101 145 190 248 291 356 432
#     4  12  24  40  66 108 144 185 233 291 355 421
#     4  12  26  44  72 110 144 187 239 294 361 428
#     4  11  28  51  75 101 137 193 249 302 360 423
#     4  12  21  37  65  99 145 191 228 277 347 436
#     4  11  25  46  74 105 139 187 247 302 361 424
#
# _framework density 23.431898
#
# number of rings (size 3 to 8) (size 9 to 14) (size 15 to 20)
#    0.000    0.286    5.714    3.429    0.000    6.000 
#    0.000    2.857    0.000    0.000    0.000    0.000 
#    0.000    0.000    0.000    0.000    0.000    0.000 
#
# Total GULP energy -156379.910482 kJ/mol
# GULP energy per Si atom -5584.996803 kJ/mol
# Density = 2.337857 g / cm^3
# Si number density = 23.431898 Si / 1000 Ang^3
#
#
#
# Elastic Constant Matrix: (Units=GPa)
#
#
# Indices 1 2 3 4 5 6 
#
# 1 82.6484 37.9168 19.0780 0.0000 0.8902 0.0000
# 2 37.9168 148.5034 39.0629 0.0000 -7.5208 0.0000
# 3 19.0780 39.0629 67.7510 0.0000 9.2627 0.0000
# 4 0.0000 0.0000 0.0000 33.0355 0.0000 -0.4731
# 5 0.8902 -7.5208 9.2627 0.0000 39.9464 0.0000
# 6 0.0000 0.0000 0.0000 -0.4731 0.0000 30.3353
#
#
#
# Elastic Compliance Matrix: (Units=1/GPa)
#
#
# Indices 1 2 3 4 5 6 
#
# 1 0.013987 -0.003028 -0.002140 0.000000 -0.000385 0.000000
# 2 -0.003028 0.008872 -0.004648 0.000000 0.002816 0.000000
# 3 -0.002140 -0.004648 0.018750 0.000000 -0.005175 0.000000
# 4 0.000000 0.000000 0.000000 0.030277 0.000000 0.000472
# 5 -0.000385 0.002816 -0.005175 0.000000 0.026772 0.000000
# 6 0.000000 0.000000 0.000000 0.000472 0.000000 0.032972
#
#
# Mechanical properties :
#
#
# Convention : Reuss Voigt Hill
#
# Bulk Modulus (GPa) = 45.50125 54.55759 50.02942
# Shear Modulus (GPa) = 31.52845 34.18644 32.85745
#
# Velocity S-wave (km/s) = 3.67213 3.82379 3.74873
# Velocity P-wave (km/s) = 6.11883 6.54440 6.33519
#
# Compressibility (1/GPa) = 0.02197742
#
# Stress axis : x y z
#
# Youngs Moduli (GPa) = 71.49670 112.71362 53.33408
#
# Poissons Ratio (x) = 0.34127 0.11414
# Poissons Ratio (y) = 0.21647 0.24788
# Poissons Ratio (z) = 0.15301 0.52385
#
# Static dielectric constant tensor:
#      x y z
#    x 1.842720 0.000000 0.025510 
#    y 0.000000 2.006700 0.000000 
#    z 0.025510 0.000000 1.960260 
# 
# From -- ./inp_files/124366.got.cif
#   From: 2010.05.17/outbox.cif.g08.bks.cpg/sg12_63_cif.got.tgz:124366.got - 2010.06.03 13:09:07.
