data_PCOD9222687
_publ_section_title
;
Structure prediction by ZEFSAII (Michael W. Deem and Ramdas Pophale) SiO2 
 PCOD9222687
Probable space group: C 2/M
;
_chemical_formula_sum "Si O2"
_cell_formula_units_Z 48
_cell_length_a 23.282967
_cell_length_b 8.610331
_cell_length_c 20.399629
_cell_angle_alpha 90.000000
_cell_angle_beta 135.903961
_cell_angle_gamma 90.000000
_cell_volume 2845.799357
_symmetry_space_group_name_H-M "C 2/M"
_symmetry_group_IT_number 12
_symmetry_cell_setting 'monoclinic'
loop_
_space_group_symop_operation_xyz
x,y,z
-x,y,-z
-x,-y,-z
x,-y,z
1/2+x,1/2+y,z
1/2-x,1/2+y,-z
1/2-x,1/2-y,-z
1/2+x,1/2-y,z
loop_
_atom_site_type_symbol
_atom_site_label
_atom_site_fract_x
_atom_site_fract_y
_atom_site_fract_z
Si Si1 0.596526 0.188699 0.722580
Si Si2 0.658902 0.315360 0.911811
Si Si3 0.059135 0.312240 0.952341
Si Si4 0.379719 0.813085 0.854345
Si Si5 0.202704 0.687797 0.682509
Si Si6 0.444166 0.820004 0.520421
O O1 0.625295 0.250876 0.815545
O O2 0.660104 0.233956 0.716691
O O3 0.505253 0.245856 0.625563
O O4 0.594699 0.000000 0.722423
O O5 0.662887 0.500000 0.912281
O O6 0.600289 0.261993 0.923023
O O7 0.750000 0.250000 0.000000
O O8 0.063063 0.500000 0.950426
O O9 0.963400 0.268483 0.884917
O O10 0.106766 0.267432 0.058399
O O11 0.295926 0.744492 0.757512
O O12 0.375108 0.000000 0.849240
O O13 0.200702 0.500000 0.678813
O O14 0.143056 0.747177 0.575008
O O15 0.500000 0.821421 0.500000
O O16 0.429192 0.000000 0.526154
#
# Coordination Sequence:
#
# PCOD9222687 Si02
#       6
#     8   8   8   8   8   8
#     4   9  17  31  50  71  98 131 161 192 234 280
#     4  12  24  35  49  71  98 127 159 194 233 279
#     4   9  19  36  52  68  94 127 161 194 235 284
#     4   9  18  32  51  72  95 124 156 196 241 282
#     4   9  16  27  48  76 100 124 158 196 233 280
#     4   7  12  25  45  69  96 125 157 192 232 278
#
# _framework density 16.866965
#
# number of rings (size 3 to 8) (size 9 to 14) (size 15 to 20)
#    0.000    2.833    0.000    5.500    0.000    4.667 
#    0.000    2.500    0.000    4.000    0.000    0.000 
#    0.000    0.000    0.000    0.000    0.000    0.000 
#
# Total GULP energy -133715.696807 kJ/mol
# GULP energy per Si atom -5571.487367 kJ/mol
# Density = 1.682858 g / cm^3
# Si number density = 16.866965 Si / 1000 Ang^3
#
#
#
# Elastic Constant Matrix: (Units=GPa)
#
#
# Indices 1 2 3 4 5 6 
#
# 1 74.4901 23.5161 72.3779 0.0000 1.5482 0.0000
# 2 23.5161 25.5112 32.7423 0.0000 0.0689 0.0000
# 3 72.3779 32.7423 186.6738 0.0000 15.1997 0.0000
# 4 0.0000 0.0000 0.0000 22.7434 0.0000 3.0458
# 5 1.5482 0.0689 15.1997 0.0000 26.7665 0.0000
# 6 0.0000 0.0000 0.0000 3.0458 0.0000 17.8521
#
#
#
# Elastic Compliance Matrix: (Units=1/GPa)
#
#
# Indices 1 2 3 4 5 6 
#
# 1 0.024898 -0.013249 -0.007565 0.000000 0.002890 0.000000
# 2 -0.013249 0.058322 -0.005392 0.000000 0.003678 0.000000
# 3 -0.007565 -0.005392 0.009645 0.000000 -0.005026 0.000000
# 4 0.000000 0.000000 0.000000 0.044997 0.000000 -0.007677
# 5 0.002890 0.003678 -0.005026 0.000000 0.040037 0.000000
# 6 0.000000 0.000000 0.000000 -0.007677 0.000000 0.057326
#
#
# Mechanical properties :
#
#
# Convention : Reuss Voigt Hill
#
# Bulk Modulus (GPa) = 24.72038 60.43863 42.57950
# Shear Modulus (GPa) = 16.60461 24.00831 20.30646
#
# Velocity S-wave (km/s) = 3.14099 3.77688 3.47352
# Velocity P-wave (km/s) = 5.27658 7.41148 6.43321
#
# Compressibility (1/GPa) = 0.04045246
#
# Stress axis : x y z
#
# Youngs Moduli (GPa) = 40.16457 17.14611 103.68137
#
# Poissons Ratio (x) = 0.22717 0.78432
# Poissons Ratio (y) = 0.53215 0.55905
# Poissons Ratio (z) = 0.30384 0.09245
#
# Static dielectric constant tensor:
#      x y z
#    x 1.544220 0.000000 0.011960 
#    y 0.000000 1.576510 0.000000 
#    z 0.011960 0.000000 1.594590 
# 
# From -- ./inp_files/280778.got.cif
#   From: 2010.05.17/outbox.cif.g08.bks.cpg/sg12_141_cif.got.tgz:280778.got - 2010.06.03 13:09:07.
