data_PCOD9222420
_publ_section_title
;
Structure prediction by ZEFSAII (Michael W. Deem and Ramdas Pophale) SiO2 
 PCOD9222420
Probable space group: C 2/M
;
_chemical_formula_sum "Si O2"
_cell_formula_units_Z 40
_cell_length_a 21.998640
_cell_length_b 8.501033
_cell_length_c 19.114707
_cell_angle_alpha 90.000000
_cell_angle_beta 149.730193
_cell_angle_gamma 90.000000
_cell_volume 1801.889886
_symmetry_space_group_name_H-M "C 2/M"
_symmetry_group_IT_number 12
_symmetry_cell_setting 'monoclinic'
loop_
_space_group_symop_operation_xyz
x,y,z
-x,y,-z
-x,-y,-z
x,-y,z
1/2+x,1/2+y,z
1/2-x,1/2+y,-z
1/2-x,1/2-y,-z
1/2+x,1/2-y,z
loop_
_atom_site_type_symbol
_atom_site_label
_atom_site_fract_x
_atom_site_fract_y
_atom_site_fract_z
Si Si1 0.136173 0.185422 0.929429
Si Si2 0.509773 0.187235 0.930137
Si Si3 0.985773 0.690970 0.659802
Si Si4 0.745397 0.691088 0.338999
Si Si5 0.873346 0.679802 0.331205
O O1 0.022081 0.240075 0.769791
O O2 0.116960 0.247496 0.988819
O O3 0.144309 0.000000 0.939976
O O4 0.250000 0.250000 0.000000
O O5 0.382936 0.238855 0.770266
O O6 0.519628 0.000000 0.941592
O O7 0.500000 0.248474 0.000000
O O8 0.992684 0.500000 0.668419
O O9 0.085000 0.749096 0.701177
O O10 0.853898 0.732747 0.499440
O O11 0.739961 0.500000 0.331073
O O12 0.783163 0.750938 0.298531
O O13 0.833604 0.500000 0.278303
O O14 0.000000 0.670251 0.500000
#
# Coordination Sequence:
#
# PCOD9222420 Si02
#       5
#     8   8   8   8   8
#     4  12  27  46  68  94 128 171 218 265 323 389
#     4  11  26  46  66  93 131 171 216 270 326 382
#     4   9  18  36  63  96 132 168 211 265 318 376
#     4   9  18  35  63  97 130 168 215 262 317 381
#     4   7  12  26  52  88 125 160 199 244 300 366
#
# _framework density 22.198913000000001
#
# number of rings (size 3 to 8) (size 9 to 14) (size 15 to 20)
#    0.000    2.400    0.000    4.800    2.800    3.200 
#    0.000    0.000    0.000    3.600    0.000    0.000 
#    0.000    0.000    0.000    0.000    0.000    0.000 
#
# Total GULP energy -111710.977391 kJ/mol
# GULP energy per Si atom -5585.548870 kJ/mol
# Density = 2.214839 g / cm^3
# Si number density = 22.198913 Si / 1000 Ang^3
#
#
#
# Elastic Constant Matrix: (Units=GPa)
#
#
# Indices 1 2 3 4 5 6 
#
# 1 167.4564 41.5146 55.0401 0.0000 -0.0012 0.0000
# 2 41.5146 52.3068 24.9685 0.0000 -2.2989 0.0000
# 3 55.0401 24.9685 86.0656 0.0000 -2.3223 0.0000
# 4 0.0000 0.0000 0.0000 25.5168 0.0000 4.0125
# 5 -0.0012 -2.2989 -2.3223 0.0000 40.7187 0.0000
# 6 0.0000 0.0000 0.0000 4.0125 0.0000 27.9545
#
#
#
# Elastic Compliance Matrix: (Units=1/GPa)
#
#
# Indices 1 2 3 4 5 6 
#
# 1 0.008501 -0.004838 -0.004047 0.000000 -0.000504 0.000000
# 2 -0.004838 0.024976 -0.004120 0.000000 0.001175 0.000000
# 3 -0.004047 -0.004120 0.015420 0.000000 0.000647 0.000000
# 4 0.000000 0.000000 0.000000 0.040095 0.000000 -0.005755
# 5 -0.000504 0.001175 0.000647 0.000000 0.024662 0.000000
# 6 0.000000 0.000000 0.000000 -0.005755 0.000000 0.036598
#
#
# Mechanical properties :
#
#
# Convention : Reuss Voigt Hill
#
# Bulk Modulus (GPa) = 43.69199 60.98612 52.33906
# Shear Modulus (GPa) = 27.19010 31.12505 29.15757
#
# Velocity S-wave (km/s) = 3.50357 3.74852 3.62811
# Velocity P-wave (km/s) = 6.00761 6.80202 6.41712
#
# Compressibility (1/GPa) = 0.02288749
#
# Stress axis : x y z
#
# Youngs Moduli (GPa) = 117.63215 40.03858 64.85173
#
# Poissons Ratio (x) = 0.19369 0.26244
# Poissons Ratio (y) = 0.56905 0.26721
# Poissons Ratio (z) = 0.47602 0.16497
#
# Static dielectric constant tensor:
#      x y z
#    x 1.875390 0.000000 -0.046800 
#    y 0.000000 1.750770 0.000000 
#    z -0.046800 0.000000 1.910170 
# 
# From -- ./inp_files/324431.got.cif
#   From: 2010.05.17/outbox.cif.g08.bks.cpg/sg12_163_cif.got.tgz:324431.got - 2010.06.03 13:09:07.
