data_PCOD9222113
_publ_section_title
;
Structure prediction by ZEFSAII (Michael W. Deem and Ramdas Pophale) SiO2 
 PCOD9222113
Probable space group: C 2/M
;
_chemical_formula_sum "Si O2"
_cell_formula_units_Z 56
_cell_length_a 16.637672
_cell_length_b 24.531847
_cell_length_c 9.106246
_cell_angle_alpha 90.000000
_cell_angle_beta 137.805560
_cell_angle_gamma 90.000000
_cell_volume 2496.343596
_symmetry_space_group_name_H-M "C 2/M"
_symmetry_group_IT_number 12
_symmetry_cell_setting 'monoclinic'
loop_
_space_group_symop_operation_xyz
x,y,z
-x,y,-z
-x,-y,-z
x,-y,z
1/2+x,1/2+y,z
1/2-x,1/2+y,-z
1/2-x,1/2-y,-z
1/2+x,1/2-y,z
loop_
_atom_site_type_symbol
_atom_site_label
_atom_site_fract_x
_atom_site_fract_y
_atom_site_fract_z
Si Si1 0.356426 0.941481 0.817632
Si Si2 0.461227 0.435663 0.118984
Si Si3 0.087520 0.153964 0.479384
Si Si4 0.748845 0.850717 0.803466
Si Si5 0.675120 0.145674 0.024572
Si Si6 0.605550 0.845388 0.340417
Si Si7 0.619716 0.270060 0.245484
O O1 0.321856 0.919252 0.931657
O O2 0.333707 0.893640 0.670845
O O3 0.302014 0.000000 0.710169
O O4 0.500000 0.946377 0.000000
O O5 0.450534 0.500000 0.139308
O O6 0.550962 0.404139 0.353518
O O7 0.500000 0.431117 0.000000
O O8 0.337320 0.401433 0.953032
O O9 0.216663 0.165121 0.727148
O O10 0.078808 0.194323 0.330150
O O11 0.000000 0.161960 0.500000
O O12 0.634356 0.861351 0.546127
O O13 0.816755 0.805962 0.795993
O O14 0.704208 0.834021 0.902528
O O15 0.537146 0.158375 0.873807
O O16 0.663647 0.788012 0.370353
O O17 0.500000 0.253447 0.000000
#
# Coordination Sequence:
#
# PCOD9222113 Si02
#       7
#     8   8   8   8   8   8   8
#     4   9  20  42  66  93 133 177 226 283 343 412
#     4  11  24  46  73 102 138 187 241 295 357 425
#     4  12  23  45  69 104 143 183 235 298 361 412
#     4  12  23  46  69 100 144 186 234 293 355 420
#     4  11  24  43  69 105 138 178 239 291 355 423
#     4  11  26  44  69 104 139 189 240 284 357 428
#     4  12  23  45  71 100 143 187 236 292 352 425
#
# _framework density 22.43281
#
# number of rings (size 3 to 8) (size 9 to 14) (size 15 to 20)
#    0.000    0.857    4.286    3.000    0.000    4.286 
#    0.000    5.714    0.000    4.286    0.000    0.000 
#    0.000    0.000    0.000    0.000    0.000    0.000 
#
# Total GULP energy -156142.938981 kJ/mol
# GULP energy per Si atom -5576.533535 kJ/mol
# Density = 2.238175 g / cm^3
# Si number density = 22.432810 Si / 1000 Ang^3
#
#
#
# Elastic Constant Matrix: (Units=GPa)
#
#
# Indices 1 2 3 4 5 6 
#
# 1 113.1617 43.7284 49.0754 0.0000 -34.0236 0.0000
# 2 43.7284 158.1435 44.1641 0.0000 -23.7929 0.0000
# 3 49.0754 44.1641 147.6812 0.0000 -19.1882 0.0000
# 4 0.0000 0.0000 0.0000 22.4541 0.0000 0.8720
# 5 -34.0236 -23.7929 -19.1882 0.0000 41.9838 0.0000
# 6 0.0000 0.0000 0.0000 0.8720 0.0000 2.1071
#
#
#
# Elastic Compliance Matrix: (Units=1/GPa)
#
#
# Indices 1 2 3 4 5 6 
#
# 1 0.013240 -0.001590 -0.002814 0.000000 0.008543 0.000000
# 2 -0.001590 0.007507 -0.001415 0.000000 0.002319 0.000000
# 3 -0.002814 -0.001415 0.008217 0.000000 0.000673 0.000000
# 4 0.000000 0.000000 0.000000 0.045263 0.000000 -0.018731
# 5 0.008543 0.002319 0.000673 0.000000 0.032363 0.000000
# 6 0.000000 0.000000 0.000000 -0.018731 0.000000 0.482346
#
#
# Mechanical properties :
#
#
# Convention : Reuss Voigt Hill
#
# Bulk Modulus (GPa) = 57.71888 76.99135 67.35512
# Shear Modulus (GPa) = 8.24604 32.11022 20.17813
#
# Velocity S-wave (km/s) = 1.91934 3.78748 3.00241
# Velocity P-wave (km/s) = 5.54052 7.31588 6.48920
#
# Compressibility (1/GPa) = 0.01732535
#
# Stress axis : x y z
#
# Youngs Moduli (GPa) = 75.52715 133.20606 121.69494
#
# Poissons Ratio (x) = 0.21178 0.34250
# Poissons Ratio (y) = 0.12008 0.17224
# Poissons Ratio (z) = 0.21257 0.18854
#
# Static dielectric constant tensor:
#      x y z
#    x 1.879620 0.000000 0.050250 
#    y 0.000000 1.863260 0.000000 
#    z 0.050250 0.000000 1.905350 
# 
# From -- ./inp_files/79167.got.cif
#   From: 2010.05.17/outbox.cif.g08.bks.cpg/sg12_40_cif.got.tgz:79167.got - 2010.06.03 13:09:07.
