data_PCOD9222913
_publ_section_title
;
Structure prediction by ZEFSAII (Michael W. Deem and Ramdas Pophale) SiO2 
 PCOD9222913
Probable space group: C 2/M
;
_chemical_formula_sum "Si O2"
_cell_formula_units_Z 48
_cell_length_a 25.945906
_cell_length_b 14.261377
_cell_length_c 7.514347
_cell_angle_alpha 90.000000
_cell_angle_beta 106.835056
_cell_angle_gamma 90.000000
_cell_volume 2661.326369
_symmetry_space_group_name_H-M "C 2/M"
_symmetry_group_IT_number 12
_symmetry_cell_setting 'monoclinic'
loop_
_space_group_symop_operation_xyz
x,y,z
-x,y,-z
-x,-y,-z
x,-y,z
1/2+x,1/2+y,z
1/2-x,1/2+y,-z
1/2-x,1/2-y,-z
1/2+x,1/2-y,z
loop_
_atom_site_type_symbol
_atom_site_label
_atom_site_fract_x
_atom_site_fract_y
_atom_site_fract_z
Si Si1 0.439612 0.608641 0.656680
Si Si2 0.272988 0.105631 0.559115
Si Si3 0.833935 0.788403 0.121401
Si Si4 0.060387 0.108640 0.777457
Si Si5 0.333936 0.288394 0.546466
Si Si6 0.727009 0.105630 0.013153
O O1 0.429790 0.500000 0.696310
O O2 0.500000 0.634827 0.775404
O O3 0.440055 0.611070 0.440054
O O4 0.390878 0.673637 0.671103
O O5 0.319585 0.180275 0.565112
O O6 0.216863 0.150794 0.435583
O O7 0.268969 0.101324 0.768961
O O8 0.281089 0.000000 0.501354
O O9 0.890876 0.826368 0.110646
O O10 0.834720 0.801598 0.334719
O O11 0.783137 0.849222 0.001865
O O12 0.819582 0.680286 0.074035
O O13 0.070208 0.000000 0.836731
O O14 0.718899 0.000000 0.939186
#
# Coordination Sequence:
#
# PCOD9222913 Si02
#       6
#     8   8   8   8   8   8
#     4   8  13  22  39  63  86 105 127 159 200 242
#     4   9  17  28  41  58  82 110 135 160 195 238
#     4   9  16  26  42  63  83 103 131 166 199 232
#     4   8  13  22  39  63  86 105 127 159 200 242
#     4   9  16  26  42  63  83 103 131 166 199 232
#     4   9  17  28  41  58  82 110 135 160 195 238
#
# _framework density 18.03612
#
# number of rings (size 3 to 8) (size 9 to 14) (size 15 to 20)
#    0.000    3.333    0.000    2.000    0.000    4.667 
#    0.000    0.000    0.000    5.000    0.000    9.333 
#    0.000    0.000    0.000    0.000    0.000    0.000 
#
# Total GULP energy -133747.385903 kJ/mol
# GULP energy per Si atom -5572.807746 kJ/mol
# Density = 1.799507 g / cm^3
# Si number density = 18.036120 Si / 1000 Ang^3
#
#
#
# Elastic Constant Matrix: (Units=GPa)
#
#
# Indices 1 2 3 4 5 6 
#
# 1 127.8128 100.4368 24.0612 0.0000 38.0725 0.0000
# 2 100.4368 157.7228 13.5645 0.0000 38.7471 0.0000
# 3 24.0612 13.5645 42.7201 0.0000 -0.1186 0.0000
# 4 0.0000 0.0000 0.0000 17.9284 0.0000 3.7005
# 5 38.0725 38.7471 -0.1186 0.0000 26.2329 0.0000
# 6 0.0000 0.0000 0.0000 3.7005 0.0000 26.2233
#
#
#
# Elastic Compliance Matrix: (Units=1/GPa)
#
#
# Indices 1 2 3 4 5 6 
#
# 1 0.022216 -0.008419 -0.009895 0.000000 -0.019852 0.000000
# 2 -0.008419 0.013599 0.000402 0.000000 -0.007866 0.000000
# 3 -0.009895 0.000402 0.028892 0.000000 0.013897 0.000000
# 4 0.000000 0.000000 0.000000 0.057451 0.000000 -0.008107
# 5 -0.019852 -0.007866 0.013897 0.000000 0.078614 0.000000
# 6 0.000000 0.000000 0.000000 -0.008107 0.000000 0.039278
#
#
# Mechanical properties :
#
#
# Convention : Reuss Voigt Hill
#
# Bulk Modulus (GPa) = 34.62125 67.15342 50.88733
# Shear Modulus (GPa) = 17.51309 26.75646 22.13477
#
# Velocity S-wave (km/s) = 3.11947 3.85579 3.50701
# Velocity P-wave (km/s) = 5.67556 7.55886 6.68388
#
# Compressibility (1/GPa) = 0.02888399
#
# Stress axis : x y z
#
# Youngs Moduli (GPa) = 45.01294 73.53343 34.61159
#
# Poissons Ratio (x) = 0.61907 0.34247
# Poissons Ratio (y) = 0.37896 -0.01391
# Poissons Ratio (z) = 0.44538 -0.02956
#
# Static dielectric constant tensor:
#      x y z
#    x 1.631100 0.000000 -0.026700 
#    y 0.000000 1.601210 0.000000 
#    z -0.026700 0.000000 1.690960 
# 
# From -- ./inp_files/78639.got.cif
#   From: 2010.05.17/outbox.cif.g08.bks.cpg/sg12_40_cif.got.tgz:78639.got - 2010.06.03 13:09:07.
