data_PCOD9222638
_publ_section_title
;
Structure prediction by ZEFSAII (Michael W. Deem and Ramdas Pophale) SiO2 
 PCOD9222638
Probable space group: C 2/M
;
_chemical_formula_sum "Si O2"
_cell_formula_units_Z 28
_cell_length_a 12.645771
_cell_length_b 20.139855
_cell_length_c 5.394592
_cell_angle_alpha 90.000000
_cell_angle_beta 64.748640
_cell_angle_gamma 90.000000
_cell_volume 1242.631699
_symmetry_space_group_name_H-M "C 2/M"
_symmetry_group_IT_number 12
_symmetry_cell_setting 'monoclinic'
loop_
_space_group_symop_operation_xyz
x,y,z
-x,y,-z
-x,-y,-z
x,-y,z
1/2+x,1/2+y,z
1/2-x,1/2+y,-z
1/2-x,1/2-y,-z
1/2+x,1/2-y,z
loop_
_atom_site_type_symbol
_atom_site_label
_atom_site_fract_x
_atom_site_fract_y
_atom_site_fract_z
Si Si1 0.319087 0.643880 0.430915
Si Si2 0.377219 0.283117 0.872783
Si Si3 0.078655 0.000000 0.671346
Si Si4 0.958105 0.347067 0.291895
O O1 0.375445 0.673770 0.623883
O O2 0.342567 0.565808 0.407433
O O3 0.181052 0.661445 0.568949
O O4 0.375445 0.673771 0.125233
O O5 0.469658 0.222731 0.780342
O O6 0.250000 0.250000 0.000000
O O7 0.000000 0.000000 0.500000
O O8 0.000000 0.000000 0.000000
O O9 0.000000 0.381979 0.500000
O O10 0.000000 0.381979 0.000000
#
# Coordination Sequence:
#
# PCOD9222638 Si02
#       4
#     8   8   4   8
#     4  12  26  48  70 105 147 191 247 299 360 436
#     4  12  23  41  72 110 150 183 231 301 377 439
#     4  12  30  56  76 100 142 204 260 296 352 446
#     4  12  23  39  66 106 147 178 228 293 367 431
#
# _framework density 22.532824000000002
#
# number of rings (size 3 to 8) (size 9 to 14) (size 15 to 20)
#    0.000    0.000    5.714    4.286    0.000    6.857 
#    0.000    1.429    0.000    0.000    0.000    0.000 
#    0.000    0.000    0.000    0.000    0.000    0.000 
#
# Total GULP energy -78415.957644 kJ/mol
# GULP energy per Si atom -5601.139832 kJ/mol
# Density = 2.248154 g / cm^3
# Si number density = 22.532824 Si / 1000 Ang^3
#
#
#
# Elastic Constant Matrix: (Units=GPa)
#
#
# Indices 1 2 3 4 5 6 
#
# 1 164.8327 51.1390 101.6981 0.0000 -35.7047 0.0000
# 2 51.1390 131.0605 38.8226 0.0000 -8.2731 0.0000
# 3 101.6981 38.8226 178.9426 0.0000 45.1621 0.0000
# 4 0.0000 0.0000 0.0000 20.7029 0.0000 2.1576
# 5 -35.7047 -8.2731 45.1621 0.0000 59.2710 0.0000
# 6 0.0000 0.0000 0.0000 2.1576 0.0000 17.4887
#
#
#
# Elastic Compliance Matrix: (Units=1/GPa)
#
#
# Indices 1 2 3 4 5 6 
#
# 1 0.035642 -0.001818 -0.031220 0.000000 0.045005 0.000000
# 2 -0.001818 0.008727 -0.001103 0.000000 0.000963 0.000000
# 3 -0.031220 -0.001103 0.035108 0.000000 -0.045712 0.000000
# 4 0.000000 0.000000 0.000000 0.048932 0.000000 -0.006037
# 5 0.045005 0.000963 -0.045712 0.000000 0.078948 0.000000
# 6 0.000000 0.000000 0.000000 -0.006037 0.000000 0.057924
#
#
# Mechanical properties :
#
#
# Convention : Reuss Voigt Hill
#
# Bulk Modulus (GPa) = 89.33827 95.35059 92.34443
# Shear Modulus (GPa) = 14.82381 38.37094 26.59737
#
# Velocity S-wave (km/s) = 2.56769 4.13109 3.43940
# Velocity P-wave (km/s) = 6.96598 8.07234 7.53948
#
# Compressibility (1/GPa) = 0.01119341
#
# Stress axis : x y z
#
# Youngs Moduli (GPa) = 28.05697 114.58516 28.48355
#
# Poissons Ratio (x) = 0.20834 0.88927
# Poissons Ratio (y) = 0.05101 0.03142
# Poissons Ratio (z) = 0.87595 0.12641
#
# Static dielectric constant tensor:
#      x y z
#    x 1.870780 0.000000 0.051980 
#    y 0.000000 1.773990 0.000000 
#    z 0.051980 0.000000 1.948200 
# 
# From -- ./inp_files/10444.got.cif
#   From: 2010.05.17/outbox.cif.g08.bks.cpg/sg12_6_cif.got.tgz:10444.got - 2010.06.03 13:09:07.
