data_PCOD9222302
_publ_section_title
;
Structure prediction by ZEFSAII (Michael W. Deem and Ramdas Pophale) SiO2 
 PCOD9222302
Probable space group: C 2/M
;
_chemical_formula_sum "Si O2"
_cell_formula_units_Z 32
_cell_length_a 15.044926
_cell_length_b 20.896099
_cell_length_c 4.982751
_cell_angle_alpha 90.000000
_cell_angle_beta 117.290646
_cell_angle_gamma 90.000000
_cell_volume 1392.117129
_symmetry_space_group_name_H-M "C 2/M"
_symmetry_group_IT_number 12
_symmetry_cell_setting 'monoclinic'
loop_
_space_group_symop_operation_xyz
x,y,z
-x,y,-z
-x,-y,-z
x,-y,z
1/2+x,1/2+y,z
1/2-x,1/2+y,-z
1/2-x,1/2-y,-z
1/2+x,1/2-y,z
loop_
_atom_site_type_symbol
_atom_site_label
_atom_site_fract_x
_atom_site_fract_y
_atom_site_fract_z
Si Si1 0.116620 0.930928 0.233644
Si Si2 0.111198 0.798350 0.542712
Si Si3 0.263392 0.865990 0.053990
Si Si4 0.388500 0.832646 0.729515
O O1 0.119885 0.867694 0.418498
O O2 0.188574 0.918000 0.078607
O O3 0.143906 0.000000 0.394076
O O4 0.000000 0.934278 0.000000
O O5 0.131159 0.742786 0.355428
O O6 0.000000 0.787321 0.500000
O O7 0.188418 0.805922 0.895081
O O8 0.353239 0.858648 0.392024
O O9 0.319551 0.869000 0.848492
O O10 0.500000 0.838493 0.000000
#
# Coordination Sequence:
#
# PCOD9222302 Si02
#       4
#     8   8   8   8
#     4  11  25  44  70 105 144 185 228 281 345 422
#     4  12  24  42  71 107 147 181 223 283 355 426
#     4  12  25  45  71 102 142 183 232 279 353 412
#     4  12  27  44  69 103 142 181 233 291 343 406
#
# _framework density 22.986571000000001
#
# number of rings (size 3 to 8) (size 9 to 14) (size 15 to 20)
#    0.000    0.250    5.000    4.500    3.500    1.500 
#    0.000    0.000    0.000    4.500    0.000    0.000 
#    0.000    0.000    0.000    0.000    0.000    0.000 
#
# Total GULP energy -89264.348955 kJ/mol
# GULP energy per Si atom -5579.021810 kJ/mol
# Density = 2.293425 g / cm^3
# Si number density = 22.986571 Si / 1000 Ang^3
#
#
#
# Elastic Constant Matrix: (Units=GPa)
#
#
# Indices 1 2 3 4 5 6 
#
# 1 67.5549 7.7434 11.2387 0.0000 8.5815 0.0000
# 2 7.7434 93.6282 -15.4841 0.0000 -12.7408 0.0000
# 3 11.2387 -15.4841 107.3417 0.0000 13.5094 0.0000
# 4 0.0000 0.0000 0.0000 -31.0346 0.0000 -43.3014
# 5 8.5815 -12.7408 13.5094 0.0000 60.5748 0.0000
# 6 0.0000 0.0000 0.0000 -43.3014 0.0000 -9.2181
#
#
#
# Elastic Compliance Matrix: (Units=1/GPa)
#
#
# Indices 1 2 3 4 5 6 
#
# 1 0.015569 -0.001859 -0.001617 0.000000 -0.002236 0.000000
# 2 -0.001859 0.011406 0.001548 0.000000 0.002317 0.000000
# 3 -0.001617 0.001548 0.009917 0.000000 -0.001657 0.000000
# 4 0.000000 0.000000 0.000000 0.005801 0.000000 -0.027252
# 5 -0.002236 0.002317 -0.001657 0.000000 0.017682 0.000000
# 6 0.000000 0.000000 0.000000 -0.027252 0.000000 0.019532
#
#
# Mechanical properties :
#
#
# Convention : Reuss Voigt Hill
#
# Bulk Modulus (GPa) = 30.26982 30.61343 30.44162
# Shear Modulus (GPa) = 52.75660 21.73288 37.24474
#
# Velocity S-wave (km/s) = 4.79592 3.07817 4.02964
# Velocity P-wave (km/s) = 6.62306 5.09709 5.90954
#
# Compressibility (1/GPa) = 0.03303621
#
# Stress axis : x y z
#
# Youngs Moduli (GPa) = 64.23051 87.67562 100.83472
#
# Poissons Ratio (x) = 0.16301 0.16304
# Poissons Ratio (y) = 0.11942 -0.15613
# Poissons Ratio (z) = 0.10385 -0.13575
#
# Static dielectric constant tensor:
#      x y z
#    x 1.906820 0.000000 0.014650 
#    y 0.000000 1.858630 0.000000 
#    z 0.014650 0.000000 1.953530 
# 
# From -- ./inp_files/10910.got.cif
#   From: 2010.05.17/outbox.cif.g08.bks.cpg/sg12_6_cif.got.tgz:10910.got - 2010.06.03 13:09:07.
