data_PCOD9222909
_publ_section_title
;
Structure prediction by ZEFSAII (Michael W. Deem and Ramdas Pophale) SiO2 
 PCOD9222909
Probable space group: C 2/M
;
_chemical_formula_sum "Si O2"
_cell_formula_units_Z 56
_cell_length_a 14.291119
_cell_length_b 7.378619
_cell_length_c 24.176112
_cell_angle_alpha 90.000000
_cell_angle_beta 107.867411
_cell_angle_gamma 90.000000
_cell_volume 2426.383073
_symmetry_space_group_name_H-M "C 2/M"
_symmetry_group_IT_number 12
_symmetry_cell_setting 'monoclinic'
loop_
_space_group_symop_operation_xyz
x,y,z
-x,y,-z
-x,-y,-z
x,-y,z
1/2+x,1/2+y,z
1/2-x,1/2+y,-z
1/2-x,1/2-y,-z
1/2+x,1/2-y,z
loop_
_atom_site_type_symbol
_atom_site_label
_atom_site_fract_x
_atom_site_fract_y
_atom_site_fract_z
Si Si1 0.607385 0.717325 0.004949
Si Si2 0.586457 0.278248 0.776274
Si Si3 0.158961 0.209630 0.671351
Si Si4 0.694944 0.284439 0.905125
Si Si5 0.385868 0.718577 0.696328
Si Si6 0.366047 0.288525 0.453112
Si Si7 0.366129 0.719382 0.571692
O O1 0.601362 0.500000 0.999179
O O2 0.689152 0.755085 0.066085
O O3 0.500000 0.786691 0.000000
O O4 0.646167 0.787529 0.952866
O O5 0.591302 0.500000 0.777123
O O6 0.629487 0.214602 0.725340
O O7 0.646224 0.213867 0.840300
O O8 0.471565 0.227788 0.753708
O O9 0.277468 0.211999 0.689358
O O10 0.120673 0.289535 0.606028
O O11 0.125396 0.000000 0.665242
O O12 0.678940 0.500000 0.901964
O O13 0.379068 0.500000 0.695300
O O14 0.415059 0.772036 0.638587
O O15 0.394119 0.500000 0.454994
O O16 0.405442 0.215857 0.519161
O O17 0.247465 0.278866 0.441237
O O18 0.366542 0.500000 0.569041
#
# Coordination Sequence:
#
# PCOD9222909 Si02
#       7
#     8   8   8   8   8   8   8
#     4   9  18  33  53  76  99 121 149 188 228 263
#     4   9  18  32  48  67  95 128 155 183 226 275
#     4   9  17  30  46  64  89 121 156 192 230 274
#     4   9  18  33  51  71  97 127 155 183 221 271
#     4   9  17  30  47  66  90 121 156 192 231 276
#     4   8  13  22  38  59  82 110 145 187 232 271
#     4   8  13  22  38  60  83 109 145 188 231 272
#
# _framework density 23.079620999999999
#
# number of rings (size 3 to 8) (size 9 to 14) (size 15 to 20)
#    0.000    3.286    0.000    0.000    0.000    1.429 
#    0.000    4.286    0.000    4.286    0.000    0.000 
#    0.000   22.857    0.000    0.000    0.000    0.000 
#
# Total GULP energy -156247.669459 kJ/mol
# GULP energy per Si atom -5580.273909 kJ/mol
# Density = 2.302709 g / cm^3
# Si number density = 23.079621 Si / 1000 Ang^3
#
#
#
# Elastic Constant Matrix: (Units=GPa)
#
#
# Indices 1 2 3 4 5 6 
#
# 1 76.7741 -4.9927 57.4983 0.0000 17.4432 0.0000
# 2 -4.9927 84.9005 7.9249 0.0000 -2.2313 0.0000
# 3 57.4983 7.9249 166.7569 0.0000 33.6383 0.0000
# 4 0.0000 0.0000 0.0000 5.7114 0.0000 3.0229
# 5 17.4432 -2.2313 33.6383 0.0000 27.8872 0.0000
# 6 0.0000 0.0000 0.0000 3.0229 0.0000 -10.5608
#
#
#
# Elastic Compliance Matrix: (Units=1/GPa)
#
#
# Indices 1 2 3 4 5 6 
#
# 1 0.018248 0.001451 -0.005395 0.000000 -0.004791 0.000000
# 2 0.001451 0.012044 -0.001433 0.000000 0.001784 0.000000
# 3 -0.005395 -0.001433 0.009604 0.000000 -0.008325 0.000000
# 4 0.000000 0.000000 0.000000 0.152052 0.000000 0.043523
# 5 -0.004791 0.001784 -0.008325 0.000000 0.049040 0.000000
# 6 0.000000 0.000000 0.000000 0.043523 0.000000 -0.082232
#
#
# Mechanical properties :
#
#
# Convention : Reuss Voigt Hill
#
# Bulk Modulus (GPa) = 34.31207 49.92139 42.11673
# Shear Modulus (GPa) = 27.89795 22.47431 25.18613
#
# Velocity S-wave (km/s) = 3.48051 3.12392 3.30702
# Velocity P-wave (km/s) = 5.57234 5.88972 5.73323
#
# Compressibility (1/GPa) = 0.02914426
#
# Stress axis : x y z
#
# Youngs Moduli (GPa) = 54.79985 83.02605 104.12025
#
# Poissons Ratio (x) = -0.12045 0.56168
# Poissons Ratio (y) = -0.07950 0.14915
# Poissons Ratio (z) = 0.29562 0.11894
#
# Static dielectric constant tensor:
#      x y z
#    x 1.868570 0.000000 -0.001710 
#    y 0.000000 1.381620 0.000000 
#    z -0.001710 0.000000 1.867930 
# 
# From -- ./inp_files/309452.got.cif
#   From: 2010.05.17/outbox.cif.g08.bks.cpg/sg12_155_cif.got.tgz:309452.got - 2010.06.03 13:09:07.
