data_PCOD9222743
_publ_section_title
;
Structure prediction by ZEFSAII (Michael W. Deem and Ramdas Pophale) SiO2 
 PCOD9222743
Probable space group: C 2/M
;
_chemical_formula_sum "Si O2"
_cell_formula_units_Z 64
_cell_length_a 16.344832
_cell_length_b 8.899379
_cell_length_c 19.398834
_cell_angle_alpha 90.000000
_cell_angle_beta 90.022403
_cell_angle_gamma 90.000000
_cell_volume 2821.731960
_symmetry_space_group_name_H-M "C 2/M"
_symmetry_group_IT_number 12
_symmetry_cell_setting 'monoclinic'
loop_
_space_group_symop_operation_xyz
x,y,z
-x,y,-z
-x,-y,-z
x,-y,z
1/2+x,1/2+y,z
1/2-x,1/2+y,-z
1/2-x,1/2-y,-z
1/2+x,1/2-y,z
loop_
_atom_site_type_symbol
_atom_site_label
_atom_site_fract_x
_atom_site_fract_y
_atom_site_fract_z
Si Si1 0.586521 0.324318 0.659881
Si Si2 0.824170 0.820144 0.712757
Si Si3 0.914162 0.175994 0.577985
Si Si4 0.326805 0.823570 0.461365
Si Si5 0.329629 0.180798 0.962393
Si Si6 0.923539 0.178405 0.079395
Si Si7 0.010277 0.183594 0.209554
Si Si8 0.741005 0.322936 0.830118
O O1 0.609584 0.500000 0.664130
O O2 0.500766 0.315699 0.616905
O O3 0.652360 0.237459 0.614461
O O4 0.560415 0.271057 0.736041
O O5 0.845559 0.778722 0.634570
O O6 0.750138 0.755397 0.756780
O O7 0.904796 0.771425 0.755972
O O8 0.820097 0.000000 0.713619
O O9 0.901797 0.276633 0.511359
O O10 0.902540 0.000000 0.558737
O O11 0.250000 0.750000 0.500000
O O12 0.315460 0.000000 0.458180
O O13 0.312806 0.226359 0.883429
O O14 0.327515 0.000000 0.966013
O O15 0.250000 0.250000 0.000000
O O16 0.405031 0.242664 0.007014
O O17 0.993388 0.234549 0.131677
O O18 0.842625 0.199162 0.127518
O O19 0.932908 0.000000 0.066782
O O20 0.008500 0.000000 0.208368
O O21 0.748869 0.500000 0.818494
#
# Coordination Sequence:
#
# PCOD9222743 Si02
#       8
#     8   8   8   8   8   8   8   8
#     4   9  18  36  60  80 104 140 174 207 253 307
#     4   9  18  33  54  77 101 132 169 206 243 294
#     4   9  19  37  58  79 105 138 174 210 253 306
#     4  12  25  38  54  79 109 137 171 215 259 303
#     4   9  17  30  47  69  97 130 169 207 249 300
#     4   9  17  31  51  73  98 129 168 210 249 295
#     4   8  16  33  55  77 101 132 169 205 246 297
#     4   9  18  30  46  71 101 132 166 209 257 298
#
# _framework density 22.681106
#
# number of rings (size 3 to 8) (size 9 to 14) (size 15 to 20)
#    0.000    2.750    0.000    4.125    0.000    6.000 
#    0.000    5.000    0.000    3.750    0.000    0.000 
#    0.000    0.000    0.000    0.000    0.000    0.000 
#
# Total GULP energy -178723.475881 kJ/mol
# GULP energy per Si atom -5585.108621 kJ/mol
# Density = 2.262948 g / cm^3
# Si number density = 22.681106 Si / 1000 Ang^3
#
#
#
# Elastic Constant Matrix: (Units=GPa)
#
#
# Indices 1 2 3 4 5 6 
#
# 1 60.5102 3.2809 13.5527 0.0000 -3.6203 0.0000
# 2 3.2809 33.2071 25.6500 0.0000 -6.5037 0.0000
# 3 13.5527 25.6500 128.8680 0.0000 -10.0304 0.0000
# 4 0.0000 0.0000 0.0000 29.9523 0.0000 -1.3235
# 5 -3.6203 -6.5037 -10.0304 0.0000 45.1580 0.0000
# 6 0.0000 0.0000 0.0000 -1.3235 0.0000 3.6039
#
#
#
# Elastic Compliance Matrix: (Units=1/GPa)
#
#
# Indices 1 2 3 4 5 6 
#
# 1 0.016968 -0.000198 -0.001670 0.000000 0.000961 0.000000
# 2 -0.000198 0.036177 -0.006895 0.000000 0.003663 0.000000
# 3 -0.001670 -0.006895 0.009382 0.000000 0.000957 0.000000
# 4 0.000000 0.000000 0.000000 0.033937 0.000000 0.012463
# 5 0.000961 0.003663 0.000957 0.000000 0.022962 0.000000
# 6 0.000000 0.000000 0.000000 0.012463 0.000000 0.282052
#
#
# Mechanical properties :
#
#
# Convention : Reuss Voigt Hill
#
# Bulk Modulus (GPa) = 22.22161 34.17249 28.19705
# Shear Modulus (GPa) = 11.52060 27.74964 19.63512
#
# Velocity S-wave (km/s) = 2.25619 3.50161 2.94548
# Velocity P-wave (km/s) = 4.07503 5.60781 4.90171
#
# Compressibility (1/GPa) = 0.04500123
#
# Stress axis : x y z
#
# Youngs Moduli (GPa) = 58.93277 27.64214 106.58293
#
# Poissons Ratio (x) = 0.00548 0.17803
# Poissons Ratio (y) = 0.01168 0.73486
# Poissons Ratio (z) = 0.09844 0.19058
#
# Static dielectric constant tensor:
#      x y z
#    x 1.977590 0.000000 0.034720 
#    y 0.000000 1.753480 0.000000 
#    z 0.034720 0.000000 1.852750 
# 
# From -- ./inp_files/314045.got.cif
#   From: 2010.05.17/outbox.cif.g08.bks.cpg/sg12_158_cif.got.tgz:314045.got - 2010.06.03 13:09:07.
