data_PCOD9222613
_publ_section_title
;
Structure prediction by ZEFSAII (Michael W. Deem and Ramdas Pophale) SiO2 
 PCOD9222613
Probable space group: C 2/M
;
_chemical_formula_sum "Si O2"
_cell_formula_units_Z 56
_cell_length_a 19.588277
_cell_length_b 8.832171
_cell_length_c 21.866960
_cell_angle_alpha 90.000000
_cell_angle_beta 57.694784
_cell_angle_gamma 90.000000
_cell_volume 3197.557619
_symmetry_space_group_name_H-M "C 2/M"
_symmetry_group_IT_number 12
_symmetry_cell_setting 'monoclinic'
loop_
_space_group_symop_operation_xyz
x,y,z
-x,y,-z
-x,-y,-z
x,-y,z
1/2+x,1/2+y,z
1/2-x,1/2+y,-z
1/2-x,1/2-y,-z
1/2+x,1/2-y,z
loop_
_atom_site_type_symbol
_atom_site_label
_atom_site_fract_x
_atom_site_fract_y
_atom_site_fract_z
Si Si1 0.218542 0.678481 0.078337
Si Si2 0.670315 0.816401 0.506461
Si Si3 0.411694 0.176302 0.574680
Si Si4 0.951594 0.820816 0.801950
Si Si5 0.867293 0.320874 0.059768
Si Si6 0.006442 0.678787 0.894669
Si Si7 0.501355 0.816523 0.349761
O O1 0.208042 0.500000 0.075885
O O2 0.135561 0.752533 0.139292
O O3 0.288745 0.719534 0.092408
O O4 0.250000 0.750000 0.000000
O O5 0.750000 0.750000 0.500000
O O6 0.651097 0.762190 0.445741
O O7 0.588767 0.778305 0.583336
O O8 0.676160 0.000000 0.502262
O O9 0.500000 0.178062 0.500000
O O10 0.432210 0.239717 0.631985
O O11 0.389617 0.000000 0.593797
O O12 0.006709 0.773750 0.833107
O O13 0.982049 0.749539 0.724421
O O14 0.946609 0.000000 0.798972
O O15 0.847036 0.500000 0.065357
O O16 0.917989 0.296620 0.096986
O O17 0.927764 0.287074 0.974181
O O18 0.002531 0.500000 0.881696
O O19 0.506054 0.000000 0.346159
#
# Coordination Sequence:
#
# PCOD9222613 Si02
#       7
#     8   8   8   8   8   8   8
#     4  12  23  36  55  79 106 138 179 226 272 321
#     4   9  17  31  55  85 111 137 173 216 262 315
#     4   7  12  27  52  77 100 132 176 215 247 299
#     4  12  24  36  53  79 110 144 183 228 273 322
#     4   9  18  34  56  80 103 131 173 223 274 324
#     4   9  18  34  56  78 104 138 173 218 274 327
#     4   9  18  35  56  76 103 143 183 219 265 317
#
# _framework density 17.513366999999999
#
# number of rings (size 3 to 8) (size 9 to 14) (size 15 to 20)
#    0.000    2.429    1.429    5.143    0.000    1.143 
#    0.000    3.571    0.000    6.000    0.000    0.000 
#    0.000    0.000    0.000    0.000    0.000    0.000 
#
# Total GULP energy -156077.087502 kJ/mol
# GULP energy per Si atom -5574.181696 kJ/mol
# Density = 1.747351 g / cm^3
# Si number density = 17.513367 Si / 1000 Ang^3
#
#
#
# Elastic Constant Matrix: (Units=GPa)
#
#
# Indices 1 2 3 4 5 6 
#
# 1 122.9209 43.2013 50.5306 0.0000 17.5866 0.0000
# 2 43.2013 49.7526 43.6131 -0.0001 9.8523 0.0000
# 3 50.5306 43.6131 97.9424 0.0000 24.6364 0.0000
# 4 0.0000 -0.0001 0.0000 17.0061 0.0000 -0.0991
# 5 17.5866 9.8523 24.6364 0.0000 24.4595 0.0000
# 6 0.0000 0.0000 0.0000 -0.0991 0.0000 31.0515
#
#
#
# Elastic Compliance Matrix: (Units=1/GPa)
#
#
# Indices 1 2 3 4 5 6 
#
# 1 0.012349 -0.008569 -0.001594 0.000000 -0.003822 0.000000
# 2 -0.008569 0.038989 -0.014117 0.000000 0.004675 0.000000
# 3 -0.001594 -0.014117 0.020894 0.000000 -0.014212 0.000000
# 4 0.000000 0.000000 0.000000 0.058804 0.000000 0.000188
# 5 -0.003822 0.004675 -0.014212 0.000000 0.056064 0.000000
# 6 0.000000 0.000000 0.000000 0.000188 0.000000 0.032205
#
#
# Mechanical properties :
#
#
# Convention : Reuss Voigt Hill
#
# Bulk Modulus (GPa) = 42.24343 60.58954 51.41649
# Shear Modulus (GPa) = 18.13217 23.38815 20.76016
#
# Velocity S-wave (km/s) = 3.22115 3.65834 3.44668
# Velocity P-wave (km/s) = 6.16502 7.24678 6.72768
#
# Compressibility (1/GPa) = 0.02367232
#
# Stress axis : x y z
#
# Youngs Moduli (GPa) = 80.97873 25.64857 47.86165
#
# Poissons Ratio (x) = 0.21977 0.07630
# Poissons Ratio (y) = 0.69387 0.67564
# Poissons Ratio (z) = 0.12910 0.36207
#
# Static dielectric constant tensor:
#      x y z
#    x 1.638200 0.000000 0.026020 
#    y 0.000000 1.586460 0.000000 
#    z 0.026020 0.000000 1.580700 
# 
# From -- ./inp_files/313804.got.cif
#   From: 2010.05.17/outbox.cif.g08.bks.cpg/sg12_157_cif.got.tgz:313804.got - 2010.06.03 13:09:07.
