data_PCOD9222682
_publ_section_title
;
Structure prediction by ZEFSAII (Michael W. Deem and Ramdas Pophale) SiO2 
 PCOD9222682
Probable space group: C 2/M
;
_chemical_formula_sum "Si O2"
_cell_formula_units_Z 30
_cell_length_a 7.612183
_cell_length_b 30.410805
_cell_length_c 5.280249
_cell_angle_alpha 90.000000
_cell_angle_beta 79.090775
_cell_angle_gamma 90.000000
_cell_volume 1200.248844
_symmetry_space_group_name_H-M "C 2/M"
_symmetry_group_IT_number 12
_symmetry_cell_setting 'monoclinic'
loop_
_space_group_symop_operation_xyz
x,y,z
-x,y,-z
-x,-y,-z
x,-y,z
1/2+x,1/2+y,z
1/2-x,1/2+y,-z
1/2-x,1/2-y,-z
1/2+x,1/2-y,z
loop_
_atom_site_type_symbol
_atom_site_label
_atom_site_fract_x
_atom_site_fract_y
_atom_site_fract_z
Si Si1 0.500000 0.207352 0.500000
Si Si2 0.500000 0.500000 0.000000
Si Si3 0.294732 0.931454 0.070010
Si Si4 0.000000 0.099358 0.500000
Si Si5 0.500000 0.734637 0.000000
Si Si6 0.289118 0.655182 0.179299
O O1 0.518654 0.237446 0.741968
O O2 0.666023 0.174746 0.432166
O O3 0.341856 0.461910 0.048884
O O4 0.177712 0.927734 0.365062
O O5 0.500000 0.947799 0.000000
O O6 0.304829 0.882361 0.955284
O O7 0.949740 0.130492 0.279335
O O8 0.339359 0.699482 0.016810
#
# Coordination Sequence:
#
# PCOD9222682 Si02
#       6
#     4   2   8   4   4   8
#     4  12  29  42  74 112 158 217 285 334 406 479
#     4  12  24  58  74 130 156 188 264 342 400 490
#     4  12  27  50  84 113 160 209 259 328 411 497
#     4  12  23  49  80 107 154 218 265 326 398 494
#     4  12  25  46  72 113 160 215 270 356 395 458
#     4  12  25  48  72 107 160 209 269 329 405 477
#
# _framework density 24.994816
#
# number of rings (size 3 to 8) (size 9 to 14) (size 15 to 20)
#    0.000    0.000    5.333    4.400    5.600    0.533 
#    0.000    1.333    0.000    0.000    0.000    0.000 
#    0.000    0.000    0.000    0.000    0.000    0.000 
#
# Total GULP energy -83604.064878 kJ/mol
# GULP energy per Si atom -5573.604325 kJ/mol
# Density = 2.493793 g / cm^3
# Si number density = 24.994816 Si / 1000 Ang^3
#
#
#
# Elastic Constant Matrix: (Units=GPa)
#
#
# Indices 1 2 3 4 5 6 
#
# 1 187.9778 52.2717 41.2433 0.0000 -36.8851 0.0000
# 2 52.2717 150.3108 55.6887 0.0000 -14.2393 0.0000
# 3 41.2433 55.6887 133.1943 0.0000 -10.6948 0.0000
# 4 0.0000 0.0000 0.0000 -293.4243 0.0000 -129.5051
# 5 -36.8851 -14.2393 -10.6948 0.0000 43.7182 0.0000
# 6 0.0000 0.0000 0.0000 -129.5051 0.0000 -37.5337
#
#
#
# Elastic Compliance Matrix: (Units=1/GPa)
#
#
# Indices 1 2 3 4 5 6 
#
# 1 0.006998 -0.001535 -0.001113 0.000000 0.005132 0.000000
# 2 -0.001535 0.008349 -0.002959 0.000000 0.000700 0.000000
# 3 -0.001113 -0.002959 0.009116 0.000000 0.000327 0.000000
# 4 0.000000 0.000000 0.000000 0.006518 0.000000 -0.022490
# 5 0.005132 0.000700 0.000327 0.000000 0.027512 0.000000
# 6 0.000000 0.000000 0.000000 -0.022490 0.000000 0.050957
#
#
# Mechanical properties :
#
#
# Convention : Reuss Voigt Hill
#
# Bulk Modulus (GPa) = 75.48010 85.54336 80.51173
# Shear Modulus (GPa) = 39.97401 -35.96268 2.00566
#
# Velocity S-wave (km/s) = 4.00345 -3.79727 0.89676
# Velocity P-wave (km/s) = 7.18568 3.88240 5.77525
#
# Compressibility (1/GPa) = 0.01324853
#
# Stress axis : x y z
#
# Youngs Moduli (GPa) = 142.90219 119.76809 109.69668
#
# Poissons Ratio (x) = 0.18385 0.12209
# Poissons Ratio (y) = 0.21936 0.32463
# Poissons Ratio (z) = 0.15905 0.35444
#
# Static dielectric constant tensor:
#      x y z
#    x 2.107480 0.000000 -0.105200 
#    y 0.000000 1.899910 0.000000 
#    z -0.105200 0.000000 2.080680 
# 
# From -- ./inp_files/3805.got.cif
#   From: 2010.05.17/outbox.cif.g08.bks.cpg/sg12_2_cif.got.tgz:3805.got - 2010.06.03 13:09:07.
