data_PCOD9222030
_publ_section_title
;
Structure prediction by ZEFSAII (Michael W. Deem and Ramdas Pophale) SiO2 
 PCOD9222030
Probable space group: C 2/M
;
_chemical_formula_sum "Si O2"
_cell_formula_units_Z 42
_cell_length_a 24.417015
_cell_length_b 7.472681
_cell_length_c 12.137932
_cell_angle_alpha 90.000000
_cell_angle_beta 63.332314
_cell_angle_gamma 90.000000
_cell_volume 1979.105091
_symmetry_space_group_name_H-M "C 2/M"
_symmetry_group_IT_number 12
_symmetry_cell_setting 'monoclinic'
loop_
_space_group_symop_operation_xyz
x,y,z
-x,y,-z
-x,-y,-z
x,-y,z
1/2+x,1/2+y,z
1/2-x,1/2+y,-z
1/2-x,1/2-y,-z
1/2+x,1/2-y,z
loop_
_atom_site_type_symbol
_atom_site_label
_atom_site_fract_x
_atom_site_fract_y
_atom_site_fract_z
Si Si1 0.771952 0.211987 0.305795
Si Si2 0.556523 0.205985 0.115245
Si Si3 0.195087 0.213405 0.965739
Si Si4 0.000000 0.000000 0.000000
Si Si5 0.344546 0.784317 0.451979
Si Si6 0.020927 0.717694 0.601193
O O1 0.787116 0.283373 0.171912
O O2 0.710699 0.283742 0.420488
O O3 0.826918 0.237334 0.342867
O O4 0.762227 0.000000 0.301973
O O5 0.525000 0.262924 0.258684
O O6 0.537493 0.000000 0.109346
O O7 0.629871 0.210022 0.060424
O O8 0.535228 0.342717 0.040987
O O9 0.186985 0.000000 0.965513
O O10 0.250000 0.250000 0.000000
O O11 0.410896 0.720170 0.428908
O O12 0.344543 0.000000 0.458136
O O13 0.022747 0.500000 0.594889
O O14 0.000000 0.780461 0.500000
#
# Coordination Sequence:
#
# PCOD9222030 Si02
#       6
#     8   8   8   2   8   8
#     4   9  20  36  59  86 119 161 208 263 323 374
#     4  11  25  44  70 103 134 181 227 278 348 403
#     4  11  24  42  64  94 134 177 224 278 330 402
#     4  12  26  48  70  98 148 172 230 290 328 416
#     4   9  18  35  59  88 117 155 207 260 318 384
#     4   9  20  38  65  93 125 167 217 273 332 399
#
# _framework density 21.221710999999999
#
# number of rings (size 3 to 8) (size 9 to 14) (size 15 to 20)
#    0.000    2.095    0.952    0.857    5.333    1.524 
#    0.000    0.476    0.000    0.000    0.000    0.000 
#    0.000    0.000    0.000    0.000    0.000    0.000 
#
# Total GULP energy -117082.335250 kJ/mol
# GULP energy per Si atom -5575.349298 kJ/mol
# Density = 2.117341 g / cm^3
# Si number density = 21.221711 Si / 1000 Ang^3
#
#
#
# Elastic Constant Matrix: (Units=GPa)
#
#
# Indices 1 2 3 4 5 6 
#
# 1 187.0918 5.6185 120.5881 0.0000 13.3529 0.0000
# 2 5.6185 97.4910 12.1805 0.0000 1.4028 0.0000
# 3 120.5881 12.1805 108.6683 0.0000 -0.0779 0.0000
# 4 0.0000 0.0000 0.0000 9.4017 0.0000 3.7034
# 5 13.3529 1.4028 -0.0779 0.0000 17.6295 0.0000
# 6 0.0000 0.0000 0.0000 3.7034 0.0000 30.9063
#
#
#
# Elastic Compliance Matrix: (Units=1/GPa)
#
#
# Indices 1 2 3 4 5 6 
#
# 1 0.023701 0.002215 -0.026562 0.000000 -0.018245 0.000000
# 2 0.002215 0.010622 -0.003651 0.000000 -0.002539 0.000000
# 3 -0.026562 -0.003651 0.039102 0.000000 0.020582 0.000000
# 4 0.000000 0.000000 0.000000 0.111633 0.000000 -0.013377
# 5 -0.018245 -0.002539 0.020582 0.000000 0.070836 0.000000
# 6 0.000000 0.000000 0.000000 -0.013377 0.000000 0.033959
#
#
# Mechanical properties :
#
#
# Convention : Reuss Voigt Hill
#
# Bulk Modulus (GPa) = 57.37186 74.44725 65.90956
# Shear Modulus (GPa) = 14.21836 28.57843 21.39840
#
# Velocity S-wave (km/s) = 2.59123 3.67367 3.17886
# Velocity P-wave (km/s) = 6.00382 7.29049 6.67822
#
# Compressibility (1/GPa) = 0.01743015
#
# Stress axis : x y z
#
# Youngs Moduli (GPa) = 42.19245 94.14112 25.57421
#
# Poissons Ratio (x) = -0.20855 0.67930
# Poissons Ratio (y) = -0.09347 0.09337
# Poissons Ratio (z) = 1.12072 0.34369
#
# Static dielectric constant tensor:
#      x y z
#    x 1.713110 0.000000 -0.025660 
#    y 0.000000 1.790440 0.000000 
#    z -0.025660 0.000000 1.735580 
# 
# From -- ./inp_files/163029.got.cif
#   From: 2010.05.17/outbox.cif.g08.bks.cpg/sg12_82_cif.got.tgz:163029.got - 2010.06.03 13:09:07.
