data_PCOD9222409
_publ_section_title
;
Structure prediction by ZEFSAII (Michael W. Deem and Ramdas Pophale) SiO2 
 PCOD9222409
Probable space group: C 2/M
;
_chemical_formula_sum "Si O2"
_cell_formula_units_Z 42
_cell_length_a 10.318507
_cell_length_b 24.695909
_cell_length_c 9.209198
_cell_angle_alpha 90.000000
_cell_angle_beta 122.363541
_cell_angle_gamma 90.000000
_cell_volume 1982.211995
_symmetry_space_group_name_H-M "C 2/M"
_symmetry_group_IT_number 12
_symmetry_cell_setting 'monoclinic'
loop_
_space_group_symop_operation_xyz
x,y,z
-x,y,-z
-x,-y,-z
x,-y,z
1/2+x,1/2+y,z
1/2-x,1/2+y,-z
1/2-x,1/2-y,-z
1/2+x,1/2-y,z
loop_
_atom_site_type_symbol
_atom_site_label
_atom_site_fract_x
_atom_site_fract_y
_atom_site_fract_z
Si Si1 0.427717 0.262035 0.612799
Si Si2 0.038180 0.885155 0.349732
Si Si3 0.235790 0.411401 0.007859
Si Si4 0.177539 0.565176 0.635646
Si Si5 0.885482 0.292084 0.056988
Si Si6 0.000000 0.500000 0.000000
O O1 0.500000 0.266176 0.500000
O O2 0.250000 0.250000 0.500000
O O3 0.457363 0.321833 0.696145
O O4 0.510384 0.212257 0.739376
O O5 0.000000 0.888545 0.500000
O O6 0.203549 0.909750 0.408339
O O7 0.905310 0.915361 0.178983
O O8 0.229353 0.418637 0.829668
O O9 0.178984 0.350967 0.010878
O O10 0.118279 0.453257 0.008243
O O11 0.184033 0.500000 0.628425
O O12 0.000000 0.581179 0.500000
O O13 0.750000 0.250000 0.000000
O O14 0.000000 0.273842 0.000000
#
# Coordination Sequence:
#
# PCOD9222409 Si02
#       6
#     8   8   8   8   8   2
#     4  11  26  44  69 105 145 187 237 297 370 443
#     4  11  28  47  74 108 148 193 243 306 371 445
#     4  12  27  48  76 105 153 195 253 307 371 442
#     4  11  28  49  75 108 143 191 247 304 371 435
#     4  12  26  44  71 106 143 191 238 302 371 442
#     4  12  28  48  78 112 144 206 258 306 372 440
#
# _framework density 21.188451000000001
#
# number of rings (size 3 to 8) (size 9 to 14) (size 15 to 20)
#    0.000    0.571    3.810    1.714   14.667    1.143 
#    0.000    0.000    0.000    0.000    0.000    0.000 
#    0.000    0.000    0.000    0.000    0.000    0.000 
#
# Total GULP energy -117171.124084 kJ/mol
# GULP energy per Si atom -5579.577337 kJ/mol
# Density = 2.114023 g / cm^3
# Si number density = 21.188451 Si / 1000 Ang^3
#
#
#
# Elastic Constant Matrix: (Units=GPa)
#
#
# Indices 1 2 3 4 5 6 
#
# 1 187.8056 67.1909 44.3107 0.0000 15.7455 0.0000
# 2 67.1909 100.4928 12.9893 0.0000 5.2311 0.0000
# 3 44.3107 12.9893 92.4979 0.0000 17.5536 0.0000
# 4 0.0000 0.0000 0.0000 8.9486 0.0000 -7.1224
# 5 15.7455 5.2311 17.5536 0.0000 28.8913 0.0000
# 6 0.0000 0.0000 0.0000 -7.1224 0.0000 54.2723
#
#
#
# Elastic Compliance Matrix: (Units=1/GPa)
#
#
# Indices 1 2 3 4 5 6 
#
# 1 0.007833 -0.004792 -0.002751 0.000000 -0.001730 0.000000
# 2 -0.004792 0.013097 0.000464 0.000000 -0.000042 0.000000
# 3 -0.002751 0.000464 0.013333 0.000000 -0.006685 0.000000
# 4 0.000000 0.000000 0.000000 0.124784 0.000000 0.016376
# 5 -0.001730 -0.000042 -0.006685 0.000000 0.039624 0.000000
# 6 0.000000 0.000000 0.000000 0.016376 0.000000 0.020575
#
#
# Mechanical properties :
#
#
# Convention : Reuss Voigt Hill
#
# Bulk Modulus (GPa) = 49.73859 69.97532 59.85696
# Shear Modulus (GPa) = 20.82428 35.50947 28.16687
#
# Velocity S-wave (km/s) = 3.13839 4.09820 3.64998
# Velocity P-wave (km/s) = 6.05458 7.44920 6.78780
#
# Compressibility (1/GPa) = 0.02010511
#
# Stress axis : x y z
#
# Youngs Moduli (GPa) = 127.66306 76.35380 75.00466
#
# Poissons Ratio (x) = 0.36586 0.20636
# Poissons Ratio (y) = 0.61172 -0.03482
# Poissons Ratio (z) = 0.35124 -0.03545
#
# Static dielectric constant tensor:
#      x y z
#    x 1.709890 0.000000 0.029620 
#    y 0.000000 1.752200 0.000000 
#    z 0.029620 0.000000 1.891520 
# 
# From -- ./inp_files/42369.got.cif
#   From: 2010.05.17/outbox.cif.g08.bks.cpg/sg12_22_cif.got.tgz:42369.got - 2010.06.03 13:09:07.
