data_PCOD9222716
_publ_section_title
;
Structure prediction by ZEFSAII (Michael W. Deem and Ramdas Pophale) SiO2 
 PCOD9222716
Probable space group: C 2/M
;
_chemical_formula_sum "Si O2"
_cell_formula_units_Z 32
_cell_length_a 8.892465
_cell_length_b 5.246446
_cell_length_c 34.595183
_cell_angle_alpha 90.000000
_cell_angle_beta 74.926336
_cell_angle_gamma 90.000000
_cell_volume 1558.464034
_symmetry_space_group_name_H-M "C 2/M"
_symmetry_group_IT_number 12
_symmetry_cell_setting 'monoclinic'
loop_
_space_group_symop_operation_xyz
x,y,z
-x,y,-z
-x,-y,-z
x,-y,z
1/2+x,1/2+y,z
1/2-x,1/2+y,-z
1/2-x,1/2-y,-z
1/2+x,1/2-y,z
loop_
_atom_site_type_symbol
_atom_site_label
_atom_site_fract_x
_atom_site_fract_y
_atom_site_fract_z
Si Si1 0.155322 0.000000 0.232845
Si Si2 0.142335 0.000000 0.141094
Si Si3 0.208842 0.000000 0.736665
Si Si4 0.810929 0.500000 0.642683
Si Si5 0.823178 0.500000 0.388624
Si Si6 0.684786 0.500000 0.483544
Si Si7 0.848310 0.500000 0.983621
Si Si8 0.493954 0.000000 0.889250
O O1 0.242005 0.249692 0.242900
O O2 0.149834 0.000000 0.186890
O O3 0.975928 0.000000 0.258516
O O4 0.054451 0.750578 0.131368
O O5 0.321525 0.000000 0.115079
O O6 0.296399 0.000000 0.689875
O O7 0.728471 0.250061 0.631246
O O8 0.991338 0.500000 0.618631
O O9 0.738761 0.500000 0.435590
O O10 0.500000 0.500000 0.500000
O O11 0.750000 0.250000 0.500000
O O12 0.900754 0.500000 0.935627
O O13 0.750000 0.750000 0.000000
O O14 0.000000 0.500000 0.000000
#
# Coordination Sequence:
#
# PCOD9222716 Si02
#       8
#     4   4   4   4   4   4   4   4
#     4  12  24  43  65  94 126 165 207 256 308 367
#     4  12  25  43  66  94 127 165 208 256 309 367
#     4  12  24  42  66  94 127 165 208 256 309 372
#     4  12  24  42  64  94 126 165 207 256 313 372
#     4  12  24  42  64  92 127 165 208 260 313 372
#     4  12  24  42  64  92 124 165 211 260 313 372
#     4  12  25  43  66  94 127 165 208 256 309 367
#     4  12  24  43  65  94 126 165 207 256 308 367
#
# _framework density 20.533038000000001
#
# number of rings (size 3 to 8) (size 9 to 14) (size 15 to 20)
#    0.000    0.000    0.000   12.000    0.000    0.000 
#    0.000    0.000    0.000    0.000    0.000    0.000 
#    0.000    0.000    0.000    0.000    0.000    0.000 
#
# Total GULP energy -89714.891258 kJ/mol
# GULP energy per Si atom -5607.180704 kJ/mol
# Density = 2.048630 g / cm^3
# Si number density = 20.533038 Si / 1000 Ang^3
#
#
#
# Elastic Constant Matrix: (Units=GPa)
#
#
# Indices 1 2 3 4 5 6 
#
# 1 107.3928 37.3291 -52.7275 0.0000 2.9413 0.0000
# 2 37.3291 206.7351 14.4517 0.0000 31.7952 0.0000
# 3 -52.7275 14.4517 86.8617 0.0000 3.2566 0.0000
# 4 0.0000 0.0000 0.0000 26.7266 0.0000 -2.2964
# 5 2.9413 31.7952 3.2566 0.0000 42.7422 0.0000
# 6 0.0000 0.0000 0.0000 -2.2964 0.0000 12.8154
#
#
#
# Elastic Compliance Matrix: (Units=1/GPa)
#
#
# Indices 1 2 3 4 5 6 
#
# 1 0.015417 -0.003611 0.009927 0.000000 0.000869 0.000000
# 2 -0.003611 0.006358 -0.003091 0.000000 -0.004246 0.000000
# 3 0.009927 -0.003091 0.018044 0.000000 0.000241 0.000000
# 4 0.000000 0.000000 0.000000 0.038001 0.000000 0.006809
# 5 0.000869 -0.004246 0.000241 0.000000 0.026476 0.000000
# 6 0.000000 0.000000 0.000000 0.006809 0.000000 0.079251
#
#
# Mechanical properties :
#
#
# Convention : Reuss Voigt Hill
#
# Bulk Modulus (GPa) = 21.61327 44.34402 32.97864
# Shear Modulus (GPa) = 25.97124 43.25260 34.61192
#
# Velocity S-wave (km/s) = 3.56033 4.59463 4.11014
# Velocity P-wave (km/s) = 5.23930 7.05626 6.21454
#
# Compressibility (1/GPa) = 0.04626787
#
# Stress axis : x y z
#
# Youngs Moduli (GPa) = 64.86377 157.27613 55.42130
#
# Poissons Ratio (x) = 0.56798 -0.55016
# Poissons Ratio (y) = 0.23425 0.17130
# Poissons Ratio (z) = -0.64389 0.48612
#
# Static dielectric constant tensor:
#      x y z
#    x 1.697060 0.000000 -0.018350 
#    y 0.000000 1.673470 0.000000 
#    z -0.018350 0.000000 1.703590 
# 
# From -- ./inp_files/371761.got.cif
#   From: 2010.05.17/outbox.cif.g08.bks.cpg/sg12_186_cif.got.tgz:371761.got - 2010.06.03 13:09:07.
