data_PCOD9222264
_publ_section_title
;
Structure prediction by ZEFSAII (Michael W. Deem and Ramdas Pophale) SiO2 
 PCOD9222264
Probable space group: C 2/M
;
_chemical_formula_sum "Si O2"
_cell_formula_units_Z 48
_cell_length_a 8.825379
_cell_length_b 30.623429
_cell_length_c 8.188717
_cell_angle_alpha 90.000000
_cell_angle_beta 89.029697
_cell_angle_gamma 90.000000
_cell_volume 2212.792884
_symmetry_space_group_name_H-M "C 2/M"
_symmetry_group_IT_number 12
_symmetry_cell_setting 'monoclinic'
loop_
_space_group_symop_operation_xyz
x,y,z
-x,y,-z
-x,-y,-z
x,-y,z
1/2+x,1/2+y,z
1/2-x,1/2+y,-z
1/2-x,1/2-y,-z
1/2+x,1/2-y,z
loop_
_atom_site_type_symbol
_atom_site_label
_atom_site_fract_x
_atom_site_fract_y
_atom_site_fract_z
Si Si1 0.253975 0.216727 0.850280
Si Si2 0.389778 0.049617 0.250427
Si Si3 0.430971 0.213694 0.323038
Si Si4 0.227475 0.450380 0.119526
Si Si5 0.394029 0.632107 0.245368
Si Si6 0.773996 0.868185 0.613906
O O1 0.428001 0.209177 0.801506
O O2 0.167114 0.243551 0.711370
O O3 0.164631 0.171359 0.868031
O O4 0.250000 0.250000 0.000000
O O5 0.569161 0.056428 0.219400
O O6 0.313824 0.086408 0.360947
O O7 0.366676 0.000000 0.310969
O O8 0.315795 0.052777 0.070869
O O9 0.500000 0.217176 0.500000
O O10 0.327849 0.171071 0.318748
O O11 0.279900 0.500000 0.149831
O O12 0.344739 0.413766 0.170070
O O13 0.570217 0.632244 0.287350
O O14 0.310347 0.638359 0.422035
#
# Coordination Sequence:
#
# PCOD9222264 Si02
#       6
#     8   8   8   8   8   8
#     4  12  27  45  69 100 134 174 224 285 341 403
#     4   9  20  40  67  99 133 174 225 275 339 405
#     4  12  25  46  71  96 132 177 226 276 344 410
#     4   9  20  41  68  97 134 176 219 279 340 402
#     4  11  25  44  64  97 138 177 227 274 341 400
#     4  11  25  42  67  96 133 182 223 279 334 405
#
# _framework density 21.692042000000001
#
# number of rings (size 3 to 8) (size 9 to 14) (size 15 to 20)
#    0.000    1.333    1.667    4.000    4.667    2.000 
#    0.000    5.000    0.000    0.000    0.000    0.000 
#    0.000    0.000    0.000    0.000    0.000    0.000 
#
# Total GULP energy -134422.376829 kJ/mol
# GULP energy per Si atom -5600.932368 kJ/mol
# Density = 2.164267 g / cm^3
# Si number density = 21.692042 Si / 1000 Ang^3
#
#
#
# Elastic Constant Matrix: (Units=GPa)
#
#
# Indices 1 2 3 4 5 6 
#
# 1 77.2729 61.7284 34.0387 0.0000 14.2762 0.0000
# 2 61.7284 151.7460 42.2991 0.0000 14.6573 0.0000
# 3 34.0387 42.2991 55.6452 0.0000 4.2806 0.0000
# 4 0.0000 0.0000 0.0000 29.9494 0.0000 2.3058
# 5 14.2762 14.6573 4.2806 0.0000 28.1410 0.0000
# 6 0.0000 0.0000 0.0000 2.3058 0.0000 43.9654
#
#
#
# Elastic Compliance Matrix: (Units=1/GPa)
#
#
# Indices 1 2 3 4 5 6 
#
# 1 0.023168 -0.006265 -0.008861 0.000000 -0.007143 0.000000
# 2 -0.006265 0.010396 -0.003944 0.000000 -0.001637 0.000000
# 3 -0.008861 -0.003944 0.026192 0.000000 0.002565 0.000000
# 4 0.000000 0.000000 0.000000 0.033525 0.000000 -0.001758
# 5 -0.007143 -0.001637 0.002565 0.000000 0.039621 0.000000
# 6 0.000000 0.000000 0.000000 -0.001758 0.000000 0.022837
#
#
# Mechanical properties :
#
#
# Convention : Reuss Voigt Hill
#
# Bulk Modulus (GPa) = 46.26029 62.31072 54.28550
# Shear Modulus (GPa) = 24.86505 30.18436 27.52470
#
# Velocity S-wave (km/s) = 3.38934 3.73432 3.56601
# Velocity P-wave (km/s) = 6.05715 6.88339 6.48345
#
# Compressibility (1/GPa) = 0.02161681
#
# Stress axis : x y z
#
# Youngs Moduli (GPa) = 43.16216 96.19082 38.17935
#
# Poissons Ratio (x) = 0.60262 0.33829
# Poissons Ratio (y) = 0.27040 0.15060
# Poissons Ratio (z) = 0.38244 0.37942
#
# Static dielectric constant tensor:
#      x y z
#    x 1.759030 0.000000 -0.012340 
#    y 0.000000 1.757370 0.000000 
#    z -0.012340 0.000000 1.818350 
# 
# From -- ./inp_files/42248.got.cif
#   From: 2010.05.17/outbox.cif.g08.bks.cpg/sg12_22_cif.got.tgz:42248.got - 2010.06.03 13:09:07.
