data_PCOD9222802
_publ_section_title
;
Structure prediction by ZEFSAII (Michael W. Deem and Ramdas Pophale) SiO2 
 PCOD9222802
Probable space group: C 2/M
;
_chemical_formula_sum "Si O2"
_cell_formula_units_Z 56
_cell_length_a 15.693823
_cell_length_b 7.402586
_cell_length_c 22.697331
_cell_angle_alpha 90.000000
_cell_angle_beta 48.056865
_cell_angle_gamma 90.000000
_cell_volume 1961.318724
_symmetry_space_group_name_H-M "C 2/M"
_symmetry_group_IT_number 12
_symmetry_cell_setting 'monoclinic'
loop_
_space_group_symop_operation_xyz
x,y,z
-x,y,-z
-x,-y,-z
x,-y,z
1/2+x,1/2+y,z
1/2-x,1/2+y,-z
1/2-x,1/2-y,-z
1/2+x,1/2-y,z
loop_
_atom_site_type_symbol
_atom_site_label
_atom_site_fract_x
_atom_site_fract_y
_atom_site_fract_z
Si Si1 0.144527 0.209115 0.703341
Si Si2 0.333111 0.785340 0.742175
Si Si3 0.579982 0.218989 0.599588
Si Si4 0.586886 0.786739 0.881421
Si Si5 0.599036 0.288555 0.154586
Si Si6 0.130281 0.278787 0.450688
Si Si7 0.158004 0.720229 0.981077
O O1 0.272215 0.287643 0.638839
O O2 0.115550 0.206604 0.646255
O O3 0.029136 0.293670 0.784888
O O4 0.150182 0.000000 0.720012
O O5 0.445291 0.730153 0.654102
O O6 0.200153 0.742574 0.789752
O O7 0.360222 0.718187 0.795605
O O8 0.336730 0.000000 0.741999
O O9 0.648654 0.277182 0.510072
O O10 0.585423 0.000000 0.600217
O O11 0.623558 0.723165 0.929925
O O12 0.574110 0.000000 0.891986
O O13 0.456595 0.720590 0.930339
O O14 0.589971 0.500000 0.146094
O O15 0.711987 0.208626 0.070204
O O16 0.134332 0.500000 0.445369
O O17 0.000000 0.226531 0.500000
O O18 0.164946 0.500000 0.977779
#
# Coordination Sequence:
#
# PCOD9222802 Si02
#       7
#     8   8   8   8   8   8   8
#     4   9  16  26  44  65  80 101 134 168 197 229
#     4   9  15  21  30  48  72  96 124 156 188 221
#     4   9  17  28  42  59  81 109 134 160 198 238
#     4   8  12  19  30  43  63  95 127 150 182 225
#     4   8  13  22  34  49  70  95 124 155 187 224
#     4   9  17  29  44  62  83 105 131 163 199 239
#     4   7  10  17  29  43  63  93 123 149 182 224
#
# _framework density 28.552219000000001
#
# number of rings (size 3 to 8) (size 9 to 14) (size 15 to 20)
#    0.000    3.571    0.000    2.571    0.000    0.571 
#    0.000    5.714    0.000    1.714    0.000    0.000 
#    0.000    1.143    0.000    0.857    0.000    8.143 
#
# Total GULP energy -156564.389233 kJ/mol
# GULP energy per Si atom -5591.585330 kJ/mol
# Density = 2.848723 g / cm^3
# Si number density = 28.552219 Si / 1000 Ang^3
#
#
#
# Elastic Constant Matrix: (Units=GPa)
#
#
# Indices 1 2 3 4 5 6 
#
# 1 122.4559 13.0395 49.9840 0.0000 -50.8508 0.0001
# 2 13.0395 92.5148 8.6782 -0.0001 -14.5774 0.0007
# 3 49.9840 8.6782 296.7798 0.0000 -35.1770 0.0000
# 4 0.0000 -0.0001 0.0000 18.9342 0.0000 -1.6954
# 5 -50.8508 -14.5774 -35.1770 0.0000 68.6968 0.0001
# 6 0.0001 0.0007 0.0000 -1.6954 0.0001 30.9768
#
#
#
# Elastic Compliance Matrix: (Units=1/GPa)
#
#
# Indices 1 2 3 4 5 6 
#
# 1 0.012091 -0.000290 -0.001037 0.000000 0.008357 0.000000
# 2 -0.000290 0.011191 -0.000024 0.000000 0.002148 0.000000
# 3 -0.001037 -0.000024 0.003676 0.000000 0.001110 0.000000
# 4 0.000000 0.000000 0.000000 0.053075 0.000000 0.002905
# 5 0.008357 0.002148 0.001110 0.000000 0.021767 0.000000
# 6 0.000000 0.000000 0.000000 0.002905 0.000000 0.032441
#
#
# Mechanical properties :
#
#
# Convention : Reuss Voigt Hill
#
# Bulk Modulus (GPa) = 41.22744 72.79488 57.01116
# Shear Modulus (GPa) = 34.47607 53.05816 43.76712
#
# Velocity S-wave (km/s) = 3.47864 4.31546 3.91945
# Velocity P-wave (km/s) = 5.53220 7.09800 6.36345
#
# Compressibility (1/GPa) = 0.02425569
#
# Stress axis : x y z
#
# Youngs Moduli (GPa) = 82.70676 89.36057 272.00298
#
# Poissons Ratio (x) = 0.02592 0.28215
# Poissons Ratio (y) = 0.02399 0.00648
# Poissons Ratio (z) = 0.08579 0.00213
#
# Static dielectric constant tensor:
#      x y z
#    x 2.353590 0.000000 -0.000030 
#    y 0.000000 2.034390 0.000000 
#    z -0.000030 0.000000 2.255110 
# 
# From -- ./inp_files/377635.got.cif
#   From: 2010.05.17/outbox.cif.g08.bks.cpg/sg12_189_cif.got.tgz:377635.got - 2010.06.03 13:09:07.
