data_PCOD9222516
_publ_section_title
;
Structure prediction by ZEFSAII (Michael W. Deem and Ramdas Pophale) SiO2 
 PCOD9222516
Probable space group: C 2/M
;
_chemical_formula_sum "Si O2"
_cell_formula_units_Z 58
_cell_length_a 22.304327
_cell_length_b 20.144154
_cell_length_c 19.208128
_cell_angle_alpha 90.000000
_cell_angle_beta 22.884830
_cell_angle_gamma 90.000000
_cell_volume 3356.130562
_symmetry_space_group_name_H-M "C 2/M"
_symmetry_group_IT_number 12
_symmetry_cell_setting 'monoclinic'
loop_
_space_group_symop_operation_xyz
x,y,z
-x,y,-z
-x,-y,-z
x,-y,z
1/2+x,1/2+y,z
1/2-x,1/2+y,-z
1/2-x,1/2-y,-z
1/2+x,1/2-y,z
loop_
_atom_site_type_symbol
_atom_site_label
_atom_site_fract_x
_atom_site_fract_y
_atom_site_fract_z
Si Si1 0.626854 0.722263 0.685836
Si Si2 0.351118 0.318790 0.883642
Si Si3 0.577468 0.764514 0.988579
Si Si4 0.570471 0.291128 0.353427
Si Si5 0.362902 0.920964 0.814899
Si Si6 0.129407 0.659023 0.471233
Si Si7 0.000000 0.000000 0.000000
Si Si8 0.307591 0.616125 0.145148
O O1 0.750000 0.750000 0.500000
O O2 0.492497 0.684387 0.787194
O O3 0.726389 0.684819 0.638080
O O4 0.534550 0.778598 0.827255
O O5 0.425047 0.323434 0.727776
O O6 0.250000 0.250000 0.000000
O O7 0.236829 0.379184 0.023112
O O8 0.750117 0.785872 0.819053
O O9 0.601302 0.684917 0.959103
O O10 0.500000 0.787478 0.000000
O O11 0.500000 0.320596 0.500000
O O12 0.478913 0.221214 0.437184
O O13 0.532599 0.889972 0.624014
O O14 0.287813 0.901279 0.821152
O O15 0.362797 0.000000 0.825563
O O16 0.194057 0.623845 0.332938
O O17 0.075356 0.057576 0.967926
#
# Coordination Sequence:
#
# PCOD9222516 Si02
#       8
#     8   8   8   8   8   8   2   8
#     4  12  21  33  56  86 116 155 196 245 291 338
#     4  12  22  40  61  84 117 156 196 243 298 348
#     4  12  21  34  54  81 116 155 191 238 286 340
#     4  12  21  38  60  84 116 148 192 242 301 347
#     4  12  25  40  57  82 117 162 202 244 295 348
#     4  12  22  35  55  84 119 158 196 237 286 352
#     4  12  24  32  46  76 112 172 208 230 266 336
#     4  12  21  34  53  74 118 162 202 231 277 339
#
# _framework density 17.281807000000001
#
# number of rings (size 3 to 8) (size 9 to 14) (size 15 to 20)
#    0.000    0.000   11.034    0.414    0.966    0.552 
#    0.000    0.690    0.000    0.414    0.000    0.000 
#    0.000    1.655    0.000    0.000    0.000    0.000 
#
# Total GULP energy -161528.742535 kJ/mol
# GULP energy per Si atom -5569.956639 kJ/mol
# Density = 1.724247 g / cm^3
# Si number density = 17.281807 Si / 1000 Ang^3
#
#
#
# Elastic Constant Matrix: (Units=GPa)
#
#
# Indices 1 2 3 4 5 6 
#
# 1 103.0286 1.8805 34.8090 0.0006 2.9648 -0.0005
# 2 1.8805 37.4614 11.4326 0.0001 7.8292 -0.0002
# 3 34.8090 11.4326 92.1410 -0.0020 16.1253 0.0000
# 4 0.0006 0.0001 -0.0020 4.3673 -0.0002 1.9774
# 5 2.9648 7.8292 16.1253 -0.0002 52.5526 0.0003
# 6 -0.0005 -0.0002 0.0000 1.9774 0.0003 14.6321
#
#
#
# Elastic Compliance Matrix: (Units=1/GPa)
#
#
# Indices 1 2 3 4 5 6 
#
# 1 0.011166 0.000654 -0.004409 -0.000004 0.000625 0.000001
# 2 0.000654 0.028319 -0.003187 -0.000002 -0.003278 0.000001
# 3 -0.004409 -0.003187 0.013513 0.000007 -0.003423 -0.000001
# 4 -0.000004 -0.000002 0.000007 0.243898 -0.000001 -0.032961
# 5 0.000625 -0.003278 -0.003423 -0.000001 0.020532 0.000000
# 6 0.000001 0.000001 -0.000001 -0.032961 0.000000 0.072797
#
#
# Mechanical properties :
#
#
# Convention : Reuss Voigt Hill
#
# Bulk Modulus (GPa) = 25.56625 36.54170 31.05398
# Shear Modulus (GPa) = 11.98621 26.61099 19.29860
#
# Velocity S-wave (km/s) = 2.63644 3.92832 3.34533
# Velocity P-wave (km/s) = 4.90852 6.46267 5.73845
#
# Compressibility (1/GPa) = 0.03911406
#
# Stress axis : x y z
#
# Youngs Moduli (GPa) = 89.56045 35.31195 74.00310
#
# Poissons Ratio (x) = -0.02310 0.32626
# Poissons Ratio (y) = -0.05860 0.23587
# Poissons Ratio (z) = 0.39485 0.11255
#
# Static dielectric constant tensor:
#      x y z
#    x 1.667920 0.000000 -0.047340 
#    y 0.000000 1.559900 -0.000010 
#    z -0.047340 -0.000010 1.721080 
# 
# From -- ./inp_files/326257.got.cif
#   From: 2010.05.17/outbox.cif.g08.bks.cpg/sg12_164_cif.got.tgz:326257.got - 2010.06.03 13:09:07.
