data_PCOD9222029
_publ_section_title
;
Structure prediction by ZEFSAII (Michael W. Deem and Ramdas Pophale) SiO2 
 PCOD9222029
Probable space group: C 2/M
;
_chemical_formula_sum "Si O2"
_cell_formula_units_Z 40
_cell_length_a 9.404339
_cell_length_b 16.862814
_cell_length_c 16.851292
_cell_angle_alpha 90.000000
_cell_angle_beta 49.672343
_cell_angle_gamma 90.000000
_cell_volume 2037.273661
_symmetry_space_group_name_H-M "C 2/M"
_symmetry_group_IT_number 12
_symmetry_cell_setting 'monoclinic'
loop_
_space_group_symop_operation_xyz
x,y,z
-x,y,-z
-x,-y,-z
x,-y,z
1/2+x,1/2+y,z
1/2-x,1/2+y,-z
1/2-x,1/2-y,-z
1/2+x,1/2-y,z
loop_
_atom_site_type_symbol
_atom_site_label
_atom_site_fract_x
_atom_site_fract_y
_atom_site_fract_z
Si Si1 0.171237 0.810499 0.199854
Si Si2 0.069855 0.409603 0.333772
Si Si3 0.000000 0.285394 0.500000
Si Si4 0.000000 0.212954 0.000000
Si Si5 0.005616 0.909834 0.132404
Si Si6 0.326446 0.189268 0.320136
O O1 0.340474 0.767747 0.093897
O O2 0.228348 0.820656 0.270585
O O3 0.110904 0.889719 0.175939
O O4 0.994083 0.752556 0.254955
O O5 0.050914 0.500000 0.369112
O O6 0.027432 0.344036 0.415714
O O7 0.282740 0.399494 0.226795
O O8 0.923099 0.389926 0.317593
O O9 0.177193 0.227360 0.434124
O O10 0.068839 0.154117 0.044609
O O11 0.039025 0.000000 0.094922
#
# Coordination Sequence:
#
# PCOD9222029 Si02
#       6
#     8   8   4   4   8   8
#     4  12  23  41  65  94 124 163 213 256 303 370
#     4  11  24  42  64  94 128 163 205 258 313 365
#     4  12  21  40  71  88 122 170 210 250 305 376
#     4  12  21  40  71  88 122 170 210 250 305 376
#     4  11  24  42  64  94 128 163 205 258 313 365
#     4  12  23  41  65  94 124 163 213 256 303 370
#
# _framework density 19.634081999999999
#
# number of rings (size 3 to 8) (size 9 to 14) (size 15 to 20)
#    0.000    0.400    8.000    1.800    0.000    0.800 
#    0.000    1.000    0.000    0.000    0.000    0.000 
#    0.000    0.000    0.000    0.000    0.000    0.000 
#
# Total GULP energy -111776.817913 kJ/mol
# GULP energy per Si atom -5588.840896 kJ/mol
# Density = 1.958939 g / cm^3
# Si number density = 19.634082 Si / 1000 Ang^3
#
#
#
# Elastic Constant Matrix: (Units=GPa)
#
#
# Indices 1 2 3 4 5 6 
#
# 1 86.7440 11.9886 -13.1602 0.0000 17.0072 0.0000
# 2 11.9886 73.0549 9.7011 0.0000 -6.1105 0.0000
# 3 -13.1602 9.7011 45.0239 0.0000 -6.1601 0.0000
# 4 0.0000 0.0000 0.0000 4.9992 0.0000 -3.1555
# 5 17.0072 -6.1105 -6.1601 0.0000 31.3699 0.0000
# 6 0.0000 0.0000 0.0000 -3.1555 0.0000 16.9264
#
#
#
# Elastic Compliance Matrix: (Units=1/GPa)
#
#
# Indices 1 2 3 4 5 6 
#
# 1 0.014064 -0.003446 0.003821 0.000000 -0.007546 0.000000
# 2 -0.003446 0.015087 -0.003700 0.000000 0.004081 0.000000
# 3 0.003821 -0.003700 0.024398 0.000000 0.001999 0.000000
# 4 0.000000 0.000000 0.000000 0.226709 0.000000 0.042265
# 5 -0.007546 0.004081 0.001999 0.000000 0.037156 0.000000
# 6 0.000000 0.000000 0.000000 0.042265 0.000000 0.066959
#
#
# Mechanical properties :
#
#
# Convention : Reuss Voigt Hill
#
# Bulk Modulus (GPa) = 21.32306 24.65353 22.98830
# Shear Modulus (GPa) = 12.29544 23.74532 18.02038
#
# Velocity S-wave (km/s) = 2.50517 3.48141 3.03283
# Velocity P-wave (km/s) = 4.38767 5.36134 4.89876
#
# Compressibility (1/GPa) = 0.04689758
#
# Stress axis : x y z
#
# Youngs Moduli (GPa) = 71.10567 66.28442 40.98719
#
# Poissons Ratio (x) = 0.22844 -0.15661
# Poissons Ratio (y) = 0.24506 0.15164
# Poissons Ratio (z) = -0.27169 0.24523
#
# Static dielectric constant tensor:
#      x y z
#    x 1.721400 0.000000 0.027640 
#    y 0.000000 1.670440 0.000000 
#    z 0.027640 0.000000 1.694320 
# 
# From -- ./inp_files/256399.got.cif
#   From: 2010.05.17/outbox.cif.g08.bks.cpg/sg12_129_cif.got.tgz:256399.got - 2010.06.03 13:09:07.
