data_PCOD9222033
_publ_section_title
;
Structure prediction by ZEFSAII (Michael W. Deem and Ramdas Pophale) SiO2 
 PCOD9222033
Probable space group: C 2/M
;
_chemical_formula_sum "Si O2"
_cell_formula_units_Z 48
_cell_length_a 10.998337
_cell_length_b 31.567858
_cell_length_c 12.746531
_cell_angle_alpha 90.000000
_cell_angle_beta 149.636818
_cell_angle_gamma 90.000000
_cell_volume 2237.008404
_symmetry_space_group_name_H-M "C 2/M"
_symmetry_group_IT_number 12
_symmetry_cell_setting 'monoclinic'
loop_
_space_group_symop_operation_xyz
x,y,z
-x,y,-z
-x,-y,-z
x,-y,z
1/2+x,1/2+y,z
1/2-x,1/2+y,-z
1/2-x,1/2-y,-z
1/2+x,1/2-y,z
loop_
_atom_site_type_symbol
_atom_site_label
_atom_site_fract_x
_atom_site_fract_y
_atom_site_fract_z
Si Si1 0.955342 0.000000 0.338158
Si Si2 0.384399 0.798782 0.698036
Si Si3 0.500000 0.429860 0.000000
Si Si4 0.233199 0.908563 0.841775
Si Si5 0.784159 0.000000 0.684925
Si Si6 0.229668 0.793666 0.345761
Si Si7 0.500000 0.643271 0.500000
Si Si8 0.327927 0.641991 0.991473
O O1 0.807437 0.958327 0.198136
O O2 0.000000 0.000000 0.500000
O O3 0.167857 0.000000 0.405785
O O4 0.242737 0.798575 0.481673
O O5 0.396778 0.752279 0.757740
O O6 0.231392 0.827453 0.662514
O O7 0.630271 0.821571 0.851856
O O8 0.592210 0.459685 0.163274
O O9 0.299782 0.395048 0.884029
O O10 0.029157 0.887211 0.619205
O O11 0.198100 0.886764 0.925764
O O12 0.500000 0.898940 0.000000
O O13 0.500000 0.000000 0.500000
O O14 0.500000 0.791562 0.500000
O O15 0.077270 0.831460 0.180854
#
# Coordination Sequence:
#
# PCOD9222033 Si02
#       8
#     4   8   4   8   4   8   4   8
#     4  12  26  49  74 107 143 183 242 300 368 441
#     4  11  24  42  67  97 139 184 232 290 350 413
#     4  11  26  46  70 104 142 180 242 290 350 441
#     4  12  25  43  70  99 136 179 230 292 359 428
#     4  11  27  49  75 104 144 194 230 298 374 430
#     4  11  24  42  65 100 141 183 235 293 346 417
#     4  12  22  43  66  98 134 180 224 287 354 418
#     4  12  24  43  70 101 137 187 239 285 351 426
#
# _framework density 21.457229000000002
#
# number of rings (size 3 to 8) (size 9 to 14) (size 15 to 20)
#    0.000    0.500    6.667    1.750    0.000    4.667 
#    0.000    0.000    0.000    0.000    0.000    0.000 
#    0.000    0.000    0.000    0.000    0.000    0.000 
#
# Total GULP energy -133904.195786 kJ/mol
# GULP energy per Si atom -5579.341491 kJ/mol
# Density = 2.140839 g / cm^3
# Si number density = 21.457229 Si / 1000 Ang^3
#
#
#
# Elastic Constant Matrix: (Units=GPa)
#
#
# Indices 1 2 3 4 5 6 
#
# 1 79.4848 44.1055 14.5695 0.0000 10.6282 0.0000
# 2 44.1055 185.5525 45.2309 0.0000 5.5088 0.0000
# 3 14.5695 45.2309 49.4459 0.0000 12.8566 0.0000
# 4 0.0000 0.0000 0.0000 1.7871 0.0000 4.1440
# 5 10.6282 5.5088 12.8566 0.0000 36.0590 0.0000
# 6 0.0000 0.0000 0.0000 4.1440 0.0000 38.3104
#
#
#
# Elastic Compliance Matrix: (Units=1/GPa)
#
#
# Indices 1 2 3 4 5 6 
#
# 1 0.015024 -0.003371 -0.000359 0.000000 -0.003785 0.000000
# 2 -0.003371 0.007750 -0.006665 0.000000 0.002186 0.000000
# 3 -0.000359 -0.006665 0.028804 0.000000 -0.009146 0.000000
# 4 0.000000 0.000000 0.000000 0.746930 0.000000 -0.080794
# 5 -0.003785 0.002186 -0.009146 0.000000 0.031775 0.000000
# 6 0.000000 0.000000 0.000000 -0.080794 0.000000 0.034842
#
#
# Mechanical properties :
#
#
# Convention : Reuss Voigt Hill
#
# Bulk Modulus (GPa) = 32.47899 58.03280 45.25589
# Shear Modulus (GPa) = 5.57925 29.26977 17.42451
#
# Velocity S-wave (km/s) = 1.61425 3.69738 2.85275
# Velocity P-wave (km/s) = 4.31786 6.73290 5.65579
#
# Compressibility (1/GPa) = 0.03078913
#
# Stress axis : x y z
#
# Youngs Moduli (GPa) = 66.56201 129.02619 34.71682
#
# Poissons Ratio (x) = 0.43498 0.01245
# Poissons Ratio (y) = 0.22440 0.23138
# Poissons Ratio (z) = 0.02388 0.85992
#
# Static dielectric constant tensor:
#      x y z
#    x 1.881440 0.000000 -0.003170 
#    y 0.000000 1.765230 0.000000 
#    z -0.003170 0.000000 1.764740 
# 
# From -- ./inp_files/209955.got.cif
#   From: 2010.05.17/outbox.cif.g08.bks.cpg/sg12_105_cif.got.tgz:209955.got - 2010.06.03 13:09:07.
