data_PCOD9222378
_publ_section_title
;
Structure prediction by ZEFSAII (Michael W. Deem and Ramdas Pophale) SiO2 
 PCOD9222378
Probable space group: C 2/M
;
_chemical_formula_sum "Si O2"
_cell_formula_units_Z 44
_cell_length_a 7.770261
_cell_length_b 29.320413
_cell_length_c 11.854506
_cell_angle_alpha 90.000000
_cell_angle_beta 49.170269
_cell_angle_gamma 90.000000
_cell_volume 2043.560826
_symmetry_space_group_name_H-M "C 2/M"
_symmetry_group_IT_number 12
_symmetry_cell_setting 'monoclinic'
loop_
_space_group_symop_operation_xyz
x,y,z
-x,y,-z
-x,-y,-z
x,-y,z
1/2+x,1/2+y,z
1/2-x,1/2+y,-z
1/2-x,1/2-y,-z
1/2+x,1/2-y,z
loop_
_atom_site_type_symbol
_atom_site_label
_atom_site_fract_x
_atom_site_fract_y
_atom_site_fract_z
Si Si1 0.692116 0.159823 0.506776
Si Si2 0.884891 0.126713 0.939902
Si Si3 0.749240 0.447632 0.172620
Si Si4 0.500000 0.587366 0.500000
Si Si5 0.466854 0.710256 0.778860
Si Si6 0.974183 0.311055 0.179803
O O1 0.500000 0.145608 0.500000
O O2 0.590989 0.176083 0.666864
O O3 0.857924 0.119321 0.475211
O O4 0.829525 0.202564 0.395474
O O5 0.882490 0.090436 0.842110
O O6 0.022764 0.172324 0.848611
O O7 0.638469 0.148680 0.068830
O O8 0.000000 0.105813 0.000000
O O9 0.677151 0.500000 0.186136
O O10 0.682925 0.437350 0.334580
O O11 0.000000 0.445173 0.000000
O O12 0.240416 0.694108 0.810942
O O13 0.435183 0.759671 0.844350
#
# Coordination Sequence:
#
# PCOD9222378 Si02
#       6
#     8   8   8   4   8   8
#     4  12  23  40  64  97 137 187 232 286 348 417
#     4  12  24  42  66  97 135 182 230 289 356 418
#     4  11  25  47  76 105 136 179 233 294 364 429
#     4  12  23  48  76 104 144 188 234 290 363 422
#     4  12  23  41  59  96 136 182 235 284 345 413
#     4  12  24  39  63  94 138 184 235 286 344 416
#
# _framework density 21.531046
#
# number of rings (size 3 to 8) (size 9 to 14) (size 15 to 20)
#    0.000    0.182    3.636    7.364    0.000    0.364 
#    0.000    0.000    0.000    1.091    0.000    0.000 
#    0.000    0.000    0.000    0.000    0.000    0.000 
#
# Total GULP energy -122732.155061 kJ/mol
# GULP energy per Si atom -5578.734321 kJ/mol
# Density = 2.148204 g / cm^3
# Si number density = 21.531046 Si / 1000 Ang^3
#
#
#
# Elastic Constant Matrix: (Units=GPa)
#
#
# Indices 1 2 3 4 5 6 
#
# 1 108.6619 18.4415 22.0538 0.0000 6.5356 0.0000
# 2 18.4415 121.8885 38.9041 0.0000 3.8594 0.0000
# 3 22.0538 38.9041 152.9516 0.0000 9.4666 0.0000
# 4 0.0000 0.0000 0.0000 32.6449 0.0000 5.4185
# 5 6.5356 3.8594 9.4666 0.0000 27.5894 0.0000
# 6 0.0000 0.0000 0.0000 5.4185 0.0000 14.7848
#
#
#
# Elastic Compliance Matrix: (Units=1/GPa)
#
#
# Indices 1 2 3 4 5 6 
#
# 1 0.009701 -0.001088 -0.001011 0.000000 -0.001799 0.000000
# 2 -0.001088 0.009057 -0.002130 0.000000 -0.000279 0.000000
# 3 -0.001011 -0.002130 0.007348 0.000000 -0.001984 0.000000
# 4 0.000000 0.000000 0.000000 0.032617 0.000000 -0.011954
# 5 -0.001799 -0.000279 -0.001984 0.000000 0.037392 0.000000
# 6 0.000000 0.000000 0.000000 -0.011954 0.000000 0.072018
#
#
# Mechanical properties :
#
#
# Convention : Reuss Voigt Hill
#
# Bulk Modulus (GPa) = 56.65865 60.25565 58.45715
# Shear Modulus (GPa) = 27.40123 35.27730 31.33926
#
# Velocity S-wave (km/s) = 3.57128 4.05215 3.81929
# Velocity P-wave (km/s) = 6.58615 7.06679 6.83070
#
# Compressibility (1/GPa) = 0.01764956
#
# Stress axis : x y z
#
# Youngs Moduli (GPa) = 103.08369 110.40666 136.08725
#
# Poissons Ratio (x) = 0.12014 0.13753
# Poissons Ratio (y) = 0.11217 0.28982
# Poissons Ratio (z) = 0.10418 0.23513
#
# Static dielectric constant tensor:
#      x y z
#    x 1.803290 0.000000 -0.029790 
#    y 0.000000 1.758580 0.000000 
#    z -0.029790 0.000000 1.991680 
# 
# From -- ./inp_files/124052.got.cif
#   From: 2010.05.17/outbox.cif.g08.bks.cpg/sg12_63_cif.got.tgz:124052.got - 2010.06.03 13:09:07.
