data_PCOD9222971
_publ_section_title
;
Structure prediction by ZEFSAII (Michael W. Deem and Ramdas Pophale) SiO2 
 PCOD9222971
Probable space group: C 2/M
;
_chemical_formula_sum "Si O2"
_cell_formula_units_Z 56
_cell_length_a 26.572425
_cell_length_b 7.438804
_cell_length_c 18.448907
_cell_angle_alpha 90.000000
_cell_angle_beta 134.294708
_cell_angle_gamma 90.000000
_cell_volume 2610.181433
_symmetry_space_group_name_H-M "C 2/M"
_symmetry_group_IT_number 12
_symmetry_cell_setting 'monoclinic'
loop_
_space_group_symop_operation_xyz
x,y,z
-x,y,-z
-x,-y,-z
x,-y,z
1/2+x,1/2+y,z
1/2-x,1/2+y,-z
1/2-x,1/2-y,-z
1/2+x,1/2-y,z
loop_
_atom_site_type_symbol
_atom_site_label
_atom_site_fract_x
_atom_site_fract_y
_atom_site_fract_z
Si Si1 0.332839 0.280329 0.938050
Si Si2 0.926543 0.279720 0.462913
Si Si3 0.323146 0.793207 0.237336
Si Si4 0.833324 0.715715 0.502090
Si Si5 0.327206 0.285651 0.665477
Si Si6 0.424807 0.718858 0.893753
Si Si7 0.666162 0.712457 0.907091
O O1 0.331258 0.500000 0.940924
O O2 0.253505 0.212256 0.850196
O O3 0.373250 0.233050 0.907188
O O4 0.364311 0.221751 0.047046
O O5 0.929806 0.500000 0.468116
O O6 0.868999 0.216483 0.346901
O O7 0.895178 0.222670 0.509596
O O8 0.000000 0.222599 0.500000
O O9 0.358546 0.791060 0.193724
O O10 0.311457 0.000000 0.246287
O O11 0.830857 0.500000 0.492428
O O12 0.753450 0.781809 0.403237
O O13 0.845066 0.755400 0.598883
O O14 0.323593 0.500000 0.673243
O O15 0.387163 0.218889 0.781531
O O16 0.429973 0.500000 0.893382
O O17 0.500000 0.781204 0.000000
O O18 0.656076 0.500000 0.891173
O O19 0.750000 0.750000 0.000000
#
# Coordination Sequence:
#
# PCOD9222971 Si02
#       7
#     8   8   8   8   8   8   8
#     4   8  14  25  42  63  86 115 150 186 222 263
#     4   9  17  30  48  70  93 122 163 199 232 283
#     4   9  16  28  47  67  89 118 154 195 230 267
#     4   9  17  31  52  73  95 124 159 199 240 282
#     4   9  17  30  50  75  96 119 157 201 241 282
#     4   9  16  27  44  67  93 120 153 190 229 275
#     4   9  16  27  44  67  93 118 149 187 226 271
#
# _framework density 21.454446000000001
#
# number of rings (size 3 to 8) (size 9 to 14) (size 15 to 20)
#    0.000    3.143    0.000    2.143    0.000    3.429 
#    2.571    0.714    0.000   10.714    0.000    0.000 
#    0.000    0.000    0.000    0.000    0.000    0.000 
#
# Total GULP energy -155903.699700 kJ/mol
# GULP energy per Si atom -5567.989275 kJ/mol
# Density = 2.140561 g / cm^3
# Si number density = 21.454446 Si / 1000 Ang^3
#
#
#
# Elastic Constant Matrix: (Units=GPa)
#
#
# Indices 1 2 3 4 5 6 
#
# 1 144.6309 -1.9397 94.3728 0.0000 -13.1537 0.0000
# 2 -1.9397 63.8848 -3.6779 0.0000 6.5881 0.0000
# 3 94.3728 -3.6779 125.1631 0.0000 -14.0856 0.0000
# 4 0.0000 0.0000 0.0000 8.0762 0.0000 -9.1079
# 5 -13.1537 6.5881 -14.0856 0.0000 21.4995 0.0000
# 6 0.0000 0.0000 0.0000 -9.1079 0.0000 9.7133
#
#
#
# Elastic Compliance Matrix: (Units=1/GPa)
#
#
# Indices 1 2 3 4 5 6 
#
# 1 0.013678 -0.000358 -0.010116 0.000000 0.001851 0.000000
# 2 -0.000358 0.016174 0.000176 0.000002 -0.005060 0.000001
# 3 -0.010116 0.000176 0.016107 0.000000 0.004310 0.000000
# 4 0.000000 0.000002 0.000000 -2.155170 0.000000 -2.020844
# 5 0.001851 -0.005060 0.004310 0.000000 0.052019 0.000000
# 6 0.000000 0.000001 0.000000 -2.020844 0.000000 -1.791938
#
#
# Mechanical properties :
#
#
# Convention : Reuss Voigt Hill
#
# Bulk Modulus (GPa) = 39.42636 56.79879 48.11257
# Shear Modulus (GPa) = -1.30887 24.18604 11.43859
#
# Velocity S-wave (km/s) = -0.78192 3.36120 2.31152
# Velocity P-wave (km/s) = 4.19541 6.44943 5.44043
#
# Compressibility (1/GPa) = 0.02536374
#
# Stress axis : x y z
#
# Youngs Moduli (GPa) = 73.10937 61.82666 62.08541
#
# Poissons Ratio (x) = 0.02213 0.62803
# Poissons Ratio (y) = 0.02617 -0.01091
# Poissons Ratio (z) = 0.73954 -0.01086
#
# Static dielectric constant tensor:
#      x y z
#    x 1.851900 0.000000 0.034090 
#    y 0.000000 1.836330 0.000000 
#    z 0.034090 0.000000 1.805550 
# 
# From -- ./inp_files/288486.got.cif
#   From: 2010.05.17/outbox.cif.g08.bks.cpg/sg12_145_cif.got.tgz:288486.got - 2010.06.03 13:09:07.
