data_PCOD9222064
_publ_section_title
;
Structure prediction by ZEFSAII (Michael W. Deem and Ramdas Pophale) SiO2 
 PCOD9222064
Probable space group: C 2/M
;
_chemical_formula_sum "Si O2"
_cell_formula_units_Z 48
_cell_length_a 9.843746
_cell_length_b 16.521219
_cell_length_c 13.522747
_cell_angle_alpha 90.000000
_cell_angle_beta 77.027352
_cell_angle_gamma 90.000000
_cell_volume 2143.083809
_symmetry_space_group_name_H-M "C 2/M"
_symmetry_group_IT_number 12
_symmetry_cell_setting 'monoclinic'
loop_
_space_group_symop_operation_xyz
x,y,z
-x,y,-z
-x,-y,-z
x,-y,z
1/2+x,1/2+y,z
1/2-x,1/2+y,-z
1/2-x,1/2-y,-z
1/2+x,1/2-y,z
loop_
_atom_site_type_symbol
_atom_site_label
_atom_site_fract_x
_atom_site_fract_y
_atom_site_fract_z
Si Si1 0.850226 0.908243 0.994337
Si Si2 0.780721 0.098390 0.568376
Si Si3 0.996014 0.403024 0.283528
Si Si4 0.785658 0.157082 0.202845
Si Si5 0.041383 0.902276 0.649436
Si Si6 0.121481 0.671264 0.897264
O O1 0.771356 0.902666 0.111489
O O2 0.874266 0.000000 0.958232
O O3 0.756106 0.865970 0.929011
O O4 0.000000 0.872044 0.000000
O O5 0.625392 0.122945 0.620671
O O6 0.848014 0.123078 0.453449
O O7 0.889396 0.123427 0.636316
O O8 0.781450 0.000000 0.567985
O O9 0.019677 0.500000 0.289231
O O10 0.937163 0.382051 0.183751
O O11 0.136716 0.353126 0.278960
O O12 0.908805 0.130593 0.254856
O O13 0.824869 0.244164 0.154810
O O14 0.042502 0.000000 0.653642
O O15 0.000000 0.679439 0.000000
#
# Coordination Sequence:
#
# PCOD9222064 Si02
#       6
#     8   8   8   8   8   8
#     4  11  25  43  67  96 128 170 227 278 326 389
#     4   8  18  38  66  99 131 171 215 272 332 389
#     4  11  24  42  68  99 131 173 226 271 326 395
#     4  12  25  39  63  98 134 173 216 274 328 387
#     4   9  18  38  67  98 135 171 218 271 328 394
#     4  12  27  46  66  90 137 183 221 268 336 396
#
# _framework density 22.397632000000002
#
# number of rings (size 3 to 8) (size 9 to 14) (size 15 to 20)
#    0.000    1.500    1.667    4.000    4.667    1.333 
#    0.000    3.333    0.000    0.000    0.000    0.000 
#    0.000    0.000    0.000    0.000    0.000    0.000 
#
# Total GULP energy -134234.006827 kJ/mol
# GULP energy per Si atom -5593.083618 kJ/mol
# Density = 2.234665 g / cm^3
# Si number density = 22.397632 Si / 1000 Ang^3
#
#
#
# Elastic Constant Matrix: (Units=GPa)
#
#
# Indices 1 2 3 4 5 6 
#
# 1 96.6760 28.0846 -10.7844 0.0000 -8.6916 0.0000
# 2 28.0846 61.3063 10.3666 0.0000 5.3317 0.0000
# 3 -10.7844 10.3666 19.7914 0.0000 10.8713 0.0000
# 4 0.0000 0.0000 0.0000 9.7541 0.0000 -17.1395
# 5 -8.6916 5.3317 10.8713 0.0000 50.4592 0.0000
# 6 0.0000 0.0000 0.0000 -17.1395 0.0000 83.2555
#
#
#
# Elastic Compliance Matrix: (Units=1/GPa)
#
#
# Indices 1 2 3 4 5 6 
#
# 1 0.014227 -0.008584 0.011801 0.000000 0.000815 0.000000
# 2 -0.008584 0.023077 -0.016575 0.000000 -0.000346 0.000000
# 3 0.011801 -0.016575 0.072092 0.000000 -0.011748 0.000000
# 4 0.000000 0.000000 0.000000 0.160625 0.000000 0.033067
# 5 0.000815 -0.000346 -0.011748 0.000000 0.022526 0.000000
# 6 0.000000 0.000000 0.000000 0.033067 0.000000 0.018819
#
#
# Mechanical properties :
#
#
# Convention : Reuss Voigt Hill
#
# Bulk Modulus (GPa) = 12.09479 25.90083 18.99781
# Shear Modulus (GPa) = 13.67462 38.70089 26.18776
#
# Velocity S-wave (km/s) = 2.47359 4.16131 3.42310
# Velocity P-wave (km/s) = 3.68374 5.88879 4.91161
#
# Compressibility (1/GPa) = 0.08268021
#
# Stress axis : x y z
#
# Youngs Moduli (GPa) = 70.28821 43.33399 13.87118
#
# Poissons Ratio (x) = 0.37197 -0.16369
# Poissons Ratio (y) = 0.60334 0.22991
# Poissons Ratio (z) = -0.82945 0.71824
#
# Static dielectric constant tensor:
#      x y z
#    x 1.847960 0.000000 -0.074530 
#    y 0.000000 1.810080 0.000000 
#    z -0.074530 0.000000 1.844190 
# 
# From -- ./inp_files/196003.got.cif
#   From: 2010.05.17/outbox.cif.g08.bks.cpg/sg12_99_cif.got.tgz:196003.got - 2010.06.03 13:09:07.
