data_PCOD9222296
_publ_section_title
;
Structure prediction by ZEFSAII (Michael W. Deem and Ramdas Pophale) SiO2 
 PCOD9222296
Probable space group: C 2/M
;
_chemical_formula_sum "Si O2"
_cell_formula_units_Z 34
_cell_length_a 19.363058
_cell_length_b 7.902284
_cell_length_c 16.738587
_cell_angle_alpha 90.000000
_cell_angle_beta 36.700103
_cell_angle_gamma 90.000000
_cell_volume 1530.647847
_symmetry_space_group_name_H-M "C 2/M"
_symmetry_group_IT_number 12
_symmetry_cell_setting 'monoclinic'
loop_
_space_group_symop_operation_xyz
x,y,z
-x,y,-z
-x,-y,-z
x,-y,z
1/2+x,1/2+y,z
1/2-x,1/2+y,-z
1/2-x,1/2-y,-z
1/2+x,1/2-y,z
loop_
_atom_site_type_symbol
_atom_site_label
_atom_site_fract_x
_atom_site_fract_y
_atom_site_fract_z
Si Si1 0.772231 0.196161 0.570990
Si Si2 0.452596 0.305058 0.127566
Si Si3 0.518310 0.810677 0.376002
Si Si4 0.500000 0.500000 0.500000
Si Si5 0.880914 0.697428 0.892912
O O1 0.750000 0.250000 0.500000
O O2 0.657095 0.216298 0.729802
O O3 0.878900 0.302354 0.505325
O O4 0.810920 0.000000 0.538484
O O5 0.418385 0.500000 0.145147
O O6 0.555148 0.297582 0.096884
O O7 0.500000 0.233803 0.000000
O O8 0.558832 0.652422 0.390592
O O9 0.553508 0.781410 0.251683
O O10 0.558257 0.000000 0.362029
O O11 0.887078 0.500000 0.909043
O O12 0.750000 0.750000 0.000000
#
# Coordination Sequence:
#
# PCOD9222296 Si02
#       5
#     8   8   8   2   8
#     4  12  23  41  72 103 137 182 233 287 350 416
#     4  11  25  44  69 103 142 181 233 297 350 413
#     4  11  25  46  70 106 140 182 239 290 349 426
#     4  12  26  44  72 102 140 188 222 296 356 420
#     4  11  25  44  71  99 138 189 233 288 353 429
#
# _framework density 22.212817000000001
#
# number of rings (size 3 to 8) (size 9 to 14) (size 15 to 20)
#    0.000    0.706    3.529    3.882    3.294    3.765 
#    0.000    2.353    0.000    0.000    0.000    0.000 
#    0.000    0.000    0.000    0.000    0.000    0.000 
#
# Total GULP energy -94851.522389 kJ/mol
# GULP energy per Si atom -5579.501317 kJ/mol
# Density = 2.216226 g / cm^3
# Si number density = 22.212817 Si / 1000 Ang^3
#
#
#
# Elastic Constant Matrix: (Units=GPa)
#
#
# Indices 1 2 3 4 5 6 
#
# 1 54.5810 12.0853 51.2040 0.0000 17.6584 0.0000
# 2 12.0853 144.7115 17.0724 -0.0001 21.9810 0.0001
# 3 51.2040 17.0724 141.4937 0.0000 12.2941 0.0000
# 4 0.0000 -0.0001 0.0000 22.7880 0.0000 8.0830
# 5 17.6584 21.9810 12.2941 0.0000 44.9499 0.0000
# 6 0.0000 0.0001 0.0000 8.0830 0.0000 26.4382
#
#
#
# Elastic Compliance Matrix: (Units=1/GPa)
#
#
# Indices 1 2 3 4 5 6 
#
# 1 0.031178 0.000062 -0.010472 0.000000 -0.009414 0.000000
# 2 0.000062 0.007515 -0.000622 0.000000 -0.003529 0.000000
# 3 -0.010472 -0.000622 0.010805 0.000000 0.001463 0.000000
# 4 0.000000 0.000000 0.000000 0.049221 0.000000 -0.015048
# 5 -0.009414 -0.003529 0.001463 0.000000 0.027271 0.000000
# 6 0.000000 0.000000 0.000000 -0.015048 0.000000 0.042425
#
#
# Mechanical properties :
#
#
# Convention : Reuss Voigt Hill
#
# Bulk Modulus (GPa) = 36.45434 55.72329 46.08881
# Shear Modulus (GPa) = 25.04726 36.19685 30.62205
#
# Velocity S-wave (km/s) = 3.36162 4.04115 3.71695
# Velocity P-wave (km/s) = 5.61377 6.84945 6.26216
#
# Compressibility (1/GPa) = 0.02743158
#
# Stress axis : x y z
#
# Youngs Moduli (GPa) = 32.07438 133.07476 92.54910
#
# Poissons Ratio (x) = -0.00821 0.96918
# Poissons Ratio (y) = -0.00198 0.05760
# Poissons Ratio (z) = 0.33588 0.08283
#
# Static dielectric constant tensor:
#      x y z
#    x 1.752050 0.000000 0.062670 
#    y 0.000000 1.805950 0.000000 
#    z 0.062670 0.000000 1.779950 
# 
# From -- ./inp_files/281969.got.cif
#   From: 2010.05.17/outbox.cif.g08.bks.cpg/sg12_141_cif.got.tgz:281969.got - 2010.06.03 13:09:07.
