data_PCOD9222073
_publ_section_title
;
Structure prediction by ZEFSAII (Michael W. Deem and Ramdas Pophale) SiO2 
 PCOD9222073
Probable space group: C 2/M
;
_chemical_formula_sum "Si O2"
_cell_formula_units_Z 38
_cell_length_a 8.221730
_cell_length_b 26.104058
_cell_length_c 7.728964
_cell_angle_alpha 90.000000
_cell_angle_beta 95.095196
_cell_angle_gamma 90.000000
_cell_volume 1652.239548
_symmetry_space_group_name_H-M "C 2/M"
_symmetry_group_IT_number 12
_symmetry_cell_setting 'monoclinic'
loop_
_space_group_symop_operation_xyz
x,y,z
-x,y,-z
-x,-y,-z
x,-y,z
1/2+x,1/2+y,z
1/2-x,1/2+y,-z
1/2-x,1/2-y,-z
1/2+x,1/2-y,z
loop_
_atom_site_type_symbol
_atom_site_label
_atom_site_fract_x
_atom_site_fract_y
_atom_site_fract_z
Si Si1 0.000000 0.375223 0.500000
Si Si2 0.682602 0.088141 0.821046
Si Si3 0.804559 0.692332 0.973361
Si Si4 0.332734 0.348646 0.390547
Si Si5 0.019636 0.941839 0.793632
Si Si6 0.000000 0.500000 0.000000
O O1 0.972514 0.405832 0.320258
O O2 0.827702 0.346498 0.504198
O O3 0.832144 0.067482 0.720755
O O4 0.733718 0.143097 0.907449
O O5 0.631408 0.045546 0.954872
O O6 0.721420 0.682229 0.782050
O O7 0.750000 0.750000 0.000000
O O8 0.000000 0.691559 0.000000
O O9 0.500000 0.331836 0.500000
O O10 0.372217 0.403996 0.309000
O O11 0.069560 0.000000 0.772945
O O12 0.000000 0.932079 0.000000
#
# Coordination Sequence:
#
# PCOD9222073 Si02
#       6
#     4   8   8   8   8   2
#     4  12  26  47  74 114 162 202 258 333 392 478
#     4  12  24  47  73 111 157 206 261 316 397 461
#     4  12  28  51  79 111 150 208 268 317 387 481
#     4  12  26  49  77 112 159 199 260 326 391 467
#     4  11  24  42  71 107 150 204 256 314 384 466
#     4  12  24  46  78 110 158 212 262 320 376 488
#
# _framework density 22.999085999999998
#
# number of rings (size 3 to 8) (size 9 to 14) (size 15 to 20)
#    0.000    0.211    8.421    0.000    2.947    0.842 
#    3.789    2.105    0.000    0.000    0.000    0.000 
#    0.000    0.000    0.000    0.000    0.000    0.000 
#
# Total GULP energy -105852.111071 kJ/mol
# GULP energy per Si atom -5571.163741 kJ/mol
# Density = 2.294674 g / cm^3
# Si number density = 22.999086 Si / 1000 Ang^3
#
#
#
# Elastic Constant Matrix: (Units=GPa)
#
#
# Indices 1 2 3 4 5 6 
#
# 1 153.6354 45.9202 39.9156 0.0000 10.3203 0.0000
# 2 45.9202 157.1350 48.0648 0.0000 -6.2755 0.0000
# 3 39.9156 48.0648 120.0663 0.0000 29.1910 0.0000
# 4 0.0000 0.0000 0.0000 14.2455 0.0000 7.0164
# 5 10.3203 -6.2755 29.1910 0.0000 51.1822 0.0000
# 6 0.0000 0.0000 0.0000 7.0164 0.0000 30.3315
#
#
#
# Elastic Compliance Matrix: (Units=1/GPa)
#
#
# Indices 1 2 3 4 5 6 
#
# 1 0.007498 -0.001734 -0.001601 0.000000 -0.000811 0.000000
# 2 -0.001734 0.008059 -0.003454 0.000000 0.003308 0.000000
# 3 -0.001601 -0.003454 0.011921 0.000000 -0.006900 0.000000
# 4 0.000000 0.000000 0.000000 0.079224 0.000000 -0.018327
# 5 -0.000811 0.003308 -0.006900 0.000000 0.024042 0.000000
# 6 0.000000 0.000000 0.000000 -0.018327 0.000000 0.037208
#
#
# Mechanical properties :
#
#
# Convention : Reuss Voigt Hill
#
# Bulk Modulus (GPa) = 71.94248 77.62643 74.78445
# Shear Modulus (GPa) = 26.85791 38.94757 32.90274
#
# Velocity S-wave (km/s) = 3.42099 4.11961 3.78644
# Velocity P-wave (km/s) = 6.85220 7.51355 7.19049
#
# Compressibility (1/GPa) = 0.01389999
#
# Stress axis : x y z
#
# Youngs Moduli (GPa) = 133.37592 124.08140 83.88318
#
# Poissons Ratio (x) = 0.21511 0.13433
# Poissons Ratio (y) = 0.23122 0.28974
# Poissons Ratio (z) = 0.21358 0.42859
#
# Static dielectric constant tensor:
#      x y z
#    x 1.913600 0.000000 -0.037730 
#    y 0.000000 1.878310 0.000000 
#    z -0.037730 0.000000 1.831550 
# 
# From -- ./inp_files/39493.got.cif
#   From: 2010.05.17/outbox.cif.g08.bks.cpg/sg12_20_cif.got.tgz:39493.got - 2010.06.03 13:09:07.
