data_PCOD9222601
_publ_section_title
;
Structure prediction by ZEFSAII (Michael W. Deem and Ramdas Pophale) SiO2 
 PCOD9222601
Probable space group: C 2/M
;
_chemical_formula_sum "Si O2"
_cell_formula_units_Z 36
_cell_length_a 25.089889
_cell_length_b 14.144038
_cell_length_c 8.582500
_cell_angle_alpha 90.000000
_cell_angle_beta 147.612867
_cell_angle_gamma 90.000000
_cell_volume 1631.385782
_symmetry_space_group_name_H-M "C 2/M"
_symmetry_group_IT_number 12
_symmetry_cell_setting 'monoclinic'
loop_
_space_group_symop_operation_xyz
x,y,z
-x,y,-z
-x,-y,-z
x,-y,z
1/2+x,1/2+y,z
1/2-x,1/2+y,-z
1/2-x,1/2-y,-z
1/2+x,1/2-y,z
loop_
_atom_site_type_symbol
_atom_site_label
_atom_site_fract_x
_atom_site_fract_y
_atom_site_fract_z
Si Si1 0.450542 0.681536 0.217105
Si Si2 0.209503 0.000000 0.749748
Si Si3 0.417314 0.000000 0.433684
Si Si4 0.427127 0.821008 0.678049
Si Si5 0.021026 0.000000 0.867867
Si Si6 0.756220 0.282583 0.830663
O O1 0.500000 0.649883 0.500000
O O2 0.533038 0.730701 0.316293
O O3 0.418777 0.590838 0.041139
O O4 0.367144 0.758116 0.050982
O O5 0.090374 0.000000 0.485058
O O6 0.228807 0.892640 0.731259
O O7 0.301060 0.000000 0.097986
O O8 0.500000 0.000000 0.500000
O O9 0.431307 0.092001 0.572178
O O10 0.315709 0.788731 0.441002
O O11 0.500000 0.838985 0.000000
O O12 0.000000 0.000000 0.000000
O O13 0.750000 0.250000 0.000000
#
# Coordination Sequence:
#
# PCOD9222601 Si02
#       6
#     8   4   4   8   4   8
#     4  12  24  45  75 104 144 198 251 300 374 449
#     4  12  22  44  79 101 143 199 247 300 363 453
#     4  12  25  46  73 102 140 199 255 297 368 455
#     4  12  26  46  70 107 152 189 247 317 374 438
#     4  12  27  48  72 112 151 195 249 320 378 439
#     4  12  24  44  75 108 144 197 256 304 366 452
#
# _framework density 22.067131
#
# number of rings (size 3 to 8) (size 9 to 14) (size 15 to 20)
#    0.000    0.000    6.667    3.333    0.000    2.667 
#    4.000    0.000    0.000    0.000    0.000    0.000 
#    0.000    0.000    0.000    0.000    0.000    0.000 
#
# Total GULP energy -100509.291392 kJ/mol
# GULP energy per Si atom -5583.849522 kJ/mol
# Density = 2.201690 g / cm^3
# Si number density = 22.067131 Si / 1000 Ang^3
#
#
#
# Elastic Constant Matrix: (Units=GPa)
#
#
# Indices 1 2 3 4 5 6 
#
# 1 45.8332 14.0130 15.4546 0.0000 1.7473 0.0000
# 2 14.0130 155.1033 4.1178 0.0000 -8.0164 0.0000
# 3 15.4546 4.1178 111.5045 0.0000 -10.7627 0.0000
# 4 0.0000 0.0000 0.0000 56.6196 0.0000 -4.3423
# 5 1.7473 -8.0164 -10.7627 0.0000 22.3508 0.0000
# 6 0.0000 0.0000 0.0000 -4.3423 0.0000 42.8338
#
#
#
# Elastic Compliance Matrix: (Units=1/GPa)
#
#
# Indices 1 2 3 4 5 6 
#
# 1 0.023924 -0.002295 -0.003661 0.000000 -0.004456 0.000000
# 2 -0.002295 0.006789 0.000335 0.000000 0.002776 0.000000
# 3 -0.003661 0.000335 0.009966 0.000000 0.005205 0.000000
# 4 0.000000 0.000000 0.000000 0.017800 0.000000 0.001805
# 5 -0.004456 0.002776 0.005205 0.000000 0.048592 0.000000
# 6 0.000000 0.000000 0.000000 0.001805 0.000000 0.023529
#
#
# Mechanical properties :
#
#
# Convention : Reuss Voigt Hill
#
# Bulk Modulus (GPa) = 33.96985 42.17909 38.07447
# Shear Modulus (GPa) = 32.96980 42.95123 37.96051
#
# Velocity S-wave (km/s) = 3.86951 4.41658 4.15206
# Velocity P-wave (km/s) = 5.94907 6.72039 6.34646
#
# Compressibility (1/GPa) = 0.02943787
#
# Stress axis : x y z
#
# Youngs Moduli (GPa) = 41.79860 147.29295 100.34355
#
# Poissons Ratio (x) = 0.33798 0.36739
# Poissons Ratio (y) = 0.09591 -0.03364
# Poissons Ratio (z) = 0.15304 -0.04938
#
# Static dielectric constant tensor:
#      x y z
#    x 1.824430 0.000000 0.048710 
#    y 0.000000 1.766400 0.000000 
#    z 0.048710 0.000000 1.927880 
# 
# From -- ./inp_files/105126.got.cif
#   From: 2010.05.17/outbox.cif.g08.bks.cpg/sg12_53_cif.got.tgz:105126.got - 2010.06.03 13:09:07.
