data_PCOD9222259
_publ_section_title
;
Structure prediction by ZEFSAII (Michael W. Deem and Ramdas Pophale) SiO2 
 PCOD9222259
Probable space group: C 2/M
;
_chemical_formula_sum "Si O2"
_cell_formula_units_Z 56
_cell_length_a 9.638665
_cell_length_b 23.646065
_cell_length_c 11.360050
_cell_angle_alpha 90.000000
_cell_angle_beta 106.371653
_cell_angle_gamma 90.000000
_cell_volume 2484.162263
_symmetry_space_group_name_H-M "C 2/M"
_symmetry_group_IT_number 12
_symmetry_cell_setting 'monoclinic'
loop_
_space_group_symop_operation_xyz
x,y,z
-x,y,-z
-x,-y,-z
x,-y,z
1/2+x,1/2+y,z
1/2-x,1/2+y,-z
1/2-x,1/2-y,-z
1/2+x,1/2-y,z
loop_
_atom_site_type_symbol
_atom_site_label
_atom_site_fract_x
_atom_site_fract_y
_atom_site_fract_z
Si Si1 0.876970 0.562614 0.372646
Si Si2 0.371179 0.721586 0.610405
Si Si3 0.646239 0.598731 0.495697
Si Si4 0.755510 0.627215 0.778636
Si Si5 0.906790 0.633429 0.149049
Si Si6 0.167671 0.256314 0.766124
Si Si7 0.853865 0.932722 0.034583
O O1 0.888114 0.500000 0.319836
O O2 0.733104 0.567487 0.415296
O O3 0.892300 0.610798 0.279649
O O4 0.000000 0.568486 0.500000
O O5 0.250000 0.750000 0.500000
O O6 0.396741 0.658907 0.571204
O O7 0.302466 0.720957 0.723580
O O8 0.520999 0.755065 0.652756
O O9 0.500000 0.569046 0.500000
O O10 0.736320 0.613051 0.635636
O O11 0.703234 0.690763 0.796571
O O12 0.655790 0.585803 0.831736
O O13 0.926891 0.623549 0.847014
O O14 0.867437 0.699963 0.138708
O O15 0.785570 0.598298 0.052601
O O16 0.840351 0.000000 0.020268
O O17 0.000000 0.915694 0.000000
#
# Coordination Sequence:
#
# PCOD9222259 Si02
#       7
#     8   8   8   8   8   8   8
#     4  11  25  42  65 100 141 182 232 293 354 421
#     4  12  21  37  62 102 151 194 225 269 344 435
#     4  12  23  39  67 103 146 187 228 284 349 427
#     4  12  26  45  72 109 143 187 243 291 358 422
#     4  12  25  47  75 103 141 188 241 291 356 437
#     4  12  24  38  68 110 146 186 229 288 353 425
#     4  11  30  55  79 101 132 186 247 307 363 421
#
# _framework density 22.542812999999999
#
# number of rings (size 3 to 8) (size 9 to 14) (size 15 to 20)
#    0.000    0.286    7.143    1.286    4.000    3.143 
#    0.000    0.000    0.000    0.000    0.000    0.000 
#    0.000    0.000    0.000    0.000    0.000    0.000 
#
# Total GULP energy -156656.452153 kJ/mol
# GULP energy per Si atom -5594.873291 kJ/mol
# Density = 2.249150 g / cm^3
# Si number density = 22.542813 Si / 1000 Ang^3
#
#
#
# Elastic Constant Matrix: (Units=GPa)
#
#
# Indices 1 2 3 4 5 6 
#
# 1 151.7425 20.4435 20.5270 0.0000 -3.5815 0.0000
# 2 20.4435 81.5531 21.5281 0.0000 7.2906 0.0000
# 3 20.5270 21.5281 41.6688 0.0000 -0.9111 0.0000
# 4 0.0000 0.0000 0.0000 53.1103 0.0000 26.1132
# 5 -3.5815 7.2906 -0.9111 0.0000 27.4085 0.0000
# 6 0.0000 0.0000 0.0000 26.1132 0.0000 65.8758
#
#
#
# Elastic Compliance Matrix: (Units=1/GPa)
#
#
# Indices 1 2 3 4 5 6 
#
# 1 0.007164 -0.001126 -0.002922 0.000000 0.001139 0.000000
# 2 -0.001126 0.014833 -0.007203 0.000000 -0.004332 0.000000
# 3 -0.002922 -0.007203 0.029215 0.000000 0.002505 0.000000
# 4 0.000000 0.000000 0.000000 0.023387 0.000000 -0.009271
# 5 0.001139 -0.004332 0.002505 0.000000 0.037869 0.000000
# 6 0.000000 0.000000 0.000000 -0.009271 0.000000 0.018855
#
#
# Mechanical properties :
#
#
# Convention : Reuss Voigt Hill
#
# Bulk Modulus (GPa) = 34.83367 44.44019 39.63693
# Shear Modulus (GPa) = 30.60039 43.44330 37.02185
#
# Velocity S-wave (km/s) = 3.68833 4.39469 4.05691
# Velocity P-wave (km/s) = 5.79864 6.74593 6.29014
#
# Compressibility (1/GPa) = 0.02870786
#
# Stress axis : x y z
#
# Youngs Moduli (GPa) = 139.58594 67.41693 34.22918
#
# Poissons Ratio (x) = 0.07592 0.10003
# Poissons Ratio (y) = 0.15720 0.24657
# Poissons Ratio (z) = 0.40793 0.48563
#
# Static dielectric constant tensor:
#      x y z
#    x 1.846270 0.000000 -0.018960 
#    y 0.000000 1.811430 0.000000 
#    z -0.018960 0.000000 1.902960 
# 
# From -- ./inp_files/124354.got.cif
#   From: 2010.05.17/outbox.cif.g08.bks.cpg/sg12_63_cif.got.tgz:124354.got - 2010.06.03 13:09:07.
