data_PCOD9222525
_publ_section_title
;
Structure prediction by ZEFSAII (Michael W. Deem and Ramdas Pophale) SiO2 
 PCOD9222525
Probable space group: C 2/M
;
_chemical_formula_sum "Si O2"
_cell_formula_units_Z 56
_cell_length_a 14.101689
_cell_length_b 25.173402
_cell_length_c 9.625622
_cell_angle_alpha 90.000000
_cell_angle_beta 58.912001
_cell_angle_gamma 90.000000
_cell_volume 2926.213149
_symmetry_space_group_name_H-M "C 2/M"
_symmetry_group_IT_number 12
_symmetry_cell_setting 'monoclinic'
loop_
_space_group_symop_operation_xyz
x,y,z
-x,y,-z
-x,-y,-z
x,-y,z
1/2+x,1/2+y,z
1/2-x,1/2+y,-z
1/2-x,1/2-y,-z
1/2+x,1/2-y,z
loop_
_atom_site_type_symbol
_atom_site_label
_atom_site_fract_x
_atom_site_fract_y
_atom_site_fract_z
Si Si1 0.559300 0.827814 0.212968
Si Si2 0.156097 0.612316 0.680094
Si Si3 0.703628 0.110930 0.316323
Si Si4 0.985158 0.212911 0.672362
Si Si5 0.269619 0.199410 0.161619
Si Si6 0.898366 0.500000 0.684763
Si Si7 0.885318 0.808426 0.168936
Si Si8 0.569541 0.000000 0.808147
O O1 0.470368 0.867483 0.217831
O O2 0.612802 0.852960 0.308517
O O3 0.497387 0.774663 0.305503
O O4 0.649221 0.814044 0.027506
O O5 0.192162 0.614109 0.491465
O O6 0.221215 0.652987 0.730200
O O7 0.147360 0.551571 0.734073
O O8 0.817808 0.138638 0.183700
O O9 0.676325 0.051892 0.284420
O O10 0.855479 0.202660 0.800144
O O11 0.000000 0.201945 0.500000
O O12 0.073908 0.185234 0.703416
O O13 0.309694 0.256102 0.196489
O O14 0.000000 0.500000 0.500000
O O15 0.970034 0.500000 0.770359
O O16 0.000000 0.800815 0.000000
O O17 0.500000 0.000000 0.000000
#
# Coordination Sequence:
#
# PCOD9222525 Si02
#       8
#     8   8   8   8   8   4   8   4
#     4  12  21  36  60  91 125 163 206 250 314 376
#     4  12  23  39  62  94 128 160 207 258 317 380
#     4  12  24  39  66  93 124 167 204 262 323 367
#     4  12  24  38  57  87 127 163 210 259 303 378
#     4  12  24  40  60  89 128 175 207 254 322 375
#     4  12  22  46  67  97 126 155 207 266 314 369
#     4  12  24  42  61  90 129 169 213 256 310 380
#     4  12  24  40  64  95 131 159 199 260 318 369
#
# _framework density 19.137362
#
# number of rings (size 3 to 8) (size 9 to 14) (size 15 to 20)
#    0.000    0.000    7.143    4.714    0.000    1.143 
#    0.000    0.357    0.000    0.857    0.000    3.000 
#    0.000    0.000    0.000    0.000    0.000    0.000 
#
# Total GULP energy -156521.640571 kJ/mol
# GULP energy per Si atom -5590.058592 kJ/mol
# Density = 1.909380 g / cm^3
# Si number density = 19.137362 Si / 1000 Ang^3
#
#
#
# Elastic Constant Matrix: (Units=GPa)
#
#
# Indices 1 2 3 4 5 6 
#
# 1 71.4639 42.0168 -0.0473 0.0000 1.9805 0.0000
# 2 42.0168 113.5629 13.1544 0.0000 -0.6722 0.0000
# 3 -0.0473 13.1544 59.1772 0.0000 19.0729 0.0000
# 4 0.0000 0.0000 0.0000 18.1800 0.0000 6.5778
# 5 1.9805 -0.6722 19.0729 0.0000 36.9423 0.0000
# 6 0.0000 0.0000 0.0000 6.5778 0.0000 17.5249
#
#
#
# Elastic Compliance Matrix: (Units=1/GPa)
#
#
# Indices 1 2 3 4 5 6 
#
# 1 0.018178 -0.007007 0.002312 0.000000 -0.002296 0.000000
# 2 -0.007007 0.011804 -0.003383 0.000000 0.002337 0.000000
# 3 0.002312 -0.003383 0.021248 0.000000 -0.011155 0.000000
# 4 0.000000 0.000000 0.000000 0.063649 0.000000 -0.023890
# 5 -0.002296 0.002337 -0.011155 0.000000 0.032994 0.000000
# 6 0.000000 0.000000 0.000000 -0.023890 0.000000 0.066028
#
#
# Mechanical properties :
#
#
# Convention : Reuss Voigt Hill
#
# Bulk Modulus (GPa) = 28.51104 39.38354 33.94729
# Shear Modulus (GPa) = 20.68272 27.13480 23.90876
#
# Velocity S-wave (km/s) = 3.29104 3.76958 3.53841
# Velocity P-wave (km/s) = 5.41957 6.29050 5.87121
#
# Compressibility (1/GPa) = 0.03507413
#
# Stress axis : x y z
#
# Youngs Moduli (GPa) = 55.01169 84.71814 47.06423
#
# Poissons Ratio (x) = 0.59362 -0.10881
# Poissons Ratio (y) = 0.38547 0.15920
# Poissons Ratio (z) = -0.12719 0.28657
#
# Static dielectric constant tensor:
#      x y z
#    x 1.656610 0.000000 0.006790 
#    y 0.000000 1.662610 0.000000 
#    z 0.006790 0.000000 1.683620 
# 
# From -- ./inp_files/65801.got.cif
#   From: 2010.05.17/outbox.cif.g08.bks.cpg/sg12_33_cif.got.tgz:65801.got - 2010.06.03 13:09:07.
