data_PCOD9222317
_publ_section_title
;
Structure prediction by ZEFSAII (Michael W. Deem and Ramdas Pophale) SiO2 
 PCOD9222317
Probable space group: C 2/M
;
_chemical_formula_sum "Si O2"
_cell_formula_units_Z 64
_cell_length_a 9.009150
_cell_length_b 18.858515
_cell_length_c 28.781365
_cell_angle_alpha 90.000000
_cell_angle_beta 140.688968
_cell_angle_gamma 90.000000
_cell_volume 3097.917055
_symmetry_space_group_name_H-M "C 2/M"
_symmetry_group_IT_number 12
_symmetry_cell_setting 'monoclinic'
loop_
_space_group_symop_operation_xyz
x,y,z
-x,y,-z
-x,-y,-z
x,-y,z
1/2+x,1/2+y,z
1/2-x,1/2+y,-z
1/2-x,1/2-y,-z
1/2+x,1/2-y,z
loop_
_atom_site_type_symbol
_atom_site_label
_atom_site_fract_x
_atom_site_fract_y
_atom_site_fract_z
Si Si1 0.660207 0.327920 0.492333
Si Si2 0.462692 0.302471 0.117113
Si Si3 0.053956 0.583166 0.634208
Si Si4 0.937584 0.698778 0.287733
Si Si5 0.864524 0.170361 0.331283
Si Si6 0.078594 0.341401 0.097654
Si Si7 0.894114 0.082272 0.250389
Si Si8 0.601299 0.582339 0.972865
O O1 0.500000 0.325297 0.500000
O O2 0.750000 0.250000 0.500000
O O3 0.509903 0.352593 0.411567
O O4 0.878690 0.378838 0.556021
O O5 0.677037 0.296910 0.204891
O O6 0.229554 0.320283 0.089340
O O7 0.453636 0.228321 0.087935
O O8 0.510415 0.364882 0.091767
O O9 0.001005 0.500000 0.625840
O O10 0.027861 0.626425 0.675643
O O11 0.325706 0.591168 0.685999
O O12 0.986794 0.764626 0.333733
O O13 0.119420 0.700828 0.289980
O O14 0.826084 0.108946 0.284876
O O15 0.258529 0.371466 0.179541
O O16 0.876720 0.398516 0.039539
O O17 0.837630 0.000000 0.229479
O O18 0.563119 0.500000 0.951887
O O19 0.500000 0.594737 0.000000
#
# Coordination Sequence:
#
# PCOD9222317 Si02
#       8
#     8   8   8   8   8   8   8   8
#     4  12  25  42  69  98 132 180 226 285 344 409
#     4  12  25  42  75 103 137 181 231 282 340 401
#     4  11  25  45  66  99 139 178 228 285 343 408
#     4  12  23  43  69 102 134 180 224 289 335 406
#     4  12  24  42  70  99 136 174 234 278 345 403
#     4  12  24  45  72 104 140 180 230 284 337 403
#     4  11  26  45  69 100 138 181 227 284 345 405
#     4  11  27  48  70 103 144 183 227 277 339 406
#
# _framework density 20.659043
#
# number of rings (size 3 to 8) (size 9 to 14) (size 15 to 20)
#    0.000    0.375    5.000    3.375    3.500    3.250 
#    0.000    1.250    0.000    0.000    0.000    0.000 
#    0.000    0.000    0.000    0.000    0.000    0.000 
#
# Total GULP energy -179132.052062 kJ/mol
# GULP energy per Si atom -5597.876627 kJ/mol
# Density = 2.061202 g / cm^3
# Si number density = 20.659043 Si / 1000 Ang^3
#
#
#
# Elastic Constant Matrix: (Units=GPa)
#
#
# Indices 1 2 3 4 5 6 
#
# 1 100.3790 40.2716 0.0748 0.0000 -12.0264 0.0000
# 2 40.2716 116.5354 23.2007 0.0000 -12.2829 0.0000
# 3 0.0748 23.2007 82.1674 -0.0003 -14.1065 -0.0002
# 4 0.0000 0.0000 -0.0003 36.9796 -0.0001 -4.1330
# 5 -12.0264 -12.2829 -14.1065 -0.0001 30.7748 0.0000
# 6 0.0000 0.0000 -0.0002 -4.1330 0.0000 30.3081
#
#
#
# Elastic Compliance Matrix: (Units=1/GPa)
#
#
# Indices 1 2 3 4 5 6 
#
# 1 0.012086 -0.004128 0.001826 0.000000 0.003913 0.000000
# 2 -0.004128 0.010707 -0.002782 0.000000 0.001385 0.000000
# 3 0.001826 -0.002782 0.013987 0.000000 0.006015 0.000000
# 4 0.000000 0.000000 0.000000 0.027460 0.000000 0.003745
# 5 0.003913 0.001385 0.006015 0.000000 0.037333 0.000000
# 6 0.000000 0.000000 0.000000 0.003745 0.000000 0.033505
#
#
# Mechanical properties :
#
#
# Convention : Reuss Voigt Hill
#
# Bulk Modulus (GPa) = 37.57525 47.35290 42.46407
# Shear Modulus (GPa) = 32.44318 35.31483 33.87901
#
# Velocity S-wave (km/s) = 3.96714 4.13899 4.05398
# Velocity P-wave (km/s) = 6.26195 6.76850 6.52015
#
# Compressibility (1/GPa) = 0.02661326
#
# Stress axis : x y z
#
# Youngs Moduli (GPa) = 82.74269 93.39397 71.49675
#
# Poissons Ratio (x) = 0.38550 -0.13057
# Poissons Ratio (y) = 0.34153 0.19888
# Poissons Ratio (z) = -0.15110 0.25979
#
# Static dielectric constant tensor:
#      x y z
#    x 1.722570 0.000000 0.010790 
#    y 0.000000 1.704310 0.000000 
#    z 0.010790 0.000000 1.742610 
# 
# From -- ./inp_files/372992.got.cif
#   From: 2010.05.17/outbox.cif.g08.bks.cpg/sg12_187_cif.got.tgz:372992.got - 2010.06.03 13:09:07.
