data_PCOD9222141
_publ_section_title
;
Structure prediction by ZEFSAII (Michael W. Deem and Ramdas Pophale) SiO2 
 PCOD9222141
Probable space group: C 2/M
;
_chemical_formula_sum "Si O2"
_cell_formula_units_Z 40
_cell_length_a 13.907712
_cell_length_b 21.953369
_cell_length_c 11.039926
_cell_angle_alpha 90.000000
_cell_angle_beta 33.686524
_cell_angle_gamma 90.000000
_cell_volume 1869.567096
_symmetry_space_group_name_H-M "C 2/M"
_symmetry_group_IT_number 12
_symmetry_cell_setting 'monoclinic'
loop_
_space_group_symop_operation_xyz
x,y,z
-x,y,-z
-x,-y,-z
x,-y,z
1/2+x,1/2+y,z
1/2-x,1/2+y,-z
1/2-x,1/2-y,-z
1/2+x,1/2-y,z
loop_
_atom_site_type_symbol
_atom_site_label
_atom_site_fract_x
_atom_site_fract_y
_atom_site_fract_z
Si Si1 0.193169 0.209336 0.444535
Si Si2 0.994527 0.390787 0.135347
Si Si3 0.631582 0.066833 0.476718
Si Si4 0.692886 0.680459 0.083547
Si Si5 0.802234 0.180017 0.192350
O O1 0.250000 0.250000 0.500000
O O2 0.340875 0.158679 0.280198
O O3 0.193590 0.259518 0.336774
O O4 0.004366 0.180966 0.664569
O O5 0.955888 0.426930 0.299571
O O6 0.173181 0.354648 0.972641
O O7 0.000000 0.424196 0.000000
O O8 0.500000 0.070916 0.500000
O O9 0.754116 0.125285 0.332284
O O10 0.715956 0.000000 0.380774
O O11 0.750000 0.750000 0.000000
O O12 0.713801 0.654469 0.925911
O O13 0.000000 0.199711 0.000000
#
# Coordination Sequence:
#
# PCOD9222141 Si02
#       5
#     8   8   8   8   8
#     4  12  22  37  59  99 137 167 211 256 321 409
#     4  12  25  42  63  96 132 170 212 263 332 394
#     4  11  24  44  68  91 120 169 231 277 316 375
#     4  12  22  36  60  90 132 175 203 254 319 380
#     4  12  22  39  63  94 131 168 217 267 321 387
#
# _framework density 21.395327000000002
#
# number of rings (size 3 to 8) (size 9 to 14) (size 15 to 20)
#    0.000    0.200    8.000    1.800    0.000    3.200 
#    0.000    0.000    0.000    0.000    0.000    4.200 
#    0.000    0.000    0.000    0.000    0.000    0.000 
#
# Total GULP energy -111811.951758 kJ/mol
# GULP energy per Si atom -5590.597588 kJ/mol
# Density = 2.134663 g / cm^3
# Si number density = 21.395327 Si / 1000 Ang^3
#
#
#
# Elastic Constant Matrix: (Units=GPa)
#
#
# Indices 1 2 3 4 5 6 
#
# 1 129.1846 9.4975 60.4046 0.0015 22.5784 -0.0007
# 2 9.4975 84.9743 38.1958 0.0001 -2.2346 0.0003
# 3 60.4046 38.1958 126.6236 0.0027 -4.4414 0.0005
# 4 0.0015 0.0001 0.0027 11.0163 -0.0017 -0.8673
# 5 22.5784 -2.2346 -4.4414 -0.0017 51.7702 0.0000
# 6 -0.0007 0.0003 0.0005 -0.8673 0.0000 8.9095
#
#
#
# Elastic Compliance Matrix: (Units=1/GPa)
#
#
# Indices 1 2 3 4 5 6 
#
# 1 0.011414 0.001289 -0.006024 -0.000001 -0.005439 0.000001
# 2 0.001289 0.013763 -0.004780 0.000001 -0.000378 0.000000
# 3 -0.006024 -0.004780 0.012335 -0.000002 0.003479 -0.000001
# 4 -0.000001 0.000001 -0.000002 0.091475 0.000003 0.008905
# 5 -0.005439 -0.000378 0.003479 0.000003 0.021970 0.000000
# 6 0.000001 0.000000 -0.000001 0.008905 0.000000 0.113107
#
#
# Mechanical properties :
#
#
# Convention : Reuss Voigt Hill
#
# Bulk Modulus (GPa) = 54.10802 61.88650 57.99726
# Shear Modulus (GPa) = 17.28582 29.85152 23.56867
#
# Velocity S-wave (km/s) = 2.84549 3.73934 3.32261
# Velocity P-wave (km/s) = 6.01168 6.90156 6.47193
#
# Compressibility (1/GPa) = 0.01848155
#
# Stress axis : x y z
#
# Youngs Moduli (GPa) = 87.61480 72.66007 81.06899
#
# Poissons Ratio (x) = -0.09368 0.48839
# Poissons Ratio (y) = -0.11296 0.38749
# Poissons Ratio (z) = 0.52783 0.34730
#
# Static dielectric constant tensor:
#      x y z
#    x 1.898580 0.000010 0.094480 
#    y 0.000010 1.461470 0.000010 
#    z 0.094480 0.000010 1.802260 
# 
# From -- ./inp_files/148788.got.cif
#   From: 2010.05.17/outbox.cif.g08.bks.cpg/sg12_75_cif.got.tgz:148788.got - 2010.06.03 13:09:07.
