data_PCOD9222929
_publ_section_title
;
Structure prediction by ZEFSAII (Michael W. Deem and Ramdas Pophale) SiO2 
 PCOD9222929
Probable space group: C 2/M
;
_chemical_formula_sum "Si O2"
_cell_formula_units_Z 48
_cell_length_a 9.345142
_cell_length_b 32.413146
_cell_length_c 8.451124
_cell_angle_alpha 90.000000
_cell_angle_beta 132.438190
_cell_angle_gamma 90.000000
_cell_volume 1889.214612
_symmetry_space_group_name_H-M "C 2/M"
_symmetry_group_IT_number 12
_symmetry_cell_setting 'monoclinic'
loop_
_space_group_symop_operation_xyz
x,y,z
-x,y,-z
-x,-y,-z
x,-y,z
1/2+x,1/2+y,z
1/2-x,1/2+y,-z
1/2-x,1/2-y,-z
1/2+x,1/2-y,z
loop_
_atom_site_type_symbol
_atom_site_label
_atom_site_fract_x
_atom_site_fract_y
_atom_site_fract_z
Si Si1 0.735087 0.630171 0.848453
Si Si2 0.721255 0.719258 0.834243
Si Si3 0.778244 0.869198 0.538508
Si Si4 0.134239 0.791830 0.253182
Si Si5 0.228635 0.955642 0.355062
Si Si6 0.268083 0.544740 0.022051
O O1 0.815284 0.675369 0.951815
O O2 0.740375 0.633368 0.663191
O O3 0.511956 0.628512 0.742507
O O4 0.817437 0.586868 0.970843
O O5 0.792433 0.746448 0.741108
O O6 0.493158 0.711118 0.681645
O O7 0.750000 0.750000 0.000000
O O8 0.719597 0.828881 0.595210
O O9 0.688520 0.912897 0.520114
O O10 0.000000 0.804161 0.000000
O O11 0.000326 0.956125 0.231397
O O12 0.310982 0.000000 0.470616
O O13 0.241617 0.954030 0.175252
O O14 0.190963 0.500000 0.018626
#
# Coordination Sequence:
#
# PCOD9222929 Si02
#       6
#     8   8   8   8   8   8
#     4   9  17  27  38  60  86 112 147 179 221 263
#     4   9  18  30  46  65  86 117 151 183 219 262
#     4   9  17  25  40  59  84 116 143 182 219 260
#     4   9  18  30  46  64  86 116 152 182 221 262
#     4   8  14  22  35  56  80 112 148 174 210 263
#     4   8  14  23  37  55  80 112 144 178 213 260
#
# _framework density 25.407384
#
# number of rings (size 3 to 8) (size 9 to 14) (size 15 to 20)
#    0.000    3.333    0.000    1.000    9.333    1.333 
#    0.000    3.333    0.000    0.000    0.000    0.000 
#    0.000    7.333    0.000    3.167    0.000    3.333 
#
# Total GULP energy -133815.159655 kJ/mol
# GULP energy per Si atom -5575.631652 kJ/mol
# Density = 2.534956 g / cm^3
# Si number density = 25.407384 Si / 1000 Ang^3
#
#
#
# Elastic Constant Matrix: (Units=GPa)
#
#
# Indices 1 2 3 4 5 6 
#
# 1 91.5197 26.5428 -1.4468 0.0000 -4.5465 0.0000
# 2 26.5428 299.6064 32.2783 0.0000 -18.8877 0.0000
# 3 -1.4468 32.2783 27.3857 0.0000 0.5695 0.0000
# 4 0.0000 0.0000 0.0000 -2.7314 0.0000 -23.9103
# 5 -4.5465 -18.8877 0.5695 0.0000 18.7759 0.0000
# 6 0.0000 0.0000 0.0000 -23.9103 0.0000 17.7967
#
#
#
# Elastic Compliance Matrix: (Units=1/GPa)
#
#
# Indices 1 2 3 4 5 6 
#
# 1 0.011356 -0.001108 0.001874 0.000000 0.001578 0.000000
# 2 -0.001108 0.004255 -0.005160 0.000000 0.004168 0.000000
# 3 0.001874 -0.005160 0.042822 0.000000 -0.006036 0.000000
# 4 0.000000 0.000000 0.000000 -0.028690 0.000000 -0.038546
# 5 0.001578 0.004168 -0.006036 0.000000 0.058018 0.000000
# 6 0.000000 0.000000 0.000000 -0.038546 0.000000 0.004403
#
#
# Mechanical properties :
#
#
# Convention : Reuss Voigt Hill
#
# Bulk Modulus (GPa) = 20.14391 59.25114 39.69752
# Shear Modulus (GPa) = 42.55298 30.84407 36.69853
#
# Velocity S-wave (km/s) = 4.09691 3.48800 3.80465
# Velocity P-wave (km/s) = 5.50682 6.29227 5.91260
#
# Compressibility (1/GPa) = 0.04964280
#
# Stress axis : x y z
#
# Youngs Moduli (GPa) = 88.05846 235.04120 23.35270
#
# Poissons Ratio (x) = 0.26053 -0.04375
# Poissons Ratio (y) = 0.09761 0.12050
# Poissons Ratio (z) = -0.16499 1.21279
#
# Static dielectric constant tensor:
#      x y z
#    x 2.316930 0.000000 0.205810 
#    y 0.000000 2.166250 0.000000 
#    z 0.205810 0.000000 2.068310 
# 
# From -- ./inp_files/53836.got.cif
#   From: 2010.05.17/outbox.cif.g08.bks.cpg/sg12_27_cif.got.tgz:53836.got - 2010.06.03 13:09:07.
