data_PCOD9222353
_publ_section_title
;
Structure prediction by ZEFSAII (Michael W. Deem and Ramdas Pophale) SiO2 
 PCOD9222353
Probable space group: C 2/M
;
_chemical_formula_sum "Si O2"
_cell_formula_units_Z 18
_cell_length_a 6.878430
_cell_length_b 12.650312
_cell_length_c 8.984947
_cell_angle_alpha 90.000000
_cell_angle_beta 49.325066
_cell_angle_gamma 90.000000
_cell_volume 592.946617
_symmetry_space_group_name_H-M "C 2/M"
_symmetry_group_IT_number 12
_symmetry_cell_setting 'monoclinic'
loop_
_space_group_symop_operation_xyz
x,y,z
-x,y,-z
-x,-y,-z
x,-y,z
1/2+x,1/2+y,z
1/2-x,1/2+y,-z
1/2-x,1/2-y,-z
1/2+x,1/2-y,z
loop_
_atom_site_type_symbol
_atom_site_label
_atom_site_fract_x
_atom_site_fract_y
_atom_site_fract_z
Si Si1 0.710206 0.885488 0.208546
Si Si2 0.529174 0.655763 0.309872
Si Si3 0.500000 0.000000 0.000000
O O1 0.560377 0.779023 0.250820
O O2 0.778415 0.886065 0.349631
O O3 0.604216 0.000000 0.205403
O O4 0.000000 0.877060 0.000000
O O5 0.500000 0.644441 0.500000
O O6 0.775987 0.592232 0.135131
#
# Coordination Sequence:
#
# PCOD9222353 Si02
#       3
#     8   8   2
#     4  11  25  46  72 107 143 183 235 288 353 416
#     4  12  26  48  73 106 141 187 237 288 351 418
#     4  12  26  44  80  96 148 188 230 292 356 410
#
# _framework density 30.356862
#
# number of rings (size 3 to 8) (size 9 to 14) (size 15 to 20)
#    0.000    0.444    4.444    3.333    0.000    0.889 
#    0.000    0.000    0.000    0.000    0.000    0.000 
#    0.000    0.000    0.000    0.000    0.000    0.000 
#
# Total GULP energy -50517.489057 kJ/mol
# GULP energy per Si atom -5613.054340 kJ/mol
# Density = 3.028777 g / cm^3
# Si number density = 30.356862 Si / 1000 Ang^3
#
#
#
# Elastic Constant Matrix: (Units=GPa)
#
#
# Indices 1 2 3 4 5 6 
#
# 1 171.0618 78.2100 43.5039 -0.0022 -30.8927 0.0052
# 2 78.2100 332.3479 65.9888 0.0004 -21.1299 -0.0010
# 3 43.5039 65.9888 129.2340 -0.0020 -5.9076 0.0048
# 4 -0.0022 0.0004 -0.0020 15.1015 0.0006 96.5174
# 5 -30.8927 -21.1299 -5.9076 0.0006 52.8370 -0.0011
# 6 0.0052 -0.0010 0.0048 96.5174 -0.0011 -180.8745
#
#
#
# Elastic Compliance Matrix: (Units=1/GPa)
#
#
# Indices 1 2 3 4 5 6 
#
# 1 0.007503 -0.001181 -0.001753 0.000000 0.003719 0.000000
# 2 -0.001181 0.003606 -0.001416 0.000000 0.000593 0.000000
# 3 -0.001753 -0.001416 0.009025 0.000000 -0.000582 0.000000
# 4 0.000000 0.000000 0.000000 0.015014 0.000000 0.008012
# 5 0.003719 0.000593 -0.000582 0.000000 0.021272 0.000000
# 6 0.000000 0.000000 0.000000 0.008012 0.000000 -0.001254
#
#
# Mechanical properties :
#
#
# Convention : Reuss Voigt Hill
#
# Bulk Modulus (GPa) = 87.46709 112.00545 99.73627
# Shear Modulus (GPa) = 73.87927 7.07553 40.47740
#
# Velocity S-wave (km/s) = 4.93860 1.52835 3.65552
# Velocity P-wave (km/s) = 7.83551 6.33173 7.12341
#
# Compressibility (1/GPa) = 0.01143287
#
# Stress axis : x y z
#
# Youngs Moduli (GPa) = 133.27623 277.32973 110.80922
#
# Poissons Ratio (x) = 0.32761 0.19421
# Poissons Ratio (y) = 0.15744 0.15695
# Poissons Ratio (z) = 0.23358 0.39282
#
# Static dielectric constant tensor:
#      x y z
#    x 2.102570 0.000000 -0.057910 
#    y 0.000000 2.193550 0.000000 
#    z -0.057910 0.000000 2.260650 
# 
# From -- ./inp_files/34962.got.cif
#   From: 2010.05.17/outbox.cif.g08.bks.cpg/sg12_18_cif.got.tgz:34962.got - 2010.06.03 13:09:07.
