data_PCOD9222641
_publ_section_title
;
Structure prediction by ZEFSAII (Michael W. Deem and Ramdas Pophale) SiO2 
 PCOD9222641
Probable space group: C 2/M
;
_chemical_formula_sum "Si O2"
_cell_formula_units_Z 28
_cell_length_a 15.869432
_cell_length_b 18.778882
_cell_length_c 7.865643
_cell_angle_alpha 90.000000
_cell_angle_beta 36.166228
_cell_angle_gamma 90.000000
_cell_volume 1383.289175
_symmetry_space_group_name_H-M "C 2/M"
_symmetry_group_IT_number 12
_symmetry_cell_setting 'monoclinic'
loop_
_space_group_symop_operation_xyz
x,y,z
-x,y,-z
-x,-y,-z
x,-y,z
1/2+x,1/2+y,z
1/2-x,1/2+y,-z
1/2-x,1/2-y,-z
1/2+x,1/2-y,z
loop_
_atom_site_type_symbol
_atom_site_label
_atom_site_fract_x
_atom_site_fract_y
_atom_site_fract_z
Si Si1 0.563513 0.921250 0.654520
Si Si2 0.500000 0.687826 0.500000
Si Si3 0.746163 0.920319 0.013246
Si Si4 0.907835 0.735739 0.300574
O O1 0.675601 0.914552 0.315216
O O2 0.398328 0.918026 0.863433
O O3 0.583572 0.849331 0.720656
O O4 0.588245 0.000000 0.689644
O O5 0.545841 0.735289 0.589139
O O6 0.364018 0.638595 0.774649
O O7 0.808781 0.000000 0.894003
O O8 0.750000 0.750000 0.500000
O O9 0.000000 0.769654 0.000000
#
# Coordination Sequence:
#
# PCOD9222641 Si02
#       4
#     8   4   8   8
#     4   9  19  38  61  86 119 158 204 252 293 352
#     4  12  23  40  63  88 130 164 188 256 315 342
#     4   9  18  35  63  92 117 159 207 241 298 367
#     4  12  26  41  62  94 123 158 208 248 299 369
#
# _framework density 20.241609
#
# number of rings (size 3 to 8) (size 9 to 14) (size 15 to 20)
#    0.000    1.714    0.000    7.286    0.000    4.000 
#    0.000    2.857    0.000    7.714    0.000    0.000 
#    0.000    0.000    0.000    0.000    0.000    0.000 
#
# Total GULP energy -78048.361782 kJ/mol
# GULP energy per Si atom -5574.882984 kJ/mol
# Density = 2.019554 g / cm^3
# Si number density = 20.241609 Si / 1000 Ang^3
#
#
#
# Elastic Constant Matrix: (Units=GPa)
#
#
# Indices 1 2 3 4 5 6 
#
# 1 109.4160 64.7541 62.0550 -0.0001 9.1611 0.0000
# 2 64.7541 155.8452 62.1778 -0.0001 1.8127 0.0001
# 3 62.0550 62.1778 141.4470 -0.0002 -8.9309 0.0001
# 4 -0.0001 -0.0001 -0.0002 25.1918 0.0001 3.2146
# 5 9.1611 1.8127 -8.9309 0.0001 25.0389 -0.0001
# 6 0.0000 0.0001 0.0001 3.2146 -0.0001 13.8398
#
#
#
# Elastic Compliance Matrix: (Units=1/GPa)
#
#
# Indices 1 2 3 4 5 6 
#
# 1 0.015176 -0.004106 -0.005304 0.000000 -0.007147 0.000000
# 2 -0.004106 0.008975 -0.002138 0.000000 0.000090 0.000000
# 3 -0.005304 -0.002138 0.010710 0.000000 0.005916 0.000000
# 4 0.000000 0.000000 0.000000 0.040908 0.000000 -0.009502
# 5 -0.007147 0.000090 0.005916 0.000000 0.044656 0.000000
# 6 0.000000 0.000000 0.000000 -0.009502 0.000000 0.074462
#
#
# Mechanical properties :
#
#
# Convention : Reuss Voigt Hill
#
# Bulk Modulus (GPa) = 85.00458 87.18688 86.09573
# Shear Modulus (GPa) = 22.53201 27.32887 24.93044
#
# Velocity S-wave (km/s) = 3.34001 3.67840 3.51328
# Velocity P-wave (km/s) = 7.54721 7.82352 7.68661
#
# Compressibility (1/GPa) = 0.01176407
#
# Stress axis : x y z
#
# Youngs Moduli (GPa) = 65.89163 111.42326 93.36940
#
# Poissons Ratio (x) = 0.45756 0.49526
# Poissons Ratio (y) = 0.27058 0.19961
# Poissons Ratio (z) = 0.34951 0.23821
#
# Static dielectric constant tensor:
#      x y z
#    x 1.728310 0.000000 0.006160 
#    y 0.000000 1.507140 0.000000 
#    z 0.006160 0.000000 1.828280 
# 
# From -- ./inp_files/37911.got.cif
#   From: 2010.05.17/outbox.cif.g08.bks.cpg/sg12_19_cif.got.tgz:37911.got - 2010.06.03 13:09:07.
