data_PCOD9222182
_publ_section_title
;
Structure prediction by ZEFSAII (Michael W. Deem and Ramdas Pophale) SiO2 
 PCOD9222182
Probable space group: C 2/M
;
_chemical_formula_sum "Si O2"
_cell_formula_units_Z 48
_cell_length_a 23.236119
_cell_length_b 17.185940
_cell_length_c 16.045638
_cell_angle_alpha 90.000000
_cell_angle_beta 20.199095
_cell_angle_gamma 90.000000
_cell_volume 2212.430014
_symmetry_space_group_name_H-M "C 2/M"
_symmetry_group_IT_number 12
_symmetry_cell_setting 'monoclinic'
loop_
_space_group_symop_operation_xyz
x,y,z
-x,y,-z
-x,-y,-z
x,-y,z
1/2+x,1/2+y,z
1/2-x,1/2+y,-z
1/2-x,1/2-y,-z
1/2+x,1/2-y,z
loop_
_atom_site_type_symbol
_atom_site_label
_atom_site_fract_x
_atom_site_fract_y
_atom_site_fract_z
Si Si1 0.415137 0.866709 0.439529
Si Si2 0.216044 0.841151 0.554201
Si Si3 0.953483 0.199285 0.468799
Si Si4 0.213463 0.912084 0.026990
Si Si5 0.378769 0.411551 0.039052
Si Si6 0.803286 0.408052 0.258350
O O1 0.355561 0.874875 0.425900
O O2 0.428198 0.776201 0.448276
O O3 0.593400 0.904044 0.213340
O O4 0.270888 0.901216 0.693670
O O5 0.250000 0.750000 0.500000
O O6 0.221053 0.883535 0.458311
O O7 0.034765 0.855312 0.840421
O O8 0.789238 0.145262 0.683916
O O9 0.000000 0.220462 0.500000
O O10 0.103794 0.149061 0.226348
O O11 0.190458 0.897960 0.959821
O O12 0.155398 0.000000 0.123697
O O13 0.442551 0.500000 0.957292
O O14 0.781040 0.500000 0.273077
O O15 0.000000 0.391943 0.000000
#
# Coordination Sequence:
#
# PCOD9222182 Si02
#       6
#     8   8   8   8   8   8
#     4  12  26  42  70 103 136 176 230 280 338 414
#     4  12  25  44  71  99 139 177 223 280 345 405
#     4  12  26  45  71  98 139 180 232 283 342 399
#     4  11  24  45  68  97 139 179 225 281 342 405
#     4  11  24  45  69  99 140 179 224 283 346 407
#     4  11  26  47  71 100 137 180 229 282 340 405
#
# _framework density 21.695602000000001
#
# number of rings (size 3 to 8) (size 9 to 14) (size 15 to 20)
#    0.000    0.500    3.333    4.000    4.667    6.000 
#    0.000    0.000    0.000    0.000    0.000    0.000 
#    0.000    0.000    0.000    0.000    0.000    0.000 
#
# Total GULP energy -134440.448632 kJ/mol
# GULP energy per Si atom -5601.685360 kJ/mol
# Density = 2.164622 g / cm^3
# Si number density = 21.695602 Si / 1000 Ang^3
#
#
#
# Elastic Constant Matrix: (Units=GPa)
#
#
# Indices 1 2 3 4 5 6 
#
# 1 67.5518 -6.6289 -6.0228 -0.0002 -22.7899 0.0005
# 2 -6.6289 55.2733 7.9796 0.0001 -11.0636 -0.0009
# 3 -6.0228 7.9796 94.5182 -0.0002 -18.8734 0.0006
# 4 -0.0002 0.0001 -0.0002 34.7710 0.0002 -12.5397
# 5 -22.7899 -11.0636 -18.8734 0.0002 38.0091 -0.0003
# 6 0.0005 -0.0009 0.0006 -12.5397 -0.0003 13.5648
#
#
#
# Elastic Compliance Matrix: (Units=1/GPa)
#
#
# Indices 1 2 3 4 5 6 
#
# 1 0.021175 0.005196 0.004160 0.000000 0.016275 0.000000
# 2 0.005196 0.020513 0.000459 0.000001 0.009315 0.000002
# 3 0.004160 0.000459 0.012578 0.000000 0.008874 -0.000001
# 4 0.000000 0.000001 0.000000 0.043143 0.000000 0.039882
# 5 0.016275 0.009315 0.008874 0.000000 0.043185 0.000001
# 6 0.000000 0.000002 -0.000001 0.039882 0.000001 0.110589
#
#
# Mechanical properties :
#
#
# Convention : Reuss Voigt Hill
#
# Bulk Modulus (GPa) = 13.53207 23.11099 18.32153
# Shear Modulus (GPa) = 19.51724 32.07001 25.79362
#
# Velocity S-wave (km/s) = 3.00258 3.84888 3.45177
# Velocity P-wave (km/s) = 4.27451 5.51610 4.93451
#
# Compressibility (1/GPa) = 0.07389855
#
# Stress axis : x y z
#
# Youngs Moduli (GPa) = 47.22576 48.74886 79.50239
#
# Poissons Ratio (x) = -0.25332 -0.33075
# Poissons Ratio (y) = -0.24541 -0.03651
# Poissons Ratio (z) = -0.19647 -0.02239
#
# Static dielectric constant tensor:
#      x y z
#    x 1.768570 0.000000 -0.010170 
#    y 0.000000 1.769170 0.000000 
#    z -0.010170 0.000000 1.768470 
# 
# From -- ./inp_files/290530.got.cif
#   From: 2010.05.17/outbox.cif.g08.bks.cpg/sg12_146_cif.got.tgz:290530.got - 2010.06.03 13:09:07.
