data_PCOD9222695
_publ_section_title
;
Structure prediction by ZEFSAII (Michael W. Deem and Ramdas Pophale) SiO2 
 PCOD9222695
Probable space group: C 2/M
;
_chemical_formula_sum "Si O2"
_cell_formula_units_Z 48
_cell_length_a 6.910970
_cell_length_b 13.617252
_cell_length_c 18.129347
_cell_angle_alpha 90.000000
_cell_angle_beta 94.768209
_cell_angle_gamma 90.000000
_cell_volume 1700.219537
_symmetry_space_group_name_H-M "C 2/M"
_symmetry_group_IT_number 12
_symmetry_cell_setting 'monoclinic'
loop_
_space_group_symop_operation_xyz
x,y,z
-x,y,-z
-x,-y,-z
x,-y,z
1/2+x,1/2+y,z
1/2-x,1/2+y,-z
1/2-x,1/2-y,-z
1/2+x,1/2-y,z
loop_
_atom_site_type_symbol
_atom_site_label
_atom_site_fract_x
_atom_site_fract_y
_atom_site_fract_z
Si Si1 0.849539 0.117731 0.635293
Si Si2 0.531729 0.614734 0.206965
Si Si3 0.778025 0.617729 0.521496
Si Si4 0.905959 0.617059 0.677389
Si Si5 0.023656 0.615434 0.838904
Si Si6 0.404206 0.293832 0.060874
O O1 0.970677 0.156692 0.709419
O O2 0.853067 0.154302 0.550882
O O3 0.627209 0.127969 0.656076
O O4 0.885320 0.000000 0.631682
O O5 0.497952 0.500000 0.215573
O O6 0.749929 0.625538 0.180299
O O7 0.393264 0.649814 0.137155
O O8 0.745163 0.500000 0.524573
O O9 0.000000 0.628671 0.500000
O O10 0.772654 0.654529 0.605856
O O11 0.872383 0.500000 0.679514
O O12 0.902316 0.646752 0.762419
O O13 0.992713 0.500000 0.854692
O O14 0.999811 0.692323 0.903779
O O15 0.500000 0.362157 0.000000
O O16 0.250000 0.250000 0.000000
#
# Coordination Sequence:
#
# PCOD9222695 Si02
#       6
#     8   8   8   8   8   8
#     4   7  10  18  36  64  94 125 161 199 237 281
#     4   9  18  34  55  75 100 136 172 206 251 308
#     4   7   8  12  28  59  95 123 154 196 235 275
#     4   7  10  18  36  63  94 128 160 194 240 288
#     4   9  18  34  54  75 102 135 170 208 253 305
#     4  12  24  38  55  78 102 129 169 218 265 309
#
# _framework density 28.231649000000001
#
# number of rings (size 3 to 8) (size 9 to 14) (size 15 to 20)
#    0.000    3.500    1.667    4.000    0.000    1.333 
#    0.000    0.000    0.000    1.000    0.000    0.000 
#    0.000    0.000    0.000   10.667    0.000    3.333 
#
# Total GULP energy -134049.400712 kJ/mol
# GULP energy per Si atom -5585.391696 kJ/mol
# Density = 2.816739 g / cm^3
# Si number density = 28.231649 Si / 1000 Ang^3
#
#
#
# Elastic Constant Matrix: (Units=GPa)
#
#
# Indices 1 2 3 4 5 6 
#
# 1 85.7484 6.7003 91.1245 0.0000 1.0320 0.0000
# 2 6.7003 125.8949 57.3712 0.0000 -3.2161 0.0000
# 3 91.1245 57.3712 400.4170 0.0000 20.9964 0.0000
# 4 0.0000 0.0000 0.0000 63.8258 0.0000 -0.4451
# 5 1.0320 -3.2161 20.9964 0.0000 76.3091 0.0000
# 6 0.0000 0.0000 0.0000 -0.4451 0.0000 11.5851
#
#
#
# Elastic Compliance Matrix: (Units=1/GPa)
#
#
# Indices 1 2 3 4 5 6 
#
# 1 0.015517 0.000883 -0.003702 0.000000 0.000846 0.000000
# 2 0.000883 0.008586 -0.001471 0.000000 0.000755 0.000000
# 3 -0.003702 -0.001471 0.003603 0.000000 -0.001003 0.000000
# 4 0.000000 0.000000 0.000000 0.015672 0.000000 0.000602
# 5 0.000846 0.000755 -0.001003 0.000000 0.013401 0.000000
# 6 0.000000 0.000000 0.000000 0.000602 0.000000 0.086341
#
#
# Mechanical properties :
#
#
# Convention : Reuss Voigt Hill
#
# Bulk Modulus (GPa) = 52.28445 102.49471 77.38958
# Shear Modulus (GPa) = 31.63054 60.80161 46.21607
#
# Velocity S-wave (km/s) = 3.35086 4.64580 4.05041
# Velocity P-wave (km/s) = 5.79060 8.07228 7.02469
#
# Compressibility (1/GPa) = 0.01912615
#
# Stress axis : x y z
#
# Youngs Moduli (GPa) = 64.44496 116.47423 277.52881
#
# Poissons Ratio (x) = -0.10283 1.02745
# Poissons Ratio (y) = -0.05690 0.40814
# Poissons Ratio (z) = 0.23858 0.17129
#
# Static dielectric constant tensor:
#      x y z
#    x 2.525010 0.000000 -0.040320 
#    y 0.000000 0.115020 0.000000 
#    z -0.040320 0.000000 2.120930 
# 
# From -- ./inp_files/262534.got.cif
#   From: 2010.05.17/outbox.cif.g08.bks.cpg/sg12_132_cif.got.tgz:262534.got - 2010.06.03 13:09:07.
