data_PCOD9222725
_publ_section_title
;
Structure prediction by ZEFSAII (Michael W. Deem and Ramdas Pophale) SiO2 
 PCOD9222725
Probable space group: C 2/M
;
_chemical_formula_sum "Si O2"
_cell_formula_units_Z 48
_cell_length_a 17.420456
_cell_length_b 13.473344
_cell_length_c 9.159580
_cell_angle_alpha 90.000000
_cell_angle_beta 88.905220
_cell_angle_gamma 90.000000
_cell_volume 2149.469033
_symmetry_space_group_name_H-M "C 2/M"
_symmetry_group_IT_number 12
_symmetry_cell_setting 'monoclinic'
loop_
_space_group_symop_operation_xyz
x,y,z
-x,y,-z
-x,-y,-z
x,-y,z
1/2+x,1/2+y,z
1/2-x,1/2+y,-z
1/2-x,1/2-y,-z
1/2+x,1/2-y,z
loop_
_atom_site_type_symbol
_atom_site_label
_atom_site_fract_x
_atom_site_fract_y
_atom_site_fract_z
Si Si1 0.106703 0.500000 0.452204
Si Si2 0.074018 0.285435 0.823281
Si Si3 0.670554 0.286257 0.074488
Si Si4 0.078999 0.286313 0.332979
Si Si5 0.105520 0.500000 0.805446
Si Si6 0.273496 0.500000 0.295780
Si Si7 0.673731 0.707380 0.579057
Si Si8 0.225866 0.000000 0.059275
O O1 0.069676 0.397708 0.395462
O O2 0.108901 0.500000 0.628057
O O3 0.190964 0.500000 0.377634
O O4 0.064074 0.400658 0.859494
O O5 0.145789 0.278764 0.709674
O O6 0.998103 0.251583 0.743278
O O7 0.101575 0.225600 0.961876
O O8 0.647249 0.218696 0.211745
O O9 0.750000 0.250000 0.000000
O O10 0.683078 0.400678 0.111697
O O11 0.106928 0.215685 0.461500
O O12 0.189670 0.500000 0.874343
O O13 0.314279 0.599655 0.352411
O O14 0.269557 0.500000 0.119001
O O15 0.750000 0.750000 0.500000
#
# Coordination Sequence:
#
# PCOD9222725 Si02
#       8
#     4   8   8   8   4   4   8   4
#     4  12  25  42  71 106 145 179 227 295 355 414
#     4  12  25  46  68 107 144 183 231 287 357 415
#     4  12  25  47  73 101 140 187 238 288 341 418
#     4  12  27  44  71 105 146 184 226 293 360 412
#     4  12  25  40  75 104 143 181 230 289 349 430
#     4  12  24  45  72 107 136 178 244 294 332 411
#     4  12  24  44  72 103 139 186 232 283 344 416
#     4  12  26  45  74 105 132 184 245 292 338 405
#
# _framework density 22.331098000000001
#
# number of rings (size 3 to 8) (size 9 to 14) (size 15 to 20)
#    0.000    0.000    6.667    3.500    2.333    0.667 
#    0.000    6.667    0.000    0.000    0.000    0.000 
#    0.000    0.000    0.000    0.000    0.000    0.000 
#
# Total GULP energy -134421.484935 kJ/mol
# GULP energy per Si atom -5600.895206 kJ/mol
# Density = 2.228027 g / cm^3
# Si number density = 22.331098 Si / 1000 Ang^3
#
#
#
# Elastic Constant Matrix: (Units=GPa)
#
#
# Indices 1 2 3 4 5 6 
#
# 1 83.8302 32.0620 48.3677 0.0000 17.4733 0.0000
# 2 32.0620 109.7728 28.7557 0.0000 8.9354 0.0000
# 3 48.3677 28.7557 119.7293 0.0000 16.1301 0.0000
# 4 0.0000 0.0000 0.0000 32.0081 0.0000 16.0194
# 5 17.4733 8.9354 16.1301 0.0000 61.7466 0.0000
# 6 0.0000 0.0000 0.0000 16.0194 0.0000 20.3519
#
#
#
# Elastic Compliance Matrix: (Units=1/GPa)
#
#
# Indices 1 2 3 4 5 6 
#
# 1 0.017077 -0.003253 -0.005731 0.000000 -0.002865 0.000000
# 2 -0.003253 0.010382 -0.001141 0.000000 -0.000284 0.000000
# 3 -0.005731 -0.001141 0.011091 0.000000 -0.001110 0.000000
# 4 0.000000 0.000000 0.000000 0.051549 0.000000 -0.040576
# 5 -0.002865 -0.000284 -0.001110 0.000000 0.017337 0.000000
# 6 0.000000 0.000000 0.000000 -0.040576 0.000000 0.081073
#
#
# Mechanical properties :
#
#
# Convention : Reuss Voigt Hill
#
# Bulk Modulus (GPa) = 54.64855 59.07809 56.86332
# Shear Modulus (GPa) = 23.27087 36.43113 29.85100
#
# Velocity S-wave (km/s) = 3.23163 4.04345 3.66012
# Velocity P-wave (km/s) = 6.20078 6.95070 6.58642
#
# Compressibility (1/GPa) = 0.01829875
#
# Stress axis : x y z
#
# Youngs Moduli (GPa) = 58.55804 96.32144 90.16187
#
# Poissons Ratio (x) = 0.31336 0.51676
# Poissons Ratio (y) = 0.19050 0.10287
# Poissons Ratio (z) = 0.33562 0.10990
#
# Static dielectric constant tensor:
#      x y z
#    x 1.842550 0.000000 -0.020540 
#    y 0.000000 1.797380 0.000000 
#    z -0.020540 0.000000 1.860710 
# 
# From -- ./inp_files/73709.got.cif
#   From: 2010.05.17/outbox.cif.g08.bks.cpg/sg12_37_cif.got.tgz:73709.got - 2010.06.03 13:09:07.
