data_PCOD9222554
_publ_section_title
;
Structure prediction by ZEFSAII (Michael W. Deem and Ramdas Pophale) SiO2 
 PCOD9222554
Probable space group: C 2/M
;
_chemical_formula_sum "Si O2"
_cell_formula_units_Z 56
_cell_length_a 17.627625
_cell_length_b 25.717395
_cell_length_c 21.521124
_cell_angle_alpha 90.000000
_cell_angle_beta 19.045088
_cell_angle_gamma 90.000000
_cell_volume 3183.603148
_symmetry_space_group_name_H-M "C 2/M"
_symmetry_group_IT_number 12
_symmetry_cell_setting 'monoclinic'
loop_
_space_group_symop_operation_xyz
x,y,z
-x,y,-z
-x,-y,-z
x,-y,z
1/2+x,1/2+y,z
1/2-x,1/2+y,-z
1/2-x,1/2-y,-z
1/2+x,1/2-y,z
loop_
_atom_site_type_symbol
_atom_site_label
_atom_site_fract_x
_atom_site_fract_y
_atom_site_fract_z
Si Si1 0.545059 0.865388 0.086620
Si Si2 0.243219 0.806460 0.968853
Si Si3 0.790617 0.682163 0.631217
Si Si4 0.976053 0.856893 0.660892
Si Si5 0.722370 0.940389 0.780352
Si Si6 0.293853 0.225899 0.205972
Si Si7 0.126391 0.696367 0.577942
O O1 0.605191 0.846121 0.107935
O O2 0.389523 0.916057 0.195254
O O3 0.402238 0.819972 0.163426
O O4 0.787171 0.866796 0.861442
O O5 0.370262 0.800807 0.804898
O O6 0.250000 0.750000 0.000000
O O7 0.984447 0.829013 0.162211
O O8 0.777646 0.730203 0.690336
O O9 0.864201 0.690800 0.503009
O O10 0.000000 0.648517 0.500000
O O11 0.923161 0.903503 0.653399
O O12 0.903846 0.803660 0.680693
O O13 0.219895 0.847536 0.505865
O O14 0.792907 0.000000 0.719839
O O15 0.500000 0.937448 0.000000
O O16 0.500000 0.243068 0.000000
O O17 0.250000 0.750000 0.500000
#
# Coordination Sequence:
#
# PCOD9222554 Si02
#       7
#     8   8   8   8   8   8   8
#     4   9  15  31  49  73 104 142 179 220 256 310
#     4  12  22  35  51  70 101 138 183 225 264 311
#     4  12  25  34  48  71  98 133 181 224 266 310
#     4   9  17  31  51  73 105 142 181 218 257 317
#     4   8  15  28  53  85 115 144 177 218 268 321
#     4   9  18  29  46  68  98 138 181 217 255 304
#     4  12  22  34  51  71 101 139 183 224 264 310
#
# _framework density 17.590132000000001
#
# number of rings (size 3 to 8) (size 9 to 14) (size 15 to 20)
#    0.000    1.857    4.286    2.571    4.000    0.000 
#    0.000    2.143    0.000    1.714    0.000    0.000 
#    0.000    2.286    0.000    2.571    0.000    1.143 
#
# Total GULP energy -156048.476480 kJ/mol
# GULP energy per Si atom -5573.159874 kJ/mol
# Density = 1.755010 g / cm^3
# Si number density = 17.590132 Si / 1000 Ang^3
#
#
#
# Elastic Constant Matrix: (Units=GPa)
#
#
# Indices 1 2 3 4 5 6 
#
# 1 125.1304 31.1874 47.5315 -0.0550 -5.9454 -0.0069
# 2 31.1874 65.9114 8.9273 -0.1363 -2.8437 0.0634
# 3 47.5315 8.9273 75.7029 -0.2746 7.5542 0.1959
# 4 -0.0550 -0.1363 -0.2746 6.6967 0.1145 -2.5427
# 5 -5.9454 -2.8437 7.5542 0.1145 30.9981 -0.0123
# 6 -0.0069 0.0634 0.1959 -2.5427 -0.0123 16.2170
#
#
#
# Elastic Compliance Matrix: (Units=1/GPa)
#
#
# Indices 1 2 3 4 5 6 
#
# 1 0.012142 -0.004575 -0.007457 -0.000339 0.003728 0.000063
# 2 -0.004575 0.017253 0.000788 0.000327 0.000512 -0.000027
# 3 -0.007457 0.000788 0.018385 0.000766 -0.005841 -0.000113
# 4 -0.000339 0.000327 0.000766 0.158827 -0.000798 0.024892
# 5 0.003728 0.000512 -0.005841 -0.000798 0.034448 -0.000029
# 6 0.000063 -0.000027 -0.000113 0.024892 -0.000029 0.065568
#
#
# Mechanical properties :
#
#
# Convention : Reuss Voigt Hill
#
# Bulk Modulus (GPa) = 39.53997 49.11524 44.32761
# Shear Modulus (GPa) = 14.81304 22.72226 18.76765
#
# Velocity S-wave (km/s) = 2.90508 3.59801 3.26995
# Velocity P-wave (km/s) = 5.81205 6.72633 6.28584
#
# Compressibility (1/GPa) = 0.02529086
#
# Stress axis : x y z
#
# Youngs Moduli (GPa) = 82.36202 57.96205 54.39323
#
# Poissons Ratio (x) = 0.26517 0.40562
# Poissons Ratio (y) = 0.37680 -0.04287
# Poissons Ratio (z) = 0.61419 -0.04568
#
# Static dielectric constant tensor:
#      x y z
#    x 1.679170 -0.000010 -0.079040 
#    y -0.000010 1.590270 0.000110 
#    z -0.079040 0.000110 1.792990 
# 
# From -- ./inp_files/318506.got.cif
#   From: 2010.05.17/outbox.cif.g08.bks.cpg/sg12_160_cif.got.tgz:318506.got - 2010.06.03 13:09:07.
