data_PCOD9222877
_publ_section_title
;
Structure prediction by ZEFSAII (Michael W. Deem and Ramdas Pophale) SiO2 
 PCOD9222877
Probable space group: C 2/M
;
_chemical_formula_sum "Si O2"
_cell_formula_units_Z 40
_cell_length_a 7.035794
_cell_length_b 34.494788
_cell_length_c 9.209857
_cell_angle_alpha 90.000000
_cell_angle_beta 53.146196
_cell_angle_gamma 90.000000
_cell_volume 1788.549374
_symmetry_space_group_name_H-M "C 2/M"
_symmetry_group_IT_number 12
_symmetry_cell_setting 'monoclinic'
loop_
_space_group_symop_operation_xyz
x,y,z
-x,y,-z
-x,-y,-z
x,-y,z
1/2+x,1/2+y,z
1/2-x,1/2+y,-z
1/2-x,1/2-y,-z
1/2+x,1/2-y,z
loop_
_atom_site_type_symbol
_atom_site_label
_atom_site_fract_x
_atom_site_fract_y
_atom_site_fract_z
Si Si1 0.010600 0.000000 0.755744
Si Si2 0.802250 0.649923 0.460774
Si Si3 0.197016 0.438935 0.539003
Si Si4 0.485164 0.709960 0.234775
Si Si5 0.598482 0.204334 0.160834
Si Si6 0.097344 0.500000 0.163314
O O1 0.081619 0.963074 0.625768
O O2 0.200585 0.000000 0.801947
O O3 0.750799 0.000000 0.945909
O O4 0.739904 0.605479 0.463077
O O5 0.596908 0.679324 0.607867
O O6 0.000000 0.650212 0.500000
O O7 0.930737 0.668197 0.263032
O O8 0.000000 0.439169 0.500000
O O9 0.067306 0.462704 0.727032
O O10 0.461779 0.756186 0.268198
O O11 0.307451 0.701291 0.184033
O O12 0.757226 0.706655 0.055426
#
# Coordination Sequence:
#
# PCOD9222877 Si02
#       6
#     4   8   8   8   8   4
#     4   8  13  21  32  45  65  94 123 151 185 224
#     4   9  16  25  37  53  74  99 129 165 197 226
#     4   8  14  22  31  47  68  91 124 158 185 221
#     4   9  17  28  41  57  77 103 134 164 195 231
#     4   9  17  28  41  57  77 103 134 164 195 231
#     4   8  13  21  32  45  65  94 123 151 185 224
#
# _framework density 22.364491999999998
#
# number of rings (size 3 to 8) (size 9 to 14) (size 15 to 20)
#    0.000    3.400    0.000    1.800    0.000    1.600 
#    0.000    8.000    0.000    0.000    0.000    0.000 
#    0.000    0.000    0.000   14.400    0.000  101.600 
#
# Total GULP energy -111662.671075 kJ/mol
# GULP energy per Si atom -5583.133554 kJ/mol
# Density = 2.231359 g / cm^3
# Si number density = 22.364492 Si / 1000 Ang^3
#
#
#
# Elastic Constant Matrix: (Units=GPa)
#
#
# Indices 1 2 3 4 5 6 
#
# 1 75.3718 1.0952 14.4980 0.0000 -15.6408 0.0000
# 2 1.0952 222.6005 119.5161 0.0000 -1.6589 0.0000
# 3 14.4980 119.5161 169.5104 0.0000 -10.2811 0.0000
# 4 0.0000 0.0000 0.0000 19.6141 0.0000 5.2563
# 5 -15.6408 -1.6589 -10.2811 0.0000 29.5303 0.0000
# 6 0.0000 0.0000 0.0000 5.2563 0.0000 5.2091
#
#
#
# Elastic Compliance Matrix: (Units=1/GPa)
#
#
# Indices 1 2 3 4 5 6 
#
# 1 0.015081 0.000689 -0.001317 0.000000 0.007568 0.000000
# 2 0.000689 0.007317 -0.005283 0.000000 -0.001063 0.000000
# 3 -0.001317 -0.005283 0.009885 0.000000 0.002447 0.000000
# 4 0.000000 0.000000 0.000000 0.069880 0.000000 -0.070513
# 5 0.007568 -0.001063 0.002447 0.000000 0.038664 0.000000
# 6 0.000000 0.000000 0.000000 -0.070513 0.000000 0.263123
#
#
# Mechanical properties :
#
#
# Convention : Reuss Voigt Hill
#
# Bulk Modulus (GPa) = 48.86812 81.96677 65.41745
# Shear Modulus (GPa) = 11.83173 33.02894 22.43033
#
# Velocity S-wave (km/s) = 2.30258 3.84715 3.17036
# Velocity P-wave (km/s) = 5.38214 7.51425 6.53573
#
# Compressibility (1/GPa) = 0.02046324
#
# Stress axis : x y z
#
# Youngs Moduli (GPa) = 66.30708 136.66197 101.16338
#
# Poissons Ratio (x) = -0.09419 0.13321
# Poissons Ratio (y) = -0.04570 0.53441
# Poissons Ratio (z) = 0.08731 0.72193
#
# Static dielectric constant tensor:
#      x y z
#    x 1.927750 0.000000 -0.015180 
#    y 0.000000 1.757410 0.000000 
#    z -0.015180 0.000000 1.811000 
# 
# From -- ./inp_files/209585.got.cif
#   From: 2010.05.17/outbox.cif.g08.bks.cpg/sg12_105_cif.got.tgz:209585.got - 2010.06.03 13:09:07.
