data_PCOD9222827
_publ_section_title
;
Structure prediction by ZEFSAII (Michael W. Deem and Ramdas Pophale) SiO2 
 PCOD9222827
Probable space group: C 2/M
;
_chemical_formula_sum "Si O2"
_cell_formula_units_Z 32
_cell_length_a 9.157995
_cell_length_b 17.787643
_cell_length_c 12.285354
_cell_angle_alpha 90.000000
_cell_angle_beta 44.517052
_cell_angle_gamma 90.000000
_cell_volume 1403.136010
_symmetry_space_group_name_H-M "C 2/M"
_symmetry_group_IT_number 12
_symmetry_cell_setting 'monoclinic'
loop_
_space_group_symop_operation_xyz
x,y,z
-x,y,-z
-x,-y,-z
x,-y,z
1/2+x,1/2+y,z
1/2-x,1/2+y,-z
1/2-x,1/2-y,-z
1/2+x,1/2-y,z
loop_
_atom_site_type_symbol
_atom_site_label
_atom_site_fract_x
_atom_site_fract_y
_atom_site_fract_z
Si Si1 0.242261 0.082450 0.310877
Si Si2 0.204235 0.368402 0.107228
Si Si3 0.758104 0.500000 0.755503
Si Si4 0.254685 0.703361 0.860376
Si Si5 0.763405 0.000000 0.478939
O O1 0.492777 0.091908 0.180649
O O2 0.178199 0.154575 0.277635
O O3 0.180893 0.069981 0.470406
O O4 0.200514 0.000000 0.280983
O O5 0.294707 0.426050 0.146727
O O6 0.159356 0.287588 0.185929
O O7 0.318964 0.341579 0.935848
O O8 0.666943 0.500000 0.682224
O O9 0.010548 0.500000 0.609650
O O10 0.000000 0.709655 0.000000
#
# Coordination Sequence:
#
# PCOD9222827 Si02
#       5
#     8   8   4   8   4
#     4   8  15  27  45  60  80 105 135 167 198 234
#     4   9  16  25  40  63  83 107 132 164 204 236
#     4   9  14  25  42  57  82 107 131 165 206 234
#     4   9  17  26  39  61  89 106 129 167 200 238
#     4   7  14  25  41  63  74  99 139 174 189 235
#
# _framework density 22.806056000000002
#
# number of rings (size 3 to 8) (size 9 to 14) (size 15 to 20)
#    0.750    2.750    1.250    0.000    1.750    1.500 
#    0.000    1.875    0.000    0.000    0.000    0.000 
#    0.000   18.000    0.000    0.000    0.000    0.000 
#
# Total GULP energy -89146.235183 kJ/mol
# GULP energy per Si atom -5571.639699 kJ/mol
# Density = 2.275415 g / cm^3
# Si number density = 22.806056 Si / 1000 Ang^3
#
#
#
# Elastic Constant Matrix: (Units=GPa)
#
#
# Indices 1 2 3 4 5 6 
#
# 1 69.6015 42.2987 35.8927 0.0000 31.8311 -0.0003
# 2 42.2987 177.1908 73.5103 0.0000 38.0398 -0.0001
# 3 35.8927 73.5103 75.7192 0.0000 32.7542 -0.0007
# 4 0.0000 0.0000 0.0000 40.5020 0.0000 19.8155
# 5 31.8311 38.0398 32.7542 0.0000 58.2111 0.0004
# 6 -0.0003 -0.0001 -0.0007 19.8155 0.0004 -30.5311
#
#
#
# Elastic Compliance Matrix: (Units=1/GPa)
#
#
# Indices 1 2 3 4 5 6 
#
# 1 0.021599 -0.001058 -0.005817 0.000000 -0.007846 0.000000
# 2 -0.001058 0.009581 -0.008382 0.000000 -0.000966 0.000000
# 3 -0.005817 -0.008382 0.026905 0.000000 -0.006481 0.000000
# 4 0.000000 0.000000 0.000000 0.018740 0.000000 0.012163
# 5 -0.007846 -0.000966 -0.006481 0.000000 0.025747 0.000000
# 6 0.000000 0.000000 0.000000 0.012163 0.000000 -0.024860
#
#
# Mechanical properties :
#
#
# Convention : Reuss Voigt Hill
#
# Bulk Modulus (GPa) = 36.27122 69.54611 52.90866
# Shear Modulus (GPa) = 42.58372 25.02371 33.80372
#
# Velocity S-wave (km/s) = 4.32581 3.31605 3.85414
# Velocity P-wave (km/s) = 6.39445 6.72476 6.56168
#
# Compressibility (1/GPa) = 0.02757007
#
# Stress axis : x y z
#
# Youngs Moduli (GPa) = 46.29930 104.37239 37.16808
#
# Poissons Ratio (x) = 0.11047 0.21620
# Poissons Ratio (y) = 0.04900 0.31154
# Poissons Ratio (z) = 0.26931 0.87485
#
# Static dielectric constant tensor:
#      x y z
#    x 1.984080 0.000000 -0.036940 
#    y 0.000000 1.785930 0.000000 
#    z -0.036940 0.000000 1.849900 
# 
# From -- ./inp_files/130003.got.cif
#   From: 2010.05.17/outbox.cif.g08.bks.cpg/sg12_66_cif.got.tgz:130003.got - 2010.06.03 13:09:07.
