data_PCOD9222100
_publ_section_title
;
Structure prediction by ZEFSAII (Michael W. Deem and Ramdas Pophale) SiO2 
 PCOD9222100
Probable space group: C 2/M
;
_chemical_formula_sum "Si O2"
_cell_formula_units_Z 48
_cell_length_a 17.809926
_cell_length_b 23.638007
_cell_length_c 4.871667
_cell_angle_alpha 90.000000
_cell_angle_beta 101.609468
_cell_angle_gamma 90.000000
_cell_volume 2008.970837
_symmetry_space_group_name_H-M "C 2/M"
_symmetry_group_IT_number 12
_symmetry_cell_setting 'monoclinic'
loop_
_space_group_symop_operation_xyz
x,y,z
-x,y,-z
-x,-y,-z
x,-y,z
1/2+x,1/2+y,z
1/2-x,1/2+y,-z
1/2-x,1/2-y,-z
1/2+x,1/2-y,z
loop_
_atom_site_type_symbol
_atom_site_label
_atom_site_fract_x
_atom_site_fract_y
_atom_site_fract_z
Si Si1 0.338546 0.388030 0.201731
Si Si2 0.178038 0.565100 0.017631
Si Si3 0.165251 0.236058 0.040447
Si Si4 0.418457 0.774049 0.500032
Si Si5 0.079578 0.596269 0.433400
Si Si6 0.423526 0.434900 0.786284
O O1 0.248355 0.397560 0.186743
O O2 0.391747 0.400841 0.502489
O O3 0.352673 0.326470 0.083828
O O4 0.359916 0.431235 0.975147
O O5 0.202763 0.500000 0.017752
O O6 0.107164 0.569137 0.173389
O O7 0.147430 0.586176 0.702823
O O8 0.140212 0.242659 0.337633
O O9 0.250000 0.250000 0.000000
O O10 0.115601 0.279512 0.827458
O O11 0.500000 0.744831 0.500000
O O12 0.430736 0.836695 0.623430
O O13 0.000000 0.574427 0.500000
O O14 0.437101 0.500000 0.712377
O O15 0.500000 0.413737 0.000000
#
# Coordination Sequence:
#
# PCOD9222100 Si02
#       6
#     8   8   8   8   8   8
#     4  12  25  43  67  98 134 175 225 280 337 401
#     4  12  25  42  66  97 135 176 224 279 335 400
#     4  12  25  43  68  98 134 175 223 277 335 402
#     4  11  24  44  68  96 133 175 221 274 336 402
#     4  11  24  43  67  96 133 177 222 274 336 403
#     4  11  24  44  69  97 133 176 222 276 342 410
#
# _framework density 23.892831999999999
#
# number of rings (size 3 to 8) (size 9 to 14) (size 15 to 20)
#    0.000    0.500    0.000    9.000    0.000    8.667 
#    0.000    0.000    0.000    0.000    0.000    0.000 
#    0.000    0.000    0.000    0.000    0.000    0.000 
#
# Total GULP energy -134309.541381 kJ/mol
# GULP energy per Si atom -5596.230891 kJ/mol
# Density = 2.383845 g / cm^3
# Si number density = 23.892832 Si / 1000 Ang^3
#
#
#
# Elastic Constant Matrix: (Units=GPa)
#
#
# Indices 1 2 3 4 5 6 
#
# 1 89.8569 7.6691 8.6449 0.0000 -16.5840 0.0000
# 2 7.6691 83.9205 15.5093 0.0000 -8.6966 0.0000
# 3 8.6449 15.5093 114.3574 0.0000 -13.5630 0.0000
# 4 0.0000 0.0000 0.0000 28.4398 0.0000 5.6408
# 5 -16.5840 -8.6966 -13.5630 0.0000 43.6100 0.0000
# 6 0.0000 0.0000 0.0000 5.6408 0.0000 -9.9571
#
#
#
# Elastic Compliance Matrix: (Units=1/GPa)
#
#
# Indices 1 2 3 4 5 6 
#
# 1 0.012013 -0.000589 -0.000312 0.000000 0.004354 0.000000
# 2 -0.000589 0.012421 -0.001425 0.000000 0.001810 0.000000
# 3 -0.000312 -0.001425 0.009255 0.000000 0.002476 0.000000
# 4 0.000000 0.000000 0.000000 0.031610 0.000000 0.017908
# 5 0.004354 0.001810 0.002476 0.000000 0.025717 0.000000
# 6 0.000000 0.000000 0.000000 0.017908 0.000000 -0.090286
#
#
# Mechanical properties :
#
#
# Convention : Reuss Voigt Hill
#
# Bulk Modulus (GPa) = 34.44001 39.08682 36.76342
# Shear Modulus (GPa) = 332.00103 29.50598 180.75350
#
# Velocity S-wave (km/s) = 11.80067 3.51797 8.70724
# Velocity P-wave (km/s) = 14.14638 5.73552 10.79390
#
# Compressibility (1/GPa) = 0.02903599
#
# Stress axis : x y z
#
# Youngs Moduli (GPa) = 83.24595 80.51004 108.04963
#
# Poissons Ratio (x) = 0.04742 0.03370
# Poissons Ratio (y) = 0.04903 0.15401
# Poissons Ratio (z) = 0.02596 0.11476
#
# Static dielectric constant tensor:
#      x y z
#    x 1.957220 0.000000 0.033440 
#    y 0.000000 1.939580 0.000000 
#    z 0.033440 0.000000 1.851500 
# 
# From -- ./inp_files/16939.got.cif
#   From: 2010.05.17/outbox.cif.g08.bks.cpg/sg12_9_cif.got.tgz:16939.got - 2010.06.03 13:09:07.
