data_PCOD9222820
_publ_section_title
;
Structure prediction by ZEFSAII (Michael W. Deem and Ramdas Pophale) SiO2 
 PCOD9222820
Probable space group: C 2/M
;
_chemical_formula_sum "Si O2"
_cell_formula_units_Z 64
_cell_length_a 13.261758
_cell_length_b 7.667999
_cell_length_c 25.642148
_cell_angle_alpha 90.000000
_cell_angle_beta 62.100158
_cell_angle_gamma 90.000000
_cell_volume 2304.492455
_symmetry_space_group_name_H-M "C 2/M"
_symmetry_group_IT_number 12
_symmetry_cell_setting 'monoclinic'
loop_
_space_group_symop_operation_xyz
x,y,z
-x,y,-z
-x,-y,-z
x,-y,z
1/2+x,1/2+y,z
1/2-x,1/2+y,-z
1/2-x,1/2-y,-z
1/2+x,1/2-y,z
loop_
_atom_site_type_symbol
_atom_site_label
_atom_site_fract_x
_atom_site_fract_y
_atom_site_fract_z
Si Si1 0.182158 0.700850 0.268992
Si Si2 0.188860 0.286201 0.641445
Si Si3 0.014949 0.291379 0.388573
Si Si4 0.921288 0.197416 0.895403
Si Si5 0.148815 0.206668 0.483290
Si Si6 0.188066 0.202629 0.859817
Si Si7 0.369298 0.713783 0.016212
Si Si8 0.978456 0.306246 0.236461
O O1 0.218219 0.500000 0.268413
O O2 0.262989 0.784429 0.205238
O O3 0.131755 0.783727 0.334443
O O4 0.065405 0.689806 0.263239
O O5 0.189218 0.500000 0.643000
O O6 0.089379 0.234806 0.623973
O O7 0.301517 0.219677 0.583552
O O8 0.137204 0.226199 0.710349
O O9 0.024849 0.500000 0.381805
O O10 0.966187 0.254453 0.457795
O O11 0.053260 0.200613 0.883266
O O12 0.944512 0.241774 0.829755
O O13 0.883371 0.000000 0.906006
O O14 0.856776 0.287300 0.960075
O O15 0.250000 0.250000 0.500000
O O16 0.144285 0.000000 0.477328
O O17 0.204716 0.270401 0.914965
O O18 0.228830 0.000000 0.851011
O O19 0.365516 0.500000 0.017295
O O20 0.500000 0.760366 0.000000
O O21 0.945931 0.500000 0.228511
#
# Coordination Sequence:
#
# PCOD9222820 Si02
#       8
#     8   8   8   8   8   8   8   8
#     4   8  14  25  41  59  80 109 141 167 193 237
#     4   7  12  22  34  48  70 101 130 154 183 226
#     4   8  13  22  35  53  76  98 125 163 202 234
#     4   9  16  26  42  64  84 101 130 173 210 236
#     4   9  14  21  34  52  74 100 131 164 196 230
#     4   8  13  24  44  64  78 101 140 174 197 232
#     4   7  11  21  38  59  80 101 129 167 204 235
#     4   9  16  27  41  57  81 110 135 159 195 243
#
# _framework density 27.771840000000001
#
# number of rings (size 3 to 8) (size 9 to 14) (size 15 to 20)
#    0.000    3.875    0.000    4.125    0.000    0.000 
#    0.000    6.875    0.000    4.875    0.000    0.875 
#    0.000    7.000    0.000    0.000    0.000    0.000 
#
# Total GULP energy -178431.450856 kJ/mol
# GULP energy per Si atom -5575.982839 kJ/mol
# Density = 2.770863 g / cm^3
# Si number density = 27.771840 Si / 1000 Ang^3
#
#
#
# Elastic Constant Matrix: (Units=GPa)
#
#
# Indices 1 2 3 4 5 6 
#
# 1 45.2543 16.7414 47.2075 0.0000 -20.9323 0.0000
# 2 16.7414 55.5592 25.0936 0.0000 -6.0134 0.0000
# 3 47.2075 25.0936 380.9910 0.0000 -20.0954 0.0000
# 4 0.0000 0.0000 0.0000 -0.8012 0.0000 -20.6951
# 5 -20.9323 -6.0134 -20.0954 0.0000 78.7878 0.0000
# 6 0.0000 0.0000 0.0000 -20.6951 0.0000 2.2192
#
#
#
# Elastic Compliance Matrix: (Units=1/GPa)
#
#
# Indices 1 2 3 4 5 6 
#
# 1 0.031147 -0.007272 -0.003014 0.000000 0.006951 0.000000
# 2 -0.007272 0.020346 -0.000465 0.000000 -0.000498 0.000000
# 3 -0.003014 -0.000465 0.003025 0.000000 -0.000065 0.000000
# 4 0.000000 0.000000 0.000000 -0.005160 0.000000 -0.048121
# 5 0.006951 -0.000498 -0.000065 0.000000 0.014485 0.000000
# 6 0.000000 0.000000 0.000000 -0.048121 0.000000 0.001863
#
#
# Mechanical properties :
#
#
# Convention : Reuss Voigt Hill
#
# Bulk Modulus (GPa) = 30.28767 73.32106 51.80436
# Shear Modulus (GPa) = 50.90989 42.22530 46.56759
#
# Velocity S-wave (km/s) = 4.28617 3.90351 4.09931
# Velocity P-wave (km/s) = 5.95186 6.83923 6.41091
#
# Compressibility (1/GPa) = 0.03301674
#
# Stress axis : x y z
#
# Youngs Moduli (GPa) = 32.10632 49.14902 330.53541
#
# Poissons Ratio (x) = 0.35740 0.99613
# Poissons Ratio (y) = 0.23347 0.15381
# Poissons Ratio (z) = 0.09676 0.02287
#
# Static dielectric constant tensor:
#      x y z
#    x 2.347480 0.000000 0.035050 
#    y 0.000000 2.027660 0.000000 
#    z 0.035050 0.000000 2.360920 
# 
# From -- ./inp_files/346656.got.cif
#   From: 2010.05.17/outbox.cif.g08.bks.cpg/sg12_174_cif.got.tgz:346656.got - 2010.06.03 13:09:07.
