data_PCOD9222019
_publ_section_title
;
Structure prediction by ZEFSAII (Michael W. Deem and Ramdas Pophale) SiO2 
 PCOD9222019
Probable space group: C 2/M
;
_chemical_formula_sum "Si O2"
_cell_formula_units_Z 40
_cell_length_a 25.797082
_cell_length_b 15.531706
_cell_length_c 14.047835
_cell_angle_alpha 90.000000
_cell_angle_beta 159.472004
_cell_angle_gamma 90.000000
_cell_volume 1973.747471
_symmetry_space_group_name_H-M "C 2/M"
_symmetry_group_IT_number 12
_symmetry_cell_setting 'monoclinic'
loop_
_space_group_symop_operation_xyz
x,y,z
-x,y,-z
-x,-y,-z
x,-y,z
1/2+x,1/2+y,z
1/2-x,1/2+y,-z
1/2-x,1/2-y,-z
1/2+x,1/2-y,z
loop_
_atom_site_type_symbol
_atom_site_label
_atom_site_fract_x
_atom_site_fract_y
_atom_site_fract_z
Si Si1 0.296845 0.904485 0.238345
Si Si2 0.338440 0.905131 0.770463
Si Si3 0.110629 0.811282 0.280392
Si Si4 0.356819 0.764679 0.961446
Si Si5 0.146612 0.403318 0.880407
O O1 0.471570 0.906525 0.558181
O O2 0.275684 0.891593 0.088422
O O3 0.237798 0.000000 0.162444
O O4 0.232533 0.823598 0.182896
O O5 0.198347 0.897513 0.459498
O O6 0.343846 0.000000 0.823378
O O7 0.500000 0.891932 0.000000
O O8 0.315755 0.830451 0.807395
O O9 0.250000 0.750000 0.500000
O O10 0.018771 0.769043 0.209096
O O11 0.000000 0.818922 0.000000
O O12 0.334809 0.823218 0.017202
O O13 0.187932 0.500000 0.987294
#
# Coordination Sequence:
#
# PCOD9222019 Si02
#       5
#     8   8   8   8   8
#     4   9  20  37  56  87 125 158 204 256 304 364
#     4  11  24  42  62  90 127 166 208 257 312 375
#     4  12  23  42  62  89 126 163 208 259 312 368
#     4  12  20  35  66  87 123 161 210 250 312 373
#     4   9  19  36  58  87 122 161 204 250 304 374
#
# _framework density 20.266017000000002
#
# number of rings (size 3 to 8) (size 9 to 14) (size 15 to 20)
#    0.000    1.400    4.000    3.600    0.000    1.200 
#    0.000    0.000    0.000    0.600    0.000   12.600 
#    0.000    0.000    0.000    0.000    0.000    0.000 
#
# Total GULP energy -111468.656185 kJ/mol
# GULP energy per Si atom -5573.432809 kJ/mol
# Density = 2.021989 g / cm^3
# Si number density = 20.266017 Si / 1000 Ang^3
#
#
#
# Elastic Constant Matrix: (Units=GPa)
#
#
# Indices 1 2 3 4 5 6 
#
# 1 49.6890 62.6147 14.6740 0.0000 1.1218 0.0000
# 2 62.6147 181.1341 38.0786 0.0000 4.5684 0.0000
# 3 14.6740 38.0786 75.0617 0.0000 -3.2088 0.0000
# 4 0.0000 0.0000 0.0000 16.2686 0.0000 -3.1611
# 5 1.1218 4.5684 -3.2088 0.0000 26.4738 0.0000
# 6 0.0000 0.0000 0.0000 -3.1611 0.0000 26.3178
#
#
#
# Elastic Compliance Matrix: (Units=1/GPa)
#
#
# Indices 1 2 3 4 5 6 
#
# 1 0.035708 -0.012193 -0.000774 0.000000 0.000497 0.000000
# 2 -0.012193 0.010400 -0.002962 0.000000 -0.001637 0.000000
# 3 -0.000774 -0.002962 0.015078 0.000000 0.002371 0.000000
# 4 0.000000 0.000000 0.000000 0.062937 0.000000 0.007560
# 5 0.000497 -0.001637 0.002371 0.000000 0.038322 0.000000
# 6 0.000000 0.000000 0.000000 0.007560 0.000000 0.038905
#
#
# Mechanical properties :
#
#
# Convention : Reuss Voigt Hill
#
# Bulk Modulus (GPa) = 34.09835 59.62440 46.86137
# Shear Modulus (GPa) = 20.57755 26.51320 23.54538
#
# Velocity S-wave (km/s) = 3.18995 3.62091 3.41224
# Velocity P-wave (km/s) = 5.51630 6.85318 6.22076
#
# Compressibility (1/GPa) = 0.02932694
#
# Stress axis : x y z
#
# Youngs Moduli (GPa) = 28.00511 96.15574 66.32343
#
# Poissons Ratio (x) = 1.17247 0.05131
# Poissons Ratio (y) = 0.34148 0.19645
# Poissons Ratio (z) = 0.02167 0.28482
#
# Static dielectric constant tensor:
#      x y z
#    x 1.767350 0.000000 -0.044590 
#    y 0.000000 1.754680 0.000000 
#    z -0.044590 0.000000 1.738840 
# 
# From -- ./inp_files/194435.got.cif
#   From: 2010.05.17/outbox.cif.g08.bks.cpg/sg12_98_cif.got.tgz:194435.got - 2010.06.03 13:09:07.
