data_PCOD9222143
_publ_section_title
;
Structure prediction by ZEFSAII (Michael W. Deem and Ramdas Pophale) SiO2 
 PCOD9222143
Probable space group: C 2/M
;
_chemical_formula_sum "Si O2"
_cell_formula_units_Z 40
_cell_length_a 9.348103
_cell_length_b 9.600478
_cell_length_c 21.084451
_cell_angle_alpha 90.000000
_cell_angle_beta 90.294837
_cell_angle_gamma 90.000000
_cell_volume 1892.225509
_symmetry_space_group_name_H-M "C 2/M"
_symmetry_group_IT_number 12
_symmetry_cell_setting 'monoclinic'
loop_
_space_group_symop_operation_xyz
x,y,z
-x,y,-z
-x,-y,-z
x,-y,z
1/2+x,1/2+y,z
1/2-x,1/2+y,-z
1/2-x,1/2-y,-z
1/2+x,1/2-y,z
loop_
_atom_site_type_symbol
_atom_site_label
_atom_site_fract_x
_atom_site_fract_y
_atom_site_fract_z
Si Si1 0.440717 0.333324 0.237770
Si Si2 0.656039 0.500000 0.082917
Si Si3 0.774636 0.337022 0.436223
Si Si4 0.554233 0.836591 0.357871
Si Si5 0.185302 0.270553 0.155064
Si Si6 0.809116 0.000000 0.066203
O O1 0.474166 0.500000 0.242142
O O2 0.482470 0.248079 0.300144
O O3 0.277400 0.314819 0.216366
O O4 0.527480 0.256967 0.181419
O O5 0.719627 0.626839 0.121700
O O6 0.479973 0.500000 0.083574
O O7 0.697939 0.500000 0.009416
O O8 0.729297 0.500000 0.441832
O O9 0.750000 0.250000 0.500000
O O10 0.687504 0.253487 0.382246
O O11 0.939078 0.337828 0.414746
O O12 0.586208 0.000000 0.342923
O O13 0.225503 0.375197 0.099523
#
# Coordination Sequence:
#
# PCOD9222143 Si02
#       6
#     8   4   8   8   8   4
#     4  12  26  44  65  93 137 170 219 272 326 392
#     4  11  24  45  67  95 135 165 214 276 327 392
#     4  11  24  44  69 100 138 174 221 273 326 385
#     4  11  26  43  66 101 130 177 224 272 323 388
#     4  12  22  45  65  96 126 175 213 271 330 390
#     4  11  24  45  67  97 131 169 214 272 331 394
#
# _framework density 21.139127999999999
#
# number of rings (size 3 to 8) (size 9 to 14) (size 15 to 20)
#    0.000    0.600    4.000    3.600    2.800    8.800 
#    0.000    1.000    0.000    0.000    0.000    0.000 
#    0.000    0.000    0.000    0.000    0.000    0.000 
#
# Total GULP energy -111647.911047 kJ/mol
# GULP energy per Si atom -5582.395552 kJ/mol
# Density = 2.109101 g / cm^3
# Si number density = 21.139128 Si / 1000 Ang^3
#
#
#
# Elastic Constant Matrix: (Units=GPa)
#
#
# Indices 1 2 3 4 5 6 
#
# 1 51.0837 27.9099 -5.3179 0.0000 -8.1619 0.0000
# 2 27.9099 176.9425 29.9152 0.0000 -11.2123 0.0000
# 3 -5.3179 29.9152 85.7061 0.0000 -5.5016 0.0000
# 4 0.0000 0.0000 0.0000 17.9627 0.0000 16.3481
# 5 -8.1619 -11.2123 -5.5016 0.0000 31.3093 0.0000
# 6 0.0000 0.0000 0.0000 16.3481 0.0000 17.0798
#
#
#
# Elastic Compliance Matrix: (Units=1/GPa)
#
#
# Indices 1 2 3 4 5 6 
#
# 1 0.022782 -0.003787 0.003064 0.000000 0.005121 0.000000
# 2 -0.003787 0.006738 -0.002524 0.000000 0.000982 0.000000
# 3 0.003064 -0.002524 0.012877 0.000000 0.002158 0.000000
# 4 0.000000 0.000000 0.000000 0.431971 0.000000 -0.413466
# 5 0.005121 0.000982 0.002158 0.000000 0.034005 0.000000
# 6 0.000000 0.000000 0.000000 -0.413466 0.000000 0.454301
#
#
# Mechanical properties :
#
#
# Convention : Reuss Voigt Hill
#
# Bulk Modulus (GPa) = 27.85206 46.52738 37.18972
# Shear Modulus (GPa) = 5.09613 30.68539 17.89076
#
# Velocity S-wave (km/s) = 1.55435 3.81411 2.91234
# Velocity P-wave (km/s) = 4.05284 6.43851 5.37959
#
# Compressibility (1/GPa) = 0.03590399
#
# Stress axis : x y z
#
# Youngs Moduli (GPa) = 43.89424 148.41597 77.65593
#
# Poissons Ratio (x) = 0.56206 -0.23795
# Poissons Ratio (y) = 0.16623 0.19598
# Poissons Ratio (z) = -0.13450 0.37456
#
# Static dielectric constant tensor:
#      x y z
#    x 1.754220 0.000000 -0.018450 
#    y 0.000000 1.698660 0.000000 
#    z -0.018450 0.000000 1.767080 
# 
# From -- ./inp_files/331767.got.cif
#   From: 2010.05.17/outbox.cif.g08.bks.cpg/sg12_166_cif.got.tgz:331767.got - 2010.06.03 13:09:07.
