data_PCOD9222887
_publ_section_title
;
Structure prediction by ZEFSAII (Michael W. Deem and Ramdas Pophale) SiO2 
 PCOD9222887
Probable space group: C 2/M
;
_chemical_formula_sum "Si O2"
_cell_formula_units_Z 64
_cell_length_a 7.108158
_cell_length_b 14.658993
_cell_length_c 26.634846
_cell_angle_alpha 90.000000
_cell_angle_beta 121.332351
_cell_angle_gamma 90.000000
_cell_volume 2370.573110
_symmetry_space_group_name_H-M "C 2/M"
_symmetry_group_IT_number 12
_symmetry_cell_setting 'monoclinic'
loop_
_space_group_symop_operation_xyz
x,y,z
-x,y,-z
-x,-y,-z
x,-y,z
1/2+x,1/2+y,z
1/2-x,1/2+y,-z
1/2-x,1/2-y,-z
1/2+x,1/2-y,z
loop_
_atom_site_type_symbol
_atom_site_label
_atom_site_fract_x
_atom_site_fract_y
_atom_site_fract_z
Si Si1 0.661137 0.137321 0.945630
Si Si2 0.399214 0.604350 0.433534
Si Si3 0.710334 0.106761 0.309263
Si Si4 0.145916 0.604793 0.562036
Si Si5 0.038862 0.847022 0.809340
Si Si6 0.814628 0.143367 0.069123
Si Si7 0.149933 0.889066 0.315333
Si Si8 0.994097 0.366535 0.178665
O O1 0.421173 0.122301 0.937820
O O2 0.679396 0.246951 0.939262
O O3 0.659204 0.100076 0.888667
O O4 0.821581 0.107703 0.013190
O O5 0.500000 0.642901 0.500000
O O6 0.331488 0.500000 0.437435
O O7 0.220904 0.643778 0.368150
O O8 0.613568 0.600915 0.428071
O O9 0.520347 0.105274 0.240315
O O10 0.919999 0.145289 0.307524
O O11 0.751455 0.000000 0.323708
O O12 0.067953 0.500000 0.556683
O O13 0.165377 0.643218 0.620254
O O14 0.000000 0.651834 0.500000
O O15 0.849923 0.861164 0.742183
O O16 0.059500 0.739851 0.821584
O O17 0.019827 0.884933 0.863201
O O18 0.262913 0.880506 0.813189
O O19 0.151051 0.000000 0.316196
#
# Coordination Sequence:
#
# PCOD9222887 Si02
#       8
#     8   8   8   8   8   8   8   8
#     4   8  13  21  34  53  75  97 123 156 190 221
#     4   8  13  22  37  56  75  94 121 157 191 222
#     4   8  14  25  41  59  78 103 132 157 186 230
#     4   8  13  22  37  56  75  94 121 157 191 222
#     4   9  16  26  41  59  79 103 130 160 192 227
#     4   8  13  21  34  53  75  97 123 156 190 221
#     4   8  14  25  41  59  78 103 132 157 186 230
#     4   9  16  26  41  59  79 103 130 160 192 227
#
# _framework density 26.997693999999999
#
# number of rings (size 3 to 8) (size 9 to 14) (size 15 to 20)
#    0.000    3.750    0.000    1.500    0.000    0.000 
#    0.000    1.250    0.000    3.750    0.000   10.500 
#    0.000    0.000    0.000   40.500    0.000   19.000 
#
# Total GULP energy -178215.502341 kJ/mol
# GULP energy per Si atom -5569.234448 kJ/mol
# Density = 2.693625 g / cm^3
# Si number density = 26.997694 Si / 1000 Ang^3
#
#
#
# Elastic Constant Matrix: (Units=GPa)
#
#
# Indices 1 2 3 4 5 6 
#
# 1 121.7323 -7.9076 33.4820 0.0000 -35.9353 0.0000
# 2 -7.9076 79.2593 21.2041 0.0000 -4.8420 0.0000
# 3 33.4820 21.2041 423.3119 0.0000 -38.3882 0.0000
# 4 0.0000 0.0000 0.0000 22.5811 0.0000 -0.6496
# 5 -35.9353 -4.8420 -38.3882 0.0000 28.5457 0.0000
# 6 0.0000 0.0000 0.0000 -0.6496 0.0000 -9.4231
#
#
#
# Elastic Compliance Matrix: (Units=1/GPa)
#
#
# Indices 1 2 3 4 5 6 
#
# 1 0.013589 0.002342 0.000450 0.000000 0.018109 0.000000
# 2 0.002342 0.013248 -0.000430 0.000000 0.004616 0.000000
# 3 0.000450 -0.000430 0.002725 0.000000 0.004159 0.000000
# 4 0.000000 0.000000 0.000000 0.044197 0.000000 -0.003047
# 5 0.018109 0.004616 0.004159 0.000000 0.064204 0.000000
# 6 0.000000 0.000000 0.000000 -0.003047 0.000000 -0.105912
#
#
# Mechanical properties :
#
#
# Convention : Reuss Voigt Hill
#
# Bulk Modulus (GPa) = 29.16734 79.76228 54.46481
# Shear Modulus (GPa) = 129.01091 46.84241 87.92666
#
# Velocity S-wave (km/s) = 6.92023 4.16991 5.71305
# Velocity P-wave (km/s) = 8.64176 7.26584 7.98350
#
# Compressibility (1/GPa) = 0.03428492
#
# Stress axis : x y z
#
# Youngs Moduli (GPa) = 73.58988 75.48576 366.91715
#
# Poissons Ratio (x) = -0.17676 -0.16516
# Poissons Ratio (y) = -0.17232 0.15783
# Poissons Ratio (z) = -0.03312 0.03247
#
# Static dielectric constant tensor:
#      x y z
#    x 1.767200 0.000000 0.061220 
#    y 0.000000 2.128220 0.000000 
#    z 0.061220 0.000000 2.273040 
# 
# From -- ./inp_files/315092.got.cif
#   From: 2010.05.17/outbox.cif.g08.bks.cpg/sg12_158_cif.got.tgz:315092.got - 2010.06.03 13:09:07.
