data_PCOD9222468
_publ_section_title
;
Structure prediction by ZEFSAII (Michael W. Deem and Ramdas Pophale) SiO2 
 PCOD9222468
Probable space group: C 2/M
;
_chemical_formula_sum "Si O2"
_cell_formula_units_Z 34
_cell_length_a 7.323288
_cell_length_b 19.295212
_cell_length_c 10.977579
_cell_angle_alpha 90.000000
_cell_angle_beta 82.551135
_cell_angle_gamma 90.000000
_cell_volume 1538.089679
_symmetry_space_group_name_H-M "C 2/M"
_symmetry_group_IT_number 12
_symmetry_cell_setting 'monoclinic'
loop_
_space_group_symop_operation_xyz
x,y,z
-x,y,-z
-x,-y,-z
x,-y,z
1/2+x,1/2+y,z
1/2-x,1/2+y,-z
1/2-x,1/2-y,-z
1/2+x,1/2-y,z
loop_
_atom_site_type_symbol
_atom_site_label
_atom_site_fract_x
_atom_site_fract_y
_atom_site_fract_z
Si Si1 0.721440 0.171482 0.245062
Si Si2 0.217830 0.627807 0.984743
Si Si3 0.874323 0.174685 0.712312
Si Si4 0.413525 0.920847 0.373363
Si Si5 0.500000 0.500000 0.000000
O O1 0.642844 0.243063 0.305347
O O2 0.574300 0.110897 0.276209
O O3 0.913124 0.154847 0.293508
O O4 0.754541 0.177391 0.097681
O O5 0.279369 0.659257 0.850679
O O6 0.341581 0.560507 0.996082
O O7 0.000000 0.613784 0.000000
O O8 0.762238 0.128712 0.626217
O O9 0.500000 0.919629 0.500000
O O10 0.367551 0.000000 0.344047
#
# Coordination Sequence:
#
# PCOD9222468 Si02
#       5
#     8   8   8   8   2
#     4  12  24  45  72 103 135 180 227 283 346 412
#     4  12  24  40  66 103 144 173 221 280 343 418
#     4  12  24  45  72 103 135 180 227 283 346 412
#     4  11  28  48  69 100 138 182 235 290 344 398
#     4  12  26  36  60 106 134 184 228 260 340 420
#
# _framework density 22.105343999999999
#
# number of rings (size 3 to 8) (size 9 to 14) (size 15 to 20)
#    0.000    0.235    7.059    1.059    3.294    2.824 
#    0.000    2.353    0.000    0.000    0.000    0.000 
#    0.000    0.000    0.000    0.000    0.000    0.000 
#
# Total GULP energy -94895.117372 kJ/mol
# GULP energy per Si atom -5582.065728 kJ/mol
# Density = 2.205503 g / cm^3
# Si number density = 22.105344 Si / 1000 Ang^3
#
#
#
# Elastic Constant Matrix: (Units=GPa)
#
#
# Indices 1 2 3 4 5 6 
#
# 1 137.6090 5.4265 -5.4152 0.0000 28.2091 0.0000
# 2 5.4265 108.2440 7.8429 0.0000 22.6332 0.0000
# 3 -5.4152 7.8429 35.9621 0.0000 11.2091 0.0000
# 4 0.0000 0.0000 0.0000 20.5309 0.0000 20.3959
# 5 28.2091 22.6332 11.2091 0.0000 26.4286 0.0000
# 6 0.0000 0.0000 0.0000 20.3959 0.0000 61.2283
#
#
#
# Elastic Compliance Matrix: (Units=1/GPa)
#
#
# Indices 1 2 3 4 5 6 
#
# 1 0.010702 0.002376 0.006093 0.000000 -0.016042 0.000000
# 2 0.002376 0.011794 0.001987 0.000000 -0.013479 0.000000
# 3 0.006093 0.001987 0.035548 0.000000 -0.023283 0.000000
# 4 0.000000 0.000000 0.000000 0.072797 0.000000 -0.024250
# 5 -0.016042 -0.013479 -0.023283 0.000000 0.076379 0.000000
# 6 0.000000 0.000000 0.000000 -0.024250 0.000000 0.024410
#
#
# Mechanical properties :
#
#
# Convention : Reuss Voigt Hill
#
# Bulk Modulus (GPa) = 12.66515 33.05818 22.86166
# Shear Modulus (GPa) = 21.09393 39.90162 30.49778
#
# Velocity S-wave (km/s) = 3.09244 4.25322 3.71840
# Velocity P-wave (km/s) = 4.30032 6.25357 5.36656
#
# Compressibility (1/GPa) = 0.07895683
#
# Stress axis : x y z
#
# Youngs Moduli (GPa) = 93.44440 84.79100 28.13083
#
# Poissons Ratio (x) = -0.20149 -0.17141
# Poissons Ratio (y) = -0.22205 -0.05590
# Poissons Ratio (z) = -0.56939 -0.16849
#
# Static dielectric constant tensor:
#      x y z
#    x 1.784850 0.000000 0.007300 
#    y 0.000000 1.781730 0.000000 
#    z 0.007300 0.000000 1.859530 
# 
# From -- ./inp_files/118521.got.cif
#   From: 2010.05.17/outbox.cif.g08.bks.cpg/sg12_60_cif.got.tgz:118521.got - 2010.06.03 13:09:07.
