data_PCOD9222493
_publ_section_title
;
Structure prediction by ZEFSAII (Michael W. Deem and Ramdas Pophale) SiO2 
 PCOD9222493
Probable space group: C 2/M
;
_chemical_formula_sum "Si O2"
_cell_formula_units_Z 36
_cell_length_a 9.954070
_cell_length_b 26.171988
_cell_length_c 7.038570
_cell_angle_alpha 90.000000
_cell_angle_beta 135.000234
_cell_angle_gamma 90.000000
_cell_volume 1296.597159
_symmetry_space_group_name_H-M "C 2/M"
_symmetry_group_IT_number 12
_symmetry_cell_setting 'monoclinic'
loop_
_space_group_symop_operation_xyz
x,y,z
-x,y,-z
-x,-y,-z
x,-y,z
1/2+x,1/2+y,z
1/2-x,1/2+y,-z
1/2-x,1/2-y,-z
1/2+x,1/2-y,z
loop_
_atom_site_type_symbol
_atom_site_label
_atom_site_fract_x
_atom_site_fract_y
_atom_site_fract_z
Si Si1 0.280564 0.054728 0.940541
Si Si2 0.783196 0.334941 0.934476
Si Si3 0.659977 0.554728 0.379416
Si Si4 0.500000 0.250000 0.000000
Si Si5 0.151280 0.165059 0.368085
O O1 0.370313 0.109728 0.073552
O O2 0.246517 0.054722 0.678643
O O3 0.067872 0.054722 0.814379
O O4 0.371505 0.000000 0.080584
O O5 0.575873 0.333556 0.818282
O O6 0.742411 0.333557 0.666539
O O7 0.915685 0.285835 0.083387
O O8 0.709074 0.500000 0.337569
O O9 0.703234 0.609728 0.332920
O O10 0.332298 0.285835 0.747983
#
# Coordination Sequence:
#
# PCOD9222493 Si02
#       5
#     8   8   8   4   8
#     4   7  10  20  40  61  78 100 132 169 208 245
#     4   9  18  31  45  62  85 112 141 173 208 246
#     4   7  10  20  40  61  78 100 132 169 208 245
#     4  12  20  28  42  64  88 116 144 170 200 244
#     4   9  18  31  45  62  85 112 141 173 208 246
#
# _framework density 27.764983999999998
#
# number of rings (size 3 to 8) (size 9 to 14) (size 15 to 20)
#    0.000    3.556    0.000    5.333    0.000    0.000 
#    0.000    1.111    0.000    0.000    0.000    0.000 
#    0.000    0.000    0.000   54.222    0.000    3.556 
#
# Total GULP energy -100577.894195 kJ/mol
# GULP energy per Si atom -5587.660789 kJ/mol
# Density = 2.770179 g / cm^3
# Si number density = 27.764984 Si / 1000 Ang^3
#
#
#
# Elastic Constant Matrix: (Units=GPa)
#
#
# Indices 1 2 3 4 5 6 
#
# 1 59.9399 15.0587 32.7970 0.0000 10.6149 0.0000
# 2 15.0587 265.8319 15.0580 0.0000 0.0005 0.0000
# 3 32.7970 15.0580 59.9356 0.0000 -10.6151 0.0000
# 4 0.0000 0.0000 0.0000 10.6831 0.0000 0.0013
# 5 10.6149 0.0005 -10.6151 0.0000 39.6667 0.0000
# 6 0.0000 0.0000 0.0000 0.0013 0.0000 10.6812
#
#
#
# Elastic Compliance Matrix: (Units=1/GPa)
#
#
# Indices 1 2 3 4 5 6 
#
# 1 0.028791 -0.000622 -0.017807 0.000000 -0.012470 0.000000
# 2 -0.000622 0.003832 -0.000622 0.000000 0.000000 0.000000
# 3 -0.017807 -0.000622 0.028794 0.000000 0.012470 0.000000
# 4 0.000000 0.000000 0.000000 0.093606 0.000000 -0.000011
# 5 -0.012470 0.000000 0.012470 0.000000 0.031884 0.000000
# 6 0.000000 0.000000 0.000000 -0.000011 0.000000 0.093622
#
#
# Mechanical properties :
#
#
# Convention : Reuss Voigt Hill
#
# Bulk Modulus (GPa) = 42.89233 56.83721 49.86477
# Shear Modulus (GPa) = 15.31843 33.72578 24.52210
#
# Velocity S-wave (km/s) = 2.35141 3.48902 2.97510
# Velocity P-wave (km/s) = 4.78060 6.06187 5.45895
#
# Compressibility (1/GPa) = 0.02331419
#
# Stress axis : x y z
#
# Youngs Moduli (GPa) = 34.73265 260.94154 34.72998
#
# Poissons Ratio (x) = 0.16237 0.61843
# Poissons Ratio (y) = 0.02161 0.02161
# Poissons Ratio (z) = 0.61848 0.16239
#
# Static dielectric constant tensor:
#      x y z
#    x 2.132730 0.000000 0.000000 
#    y 0.000000 2.306820 0.000000 
#    z 0.000000 0.000000 2.132730 
# 
# From -- ./inp_files/50151.got.cif
#   From: 2010.05.17/outbox.cif.g08.bks.cpg/sg12_26_cif.got.tgz:50151.got - 2010.06.03 13:09:07.
