data_PCOD9222031
_publ_section_title
;
Structure prediction by ZEFSAII (Michael W. Deem and Ramdas Pophale) SiO2 
 PCOD9222031
Probable space group: C 2/M
;
_chemical_formula_sum "Si O2"
_cell_formula_units_Z 44
_cell_length_a 8.622621
_cell_length_b 17.550276
_cell_length_c 16.663287
_cell_angle_alpha 90.000000
_cell_angle_beta 67.195063
_cell_angle_gamma 90.000000
_cell_volume 2324.527272
_symmetry_space_group_name_H-M "C 2/M"
_symmetry_group_IT_number 12
_symmetry_cell_setting 'monoclinic'
loop_
_space_group_symop_operation_xyz
x,y,z
-x,y,-z
-x,-y,-z
x,-y,z
1/2+x,1/2+y,z
1/2-x,1/2+y,-z
1/2-x,1/2-y,-z
1/2+x,1/2-y,z
loop_
_atom_site_type_symbol
_atom_site_label
_atom_site_fract_x
_atom_site_fract_y
_atom_site_fract_z
Si Si1 0.011065 0.257159 0.343133
Si Si2 0.901140 0.695030 0.940567
Si Si3 0.374601 0.088865 0.446622
Si Si4 0.500000 0.652732 0.500000
Si Si5 0.863270 0.203963 0.219609
Si Si6 0.351695 0.589516 0.091332
O O1 0.172945 0.268402 0.255280
O O2 0.940102 0.340925 0.378528
O O3 0.041394 0.208872 0.417295
O O4 0.895278 0.207429 0.307789
O O5 0.816265 0.626572 0.909882
O O6 0.025897 0.740173 0.857119
O O7 0.750000 0.750000 0.000000
O O8 0.000000 0.670083 0.000000
O O9 0.500000 0.094430 0.500000
O O10 0.171122 0.106722 0.491186
O O11 0.391162 0.000000 0.416197
O O12 0.884533 0.123386 0.172497
O O13 0.342162 0.500000 0.095236
O O14 0.500000 0.612444 0.000000
#
# Coordination Sequence:
#
# PCOD9222031 Si02
#       6
#     8   8   8   4   8   8
#     4  12  23  40  68  94 129 173 230 271 326 400
#     4  12  20  39  68  94 125 172 221 264 321 405
#     4  11  24  43  67  97 133 174 221 282 349 400
#     4  12  23  46  69  98 128 184 236 278 327 412
#     4  12  22  38  66  97 123 175 220 269 326 397
#     4  11  24  42  64  95 134 169 212 276 337 392
#
# _framework density 18.928581000000001
#
# number of rings (size 3 to 8) (size 9 to 14) (size 15 to 20)
#    0.000    0.364    8.182    1.909    0.000    1.091 
#    0.000    1.818    0.000    0.000    0.000    0.000 
#    0.000    0.000    0.000    0.000    0.000    0.000 
#
# Total GULP energy -122626.816684 kJ/mol
# GULP energy per Si atom -5573.946213 kJ/mol
# Density = 1.888550 g / cm^3
# Si number density = 18.928581 Si / 1000 Ang^3
#
#
#
# Elastic Constant Matrix: (Units=GPa)
#
#
# Indices 1 2 3 4 5 6 
#
# 1 101.9924 46.0222 38.9618 0.0000 -0.0985 0.0000
# 2 46.0222 103.6667 41.5324 0.0000 10.2733 0.0000
# 3 38.9618 41.5324 81.5244 0.0000 14.3220 0.0000
# 4 0.0000 0.0000 0.0000 24.7802 0.0000 3.5688
# 5 -0.0985 10.2733 14.3220 0.0000 39.2987 0.0000
# 6 0.0000 0.0000 0.0000 3.5688 0.0000 29.1371
#
#
#
# Elastic Compliance Matrix: (Units=1/GPa)
#
#
# Indices 1 2 3 4 5 6 
#
# 1 0.013629 -0.004429 -0.004772 0.000000 0.002931 0.000000
# 2 -0.004429 0.013595 -0.004469 0.000000 -0.001936 0.000000
# 3 -0.004772 -0.004469 0.017757 0.000000 -0.005315 0.000000
# 4 0.000000 0.000000 0.000000 0.041080 0.000000 -0.005032
# 5 0.002931 -0.001936 -0.005315 0.000000 0.027897 0.000000
# 6 0.000000 0.000000 0.000000 -0.005032 0.000000 0.034937
#
#
# Mechanical properties :
#
#
# Convention : Reuss Voigt Hill
#
# Bulk Modulus (GPa) = 56.68615 60.02402 58.35509
# Shear Modulus (GPa) = 27.45520 29.35434 28.40477
#
# Velocity S-wave (km/s) = 3.81263 3.94229 3.87800
# Velocity P-wave (km/s) = 7.02808 7.24581 7.13778
#
# Compressibility (1/GPa) = 0.01764099
#
# Stress axis : x y z
#
# Youngs Moduli (GPa) = 73.37290 73.55701 56.31469
#
# Poissons Ratio (x) = 0.32580 0.26874
# Poissons Ratio (y) = 0.32498 0.25167
# Poissons Ratio (z) = 0.35014 0.32872
#
# Static dielectric constant tensor:
#      x y z
#    x 1.736690 0.000000 -0.001130 
#    y 0.000000 1.622660 0.000000 
#    z -0.001130 0.000000 1.638020 
# 
# From -- ./inp_files/195875.got.cif
#   From: 2010.05.17/outbox.cif.g08.bks.cpg/sg12_98_cif.got.tgz:195875.got - 2010.06.03 13:09:07.
