data_PCOD9222042
_publ_section_title
;
Structure prediction by ZEFSAII (Michael W. Deem and Ramdas Pophale) SiO2 
 PCOD9222042
Probable space group: C 2/M
;
_chemical_formula_sum "Si O2"
_cell_formula_units_Z 56
_cell_length_a 19.411479
_cell_length_b 8.595246
_cell_length_c 16.533474
_cell_angle_alpha 90.000000
_cell_angle_beta 70.572340
_cell_angle_gamma 90.000000
_cell_volume 2601.485379
_symmetry_space_group_name_H-M "C 2/M"
_symmetry_group_IT_number 12
_symmetry_cell_setting 'monoclinic'
loop_
_space_group_symop_operation_xyz
x,y,z
-x,y,-z
-x,-y,-z
x,-y,z
1/2+x,1/2+y,z
1/2-x,1/2+y,-z
1/2-x,1/2-y,-z
1/2+x,1/2-y,z
loop_
_atom_site_type_symbol
_atom_site_label
_atom_site_fract_x
_atom_site_fract_y
_atom_site_fract_z
Si Si1 0.284086 0.815175 0.106847
Si Si2 0.658106 0.180081 0.449516
Si Si3 0.559885 0.314999 0.352933
Si Si4 0.105272 0.182482 0.629197
Si Si5 0.431370 0.313744 0.970854
Si Si6 0.212534 0.320074 0.702133
Si Si7 0.872899 0.315510 0.835195
O O1 0.286646 0.793547 0.202810
O O2 0.208489 0.738085 0.107900
O O3 0.283208 0.000000 0.089410
O O4 0.356267 0.738468 0.042431
O O5 0.590441 0.227019 0.418784
O O6 0.654998 0.281061 0.531820
O O7 0.728554 0.216291 0.367655
O O8 0.655482 0.000000 0.473023
O O9 0.565147 0.500000 0.365606
O O10 0.476685 0.275260 0.364408
O O11 0.607309 0.269347 0.256177
O O12 0.135152 0.279285 0.692696
O O13 0.107276 0.000000 0.647742
O O14 0.432925 0.500000 0.960637
O O15 0.428632 0.236360 0.883519
O O16 0.500000 0.267558 0.000000
O O17 0.231547 0.500000 0.680026
O O18 0.874644 0.500000 0.823052
#
# Coordination Sequence:
#
# PCOD9222042 Si02
#       7
#     8   8   8   8   8   8   8
#     4  11  24  44  70  98 132 173 218 268 320 383
#     4  12  24  41  66  95 129 170 221 272 323 386
#     4  11  24  43  66  95 131 172 218 267 325 387
#     4  11  25  42  64  92 131 175 217 271 330 387
#     4  11  26  46  70 100 136 173 212 262 321 385
#     4  11  24  42  66  95 131 172 218 271 324 384
#     4  12  25  43  70  99 132 172 217 267 320 384
#
# _framework density 21.526161999999999
#
# number of rings (size 3 to 8) (size 9 to 14) (size 15 to 20)
#    0.000    0.714    1.429    6.000    2.000    6.857 
#    0.000    0.000    0.000    0.000    0.000    0.000 
#    0.000    0.000    0.000    0.000    0.000    0.000 
#
# Total GULP energy -156851.366155 kJ/mol
# GULP energy per Si atom -5601.834506 kJ/mol
# Density = 2.147717 g / cm^3
# Si number density = 21.526162 Si / 1000 Ang^3
#
#
#
# Elastic Constant Matrix: (Units=GPa)
#
#
# Indices 1 2 3 4 5 6 
#
# 1 83.4439 10.2743 6.8323 0.0000 17.1440 0.0000
# 2 10.2743 24.7637 -9.9941 0.0000 5.2240 0.0000
# 3 6.8323 -9.9941 35.1007 0.0000 5.2448 0.0000
# 4 0.0000 0.0000 0.0000 19.3812 0.0000 -0.3308
# 5 17.1440 5.2240 5.2448 0.0000 36.8328 0.0000
# 6 0.0000 0.0000 0.0000 -0.3308 0.0000 35.3388
#
#
#
# Elastic Compliance Matrix: (Units=1/GPa)
#
#
# Indices 1 2 3 4 5 6 
#
# 1 0.014126 -0.006299 -0.003774 0.000000 -0.005144 0.000000
# 2 -0.006299 0.051196 0.016807 0.000000 -0.006723 0.000000
# 3 -0.003774 0.016807 0.034845 0.000000 -0.005589 0.000000
# 4 0.000000 0.000000 0.000000 0.051605 0.000000 0.000483
# 5 -0.005144 -0.006723 -0.005589 0.000000 0.031293 0.000000
# 6 0.000000 0.000000 0.000000 0.000483 0.000000 0.028302
#
#
# Mechanical properties :
#
#
# Convention : Reuss Voigt Hill
#
# Bulk Modulus (GPa) = 8.80008 17.50373 13.15190
# Shear Modulus (GPa) = 21.20657 27.39027 24.29842
#
# Velocity S-wave (km/s) = 3.14212 3.57097 3.36339
# Velocity P-wave (km/s) = 4.15462 5.01512 4.60501
#
# Compressibility (1/GPa) = 0.11363529
#
# Stress axis : x y z
#
# Youngs Moduli (GPa) = 70.79373 19.53271 28.69876
#
# Poissons Ratio (x) = 0.12303 0.10832
# Poissons Ratio (y) = 0.44591 -0.48235
# Poissons Ratio (z) = 0.26720 -0.32829
#
# Static dielectric constant tensor:
#      x y z
#    x 1.795500 0.000000 -0.009430 
#    y 0.000000 1.718710 0.000000 
#    z -0.009430 0.000000 1.774640 
# 
# From -- ./inp_files/275179.got.cif
#   From: 2010.05.17/outbox.cif.g08.bks.cpg/sg12_138_cif.got.tgz:275179.got - 2010.06.03 13:09:07.
