data_PCOD9222731
_publ_section_title
;
Structure prediction by ZEFSAII (Michael W. Deem and Ramdas Pophale) SiO2 
 PCOD9222731
Probable space group: C 2/M
;
_chemical_formula_sum "Si O2"
_cell_formula_units_Z 42
_cell_length_a 8.917335
_cell_length_b 20.307668
_cell_length_c 11.465689
_cell_angle_alpha 90.000000
_cell_angle_beta 108.670262
_cell_angle_gamma 90.000000
_cell_volume 1967.061454
_symmetry_space_group_name_H-M "C 2/M"
_symmetry_group_IT_number 12
_symmetry_cell_setting 'monoclinic'
loop_
_space_group_symop_operation_xyz
x,y,z
-x,y,-z
-x,-y,-z
x,-y,z
1/2+x,1/2+y,z
1/2-x,1/2+y,-z
1/2-x,1/2-y,-z
1/2+x,1/2-y,z
loop_
_atom_site_type_symbol
_atom_site_label
_atom_site_fract_x
_atom_site_fract_y
_atom_site_fract_z
Si Si1 0.188884 0.614301 0.408241
Si Si2 0.333254 0.820954 0.022286
Si Si3 0.000000 0.500000 0.500000
Si Si4 0.172686 0.922521 0.809030
Si Si5 0.898221 0.295230 0.297531
Si Si6 0.082082 0.163109 0.349500
O O1 0.229156 0.592569 0.285977
O O2 0.347352 0.639878 0.510056
O O3 0.110719 0.556626 0.464100
O O4 0.058371 0.671398 0.381133
O O5 0.237662 0.877518 0.930855
O O6 0.500000 0.814596 0.000000
O O7 0.250000 0.750000 0.000000
O O8 0.366178 0.830748 0.166245
O O9 0.994140 0.899096 0.735747
O O10 0.182664 0.000000 0.836977
O O11 0.737494 0.306807 0.326988
O O12 0.944822 0.218379 0.306925
#
# Coordination Sequence:
#
# PCOD9222731 Si02
#       6
#     8   8   2   8   8   8
#     4  12  25  46  73 108 144 193 238 293 369 442
#     4  12  25  48  76 102 139 194 241 303 360 425
#     4  12  24  48  74 102 158 198 226 292 374 450
#     4  12  28  47  72 107 147 189 246 297 366 437
#     4  12  24  46  73 104 144 185 250 303 358 428
#     4  12  26  44  74 107 146 188 239 310 364 434
#
# _framework density 21.351647
#
# number of rings (size 3 to 8) (size 9 to 14) (size 15 to 20)
#    0.000    0.000    6.667    3.429    1.333    2.667 
#    1.714    0.952    0.000    0.000    0.000    0.000 
#    0.000    0.000    0.000    0.000    0.000    0.000 
#
# Total GULP energy -117179.075424 kJ/mol
# GULP energy per Si atom -5579.955973 kJ/mol
# Density = 2.130305 g / cm^3
# Si number density = 21.351647 Si / 1000 Ang^3
#
#
#
# Elastic Constant Matrix: (Units=GPa)
#
#
# Indices 1 2 3 4 5 6 
#
# 1 105.2253 46.4080 32.1234 0.0000 6.9637 0.0000
# 2 46.4080 156.5981 60.4869 0.0000 5.5884 0.0000
# 3 32.1234 60.4869 133.7910 0.0000 9.7430 0.0000
# 4 0.0000 0.0000 0.0000 -7.7572 0.0000 -20.8052
# 5 6.9637 5.5884 9.7430 0.0000 32.0510 0.0000
# 6 0.0000 0.0000 0.0000 -20.8052 0.0000 15.8657
#
#
#
# Elastic Compliance Matrix: (Units=1/GPa)
#
#
# Indices 1 2 3 4 5 6 
#
# 1 0.011230 -0.002756 -0.001337 0.000000 -0.001553 0.000000
# 2 -0.002756 0.008416 -0.003150 0.000000 0.000089 0.000000
# 3 -0.001337 -0.003150 0.009366 0.000000 -0.002007 0.000000
# 4 0.000000 0.000000 0.000000 -0.028539 0.000000 -0.037424
# 5 -0.001553 0.000089 -0.002007 0.000000 0.032132 0.000000
# 6 0.000000 0.000000 0.000000 -0.037424 0.000000 0.013954
#
#
# Mechanical properties :
#
#
# Convention : Reuss Voigt Hill
#
# Bulk Modulus (GPa) = 68.84379 74.85011 71.84695
# Shear Modulus (GPa) = 75.88892 25.13832 50.51362
#
# Velocity S-wave (km/s) = 5.96821 3.43497 4.86922
# Velocity P-wave (km/s) = 8.93340 7.13190 8.08300
#
# Compressibility (1/GPa) = 0.01452564
#
# Stress axis : x y z
#
# Youngs Moduli (GPa) = 89.04763 118.82261 106.77479
#
# Poissons Ratio (x) = 0.32748 0.14278
# Poissons Ratio (y) = 0.24542 0.33629
# Poissons Ratio (z) = 0.11908 0.37424
#
# Static dielectric constant tensor:
#      x y z
#    x 1.287950 0.000000 -0.112780 
#    y 0.000000 1.755900 0.000000 
#    z -0.112780 0.000000 1.919010 
# 
# From -- ./inp_files/120927.got.cif
#   From: 2010.05.17/outbox.cif.g08.bks.cpg/sg12_61_cif.got.tgz:120927.got - 2010.06.03 13:09:07.
