data_PCOD9222174
_publ_section_title
;
Structure prediction by ZEFSAII (Michael W. Deem and Ramdas Pophale) SiO2 
 PCOD9222174
Probable space group: C 2/M
;
_chemical_formula_sum "Si O2"
_cell_formula_units_Z 48
_cell_length_a 8.116459
_cell_length_b 31.253987
_cell_length_c 15.827117
_cell_angle_alpha 90.000000
_cell_angle_beta 32.247078
_cell_angle_gamma 90.000000
_cell_volume 2142.231344
_symmetry_space_group_name_H-M "C 2/M"
_symmetry_group_IT_number 12
_symmetry_cell_setting 'monoclinic'
loop_
_space_group_symop_operation_xyz
x,y,z
-x,y,-z
-x,-y,-z
x,-y,z
1/2+x,1/2+y,z
1/2-x,1/2+y,-z
1/2-x,1/2-y,-z
1/2+x,1/2-y,z
loop_
_atom_site_type_symbol
_atom_site_label
_atom_site_fract_x
_atom_site_fract_y
_atom_site_fract_z
Si Si1 0.500000 0.351486 0.000000
Si Si2 0.851897 0.796155 0.921999
Si Si3 0.857122 0.086782 0.316510
Si Si4 0.229032 0.000000 0.185680
Si Si5 0.923886 0.406652 0.735371
Si Si6 0.324648 0.328299 0.757853
Si Si7 0.372430 0.000000 0.817914
Si Si8 0.000000 0.846704 0.500000
O O1 0.421169 0.319303 0.111008
O O2 0.218992 0.384958 0.119457
O O3 0.949347 0.798591 0.781729
O O4 0.750000 0.750000 0.000000
O O5 0.540196 0.823561 0.070895
O O6 0.500000 0.085693 0.500000
O O7 0.826420 0.097160 0.230642
O O8 0.047453 0.124804 0.276689
O O9 0.020123 0.042002 0.264469
O O10 0.414166 0.000000 0.192535
O O11 0.500000 0.000000 0.000000
O O12 0.961919 0.457002 0.729808
O O13 0.227304 0.378868 0.589284
O O14 0.408753 0.319922 0.623461
O O15 0.000000 0.000000 0.000000
#
# Coordination Sequence:
#
# PCOD9222174 Si02
#       8
#     4   8   8   4   8   8   4   4
#     4  12  22  41  74 100 134 188 240 301 366 442
#     4  11  25  46  76 109 141 184 247 308 370 456
#     4  12  25  46  70 105 150 199 246 306 376 449
#     4  12  29  42  70 102 148 198 267 312 362 431
#     4  12  25  42  71 100 148 193 248 305 373 438
#     4  11  24  44  76 105 151 191 248 296 381 448
#     4  12  26  45  64 104 146 199 263 318 369 427
#     4  12  24  45  70 112 146 200 236 304 376 455
#
# _framework density 22.406545000000001
#
# number of rings (size 3 to 8) (size 9 to 14) (size 15 to 20)
#    0.000    0.333    5.833    3.750    2.333    0.333 
#    0.000    0.833    1.833    0.000    0.000    0.000 
#    0.000    0.000    0.000    0.000    0.000    0.000 
#
# Total GULP energy -133992.196942 kJ/mol
# GULP energy per Si atom -5583.008206 kJ/mol
# Density = 2.235555 g / cm^3
# Si number density = 22.406545 Si / 1000 Ang^3
#
#
#
# Elastic Constant Matrix: (Units=GPa)
#
#
# Indices 1 2 3 4 5 6 
#
# 1 117.7889 34.5667 23.2392 0.0000 26.2316 0.0000
# 2 34.5667 128.5067 36.8164 0.0000 8.3491 0.0000
# 3 23.2392 36.8164 93.5522 0.0000 7.6369 0.0000
# 4 0.0000 0.0000 0.0000 15.1385 0.0000 1.9674
# 5 26.2316 8.3491 7.6369 0.0000 54.4950 0.0000
# 6 0.0000 0.0000 0.0000 1.9674 0.0000 7.1184
#
#
#
# Elastic Compliance Matrix: (Units=1/GPa)
#
#
# Indices 1 2 3 4 5 6 
#
# 1 0.010378 -0.002104 -0.001384 0.000000 -0.004479 0.000000
# 2 -0.002104 0.009238 -0.003116 0.000000 0.000034 0.000000
# 3 -0.001384 -0.003116 0.012307 0.000000 -0.000581 0.000000
# 4 0.000000 0.000000 0.000000 0.068518 0.000000 -0.018937
# 5 -0.004479 0.000034 -0.000581 0.000000 0.020583 0.000000
# 6 0.000000 0.000000 0.000000 -0.018937 0.000000 0.145716
#
#
# Mechanical properties :
#
#
# Convention : Reuss Voigt Hill
#
# Bulk Modulus (GPa) = 53.43392 58.78805 56.11099
# Shear Modulus (GPa) = 17.47122 31.69873 24.58497
#
# Velocity S-wave (km/s) = 2.79541 3.76534 3.31603
# Velocity P-wave (km/s) = 5.85818 6.72292 6.30539
#
# Compressibility (1/GPa) = 0.01871470
#
# Stress axis : x y z
#
# Youngs Moduli (GPa) = 96.35955 108.24826 81.25679
#
# Poissons Ratio (x) = 0.22774 0.11249
# Poissons Ratio (y) = 0.20273 0.25317
# Poissons Ratio (z) = 0.13339 0.33727
#
# Static dielectric constant tensor:
#      x y z
#    x 1.958100 0.000000 0.066300 
#    y 0.000000 1.841170 0.000000 
#    z 0.066300 0.000000 1.894440 
# 
# From -- ./inp_files/260282.got.cif
#   From: 2010.05.17/outbox.cif.g08.bks.cpg/sg12_131_cif.got.tgz:260282.got - 2010.06.03 13:09:07.
