data_PCOD9222237
_publ_section_title
;
Structure prediction by ZEFSAII (Michael W. Deem and Ramdas Pophale) SiO2 
 PCOD9222237
Probable space group: C 2/M
;
_chemical_formula_sum "Si O2"
_cell_formula_units_Z 32
_cell_length_a 10.421591
_cell_length_b 21.177775
_cell_length_c 9.060456
_cell_angle_alpha 90.000000
_cell_angle_beta 40.716472
_cell_angle_gamma 90.000000
_cell_volume 1304.435662
_symmetry_space_group_name_H-M "C 2/M"
_symmetry_group_IT_number 12
_symmetry_cell_setting 'monoclinic'
loop_
_space_group_symop_operation_xyz
x,y,z
-x,y,-z
-x,-y,-z
x,-y,z
1/2+x,1/2+y,z
1/2-x,1/2+y,-z
1/2-x,1/2-y,-z
1/2+x,1/2-y,z
loop_
_atom_site_type_symbol
_atom_site_label
_atom_site_fract_x
_atom_site_fract_y
_atom_site_fract_z
Si Si1 0.389691 0.369402 0.735277
Si Si2 0.742674 0.860948 0.395858
Si Si3 0.787373 0.500000 0.107582
Si Si4 0.929919 0.500000 0.397476
Si Si5 0.864459 0.688262 0.839217
O O1 0.500000 0.338617 0.500000
O O2 0.534837 0.355833 0.745043
O O3 0.348655 0.441445 0.738132
O O4 0.174484 0.352528 0.981690
O O5 0.681876 0.931754 0.509760
O O6 0.713150 0.844857 0.246911
O O7 0.596343 0.811661 0.604506
O O8 0.868213 0.500000 0.870788
O O9 0.000000 0.500000 0.000000
O O10 0.000000 0.500000 0.500000
O O11 0.750000 0.750000 0.000000
#
# Coordination Sequence:
#
# PCOD9222237 Si02
#       5
#     8   8   4   4   8
#     4  12  26  44  71 109 145 198 244 302 382 450
#     4  11  24  48  75 108 148 192 253 307 381 452
#     4  12  24  45  71 112 160 193 239 307 386 461
#     4  12  19  41  77 106 140 187 234 311 365 450
#     4  11  26  47  72 103 143 195 254 315 368 436
#
# _framework density 24.531680999999999
#
# number of rings (size 3 to 8) (size 9 to 14) (size 15 to 20)
#    0.000    0.500    5.000    3.375    3.500    1.000 
#    4.500    3.750    0.000    0.000    0.000    0.000 
#    0.000    0.000    0.000    0.000    0.000    0.000 
#
# Total GULP energy -89076.594246 kJ/mol
# GULP energy per Si atom -5567.287140 kJ/mol
# Density = 2.447585 g / cm^3
# Si number density = 24.531681 Si / 1000 Ang^3
#
#
#
# Elastic Constant Matrix: (Units=GPa)
#
#
# Indices 1 2 3 4 5 6 
#
# 1 95.4242 -0.9481 26.2982 0.0000 -11.2492 0.0000
# 2 -0.9481 126.7636 30.3947 0.0000 -5.9706 0.0000
# 3 26.2982 30.3947 223.3354 0.0000 11.4949 0.0000
# 4 0.0000 0.0000 0.0000 44.2254 0.0000 -12.2959
# 5 -11.2492 -5.9706 11.4949 0.0000 27.2393 0.0000
# 6 0.0000 0.0000 0.0000 -12.2959 0.0000 10.6427
#
#
#
# Elastic Compliance Matrix: (Units=1/GPa)
#
#
# Indices 1 2 3 4 5 6 
#
# 1 0.011652 0.000782 -0.001774 0.000000 0.005732 0.000000
# 2 0.000782 0.008352 -0.001369 0.000000 0.002732 0.000000
# 3 -0.001774 -0.001369 0.005035 0.000000 -0.003157 0.000000
# 4 0.000000 0.000000 0.000000 0.033312 0.000000 0.038487
# 5 0.005732 0.002732 -0.003157 0.000000 0.041010 0.000000
# 6 0.000000 0.000000 0.000000 0.038487 0.000000 0.138427
#
#
# Mechanical properties :
#
#
# Convention : Reuss Voigt Hill
#
# Bulk Modulus (GPa) = 49.21830 61.89032 55.55431
# Shear Modulus (GPa) = 20.05772 42.40669 31.23220
#
# Velocity S-wave (km/s) = 2.86252 4.16221 3.57198
# Velocity P-wave (km/s) = 5.57064 6.95573 6.30136
#
# Compressibility (1/GPa) = 0.02031765
#
# Stress axis : x y z
#
# Youngs Moduli (GPa) = 85.82391 119.73852 198.59904
#
# Poissons Ratio (x) = -0.09368 0.35222
# Poissons Ratio (y) = -0.06714 0.27194
# Poissons Ratio (z) = 0.15221 0.16396
#
# Static dielectric constant tensor:
#      x y z
#    x 1.980850 0.000000 -0.088990 
#    y 0.000000 4.233160 0.000000 
#    z -0.088990 0.000000 2.043110 
# 
# From -- ./inp_files/50301.got.cif
#   From: 2010.05.17/outbox.cif.g08.bks.cpg/sg12_26_cif.got.tgz:50301.got - 2010.06.03 13:09:07.
