data_PCOD9222226
_publ_section_title
;
Structure prediction by ZEFSAII (Michael W. Deem and Ramdas Pophale) SiO2 
 PCOD9222226
Probable space group: C 2/M
;
_chemical_formula_sum "Si O2"
_cell_formula_units_Z 22
_cell_length_a 24.141580
_cell_length_b 9.745267
_cell_length_c 8.636304
_cell_angle_alpha 90.000000
_cell_angle_beta 32.385239
_cell_angle_gamma 90.000000
_cell_volume 1088.266915
_symmetry_space_group_name_H-M "C 2/M"
_symmetry_group_IT_number 12
_symmetry_cell_setting 'monoclinic'
loop_
_space_group_symop_operation_xyz
x,y,z
-x,y,-z
-x,-y,-z
x,-y,z
1/2+x,1/2+y,z
1/2-x,1/2+y,-z
1/2-x,1/2-y,-z
1/2+x,1/2-y,z
loop_
_atom_site_type_symbol
_atom_site_label
_atom_site_fract_x
_atom_site_fract_y
_atom_site_fract_z
Si Si1 0.885200 0.000000 0.843444
Si Si2 0.500000 0.000000 0.500000
Si Si3 0.259412 0.000000 0.113317
Si Si4 0.751622 0.719368 0.678211
Si Si5 0.070626 0.500000 0.680934
O O1 0.812541 0.000000 0.865667
O O2 0.000000 0.000000 0.500000
O O3 0.849890 0.133046 0.026629
O O4 0.498811 0.000000 0.698713
O O5 0.376521 0.000000 0.782337
O O6 0.241642 0.137061 0.251252
O O7 0.750000 0.750000 0.500000
O O8 0.851110 0.629177 0.491219
O O9 0.000000 0.500000 0.000000
#
# Coordination Sequence:
#
# PCOD9222226 Si02
#       5
#     4   2   4   8   4
#     4  11  26  45  69 105 143 185 246 297 368 435
#     4  12  24  42  74  98 146 182 244 288 368 428
#     4  12  25  42  71 101 141 184 240 297 366 432
#     4  11  24  47  69 104 146 186 245 300 366 442
#     4  11  25  46  72 108 141 194 244 299 369 441
#
# _framework density 20.215629
#
# number of rings (size 3 to 8) (size 9 to 14) (size 15 to 20)
#    0.000    0.727    3.636    5.455    2.545    2.909 
#    0.000    2.727    0.000    0.000    0.000    0.000 
#    0.000    0.000    0.000    0.000    0.000    0.000 
#
# Total GULP energy -61267.000142 kJ/mol
# GULP energy per Si atom -5569.727286 kJ/mol
# Density = 2.016962 g / cm^3
# Si number density = 20.215629 Si / 1000 Ang^3
#
#
#
# Elastic Constant Matrix: (Units=GPa)
#
#
# Indices 1 2 3 4 5 6 
#
# 1 164.5547 29.0566 69.5036 0.0000 15.9021 0.0000
# 2 29.0566 160.7173 65.2555 0.0000 15.5731 0.0000
# 3 69.5036 65.2555 184.3605 0.0000 1.1380 0.0000
# 4 0.0000 0.0000 0.0000 151.5359 0.0000 37.1807
# 5 15.9021 15.5731 1.1380 0.0000 55.8252 0.0000
# 6 0.0000 0.0000 0.0000 37.1807 0.0000 24.9748
#
#
#
# Elastic Compliance Matrix: (Units=1/GPa)
#
#
# Indices 1 2 3 4 5 6 
#
# 1 0.007459 -0.000014 -0.002794 0.000000 -0.002064 0.000000
# 2 -0.000014 0.007491 -0.002634 0.000000 -0.002032 0.000000
# 3 -0.002794 -0.002634 0.007401 0.000000 0.001380 0.000000
# 4 0.000000 0.000000 0.000000 0.010397 0.000000 -0.015478
# 5 -0.002064 -0.002032 0.001380 0.000000 0.019040 0.000000
# 6 0.000000 0.000000 0.000000 -0.015478 0.000000 0.063083
#
#
# Mechanical properties :
#
#
# Convention : Reuss Voigt Hill
#
# Bulk Modulus (GPa) = 87.20416 93.02934 90.11675
# Shear Modulus (GPa) = 38.58711 69.52164 54.05437
#
# Velocity S-wave (km/s) = 4.37369 5.87066 5.17658
# Velocity P-wave (km/s) = 8.29073 9.59538 8.96682
#
# Compressibility (1/GPa) = 0.01146734
#
# Stress axis : x y z
#
# Youngs Moduli (GPa) = 134.06220 133.49625 135.11103
#
# Poissons Ratio (x) = 0.00187 0.37756
# Poissons Ratio (y) = 0.00187 0.35583
# Poissons Ratio (z) = 0.37463 0.35158
#
# Static dielectric constant tensor:
#      x y z
#    x 1.677690 0.000000 0.030070 
#    y 0.000000 1.715620 0.000000 
#    z 0.030070 0.000000 1.741070 
# 
# From -- ./inp_files/43552.got.cif
#   From: 2010.05.17/outbox.cif.g08.bks.cpg/sg12_22_cif.got.tgz:43552.got - 2010.06.03 13:09:07.
