data_PCOD9222002
_publ_section_title
;
Structure prediction by ZEFSAII (Michael W. Deem and Ramdas Pophale) SiO2 
 PCOD9222002
Probable space group: C 2/M
;
_chemical_formula_sum "Si O2"
_cell_formula_units_Z 32
_cell_length_a 8.785902
_cell_length_b 29.153737
_cell_length_c 10.636261
_cell_angle_alpha 90.000000
_cell_angle_beta 28.836419
_cell_angle_gamma 90.000000
_cell_volume 1314.003026
_symmetry_space_group_name_H-M "C 2/M"
_symmetry_group_IT_number 12
_symmetry_cell_setting 'monoclinic'
loop_
_space_group_symop_operation_xyz
x,y,z
-x,y,-z
-x,-y,-z
x,-y,z
1/2+x,1/2+y,z
1/2-x,1/2+y,-z
1/2-x,1/2-y,-z
1/2+x,1/2-y,z
loop_
_atom_site_type_symbol
_atom_site_label
_atom_site_fract_x
_atom_site_fract_y
_atom_site_fract_z
Si Si1 0.945274 0.323614 0.906563
Si Si2 0.222331 0.590947 0.097909
Si Si3 0.692185 0.270953 0.675917
Si Si4 0.935755 0.946827 0.400951
O O1 0.980491 0.361899 0.775335
O O2 0.608251 0.302548 0.112311
O O3 0.000000 0.347514 0.000000
O O4 0.149417 0.277352 0.777839
O O5 0.386146 0.578265 0.844579
O O6 0.500000 0.594884 0.000000
O O7 0.944070 0.556618 0.339365
O O8 0.750000 0.250000 0.500000
O O9 0.000000 0.296292 0.500000
O O10 0.000000 0.930912 0.500000
O O11 0.037527 0.000000 0.321721
#
# Coordination Sequence:
#
# PCOD9222002 Si02
#       4
#     8   8   8   8
#     4  11  25  42  63  96 131 179 234 284 342 415
#     4  12  28  44  72 108 145 184 231 292 350 414
#     4  11  24  41  66  91 130 179 228 288 348 404
#     4  11  25  49  77 105 140 185 232 283 350 427
#
# _framework density 24.353062999999999
#
# number of rings (size 3 to 8) (size 9 to 14) (size 15 to 20)
#    0.000    0.750    2.500    3.750    7.000    6.000 
#    0.000    0.000    0.000    0.000    0.000    0.000 
#    0.000    0.000    0.000    0.000    0.000    0.000 
#
# Total GULP energy -89283.968813 kJ/mol
# GULP energy per Si atom -5580.248051 kJ/mol
# Density = 2.429763 g / cm^3
# Si number density = 24.353063 Si / 1000 Ang^3
#
#
#
# Elastic Constant Matrix: (Units=GPa)
#
#
# Indices 1 2 3 4 5 6 
#
# 1 124.7718 27.8280 23.7460 0.0000 -4.4723 0.0000
# 2 27.8280 72.7483 6.5928 0.0000 1.5458 0.0000
# 3 23.7460 6.5928 91.4178 0.0000 -1.7047 0.0000
# 4 0.0000 0.0000 0.0000 48.2836 0.0000 -5.0731
# 5 -4.4723 1.5458 -1.7047 0.0000 65.5782 0.0000
# 6 0.0000 0.0000 0.0000 -5.0731 0.0000 32.3512
#
#
#
# Elastic Compliance Matrix: (Units=1/GPa)
#
#
# Indices 1 2 3 4 5 6 
#
# 1 0.009188 -0.003335 -0.002134 0.000000 0.000650 0.000000
# 2 -0.003335 0.015055 -0.000230 0.000000 -0.000588 0.000000
# 3 -0.002134 -0.000230 0.011513 0.000000 0.000159 0.000000
# 4 0.000000 0.000000 0.000000 0.021058 0.000000 0.003302
# 5 0.000650 -0.000588 0.000159 0.000000 0.015311 0.000000
# 6 0.000000 0.000000 0.000000 0.003302 0.000000 0.031429
#
#
# Mechanical properties :
#
#
# Convention : Reuss Voigt Hill
#
# Bulk Modulus (GPa) = 41.05612 45.03019 43.04316
# Shear Modulus (GPa) = 40.62691 44.62733 42.62712
#
# Velocity S-wave (km/s) = 4.08885 4.28543 4.18829
# Velocity P-wave (km/s) = 6.25994 6.55876 6.41109
#
# Compressibility (1/GPa) = 0.02435690
#
# Stress axis : x y z
#
# Youngs Moduli (GPa) = 108.83936 66.42255 86.86078
#
# Poissons Ratio (x) = 0.22152 0.18536
# Poissons Ratio (y) = 0.36298 0.02002
# Poissons Ratio (z) = 0.23226 0.01531
#
# Static dielectric constant tensor:
#      x y z
#    x 1.799590 0.000000 0.011760 
#    y 0.000000 1.950610 0.000000 
#    z 0.011760 0.000000 1.874120 
# 
# From -- ./inp_files/3533.got.cif
#   From: 2010.05.17/outbox.cif.g08.bks.cpg/sg12_2_cif.got.tgz:3533.got - 2010.06.03 13:09:07.
