data_PCOD9222070
_publ_section_title
;
Structure prediction by ZEFSAII (Michael W. Deem and Ramdas Pophale) SiO2 
 PCOD9222070
Probable space group: C 2/M
;
_chemical_formula_sum "Si O2"
_cell_formula_units_Z 40
_cell_length_a 7.426816
_cell_length_b 17.779551
_cell_length_c 15.754191
_cell_angle_alpha 90.000000
_cell_angle_beta 56.424832
_cell_angle_gamma 90.000000
_cell_volume 1733.199256
_symmetry_space_group_name_H-M "C 2/M"
_symmetry_group_IT_number 12
_symmetry_cell_setting 'monoclinic'
loop_
_space_group_symop_operation_xyz
x,y,z
-x,y,-z
-x,-y,-z
x,-y,z
1/2+x,1/2+y,z
1/2-x,1/2+y,-z
1/2-x,1/2-y,-z
1/2+x,1/2-y,z
loop_
_atom_site_type_symbol
_atom_site_label
_atom_site_fract_x
_atom_site_fract_y
_atom_site_fract_z
Si Si1 0.175288 0.910197 0.126505
Si Si2 0.299227 0.586812 0.352685
Si Si3 0.489544 0.847717 0.699563
Si Si4 0.537364 0.696035 0.395334
Si Si5 0.356655 0.090194 0.907795
O O1 0.403913 0.899310 0.114144
O O2 0.981299 0.885480 0.237036
O O3 0.147668 0.000000 0.125202
O O4 0.196721 0.882426 0.024159
O O5 0.334600 0.500000 0.364912
O O6 0.078906 0.597383 0.358824
O O7 0.343175 0.641435 0.419234
O O8 0.445886 0.764755 0.674092
O O9 0.740176 0.850247 0.659525
O O10 0.355218 0.868512 0.818608
O O11 0.500000 0.725191 0.500000
O O12 0.326298 0.000000 0.901840
#
# Coordination Sequence:
#
# PCOD9222070 Si02
#       5
#     8   8   8   8   8
#     4   8  16  34  61  97 135 172 208 255 324 390
#     4  11  24  42  70 104 133 166 220 275 319 387
#     4  12  24  42  70  95 127 175 224 263 325 397
#     4  12  27  47  70  90 129 178 220 269 339 398
#     4   9  17  34  66  98 131 172 214 261 318 385
#
# _framework density 23.078710000000001
#
# number of rings (size 3 to 8) (size 9 to 14) (size 15 to 20)
#    0.000    1.600    4.000    2.400    0.000    2.000 
#    0.000    5.000    4.400    0.000    0.000    0.000 
#    0.000    0.000    0.000    0.000    0.000    0.000 
#
# Total GULP energy -111836.987503 kJ/mol
# GULP energy per Si atom -5591.849375 kJ/mol
# Density = 2.302618 g / cm^3
# Si number density = 23.078710 Si / 1000 Ang^3
#
#
#
# Elastic Constant Matrix: (Units=GPa)
#
#
# Indices 1 2 3 4 5 6 
#
# 1 74.1719 19.5465 32.3857 0.0000 18.6126 0.0000
# 2 19.5465 86.6939 45.9784 0.0000 26.6515 0.0000
# 3 32.3857 45.9784 113.3863 0.0000 20.4315 0.0000
# 4 0.0000 0.0000 0.0000 -6.4287 0.0000 -0.7717
# 5 18.6126 26.6515 20.4315 0.0000 45.0111 0.0000
# 6 0.0000 0.0000 0.0000 -0.7717 0.0000 6.8910
#
#
#
# Elastic Compliance Matrix: (Units=1/GPa)
#
#
# Indices 1 2 3 4 5 6 
#
# 1 0.016403 -0.000202 -0.003706 0.000000 -0.004981 0.000000
# 2 -0.000202 0.016700 -0.005388 0.000000 -0.007359 0.000000
# 3 -0.003706 -0.005388 0.012211 0.000000 -0.000820 0.000000
# 4 0.000000 0.000000 0.000000 -0.153488 0.000000 -0.017189
# 5 -0.004981 -0.007359 -0.000820 0.000000 0.029006 0.000000
# 6 0.000000 0.000000 0.000000 -0.017189 0.000000 0.143193
#
#
# Mechanical properties :
#
#
# Convention : Reuss Voigt Hill
#
# Bulk Modulus (GPa) = 37.42123 52.23039 44.82581
# Shear Modulus (GPa) = 54.63027 20.85076 37.74051
#
# Velocity S-wave (km/s) = 4.87059 3.00903 4.04827
# Velocity P-wave (km/s) = 6.91954 5.89516 6.42779
#
# Compressibility (1/GPa) = 0.02672280
#
# Stress axis : x y z
#
# Youngs Moduli (GPa) = 60.96279 59.87872 81.89613
#
# Poissons Ratio (x) = 0.01207 0.30349
# Poissons Ratio (y) = 0.01229 0.44129
# Poissons Ratio (z) = 0.22592 0.32265
#
# Static dielectric constant tensor:
#      x y z
#    x 1.917610 0.000000 -0.027210 
#    y 0.000000 1.805700 0.000000 
#    z -0.027210 0.000000 1.908980 
# 
# From -- ./inp_files/195307.got.cif
#   From: 2010.05.17/outbox.cif.g08.bks.cpg/sg12_98_cif.got.tgz:195307.got - 2010.06.03 13:09:07.
