data_PCOD9222088
_publ_section_title
;
Structure prediction by ZEFSAII (Michael W. Deem and Ramdas Pophale) SiO2 
 PCOD9222088
Probable space group: C 2/M
;
_chemical_formula_sum "Si O2"
_cell_formula_units_Z 34
_cell_length_a 12.689626
_cell_length_b 20.437912
_cell_length_c 8.638288
_cell_angle_alpha 90.000000
_cell_angle_beta 131.978112
_cell_angle_gamma 90.000000
_cell_volume 1665.466156
_symmetry_space_group_name_H-M "C 2/M"
_symmetry_group_IT_number 12
_symmetry_cell_setting 'monoclinic'
loop_
_space_group_symop_operation_xyz
x,y,z
-x,y,-z
-x,-y,-z
x,-y,z
1/2+x,1/2+y,z
1/2-x,1/2+y,-z
1/2-x,1/2-y,-z
1/2+x,1/2-y,z
loop_
_atom_site_type_symbol
_atom_site_label
_atom_site_fract_x
_atom_site_fract_y
_atom_site_fract_z
Si Si1 0.833616 0.158671 0.000278
Si Si2 0.552484 0.804335 0.880079
Si Si3 0.679860 0.877411 0.535903
Si Si4 0.000000 0.500000 0.500000
Si Si5 0.943763 0.078053 0.612074
O O1 0.914925 0.227271 0.097093
O O2 0.940630 0.101400 0.149383
O O3 0.699150 0.159711 0.982703
O O4 0.768742 0.151463 0.766343
O O5 0.435369 0.826922 0.642334
O O6 0.500000 0.820547 0.000000
O O7 0.792245 0.893865 0.512071
O O8 0.598958 0.942087 0.515857
O O9 0.000000 0.101085 0.500000
O O10 0.934578 0.000000 0.600762
#
# Coordination Sequence:
#
# PCOD9222088 Si02
#       5
#     8   8   8   2   8
#     4  11  25  42  67  99 130 174 221 272 326 391
#     4  11  24  43  66  97 132 173 218 272 329 384
#     4  12  24  46  69  96 134 174 224 265 324 400
#     4  12  24  44  70 100 126 184 214 272 314 404
#     4  11  25  42  65  99 134 172 216 274 332 384
#
# _framework density 20.414705999999999
#
# number of rings (size 3 to 8) (size 9 to 14) (size 15 to 20)
#    0.000    0.706    3.529    3.529    1.647    8.471 
#    0.000    0.588    0.000    0.000    0.000    0.000 
#    0.000    0.000    0.000    0.000    0.000    0.000 
#
# Total GULP energy -94854.073610 kJ/mol
# GULP energy per Si atom -5579.651389 kJ/mol
# Density = 2.036824 g / cm^3
# Si number density = 20.414706 Si / 1000 Ang^3
#
#
#
# Elastic Constant Matrix: (Units=GPa)
#
#
# Indices 1 2 3 4 5 6 
#
# 1 178.0321 41.5989 37.8779 0.0000 14.1651 0.0000
# 2 41.5989 76.5632 54.9049 0.0000 7.3109 0.0000
# 3 37.8779 54.9049 129.5304 0.0000 4.7306 0.0000
# 4 0.0000 0.0000 0.0000 22.2175 0.0000 11.6363
# 5 14.1651 7.3109 4.7306 0.0000 24.1283 0.0000
# 6 0.0000 0.0000 0.0000 11.6363 0.0000 33.0531
#
#
#
# Elastic Compliance Matrix: (Units=1/GPa)
#
#
# Indices 1 2 3 4 5 6 
#
# 1 0.006656 -0.002901 -0.000611 0.000000 -0.002909 0.000000
# 2 -0.002901 0.020452 -0.007712 0.000000 -0.002982 0.000000
# 3 -0.000611 -0.007712 0.011149 0.000000 0.000509 0.000000
# 4 0.000000 0.000000 0.000000 0.055185 0.000000 -0.019428
# 5 -0.002909 -0.002982 0.000509 0.000000 0.043957 0.000000
# 6 0.000000 0.000000 0.000000 -0.019428 0.000000 0.037094
#
#
# Mechanical properties :
#
#
# Convention : Reuss Voigt Hill
#
# Bulk Modulus (GPa) = 63.24855 72.54324 67.89590
# Shear Modulus (GPa) = 24.72671 32.52936 28.62804
#
# Velocity S-wave (km/s) = 3.48404 3.99611 3.74882
# Velocity P-wave (km/s) = 6.87268 7.54346 7.21587
#
# Compressibility (1/GPa) = 0.01581064
#
# Stress axis : x y z
#
# Youngs Moduli (GPa) = 150.23748 48.89378 89.69293
#
# Poissons Ratio (x) = 0.14183 0.05477
# Poissons Ratio (y) = 0.43581 0.69173
# Poissons Ratio (z) = 0.09173 0.37708
#
# Static dielectric constant tensor:
#      x y z
#    x 1.755800 0.000000 -0.012850 
#    y 0.000000 1.686820 0.000000 
#    z -0.012850 0.000000 1.708270 
# 
# From -- ./inp_files/49070.got.cif
#   From: 2010.05.17/outbox.cif.g08.bks.cpg/sg12_25_cif.got.tgz:49070.got - 2010.06.03 13:09:07.
