data_PCOD9222532
_publ_section_title
;
Structure prediction by ZEFSAII (Michael W. Deem and Ramdas Pophale) SiO2 
 PCOD9222532
Probable space group: C 2/M
;
_chemical_formula_sum "Si O2"
_cell_formula_units_Z 48
_cell_length_a 16.837579
_cell_length_b 19.736918
_cell_length_c 8.916929
_cell_angle_alpha 90.000000
_cell_angle_beta 137.948336
_cell_angle_gamma 90.000000
_cell_volume 1984.813549
_symmetry_space_group_name_H-M "C 2/M"
_symmetry_group_IT_number 12
_symmetry_cell_setting 'monoclinic'
loop_
_space_group_symop_operation_xyz
x,y,z
-x,y,-z
-x,-y,-z
x,-y,z
1/2+x,1/2+y,z
1/2-x,1/2+y,-z
1/2-x,1/2-y,-z
1/2+x,1/2-y,z
loop_
_atom_site_type_symbol
_atom_site_label
_atom_site_fract_x
_atom_site_fract_y
_atom_site_fract_z
Si Si1 0.365229 0.076173 0.221777
Si Si2 0.800317 0.693701 0.682690
Si Si3 0.118928 0.923447 0.022614
Si Si4 0.664074 0.078138 0.477624
Si Si5 0.874486 0.277957 0.102808
Si Si6 0.957200 0.840746 0.596665
O O1 0.400088 0.081412 0.449040
O O2 0.390335 0.143739 0.166628
O O3 0.392633 0.000000 0.204033
O O4 0.221262 0.078256 0.038838
O O5 0.750000 0.750000 0.500000
O O6 0.868048 0.635147 0.686280
O O7 0.683297 0.660846 0.593074
O O8 0.868269 0.727804 0.914957
O O9 0.800808 0.907272 0.719513
O O10 0.015301 0.876633 0.821198
O O11 0.076979 0.000000 0.976754
O O12 0.655968 0.000000 0.414891
O O13 0.983584 0.233782 0.314934
O O14 0.750000 0.250000 0.000000
O O15 0.000000 0.872582 0.500000
#
# Coordination Sequence:
#
# PCOD9222532 Si02
#       6
#     8   8   8   8   8   8
#     4   8  16  35  62  85 117 161 196 241 300 358
#     4  12  25  38  60  89 123 161 202 249 306 356
#     4   8  16  33  55  83 123 156 188 233 294 369
#     4   8  18  37  60  87 119 158 195 238 303 369
#     4  12  21  39  60  86 124 158 202 252 297 353
#     4  12  24  37  59  89 120 163 207 246 297 360
#
# _framework density 24.183631999999999
#
# number of rings (size 3 to 8) (size 9 to 14) (size 15 to 20)
#    1.000    1.000    3.333    2.000    0.000    4.333 
#    0.000    1.667    0.000    1.500    0.000    2.333 
#    0.000    0.000    0.000    0.000    0.000    0.000 
#
# Total GULP energy -134141.402832 kJ/mol
# GULP energy per Si atom -5589.225118 kJ/mol
# Density = 2.412859 g / cm^3
# Si number density = 24.183632 Si / 1000 Ang^3
#
#
#
# Elastic Constant Matrix: (Units=GPa)
#
#
# Indices 1 2 3 4 5 6 
#
# 1 94.8866 20.2645 6.7619 0.0000 -3.7821 0.0000
# 2 20.2645 98.1825 29.7814 0.0000 -12.3192 0.0000
# 3 6.7619 29.7814 80.2352 0.0000 -16.5184 0.0000
# 4 0.0000 0.0000 0.0000 39.5582 0.0000 -6.5206
# 5 -3.7821 -12.3192 -16.5184 0.0000 36.7953 0.0000
# 6 0.0000 0.0000 0.0000 -6.5206 0.0000 12.7088
#
#
#
# Elastic Compliance Matrix: (Units=1/GPa)
#
#
# Indices 1 2 3 4 5 6 
#
# 1 0.011030 -0.002221 -0.000027 0.000000 0.000378 0.000000
# 2 -0.002221 0.012078 -0.003868 0.000000 0.002079 0.000000
# 3 -0.000027 -0.003868 0.015023 0.000000 0.005446 0.000000
# 4 0.000000 0.000000 0.000000 0.027615 0.000000 0.014169
# 5 0.000378 0.002079 0.005446 0.000000 0.030357 0.000000
# 6 0.000000 0.000000 0.000000 0.014169 0.000000 0.085955
#
#
# Mechanical properties :
#
#
# Convention : Reuss Voigt Hill
#
# Bulk Modulus (GPa) = 38.61268 42.99109 40.80188
# Shear Modulus (GPa) = 24.63995 32.24554 28.44274
#
# Velocity S-wave (km/s) = 3.19544 3.65548 3.43317
# Velocity P-wave (km/s) = 5.44201 5.96928 5.71173
#
# Compressibility (1/GPa) = 0.02589823
#
# Stress axis : x y z
#
# Youngs Moduli (GPa) = 90.66005 82.79845 66.56672
#
# Poissons Ratio (x) = 0.18388 0.00183
# Poissons Ratio (y) = 0.20134 0.25746
# Poissons Ratio (z) = 0.00249 0.32024
#
# Static dielectric constant tensor:
#      x y z
#    x 2.054250 0.000000 0.056710 
#    y 0.000000 1.868880 0.000000 
#    z 0.056710 0.000000 1.925800 
# 
# From -- ./inp_files/77710.got.cif
#   From: 2010.05.17/outbox.cif.g08.bks.cpg/sg12_39_cif.got.tgz:77710.got - 2010.06.03 13:09:07.
