data_PCOD9222939
_publ_section_title
;
Structure prediction by ZEFSAII (Michael W. Deem and Ramdas Pophale) SiO2 
 PCOD9222939
Probable space group: C 2/M
;
_chemical_formula_sum "Si O2"
_cell_formula_units_Z 40
_cell_length_a 6.652201
_cell_length_b 14.732104
_cell_length_c 14.533364
_cell_angle_alpha 90.000000
_cell_angle_beta 76.938158
_cell_angle_gamma 90.000000
_cell_volume 1387.432093
_symmetry_space_group_name_H-M "C 2/M"
_symmetry_group_IT_number 12
_symmetry_cell_setting 'monoclinic'
loop_
_space_group_symop_operation_xyz
x,y,z
-x,y,-z
-x,-y,-z
x,-y,z
1/2+x,1/2+y,z
1/2-x,1/2+y,-z
1/2-x,1/2-y,-z
1/2+x,1/2-y,z
loop_
_atom_site_type_symbol
_atom_site_label
_atom_site_fract_x
_atom_site_fract_y
_atom_site_fract_z
Si Si1 0.892796 0.895793 0.387011
Si Si2 0.007289 0.654623 0.214241
Si Si3 0.938919 0.132230 0.819796
Si Si4 0.724425 0.140509 0.018055
Si Si5 0.836938 0.610602 0.419292
O O1 0.906509 0.899239 0.275746
O O2 0.113271 0.859976 0.399532
O O3 0.704384 0.860858 0.469762
O O4 0.896423 0.000000 0.415431
O O5 0.789562 0.615619 0.200860
O O6 0.992567 0.647832 0.325624
O O7 0.013737 0.760388 0.187430
O O8 0.190757 0.617455 0.129513
O O9 0.894871 0.103540 0.929385
O O10 0.500000 0.117087 0.000000
O O11 0.750000 0.250000 0.000000
O O12 0.869033 0.500000 0.411284
#
# Coordination Sequence:
#
# PCOD9222939 Si02
#       5
#     8   8   8   8   8
#     4   8  14  25  40  57  78 104 131 158 191 231
#     4   9  16  26  41  60  80 102 129 160 192 227
#     4   9  16  26  41  60  80 102 129 160 192 227
#     4   8  14  24  37  55  79 103 125 152 190 230
#     4   8  14  25  40  57  78 104 131 158 191 231
#
# _framework density 28.830238999999999
#
# number of rings (size 3 to 8) (size 9 to 14) (size 15 to 20)
#    0.000    3.600    0.000    1.200    0.000    0.800 
#    0.000    1.000    0.000    7.200    0.000    2.800 
#    0.000   16.000    0.000    0.000    0.000    0.000 
#
# Total GULP energy -111580.356380 kJ/mol
# GULP energy per Si atom -5579.017819 kJ/mol
# Density = 2.876462 g / cm^3
# Si number density = 28.830239 Si / 1000 Ang^3
#
#
#
# Elastic Constant Matrix: (Units=GPa)
#
#
# Indices 1 2 3 4 5 6 
#
# 1 100.3408 -9.6646 99.5806 0.0000 -38.8426 0.0000
# 2 -9.6646 79.5138 31.0145 0.0000 -8.2852 0.0000
# 3 99.5806 31.0145 458.4573 0.0000 -18.7289 0.0000
# 4 0.0000 0.0000 0.0000 49.1928 0.0000 3.5244
# 5 -38.8426 -8.2852 -18.7289 0.0000 94.9903 0.0000
# 6 0.0000 0.0000 0.0000 3.5244 0.0000 19.4995
#
#
#
# Elastic Compliance Matrix: (Units=1/GPa)
#
#
# Indices 1 2 3 4 5 6 
#
# 1 0.016343 0.004037 -0.003564 0.000000 0.006332 0.000000
# 2 0.004037 0.014002 -0.001721 0.000000 0.002533 0.000000
# 3 -0.003564 -0.001721 0.003031 0.000000 -0.001010 0.000000
# 4 0.000000 0.000000 0.000000 0.020595 0.000000 -0.003722
# 5 0.006332 0.002533 -0.001010 0.000000 0.013138 0.000000
# 6 0.000000 0.000000 0.000000 -0.003722 0.000000 0.051956
#
#
# Mechanical properties :
#
#
# Convention : Reuss Voigt Hill
#
# Bulk Modulus (GPa) = 32.38403 97.79700 65.09052
# Shear Modulus (GPa) = 37.92038 67.22862 52.57450
#
# Velocity S-wave (km/s) = 3.63064 4.83419 4.27498
# Velocity P-wave (km/s) = 5.36958 8.07184 6.85518
#
# Compressibility (1/GPa) = 0.03087941
#
# Stress axis : x y z
#
# Youngs Moduli (GPa) = 61.18679 71.41809 329.97252
#
# Poissons Ratio (x) = -0.28828 1.17612
# Poissons Ratio (y) = -0.24698 0.56773
# Poissons Ratio (z) = 0.21809 0.12288
#
# Static dielectric constant tensor:
#      x y z
#    x 2.386020 0.000000 0.101930 
#    y 0.000000 2.222510 0.000000 
#    z 0.101930 0.000000 2.271290 
# 
# From -- ./inp_files/120248.got.cif
#   From: 2010.05.17/outbox.cif.g08.bks.cpg/sg12_61_cif.got.tgz:120248.got - 2010.06.03 13:09:07.
