data_PCOD9222521
_publ_section_title
;
Structure prediction by ZEFSAII (Michael W. Deem and Ramdas Pophale) SiO2 
 PCOD9222521
Probable space group: C 2/M
;
_chemical_formula_sum "Si O2"
_cell_formula_units_Z 36
_cell_length_a 5.175027
_cell_length_b 27.668568
_cell_length_c 12.805524
_cell_angle_alpha 90.000000
_cell_angle_beta 75.190249
_cell_angle_gamma 90.000000
_cell_volume 1772.655204
_symmetry_space_group_name_H-M "C 2/M"
_symmetry_group_IT_number 12
_symmetry_cell_setting 'monoclinic'
loop_
_space_group_symop_operation_xyz
x,y,z
-x,y,-z
-x,-y,-z
x,-y,z
1/2+x,1/2+y,z
1/2-x,1/2+y,-z
1/2-x,1/2-y,-z
1/2+x,1/2-y,z
loop_
_atom_site_type_symbol
_atom_site_label
_atom_site_fract_x
_atom_site_fract_y
_atom_site_fract_z
Si Si1 0.023900 0.500000 0.184980
Si Si2 0.161531 0.142616 0.801258
Si Si3 0.000000 0.783418 0.000000
Si Si4 0.700609 0.392943 0.571948
Si Si5 0.890052 0.600907 0.117770
Si Si6 0.566904 0.500000 0.671768
O O1 0.278537 0.500000 0.233581
O O2 0.002556 0.547418 0.118097
O O3 0.753400 0.500000 0.282873
O O4 0.159225 0.141921 0.676299
O O5 0.461484 0.128556 0.804061
O O6 0.928168 0.103090 0.848907
O O7 0.070052 0.185179 0.888815
O O8 0.750000 0.750000 0.000000
O O9 0.500000 0.380781 0.500000
O O10 0.648881 0.449378 0.609380
O O11 0.000000 0.389337 0.500000
O O12 0.000000 0.623360 0.000000
#
# Coordination Sequence:
#
# PCOD9222521 Si02
#       6
#     4   8   4   8   8   4
#     4  12  21  35  56  89 134 187 222 274 310 368
#     4  12  24  44  68  97 134 166 218 272 333 410
#     4  12  26  48  78 105 126 157 202 280 366 422
#     4  12  24  41  64  92 136 189 228 273 312 362
#     4  12  21  38  60  92 134 181 216 266 326 381
#     4  12  22  39  57  89 134 184 252 271 298 340
#
# _framework density 20.308520000000001
#
# number of rings (size 3 to 8) (size 9 to 14) (size 15 to 20)
#    0.000    0.000    6.667    5.000    0.000    0.000 
#    0.000    3.333    0.000    4.000    0.000    0.000 
#    0.000    0.000    0.000    0.000    0.000    0.000 
#
# Total GULP energy -100537.542064 kJ/mol
# GULP energy per Si atom -5585.419004 kJ/mol
# Density = 2.026230 g / cm^3
# Si number density = 20.308520 Si / 1000 Ang^3
#
#
#
# Elastic Constant Matrix: (Units=GPa)
#
#
# Indices 1 2 3 4 5 6 
#
# 1 109.2975 29.2508 37.4091 0.0000 10.6974 0.0000
# 2 29.2508 83.4680 43.8431 0.0000 20.5017 0.0000
# 3 37.4091 43.8431 143.5500 0.0000 19.3941 0.0000
# 4 0.0000 0.0000 0.0000 9.8641 0.0000 7.4291
# 5 10.6974 20.5017 19.3941 0.0000 39.7468 0.0000
# 6 0.0000 0.0000 0.0000 7.4291 0.0000 21.9683
#
#
#
# Elastic Compliance Matrix: (Units=1/GPa)
#
#
# Indices 1 2 3 4 5 6 
#
# 1 0.010537 -0.002556 -0.001885 0.000000 -0.000598 0.000000
# 2 -0.002556 0.016159 -0.003465 0.000000 -0.005957 0.000000
# 3 -0.001885 -0.003465 0.008785 0.000000 -0.001992 0.000000
# 4 0.000000 0.000000 0.000000 0.136021 0.000000 -0.045999
# 5 -0.000598 -0.005957 -0.001992 0.000000 0.029365 0.000000
# 6 0.000000 0.000000 0.000000 -0.045999 0.000000 0.061076
#
#
# Mechanical properties :
#
#
# Convention : Reuss Voigt Hill
#
# Bulk Modulus (GPa) = 50.83631 61.92460 56.38045
# Shear Modulus (GPa) = 17.58649 29.36999 23.47824
#
# Velocity S-wave (km/s) = 2.94592 3.80701 3.40380
# Velocity P-wave (km/s) = 6.05455 7.06276 6.57800
#
# Compressibility (1/GPa) = 0.01967098
#
# Stress axis : x y z
#
# Youngs Moduli (GPa) = 94.90470 61.88417 113.83549
#
# Poissons Ratio (x) = 0.15816 0.21453
# Poissons Ratio (y) = 0.24256 0.39439
# Poissons Ratio (z) = 0.17885 0.21440
#
# Static dielectric constant tensor:
#      x y z
#    x 1.692860 0.000000 0.005070 
#    y 0.000000 1.741460 0.000000 
#    z 0.005070 0.000000 1.733400 
# 
# From -- ./inp_files/115410.got.cif
#   From: 2010.05.17/outbox.cif.g08.bks.cpg/sg12_58_cif.got.tgz:115410.got - 2010.06.03 13:09:07.
