data_PCOD9222728
_publ_section_title
;
Structure prediction by ZEFSAII (Michael W. Deem and Ramdas Pophale) SiO2 
 PCOD9222728
Probable space group: C 2/M
;
_chemical_formula_sum "Si O2"
_cell_formula_units_Z 40
_cell_length_a 15.772442
_cell_length_b 22.096888
_cell_length_c 8.830291
_cell_angle_alpha 90.000000
_cell_angle_beta 36.634199
_cell_angle_gamma 90.000000
_cell_volume 1836.386064
_symmetry_space_group_name_H-M "C 2/M"
_symmetry_group_IT_number 12
_symmetry_cell_setting 'monoclinic'
loop_
_space_group_symop_operation_xyz
x,y,z
-x,y,-z
-x,-y,-z
x,-y,z
1/2+x,1/2+y,z
1/2-x,1/2+y,-z
1/2-x,1/2-y,-z
1/2+x,1/2-y,z
loop_
_atom_site_type_symbol
_atom_site_label
_atom_site_fract_x
_atom_site_fract_y
_atom_site_fract_z
Si Si1 0.030158 0.789928 0.714918
Si Si2 0.752693 0.373801 0.218807
Si Si3 0.000000 0.699105 0.500000
Si Si4 0.500000 0.201667 0.000000
Si Si5 0.333400 0.500000 0.190423
Si Si6 0.672304 0.000000 0.738887
Si Si7 0.721362 0.624789 0.902645
O O1 0.961292 0.744360 0.691196
O O2 0.086666 0.745855 0.764496
O O3 0.138069 0.833182 0.472010
O O4 0.907977 0.832104 0.957848
O O5 0.766053 0.440326 0.269442
O O6 0.900479 0.340212 0.041256
O O7 0.721193 0.378123 0.086044
O O8 0.867856 0.657050 0.646481
O O9 0.230915 0.500000 0.483752
O O10 0.299646 0.559731 0.141598
O O11 0.500000 0.500000 0.000000
O O12 0.500000 0.000000 0.000000
#
# Coordination Sequence:
#
# PCOD9222728 Si02
#       7
#     8   8   4   4   4   4   8
#     4  12  25  45  73 108 150 191 243 300 370 444
#     4  12  25  49  73 107 148 196 244 305 370 441
#     4  12  24  45  74 109 148 188 240 300 368 452
#     4  12  26  41  72 111 152 188 242 304 366 438
#     4  12  31  53  78 111 142 195 256 313 366 434
#     4  12  29  48  75 105 148 190 254 308 366 429
#     4  12  27  48  76 104 150 194 246 301 370 438
#
# _framework density 21.781911999999998
#
# number of rings (size 3 to 8) (size 9 to 14) (size 15 to 20)
#    0.000    0.000    5.000    4.200    9.800    0.400 
#    0.000    3.000    0.000    0.000    0.000    0.000 
#    0.000    0.000    0.000    0.000    0.000    0.000 
#
# Total GULP energy -111988.121886 kJ/mol
# GULP energy per Si atom -5599.406094 kJ/mol
# Density = 2.173234 g / cm^3
# Si number density = 21.781912 Si / 1000 Ang^3
#
#
#
# Elastic Constant Matrix: (Units=GPa)
#
#
# Indices 1 2 3 4 5 6 
#
# 1 81.2169 63.3980 24.1720 0.0000 12.9327 0.0000
# 2 63.3980 202.5988 52.4457 0.0000 3.3654 0.0000
# 3 24.1720 52.4457 96.3298 0.0000 -8.9370 0.0000
# 4 0.0000 0.0000 0.0000 18.1433 0.0000 -18.3616
# 5 12.9327 3.3654 -8.9370 0.0000 41.6874 0.0000
# 6 0.0000 0.0000 0.0000 -18.3616 0.0000 30.7128
#
#
#
# Elastic Compliance Matrix: (Units=1/GPa)
#
#
# Indices 1 2 3 4 5 6 
#
# 1 0.017667 -0.004835 -0.002319 0.000000 -0.005588 0.000000
# 2 -0.004835 0.007124 -0.002632 0.000000 0.000361 0.000000
# 3 -0.002319 -0.002632 0.012736 0.000000 0.003662 0.000000
# 4 0.000000 0.000000 0.000000 0.139550 0.000000 0.083430
# 5 -0.005588 0.000361 0.003662 0.000000 0.026478 0.000000
# 6 0.000000 0.000000 0.000000 0.083430 0.000000 0.082438
#
#
# Mechanical properties :
#
#
# Convention : Reuss Voigt Hill
#
# Bulk Modulus (GPa) = 55.69678 73.35299 64.52489
# Shear Modulus (GPa) = 16.04878 34.11736 25.08307
#
# Velocity S-wave (km/s) = 2.71734 3.96196 3.39714
# Velocity P-wave (km/s) = 5.95575 7.39451 6.71378
#
# Compressibility (1/GPa) = 0.01795436
#
# Stress axis : x y z
#
# Youngs Moduli (GPa) = 56.60218 140.36505 78.51990
#
# Poissons Ratio (x) = 0.67871 0.18209
# Poissons Ratio (y) = 0.27369 0.20666
# Poissons Ratio (z) = 0.13126 0.36943
#
# Static dielectric constant tensor:
#      x y z
#    x 1.819970 0.000000 0.013050 
#    y 0.000000 1.735590 0.000000 
#    z 0.013050 0.000000 1.805840 
# 
# From -- ./inp_files/65138.got.cif
#   From: 2010.05.17/outbox.cif.g08.bks.cpg/sg12_33_cif.got.tgz:65138.got - 2010.06.03 13:09:07.
