data_PCOD9222054
_publ_section_title
;
Structure prediction by ZEFSAII (Michael W. Deem and Ramdas Pophale) SiO2 
 PCOD9222054
Probable space group: C 2/M
;
_chemical_formula_sum "Si O2"
_cell_formula_units_Z 40
_cell_length_a 8.601529
_cell_length_b 24.854219
_cell_length_c 11.986608
_cell_angle_alpha 90.000000
_cell_angle_beta 51.912903
_cell_angle_gamma 90.000000
_cell_volume 2016.915134
_symmetry_space_group_name_H-M "C 2/M"
_symmetry_group_IT_number 12
_symmetry_cell_setting 'monoclinic'
loop_
_space_group_symop_operation_xyz
x,y,z
-x,y,-z
-x,-y,-z
x,-y,z
1/2+x,1/2+y,z
1/2-x,1/2+y,-z
1/2-x,1/2-y,-z
1/2+x,1/2-y,z
loop_
_atom_site_type_symbol
_atom_site_label
_atom_site_fract_x
_atom_site_fract_y
_atom_site_fract_z
Si Si1 0.927774 0.792777 0.908802
Si Si2 0.217388 0.500000 0.360370
Si Si3 0.763620 0.700158 0.578030
Si Si4 0.730276 0.500000 0.924124
Si Si5 0.957636 0.910407 0.388689
Si Si6 0.721443 0.901642 0.927369
O O1 0.837759 0.849326 0.913039
O O2 0.120092 0.782927 0.745325
O O3 0.750000 0.750000 0.000000
O O4 0.000000 0.799754 0.000000
O O5 0.193272 0.500000 0.236695
O O6 0.327717 0.449467 0.367559
O O7 0.000000 0.500000 0.500000
O O8 0.750000 0.750000 0.500000
O O9 0.654350 0.647411 0.573982
O O10 0.000000 0.690775 0.500000
O O11 0.500000 0.500000 0.000000
O O12 0.776352 0.448291 0.980423
O O13 0.000000 0.922629 0.500000
O O14 0.169638 0.916668 0.235167
O O15 0.500000 0.886533 0.000000
#
# Coordination Sequence:
#
# PCOD9222054 Si02
#       6
#     8   4   8   4   8   8
#     4  11  24  42  67  99 134 172 224 279 328 394
#     4  12  27  44  68 102 131 176 222 275 334 392
#     4  11  24  43  67  97 132 179 223 268 337 398
#     4  12  23  46  70  94 137 172 224 276 332 396
#     4  11  25  44  66  96 137 173 220 274 328 398
#     4  11  25  42  69  98 130 178 220 270 335 392
#
# _framework density 19.832267000000002
#
# number of rings (size 3 to 8) (size 9 to 14) (size 15 to 20)
#    0.000    0.800    2.000    4.200    5.600    6.400 
#    0.000    0.000    0.000    0.000    0.000    0.000 
#    0.000    0.000    0.000    0.000    0.000    0.000 
#
# Total GULP energy -111512.778718 kJ/mol
# GULP energy per Si atom -5575.638936 kJ/mol
# Density = 1.978713 g / cm^3
# Si number density = 19.832267 Si / 1000 Ang^3
#
#
#
# Elastic Constant Matrix: (Units=GPa)
#
#
# Indices 1 2 3 4 5 6 
#
# 1 89.9703 -3.3261 76.3956 0.0000 2.6928 0.0000
# 2 -3.3261 76.7366 42.9752 0.0000 15.3880 0.0000
# 3 76.3956 42.9752 225.3635 0.0000 11.6311 0.0000
# 4 0.0000 0.0000 0.0000 20.3490 0.0000 -0.5722
# 5 2.6928 15.3880 11.6311 0.0000 52.7358 0.0000
# 6 0.0000 0.0000 0.0000 -0.5722 0.0000 15.4276
#
#
#
# Elastic Compliance Matrix: (Units=1/GPa)
#
#
# Indices 1 2 3 4 5 6 
#
# 1 0.016862 0.004545 -0.006544 0.000000 -0.000744 0.000000
# 2 0.004545 0.016559 -0.004488 0.000000 -0.004074 0.000000
# 3 -0.006544 -0.004488 0.007512 0.000000 -0.000013 0.000000
# 4 0.000000 0.000000 0.000000 0.049194 0.000000 0.001824
# 5 -0.000744 -0.004074 -0.000013 0.000000 0.020192 0.000000
# 6 0.000000 0.000000 0.000000 0.001824 0.000000 0.064887
#
#
# Mechanical properties :
#
#
# Convention : Reuss Voigt Hill
#
# Bulk Modulus (GPa) = 35.76724 69.35109 52.55916
# Shear Modulus (GPa) = 25.31644 36.10421 30.71033
#
# Velocity S-wave (km/s) = 3.57673 4.27134 3.93937
# Velocity P-wave (km/s) = 5.92717 7.70522 6.87393
#
# Compressibility (1/GPa) = 0.02795855
#
# Stress axis : x y z
#
# Youngs Moduli (GPa) = 59.30490 60.38975 133.11549
#
# Poissons Ratio (x) = -0.27448 0.87116
# Poissons Ratio (y) = -0.26955 0.59745
# Poissons Ratio (z) = 0.38811 0.27104
#
# Static dielectric constant tensor:
#      x y z
#    x 1.555410 0.000000 0.033170 
#    y 0.000000 1.707460 0.000000 
#    z 0.033170 0.000000 1.720340 
# 
# From -- ./inp_files/123424.got.cif
#   From: 2010.05.17/outbox.cif.g08.bks.cpg/sg12_62_cif.got.tgz:123424.got - 2010.06.03 13:09:07.
