data_PCOD9222456
_publ_section_title
;
Structure prediction by ZEFSAII (Michael W. Deem and Ramdas Pophale) SiO2 
 PCOD9222456
Probable space group: C 2/M
;
_chemical_formula_sum "Si O2"
_cell_formula_units_Z 32
_cell_length_a 16.515397
_cell_length_b 15.673042
_cell_length_c 11.343708
_cell_angle_alpha 90.000000
_cell_angle_beta 155.928034
_cell_angle_gamma 90.000000
_cell_volume 1197.660659
_symmetry_space_group_name_H-M "C 2/M"
_symmetry_group_IT_number 12
_symmetry_cell_setting 'monoclinic'
loop_
_space_group_symop_operation_xyz
x,y,z
-x,y,-z
-x,-y,-z
x,-y,z
1/2+x,1/2+y,z
1/2-x,1/2+y,-z
1/2-x,1/2-y,-z
1/2+x,1/2-y,z
loop_
_atom_site_type_symbol
_atom_site_label
_atom_site_fract_x
_atom_site_fract_y
_atom_site_fract_z
Si Si1 0.843806 0.153928 0.065360
Si Si2 0.294205 0.408152 0.596258
Si Si3 0.339109 0.906715 0.934940
Si Si4 0.676185 0.766121 0.612854
O O1 0.739308 0.106491 0.035034
O O2 0.020989 0.098646 0.244333
O O3 0.964742 0.237190 0.275850
O O4 0.706084 0.178724 0.771445
O O5 0.301649 0.500000 0.670726
O O6 0.290526 0.322778 0.669513
O O7 0.076806 0.406882 0.249210
O O8 0.263981 0.825408 0.764431
O O9 0.268691 0.000000 0.800205
#
# Coordination Sequence:
#
# PCOD9222456 Si02
#       4
#     8   8   8   8
#     4  12  27  46  77 110 154 200 247 314 375 452
#     4  11  27  49  77 113 152 198 252 312 379 449
#     4  11  27  49  77 113 152 198 252 312 379 449
#     4  12  26  48  78 112 152 196 250 312 378 442
#
# _framework density 26.718753
#
# number of rings (size 3 to 8) (size 9 to 14) (size 15 to 20)
#    0.000    0.500    2.500    3.750    7.000    6.000 
#    0.000    5.000    0.000    0.000    0.000    0.000 
#    0.000    0.000    0.000    0.000    0.000    0.000 
#
# Total GULP energy -89679.418811 kJ/mol
# GULP energy per Si atom -5604.963676 kJ/mol
# Density = 2.665794 g / cm^3
# Si number density = 26.718753 Si / 1000 Ang^3
#
#
#
# Elastic Constant Matrix: (Units=GPa)
#
#
# Indices 1 2 3 4 5 6 
#
# 1 149.5143 59.3470 28.6505 0.0000 12.7153 0.0000
# 2 59.3470 197.2606 31.4465 0.0000 -8.2962 0.0000
# 3 28.6505 31.4465 173.6847 0.0000 5.9545 0.0000
# 4 0.0000 0.0000 0.0000 23.3261 0.0000 -12.4771
# 5 12.7153 -8.2962 5.9545 0.0000 38.7233 0.0000
# 6 0.0000 0.0000 0.0000 -12.4771 0.0000 41.6981
#
#
#
# Elastic Compliance Matrix: (Units=1/GPa)
#
#
# Indices 1 2 3 4 5 6 
#
# 1 0.008062 -0.002428 -0.000786 0.000000 -0.003047 0.000000
# 2 -0.002428 0.006014 -0.000764 0.000000 0.002203 0.000000
# 3 -0.000786 -0.000764 0.006054 0.000000 -0.000837 0.000000
# 4 0.000000 0.000000 0.000000 0.051040 0.000000 0.015272
# 5 -0.003047 0.002203 -0.000837 0.000000 0.027425 0.000000
# 6 0.000000 0.000000 0.000000 0.015272 0.000000 0.028552
#
#
# Mechanical properties :
#
#
# Convention : Reuss Voigt Hill
#
# Bulk Modulus (GPa) = 82.13890 84.37195 83.25542
# Shear Modulus (GPa) = 35.92953 47.48388 41.70670
#
# Velocity S-wave (km/s) = 3.67104 4.22023 3.95518
# Velocity P-wave (km/s) = 6.98409 7.44268 7.21702
#
# Compressibility (1/GPa) = 0.01217450
#
# Stress axis : x y z
#
# Youngs Moduli (GPa) = 124.04072 166.26586 165.17543
#
# Poissons Ratio (x) = 0.40375 0.12979
# Poissons Ratio (y) = 0.30121 0.12618
# Poissons Ratio (z) = 0.09746 0.12701
#
# Static dielectric constant tensor:
#      x y z
#    x 2.141960 0.000000 0.013150 
#    y 0.000000 2.060850 0.000000 
#    z 0.013150 0.000000 2.143000 
# 
# From -- ./inp_files/46718.got.cif
#   From: 2010.05.17/outbox.cif.g08.bks.cpg/sg12_24_cif.got.tgz:46718.got - 2010.06.03 13:09:07.
