data_PCOD9222351
_publ_section_title
;
Structure prediction by ZEFSAII (Michael W. Deem and Ramdas Pophale) SiO2 
 PCOD9222351
Probable space group: C 2/M
;
_chemical_formula_sum "Si O2"
_cell_formula_units_Z 48
_cell_length_a 14.400566
_cell_length_b 17.221240
_cell_length_c 9.578079
_cell_angle_alpha 90.000000
_cell_angle_beta 101.928865
_cell_angle_gamma 90.000000
_cell_volume 2324.026358
_symmetry_space_group_name_H-M "C 2/M"
_symmetry_group_IT_number 12
_symmetry_cell_setting 'monoclinic'
loop_
_space_group_symop_operation_xyz
x,y,z
-x,y,-z
-x,-y,-z
x,-y,z
1/2+x,1/2+y,z
1/2-x,1/2+y,-z
1/2-x,1/2-y,-z
1/2+x,1/2-y,z
loop_
_atom_site_type_symbol
_atom_site_label
_atom_site_fract_x
_atom_site_fract_y
_atom_site_fract_z
Si Si1 0.220583 0.776118 0.835346
Si Si2 0.913766 0.092610 0.577537
Si Si3 0.485718 0.000000 0.829799
Si Si4 0.893334 0.664427 0.733680
Si Si5 0.288614 0.155519 0.425102
Si Si6 0.398453 0.000000 0.384819
Si Si7 0.510670 0.683619 0.840422
O O1 0.303114 0.831824 0.806846
O O2 0.218257 0.708575 0.715331
O O3 0.117998 0.814469 0.819167
O O4 0.250000 0.750000 0.000000
O O5 0.812775 0.135947 0.534786
O O6 0.000000 0.114799 0.500000
O O7 0.951416 0.119683 0.739232
O O8 0.899430 0.000000 0.561576
O O9 0.434640 0.921574 0.761394
O O10 0.582814 0.000000 0.774309
O O11 0.500000 0.000000 0.000000
O O12 0.856880 0.687077 0.568139
O O13 0.967663 0.730508 0.800009
O O14 0.338127 0.075098 0.401642
O O15 0.500000 0.000000 0.500000
O O16 0.500000 0.668823 0.000000
#
# Coordination Sequence:
#
# PCOD9222351 Si02
#       7
#     8   8   4   8   8   4   8
#     4  12  26  44  70 101 136 184 232 288 348 413
#     4  11  25  46  72 100 137 179 231 288 342 406
#     4  12  28  46  70 106 145 186 230 291 362 415
#     4  12  25  45  71 102 141 181 235 287 347 423
#     4  12  24  45  72 103 138 178 236 285 347 425
#     4  12  24  46  71 104 138 181 228 294 354 416
#     4  12  25  46  69  98 141 181 231 285 344 415
#
# _framework density 20.653811999999999
#
# number of rings (size 3 to 8) (size 9 to 14) (size 15 to 20)
#    0.000    0.167    5.833    3.000    4.667    0.333 
#    1.500    0.000    0.000    0.000    0.000    0.000 
#    0.000    0.000    0.000    0.000    0.000    0.000 
#
# Total GULP energy -134206.292642 kJ/mol
# GULP energy per Si atom -5591.928860 kJ/mol
# Density = 2.060680 g / cm^3
# Si number density = 20.653812 Si / 1000 Ang^3
#
#
#
# Elastic Constant Matrix: (Units=GPa)
#
#
# Indices 1 2 3 4 5 6 
#
# 1 66.1336 -5.2786 -13.9040 0.0000 -20.7920 0.0000
# 2 -5.2786 49.3317 11.7341 0.0000 -9.0252 0.0000
# 3 -13.9040 11.7341 123.7595 0.0000 -3.6363 0.0000
# 4 0.0000 0.0000 0.0000 14.2478 0.0000 9.8454
# 5 -20.7920 -9.0252 -3.6363 0.0000 39.8112 0.0000
# 6 0.0000 0.0000 0.0000 9.8454 0.0000 4.5345
#
#
#
# Elastic Compliance Matrix: (Units=1/GPa)
#
#
# Indices 1 2 3 4 5 6 
#
# 1 0.019359 0.003592 0.002161 0.000000 0.011122 0.000000
# 2 0.003592 0.022255 -0.001507 0.000000 0.006784 0.000000
# 3 0.002161 -0.001507 0.008512 0.000000 0.001564 0.000000
# 4 0.000000 0.000000 0.000000 -0.140278 0.000000 0.304575
# 5 0.011122 0.006784 0.001564 0.000000 0.032608 0.000000
# 6 0.000000 0.000000 0.000000 0.304575 0.000000 -0.440767
#
#
# Mechanical properties :
#
#
# Convention : Reuss Voigt Hill
#
# Bulk Modulus (GPa) = 17.05972 24.92530 20.99251
# Shear Modulus (GPa) = -10.26137 28.16358 8.95111
#
# Velocity S-wave (km/s) = -2.23138 3.69670 2.08406
# Velocity P-wave (km/s) = 1.28025 5.50592 3.99714
#
# Compressibility (1/GPa) = 0.05861759
#
# Stress axis : x y z
#
# Youngs Moduli (GPa) = 51.65642 44.93395 117.48334
#
# Poissons Ratio (x) = -0.16141 -0.25389
# Poissons Ratio (y) = -0.18556 0.17707
# Poissons Ratio (z) = -0.11163 0.06772
#
# Static dielectric constant tensor:
#      x y z
#    x 1.745200 0.000000 0.008000 
#    y 0.000000 1.010340 0.000000 
#    z 0.008000 0.000000 1.744390 
# 
# From -- ./inp_files/61777.got.cif
#   From: 2010.05.17/outbox.cif.g08.bks.cpg/sg12_31_cif.got.tgz:61777.got - 2010.06.03 13:09:07.
