data_PCOD9222960
_publ_section_title
;
Structure prediction by ZEFSAII (Michael W. Deem and Ramdas Pophale) SiO2 
 PCOD9222960
Probable space group: C 2/M
;
_chemical_formula_sum "Si O2"
_cell_formula_units_Z 40
_cell_length_a 14.981732
_cell_length_b 14.285483
_cell_length_c 15.507796
_cell_angle_alpha 90.000000
_cell_angle_beta 27.856479
_cell_angle_gamma 90.000000
_cell_volume 1550.829791
_symmetry_space_group_name_H-M "C 2/M"
_symmetry_group_IT_number 12
_symmetry_cell_setting 'monoclinic'
loop_
_space_group_symop_operation_xyz
x,y,z
-x,y,-z
-x,-y,-z
x,-y,z
1/2+x,1/2+y,z
1/2-x,1/2+y,-z
1/2-x,1/2-y,-z
1/2+x,1/2-y,z
loop_
_atom_site_type_symbol
_atom_site_label
_atom_site_fract_x
_atom_site_fract_y
_atom_site_fract_z
Si Si1 0.752963 0.858237 0.966554
Si Si2 0.769655 0.900265 0.212785
Si Si3 0.766764 0.312147 0.203436
Si Si4 0.151675 0.869424 0.667374
Si Si5 0.822569 0.356539 0.341845
O O1 0.801150 0.863219 0.824070
O O2 0.930954 0.898629 0.865259
O O3 0.750000 0.750000 0.000000
O O4 0.539051 0.893565 0.158001
O O5 0.697180 0.796020 0.251102
O O6 0.738551 0.902573 0.342510
O O7 0.699631 0.000000 0.235839
O O8 0.000000 0.897137 0.000000
O O9 0.727312 0.362098 0.328399
O O10 0.000000 0.308151 0.000000
O O11 0.161398 0.756446 0.663204
O O12 0.223697 0.894420 0.511459
#
# Coordination Sequence:
#
# PCOD9222960 Si02
#       5
#     8   8   8   8   8
#     4   9  15  24  41  63  87 112 140 183 225 258
#     4   9  16  27  44  64  91 125 152 175 212 271
#     4   8  14  25  40  63  92 117 144 176 222 270
#     4   9  16  26  42  64  83 110 148 178 219 258
#     4   8  15  26  39  61  88 109 138 184 223 258
#
# _framework density 25.792645
#
# number of rings (size 3 to 8) (size 9 to 14) (size 15 to 20)
#    0.000    3.400    0.000    3.600    0.000    0.800 
#    0.000    0.000    0.000    4.800    0.000   63.000 
#    0.000    4.800    0.000    1.600    0.000    5.200 
#
# Total GULP energy -111661.953617 kJ/mol
# GULP energy per Si atom -5583.097681 kJ/mol
# Density = 2.573394 g / cm^3
# Si number density = 25.792645 Si / 1000 Ang^3
#
#
#
# Elastic Constant Matrix: (Units=GPa)
#
#
# Indices 1 2 3 4 5 6 
#
# 1 90.4754 -9.0433 34.8481 -0.0047 20.8221 0.0016
# 2 -9.0433 83.0615 -2.5111 -0.0138 -3.2058 0.0062
# 3 34.8481 -2.5111 108.5642 -0.0183 27.8802 0.0129
# 4 -0.0047 -0.0138 -0.0183 -25.8797 0.0105 10.4914
# 5 20.8221 -3.2058 27.8802 0.0105 45.8789 -0.0046
# 6 0.0016 0.0062 0.0129 10.4914 -0.0046 -17.7185
#
#
#
# Elastic Compliance Matrix: (Units=1/GPa)
#
#
# Indices 1 2 3 4 5 6 
#
# 1 0.013337 0.001200 -0.003223 -0.000003 -0.004010 -0.000001
# 2 0.001200 0.012180 -0.000216 -0.000006 0.000438 0.000000
# 3 -0.003223 -0.000216 0.011694 -0.000008 -0.005658 0.000005
# 4 -0.000003 -0.000006 -0.000008 -0.050845 0.000014 -0.030106
# 5 -0.004010 0.000438 -0.005658 0.000014 0.027086 -0.000003
# 6 -0.000001 0.000000 0.000005 -0.030106 -0.000003 -0.074265
#
#
# Mechanical properties :
#
#
# Convention : Reuss Voigt Hill
#
# Bulk Modulus (GPa) = 30.55060 36.52093 33.53577
# Shear Modulus (GPa) = -110.07626 17.70997 -46.18315
#
# Velocity S-wave (km/s) = -6.53988 2.62320 -4.23609
# Velocity P-wave (km/s) = 6.71984 4.83375 3.30085
#
# Compressibility (1/GPa) = 0.03273258
#
# Stress axis : x y z
#
# Youngs Moduli (GPa) = 74.97840 82.09995 85.51408
#
# Poissons Ratio (x) = -0.09851 0.27565
# Poissons Ratio (y) = -0.08996 0.01846
# Poissons Ratio (z) = 0.24169 0.01772
#
# Static dielectric constant tensor:
#      x y z
#    x 1.995610 0.000220 -0.007650 
#    y 0.000220 0.202610 0.000100 
#    z -0.007650 0.000100 2.064420 
# 
# From -- ./inp_files/60240.got.cif
#   From: 2010.05.17/outbox.cif.g08.bks.cpg/sg12_31_cif.got.tgz:60240.got - 2010.06.03 13:09:07.
