data_PCOD9222610
_publ_section_title
;
Structure prediction by ZEFSAII (Michael W. Deem and Ramdas Pophale) SiO2 
 PCOD9222610
Probable space group: C 2/M
;
_chemical_formula_sum "Si O2"
_cell_formula_units_Z 40
_cell_length_a 14.832423
_cell_length_b 17.070028
_cell_length_c 9.491416
_cell_angle_alpha 90.000000
_cell_angle_beta 133.739807
_cell_angle_gamma 90.000000
_cell_volume 1736.230434
_symmetry_space_group_name_H-M "C 2/M"
_symmetry_group_IT_number 12
_symmetry_cell_setting 'monoclinic'
loop_
_space_group_symop_operation_xyz
x,y,z
-x,y,-z
-x,-y,-z
x,-y,z
1/2+x,1/2+y,z
1/2-x,1/2+y,-z
1/2-x,1/2-y,-z
1/2+x,1/2-y,z
loop_
_atom_site_type_symbol
_atom_site_label
_atom_site_fract_x
_atom_site_fract_y
_atom_site_fract_z
Si Si1 0.826630 0.087073 0.831842
Si Si2 0.434647 0.089113 0.294517
Si Si3 0.783641 0.836605 0.488650
Si Si4 0.545600 0.404727 0.757864
Si Si5 0.808914 0.594436 0.887232
O O1 0.705450 0.082054 0.799909
O O2 0.781893 0.119887 0.636147
O O3 0.868080 0.000000 0.844232
O O4 0.926731 0.120848 0.050238
O O5 0.500000 0.129338 0.500000
O O6 0.488334 0.000000 0.338403
O O7 0.412795 0.122119 0.113941
O O8 0.750000 0.750000 0.500000
O O9 0.692364 0.867245 0.267626
O O10 0.923391 0.856500 0.583974
O O11 0.523627 0.500000 0.726313
O O12 0.671017 0.390240 0.804442
O O13 0.822076 0.500000 0.889809
#
# Coordination Sequence:
#
# PCOD9222610 Si02
#       5
#     8   8   8   8   8
#     4   9  18  35  60  84 105 142 199 253 293 331
#     4   8  15  32  57  82 108 140 185 239 289 339
#     4  12  23  33  47  83 128 155 175 223 302 365
#     4   9  18  37  66  88 105 143 201 258 294 326
#     4   9  18  35  62  89 109 143 200 252 288 332
#
# _framework density 23.038418
#
# number of rings (size 3 to 8) (size 9 to 14) (size 15 to 20)
#    0.000    2.600    0.000    5.400    0.000    3.200 
#    0.000   11.000    0.000    4.800    0.000    0.000 
#    0.000    0.000    0.000    0.000    0.000    0.200 
#
# Total GULP energy -111426.477312 kJ/mol
# GULP energy per Si atom -5571.323866 kJ/mol
# Density = 2.298598 g / cm^3
# Si number density = 23.038418 Si / 1000 Ang^3
#
#
#
# Elastic Constant Matrix: (Units=GPa)
#
#
# Indices 1 2 3 4 5 6 
#
# 1 61.8333 21.8904 29.2430 0.0000 -10.5657 0.0000
# 2 21.8904 35.2722 54.1636 0.0000 -15.0566 0.0000
# 3 29.2430 54.1636 247.3291 0.0000 -51.9023 0.0000
# 4 0.0000 0.0000 0.0000 -19.2326 0.0000 -34.2426
# 5 -10.5657 -15.0566 -51.9023 0.0000 43.7847 0.0000
# 6 0.0000 0.0000 0.0000 -34.2426 0.0000 101.3956
#
#
#
# Elastic Compliance Matrix: (Units=1/GPa)
#
#
# Indices 1 2 3 4 5 6 
#
# 1 0.020829 -0.013577 0.000779 0.000000 0.001281 0.000000
# 2 -0.013577 0.052334 -0.009007 0.000000 0.004043 0.000000
# 3 0.000779 -0.009007 0.007072 0.000000 0.005474 0.000000
# 4 0.000000 0.000000 0.000000 -0.032471 0.000000 -0.010966
# 5 0.001281 0.004043 0.005474 0.000000 0.031028 0.000000
# 6 0.000000 0.000000 0.000000 -0.010966 0.000000 0.006159
#
#
# Mechanical properties :
#
#
# Convention : Reuss Voigt Hill
#
# Bulk Modulus (GPa) = 27.30247 61.66983 44.48615
# Shear Modulus (GPa) = 35.51896 41.13203 38.32550
#
# Velocity S-wave (km/s) = 3.93074 4.22994 4.08309
# Velocity P-wave (km/s) = 5.69891 7.11920 6.44828
#
# Compressibility (1/GPa) = 0.03662673
#
# Stress axis : x y z
#
# Youngs Moduli (GPa) = 48.00906 19.10798 141.39609
#
# Poissons Ratio (x) = 0.25943 -0.11020
# Poissons Ratio (y) = 0.65181 1.27357
# Poissons Ratio (z) = -0.03742 0.17211
#
# Static dielectric constant tensor:
#      x y z
#    x 1.951020 0.000000 -0.048730 
#    y 0.000000 1.841810 0.000000 
#    z -0.048730 0.000000 2.303580 
# 
# From -- ./inp_files/63772.got.cif
#   From: 2010.05.17/outbox.cif.g08.bks.cpg/sg12_32_cif.got.tgz:63772.got - 2010.06.03 13:09:07.
