data_PCOD9222039
_publ_section_title
;
Structure prediction by ZEFSAII (Michael W. Deem and Ramdas Pophale) SiO2 
 PCOD9222039
Probable space group: C 2/M
;
_chemical_formula_sum "Si O2"
_cell_formula_units_Z 32
_cell_length_a 10.774003
_cell_length_b 28.663296
_cell_length_c 7.937248
_cell_angle_alpha 90.000000
_cell_angle_beta 38.841723
_cell_angle_gamma 90.000000
_cell_volume 1537.302210
_symmetry_space_group_name_H-M "C 2/M"
_symmetry_group_IT_number 12
_symmetry_cell_setting 'monoclinic'
loop_
_space_group_symop_operation_xyz
x,y,z
-x,y,-z
-x,-y,-z
x,-y,z
1/2+x,1/2+y,z
1/2-x,1/2+y,-z
1/2-x,1/2-y,-z
1/2+x,1/2-y,z
loop_
_atom_site_type_symbol
_atom_site_label
_atom_site_fract_x
_atom_site_fract_y
_atom_site_fract_z
Si Si1 0.756599 0.166337 0.507444
Si Si2 0.000000 0.101987 0.000000
Si Si3 0.000000 0.607904 0.000000
Si Si4 0.355170 0.944472 0.813187
Si Si5 0.474958 0.755847 0.722326
O O1 0.551531 0.193995 0.698701
O O2 0.904882 0.210498 0.346371
O O3 0.697392 0.137016 0.735596
O O4 0.846007 0.132939 0.271162
O O5 0.138258 0.073126 0.983066
O O6 0.062435 0.579587 0.103168
O O7 0.500000 0.935066 0.500000
O O8 0.350623 0.000000 0.844542
O O9 0.500000 0.755837 0.500000
O O10 0.250000 0.750000 0.000000
#
# Coordination Sequence:
#
# PCOD9222039 Si02
#       5
#     8   4   4   8   8
#     4  11  26  41  66 107 136 187 243 289 350 419
#     4  12  25  45  76 104 142 190 240 291 359 432
#     4  12  25  47  76 108 144 186 240 297 353 430
#     4  11  26  50  75 108 146 185 231 301 370 431
#     4  11  24  42  66  93 146 187 233 294 348 411
#
# _framework density 20.815684999999998
#
# number of rings (size 3 to 8) (size 9 to 14) (size 15 to 20)
#    0.000    0.750    2.500    3.750   10.500    4.000 
#    0.000    1.250    0.000    0.000    0.000    0.000 
#    0.000    0.000    0.000    0.000    0.000    0.000 
#
# Total GULP energy -89274.789671 kJ/mol
# GULP energy per Si atom -5579.674354 kJ/mol
# Density = 2.076831 g / cm^3
# Si number density = 20.815685 Si / 1000 Ang^3
#
#
#
# Elastic Constant Matrix: (Units=GPa)
#
#
# Indices 1 2 3 4 5 6 
#
# 1 114.1347 60.1516 39.2905 0.0000 10.6778 0.0000
# 2 60.1516 122.0825 60.6328 0.0000 13.1068 0.0000
# 3 39.2905 60.6328 167.4411 0.0000 3.8026 0.0000
# 4 0.0000 0.0000 0.0000 26.6889 0.0000 19.3907
# 5 10.6778 13.1068 3.8026 0.0000 43.3706 0.0000
# 6 0.0000 0.0000 0.0000 19.3907 0.0000 14.9714
#
#
#
# Elastic Compliance Matrix: (Units=1/GPa)
#
#
# Indices 1 2 3 4 5 6 
#
# 1 0.011992 -0.005353 -0.000847 0.000000 -0.001261 0.000000
# 2 -0.005353 0.012704 -0.003294 0.000000 -0.002233 0.000000
# 3 -0.000847 -0.003294 0.007351 0.000000 0.000559 0.000000
# 4 0.000000 0.000000 0.000000 0.635146 0.000000 -0.822628
# 5 -0.001261 -0.002233 0.000559 0.000000 0.023993 0.000000
# 6 0.000000 0.000000 0.000000 -0.822628 0.000000 1.132246
#
#
# Mechanical properties :
#
#
# Convention : Reuss Voigt Hill
#
# Bulk Modulus (GPa) = 76.56702 80.42310 78.49506
# Shear Modulus (GPa) = 2.70743 33.24509 17.97626
#
# Velocity S-wave (km/s) = 1.14171 4.00073 2.94188
# Velocity P-wave (km/s) = 6.21298 7.74989 7.02360
#
# Compressibility (1/GPa) = 0.01306045
#
# Stress axis : x y z
#
# Youngs Moduli (GPa) = 83.38856 78.71580 136.03653
#
# Poissons Ratio (x) = 0.42133 0.11524
# Poissons Ratio (y) = 0.44634 0.44805
# Poissons Ratio (z) = 0.07064 0.25926
#
# Static dielectric constant tensor:
#      x y z
#    x 1.796560 0.000000 -0.031570 
#    y 0.000000 1.548930 0.000000 
#    z -0.031570 0.000000 1.714340 
# 
# From -- ./inp_files/54547.got.cif
#   From: 2010.05.17/outbox.cif.g08.bks.cpg/sg12_28_cif.got.tgz:54547.got - 2010.06.03 13:09:07.
