data_PCOD9223604
_publ_section_title
;
Structure prediction by ZEFSAII (Michael W. Deem and Ramdas Pophale) SiO2 
 PCOD9223604
Probable space group: C 2/M
;
_chemical_formula_sum "Si O2"
_cell_formula_units_Z 32
_cell_length_a 24.000000
_cell_length_b 9.000000
_cell_length_c 30.000000
_cell_angle_alpha 90.000000
_cell_angle_beta 30.000000
_cell_angle_gamma 90.000000
_cell_volume 3240.000000
_symmetry_space_group_name_H-M "C 2/M"
_symmetry_group_IT_number 12
_symmetry_cell_setting 'monoclinic'
loop_
_space_group_symop_operation_xyz
x,y,z
-x,y,-z
-x,-y,-z
x,-y,z
1/2+x,1/2+y,z
1/2-x,1/2+y,-z
1/2-x,1/2-y,-z
1/2+x,1/2-y,z
loop_
_atom_site_type_symbol
_atom_site_label
_atom_site_fract_x
_atom_site_fract_y
_atom_site_fract_z
Si Si1 0.939543 0.674444 0.721896
Si Si2 0.809732 0.335382 0.193749
Si Si3 0.508240 0.669643 0.405755
Si Si4 0.483832 0.663475 0.957379
Si Si5 0.661505 0.675829 0.594841
Si Si6 0.240968 0.169181 0.394599
Si Si7 0.160122 0.326276 0.362727
Si Si8 0.773738 0.332550 0.111710
O O1 0.916727 0.500000 0.738122
O O2 0.949427 0.735031 0.664750
O O3 0.847921 0.770055 0.810596
O O4 0.055310 0.721409 0.662044
O O5 0.784988 0.500000 0.228176
O O6 0.739778 0.206897 0.265415
O O7 0.791448 0.335646 0.153285
O O8 0.936338 0.292243 0.114561
O O9 0.550148 0.500000 0.373863
O O10 0.376393 0.661157 0.498101
O O11 0.547258 0.751743 0.423146
O O12 0.511115 0.500000 0.921295
O O13 0.359973 0.714029 0.033550
O O14 0.500000 0.658309 0.000000
O O15 0.646372 0.500000 0.596005
O O16 0.750000 0.750000 0.500000
O O17 0.694423 0.706109 0.622887
O O18 0.212719 0.231054 0.365775
O O19 0.286572 0.000000 0.362229
O O20 0.149109 0.500000 0.380274
O O21 0.790356 0.500000 0.084185
#
# Coordination Sequence:
#
# PCOD9223604 Si02
#       8
#     8   8   8   8   8   8   8   8
#     4  12  23  35  56  82 110 144 184 227 275 324
#     4  10  19  32  51  74 107 146 183 219 268 325
#     4  11  22  37  56  78 108 145 184 226 274 326
#     4   9  17  29  47  73 107 141 178 219 266 321
#     4  12  24  40  60  81 107 140 183 230 278 326
#     4  11  24  41  59  78 106 143 187 231 276 325
#     4  12  24  36  54  80 112 146 186 228 272 326
#     4  10  19  32  51  76 109 144 182 221 269 324
#
# _framework density 9.8765429999999999
#
# number of rings (size 3 to 8) (size 9 to 14) (size 15 to 20)
#    0.000    1.125    2.500    5.625    0.000    5.500 
#    0.000    0.000    0.000    0.000    0.000    0.875 
#    0.000    0.000    0.000    0.000    0.000    0.000 
#
# Total GULP energy -178344.446425 kJ/mol
# GULP energy per Si atom -5573.263951 kJ/mol
# Density = 0.985406 g / cm^3
# Si number density = 9.876543 Si / 1000 Ang^3
#
#
#
# Elastic Constant Matrix: (Units=GPa)
#
#
# Indices 1 2 3 4 5 6 
#
# 1 37.3335 2.4124 2.9698 0.0050 0.0514 -0.0049
# 2 2.4124 96.5478 -12.6993 0.0053 6.9505 0.0034
# 3 2.9698 -12.6993 27.4654 0.0018 -20.5659 -0.0011
# 4 0.0050 0.0053 0.0018 22.7480 -0.0014 0.4716
# 5 0.0514 6.9505 -20.5659 -0.0014 13.0978 0.0011
# 6 -0.0049 0.0034 -0.0011 0.4716 0.0011 24.3075
#
#
#
# Elastic Compliance Matrix: (Units=1/GPa)
#
#
# Indices 1 2 3 4 5 6 
#
# 1 0.025481 -0.000342 0.016231 -0.000005 0.025567 0.000005
# 2 -0.000342 0.010697 -0.004174 -0.000003 -0.012230 -0.000001
# 3 0.016231 -0.004174 -0.195376 -0.000005 -0.304623 0.000009
# 4 -0.000005 -0.000003 -0.000005 0.043978 -0.000002 -0.000853
# 5 0.025567 -0.012230 -0.304623 -0.000002 -0.395574 0.000011
# 6 0.000005 -0.000001 0.000009 -0.000853 0.000011 0.041156
#
#
# Mechanical properties :
#
#
# Convention : Reuss Voigt Hill
#
# Bulk Modulus (GPa) = -7.36551 16.30139 4.46794
# Shear Modulus (GPa) = -9.28813 23.27493 6.99340
#
# Velocity S-wave (km/s) = -2.17079 3.43635 1.88364
# Velocity P-wave (km/s) = 3.16544 4.90053 2.64530
#
# Compressibility (1/GPa) = -0.13576789
#
# Stress axis : x y z
#
# Youngs Moduli (GPa) = 39.24439 93.47997 -5.11835
#
# Poissons Ratio (x) = 0.03200 0.08308
# Poissons Ratio (y) = 0.01344 -0.02137
# Poissons Ratio (z) = -0.63697 0.39021
#
# Static dielectric constant tensor:
#      x y z
#    x 1.321550 0.000010 0.023620 
#    y 0.000010 1.648820 0.000030 
#    z 0.023620 0.000030 1.985090 
# 
# From -- ./inp_files/382354.got.cif
#   From: 2010.05.17/outbox.ucp.g08.bks.cvg/sg12_192_cif.got.tgz:382354.got - 2010.06.11 11:47:21.
