data_PCOD9223427
_publ_section_title
;
Structure prediction by ZEFSAII (Michael W. Deem and Ramdas Pophale) SiO2 
 PCOD9223427
Probable space group: C 2/M
;
_chemical_formula_sum "Si O2"
_cell_formula_units_Z 32
_cell_length_a 18.000000
_cell_length_b 18.000000
_cell_length_c 21.000000
_cell_angle_alpha 90.000000
_cell_angle_beta 150.000000
_cell_angle_gamma 90.000000
_cell_volume 3402.000000
_symmetry_space_group_name_H-M "C 2/M"
_symmetry_group_IT_number 12
_symmetry_cell_setting 'monoclinic'
loop_
_space_group_symop_operation_xyz
x,y,z
-x,y,-z
-x,-y,-z
x,-y,z
1/2+x,1/2+y,z
1/2-x,1/2+y,-z
1/2-x,1/2-y,-z
1/2+x,1/2-y,z
loop_
_atom_site_type_symbol
_atom_site_label
_atom_site_fract_x
_atom_site_fract_y
_atom_site_fract_z
Si Si1 0.314210 0.844652 0.227282
Si Si2 0.330016 0.414185 0.510282
Si Si3 0.103728 0.306343 0.275157
Si Si4 0.945234 0.799737 0.263913
Si Si5 0.780321 0.165921 0.702070
Si Si6 0.386694 0.917999 0.531525
Si Si7 0.589474 0.412495 0.967363
Si Si8 0.720999 0.163125 0.996563
O O1 0.352119 0.762665 0.231530
O O2 0.302066 0.845043 0.293388
O O3 0.460213 0.893587 0.321359
O O4 0.162295 0.875397 0.084062
O O5 0.367246 0.500000 0.519123
O O6 0.215903 0.370149 0.380156
O O7 0.462426 0.356238 0.623958
O O8 0.240406 0.420018 0.509900
O O9 0.180089 0.250725 0.282613
O O10 0.050905 0.250104 0.294296
O O11 0.955676 0.341103 0.134498
O O12 0.825112 0.846530 0.134684
O O13 0.676157 0.136235 0.568654
O O14 0.937350 0.122684 0.827489
O O15 0.407234 0.000000 0.518870
O O16 0.571135 0.500000 0.962719
O O17 0.714839 0.391336 0.008897
O O18 0.750000 0.250000 0.000000
#
# Coordination Sequence:
#
# PCOD9223427 Si02
#       8
#     8   8   8   8   8   8   8   8
#     4  12  24  37  56  83 115 157 193 225 280 347
#     4  11  22  36  61  91 111 141 195 252 301 332
#     4  11  19  38  62  79 112 152 195 241 281 335
#     4  11  19  38  62  79 112 152 195 241 281 335
#     4  12  24  37  56  83 115 157 193 225 280 347
#     4  11  22  36  52  78 115 154 189 225 278 346
#     4  12  23  37  58  88 122 154 189 232 283 340
#     4  10  18  36  60  81 107 153 196 237 277 318
#
# _framework density 9.4062319999999993
#
# number of rings (size 3 to 8) (size 9 to 14) (size 15 to 20)
#    0.000    0.750    7.500    2.625    0.000    6.000 
#    0.000    0.000    0.000    1.500    0.000    0.000 
#    0.000    5.000    0.000    0.000    0.000    0.000 
#
# Total GULP energy -178537.168437 kJ/mol
# GULP energy per Si atom -5579.286514 kJ/mol
# Density = 0.938482 g / cm^3
# Si number density = 9.406232 Si / 1000 Ang^3
#
#
#
# Elastic Constant Matrix: (Units=GPa)
#
#
# Indices 1 2 3 4 5 6 
#
# 1 0.5875 12.5656 -1.7722 0.0102 2.6000 0.0043
# 2 12.5656 72.3474 17.1313 -0.0240 -0.3218 -0.0051
# 3 -1.7722 17.1313 108.7634 -0.0252 -0.8719 -0.0038
# 4 0.0102 -0.0240 -0.0252 23.6726 -0.0063 -0.3443
# 5 2.6000 -0.3218 -0.8719 -0.0063 11.1761 0.0001
# 6 0.0043 -0.0051 -0.0038 -0.3443 0.0001 -1.2949
#
#
#
# Elastic Compliance Matrix: (Units=1/GPa)
#
#
# Indices 1 2 3 4 5 6 
#
# 1 -0.412408 0.076313 -0.017964 0.000238 0.096739 -0.001678
# 2 0.076313 0.000237 0.001065 -0.000033 -0.017664 0.000258
# 3 -0.017964 0.001065 0.008773 0.000018 0.004894 -0.000094
# 4 0.000238 -0.000033 0.000018 0.042080 -0.000031 -0.011188
# 5 0.096739 -0.017664 0.004894 -0.000031 0.066844 0.000390
# 6 -0.001678 0.000258 -0.000094 -0.011188 0.000390 -0.769286
#
#
# Mechanical properties :
#
#
# Convention : Reuss Voigt Hill
#
# Bulk Modulus (GPa) = -3.51405 26.39417 11.44006
# Shear Modulus (GPa) = -3.91407 16.96234 6.52413
#
# Velocity S-wave (km/s) = -1.44398 3.00601 1.86427
# Velocity P-wave (km/s) = 2.15688 5.10967 3.27541
#
# Compressibility (1/GPa) = -0.28457160
#
# Stress axis : x y z
#
# Youngs Moduli (GPa) = -2.42478 4215.78605 113.98463
#
# Poissons Ratio (x) = -321.71895 2.04767
# Poissons Ratio (y) = 0.18504 -0.12134
# Poissons Ratio (z) = -0.04356 -4.48778
#
# Static dielectric constant tensor:
#      x y z
#    x 1.676110 0.000010 0.015130 
#    y 0.000010 1.632830 -0.000020 
#    z 0.015130 -0.000020 1.633880 
# 
# From -- ./inp_files/317406.got.cif
#   From: 2010.05.17/outbox.ucp.g08.bks.cvg/sg12_159_cif.got.tgz:317406.got - 2010.06.11 11:47:21.
