data_PCOD9223318
_publ_section_title
;
Structure prediction by ZEFSAII (Michael W. Deem and Ramdas Pophale) SiO2 
 PCOD9223318
Probable space group: C 2/M
;
_chemical_formula_sum "Si O2"
_cell_formula_units_Z 32
_cell_length_a 24.000000
_cell_length_b 9.000000
_cell_length_c 30.000000
_cell_angle_alpha 90.000000
_cell_angle_beta 30.000000
_cell_angle_gamma 90.000000
_cell_volume 3240.000000
_symmetry_space_group_name_H-M "C 2/M"
_symmetry_group_IT_number 12
_symmetry_cell_setting 'monoclinic'
loop_
_space_group_symop_operation_xyz
x,y,z
-x,y,-z
-x,-y,-z
x,-y,z
1/2+x,1/2+y,z
1/2-x,1/2+y,-z
1/2-x,1/2-y,-z
1/2+x,1/2-y,z
loop_
_atom_site_type_symbol
_atom_site_label
_atom_site_fract_x
_atom_site_fract_y
_atom_site_fract_z
Si Si1 0.505841 0.837353 0.048552
Si Si2 0.482103 0.320494 0.834943
Si Si3 0.250748 0.335626 0.749800
Si Si4 0.546554 0.674144 0.334014
Si Si5 0.228305 0.173708 0.681400
Si Si6 0.319258 0.673746 0.020354
Si Si7 0.931248 0.821193 0.503348
Si Si8 0.093120 0.179192 0.207718
O O1 0.378648 0.833150 0.151318
O O2 0.577629 0.704473 0.018161
O O3 0.553539 0.000000 0.029097
O O4 0.500000 0.831291 0.000000
O O5 0.478608 0.500000 0.842254
O O6 0.601224 0.270375 0.770130
O O7 0.373348 0.266130 0.936741
O O8 0.477636 0.283268 0.786547
O O9 0.281939 0.500000 0.709302
O O10 0.322684 0.319732 0.744162
O O11 0.276106 0.209328 0.696980
O O12 0.514339 0.500000 0.353701
O O13 0.484835 0.734951 0.420134
O O14 0.538182 0.739494 0.290845
O O15 0.306752 0.261716 0.593796
O O16 0.229094 0.000000 0.670966
O O17 0.292884 0.500000 0.034553
O O18 0.214676 0.758723 0.112559
O O19 0.000000 0.774952 0.500000
O O20 0.933178 0.000000 0.501532
O O21 0.101175 0.000000 0.205646
#
# Coordination Sequence:
#
# PCOD9223318 Si02
#       8
#     8   8   8   8   8   8   8   8
#     4  10  20  33  52  78 108 144 189 229 263 318
#     4   9  20  37  56  78 110 148 185 224 268 321
#     4  10  18  32  53  78 106 138 177 223 268 315
#     4   9  18  34  58  82 105 136 178 227 274 318
#     4  11  21  35  54  80 111 142 176 216 268 330
#     4  11  21  35  53  79 114 146 181 226 278 326
#     4  10  19  35  58  82 109 138 175 225 273 320
#     4  10  20  38  60  79 103 144 192 230 266 317
#
# _framework density 9.8765429999999999
#
# number of rings (size 3 to 8) (size 9 to 14) (size 15 to 20)
#    0.000    2.000    2.500    1.875    0.000    2.500 
#    0.000    5.000    0.000    0.000    0.000    0.000 
#    0.000    0.000    0.000    0.000    0.000    0.000 
#
# Total GULP energy -178192.669932 kJ/mol
# GULP energy per Si atom -5568.520935 kJ/mol
# Density = 0.985406 g / cm^3
# Si number density = 9.876543 Si / 1000 Ang^3
#
#
#
# Elastic Constant Matrix: (Units=GPa)
#
#
# Indices 1 2 3 4 5 6 
#
# 1 32.5977 5.6415 39.2008 -0.0077 43.1830 0.0071
# 2 5.6415 5.7678 16.1132 0.0355 7.7638 -0.0287
# 3 39.2008 16.1132 88.6332 -0.0068 28.9101 0.0055
# 4 -0.0077 0.0355 -0.0068 19.9538 0.0006 0.7944
# 5 43.1830 7.7638 28.9101 0.0006 28.2520 0.0071
# 6 0.0071 -0.0287 0.0055 0.7944 0.0071 11.4441
#
#
#
# Elastic Compliance Matrix: (Units=1/GPa)
#
#
# Indices 1 2 3 4 5 6 
#
# 1 -0.021709 -0.047987 0.004804 0.000083 0.041453 -0.000141
# 2 -0.047987 0.293265 -0.044622 -0.000589 0.038419 0.000804
# 3 0.004804 -0.044622 0.023513 0.000095 -0.019142 -0.000121
# 4 0.000083 -0.000589 0.000095 0.050256 -0.000062 -0.003490
# 5 0.041453 0.038419 -0.019142 -0.000062 -0.018933 0.000096
# 6 -0.000141 0.000804 -0.000121 -0.003490 0.000096 0.087626
#
#
# Mechanical properties :
#
#
# Convention : Reuss Voigt Hill
#
# Bulk Modulus (GPa) = 8.37098 27.65664 18.01381
# Shear Modulus (GPa) = 7.94348 16.33287 12.13818
#
# Velocity S-wave (km/s) = 2.00752 2.87862 2.48159
# Velocity P-wave (km/s) = 3.10169 5.00801 4.16537
#
# Compressibility (1/GPa) = 0.11946033
#
# Stress axis : x y z
#
# Youngs Moduli (GPa) = -46.06405 3.40989 42.52879
#
# Poissons Ratio (x) = 0.16363 -0.20433
# Poissons Ratio (y) = -2.21047 1.89772
# Poissons Ratio (z) = 0.22131 0.15216
#
# Static dielectric constant tensor:
#      x y z
#    x 1.719820 -0.000010 0.016380 
#    y -0.000010 1.703740 0.000000 
#    z 0.016380 0.000000 1.722750 
# 
# From -- ./inp_files/382385.got.cif
#   From: 2010.05.17/outbox.ucp.g08.bks.cvg/sg12_192_cif.got.tgz:382385.got - 2010.06.11 11:47:21.
