data_PCOD9223320
_publ_section_title
;
Structure prediction by ZEFSAII (Michael W. Deem and Ramdas Pophale) SiO2 
 PCOD9223320
Probable space group: C 2/M
;
_chemical_formula_sum "Si O2"
_cell_formula_units_Z 32
_cell_length_a 12.000000
_cell_length_b 24.000000
_cell_length_c 12.000000
_cell_angle_alpha 90.000000
_cell_angle_beta 70.000000
_cell_angle_gamma 90.000000
_cell_volume 3247.577697
_symmetry_space_group_name_H-M "C 2/M"
_symmetry_group_IT_number 12
_symmetry_cell_setting 'monoclinic'
loop_
_space_group_symop_operation_xyz
x,y,z
-x,y,-z
-x,-y,-z
x,-y,z
1/2+x,1/2+y,z
1/2-x,1/2+y,-z
1/2-x,1/2-y,-z
1/2+x,1/2-y,z
loop_
_atom_site_type_symbol
_atom_site_label
_atom_site_fract_x
_atom_site_fract_y
_atom_site_fract_z
Si Si1 0.710372 0.229361 0.635217
Si Si2 0.886223 0.935167 0.958109
Si Si3 0.544515 0.257420 0.357171
Si Si4 0.534495 0.387273 0.303430
Si Si5 0.178376 0.432039 0.197222
Si Si6 0.247993 0.598201 0.645349
Si Si7 0.959898 0.433085 0.134374
Si Si8 0.226351 0.935093 0.600983
O O1 0.750000 0.250000 0.500000
O O2 0.565240 0.235322 0.684199
O O3 0.811658 0.256700 0.684735
O O4 0.735331 0.163914 0.633911
O O5 0.915871 0.901993 0.836077
O O6 0.863771 0.000000 0.934630
O O7 0.777130 0.915447 0.072257
O O8 0.000000 0.934101 0.000000
O O9 0.500000 0.248853 0.500000
O O10 0.542494 0.322332 0.326485
O O11 0.618243 0.416695 0.365935
O O12 0.399011 0.404676 0.359142
O O13 0.179535 0.500000 0.197185
O O14 0.204181 0.413837 0.314174
O O15 0.052619 0.412826 0.194990
O O16 0.168327 0.581847 0.777531
O O17 0.212546 0.571510 0.539759
O O18 0.966813 0.500000 0.127276
O O19 0.000000 0.411866 0.000000
O O20 0.202201 0.000000 0.628369
#
# Coordination Sequence:
#
# PCOD9223320 Si02
#       8
#     8   8   8   8   8   8   8   8
#     4   9  18  37  56  79 111 141 180 232 283 343
#     4  10  18  32  53  79 111 151 195 228 267 329
#     4   9  18  35  56  79 112 140 181 234 287 343
#     4  11  20  33  55  82 115 144 183 238 282 329
#     4   9  19  35  51  73 111 153 189 230 268 311
#     4  11  23  36  55  86 113 147 189 232 282 338
#     4  10  21  39  58  78 111 155 197 230 271 333
#     4  11  21  33  50  80 122 151 177 227 283 334
#
# _framework density 9.8534980000000001
#
# number of rings (size 3 to 8) (size 9 to 14) (size 15 to 20)
#    0.000    2.000    1.250    4.125    0.000    4.000 
#    9.000    1.875    0.000    0.750    0.000    4.375 
#    0.000    0.000    0.000    0.000    0.000    0.000 
#
# Total GULP energy -178238.359158 kJ/mol
# GULP energy per Si atom -5569.948724 kJ/mol
# Density = 0.983107 g / cm^3
# Si number density = 9.853498 Si / 1000 Ang^3
#
#
#
# Elastic Constant Matrix: (Units=GPa)
#
#
# Indices 1 2 3 4 5 6 
#
# 1 128.4020 18.9578 16.7557 0.0000 14.5589 0.0000
# 2 18.9578 17.1499 -5.0506 0.0000 7.1622 0.0000
# 3 16.7557 -5.0506 75.2744 0.0000 12.9845 0.0000
# 4 0.0000 0.0000 0.0000 9.2808 0.0000 -5.1455
# 5 14.5589 7.1622 12.9845 0.0000 20.0122 0.0000
# 6 0.0000 0.0000 0.0000 -5.1455 0.0000 12.2687
#
#
#
# Elastic Compliance Matrix: (Units=1/GPa)
#
#
# Indices 1 2 3 4 5 6 
#
# 1 0.009963 -0.011193 -0.002713 0.000000 -0.001482 0.000000
# 2 -0.011193 0.088449 0.014055 0.000000 -0.032632 0.000000
# 3 -0.002713 0.014055 0.017294 0.000000 -0.014277 0.000000
# 4 0.000000 0.000000 0.000000 0.140395 0.000000 0.058881
# 5 -0.001482 -0.032632 -0.014277 0.000000 0.071990 0.000000
# 6 0.000000 0.000000 0.000000 0.058881 0.000000 0.106203
#
#
# Mechanical properties :
#
#
# Convention : Reuss Voigt Hill
#
# Bulk Modulus (GPa) = 8.62040 31.35023 19.98532
# Shear Modulus (GPa) = 10.57834 20.98990 15.78412
#
# Velocity S-wave (km/s) = 2.31937 3.26713 2.83316
# Velocity P-wave (km/s) = 3.39947 5.49316 4.56789
#
# Compressibility (1/GPa) = 0.11600385
#
# Stress axis : x y z
#
# Youngs Moduli (GPa) = 100.37461 11.30589 57.82197
#
# Poissons Ratio (x) = 0.12655 0.15688
# Poissons Ratio (y) = 1.12351 -0.81268
# Poissons Ratio (z) = 0.27233 -0.15890
#
# Static dielectric constant tensor:
#      x y z
#    x 1.791340 0.000000 -0.010890 
#    y 0.000000 1.673940 0.000000 
#    z -0.010890 0.000000 1.678560 
# 
# From -- ./inp_files/135945.got.cif
#   From: 2010.05.17/outbox.ucp.g08.bks.cvg/sg12_68_cif.got.tgz:135945.got - 2010.06.11 11:47:21.
