data_PCOD9223365
_publ_section_title
;
Structure prediction by ZEFSAII (Michael W. Deem and Ramdas Pophale) SiO2 
 PCOD9223365
Probable space group: C 2/M
;
_chemical_formula_sum "Si O2"
_cell_formula_units_Z 32
_cell_length_a 24.000000
_cell_length_b 9.000000
_cell_length_c 21.000000
_cell_angle_alpha 90.000000
_cell_angle_beta 50.000000
_cell_angle_gamma 90.000000
_cell_volume 3474.777594
_symmetry_space_group_name_H-M "C 2/M"
_symmetry_group_IT_number 12
_symmetry_cell_setting 'monoclinic'
loop_
_space_group_symop_operation_xyz
x,y,z
-x,y,-z
-x,-y,-z
x,-y,z
1/2+x,1/2+y,z
1/2-x,1/2+y,-z
1/2-x,1/2-y,-z
1/2+x,1/2-y,z
loop_
_atom_site_type_symbol
_atom_site_label
_atom_site_fract_x
_atom_site_fract_y
_atom_site_fract_z
Si Si1 0.831713 0.171421 0.761980
Si Si2 0.058638 0.180440 0.514040
Si Si3 0.494014 0.319855 0.811760
Si Si4 0.787683 0.829577 0.646731
Si Si5 0.820486 0.827075 0.114090
Si Si6 0.017623 0.677540 0.310414
Si Si7 0.828382 0.826657 0.960701
Si Si8 0.124091 0.319003 0.800696
O O1 0.820799 0.168357 0.693889
O O2 0.758542 0.253290 0.835593
O O3 0.901627 0.259740 0.733905
O O4 0.835838 0.000000 0.780644
O O5 0.142209 0.232665 0.441621
O O6 0.000000 0.205889 0.500000
O O7 0.028533 0.268929 0.595728
O O8 0.058922 0.000000 0.523224
O O9 0.496057 0.500000 0.815244
O O10 0.515402 0.258202 0.727003
O O11 0.552755 0.250238 0.818630
O O12 0.407486 0.273202 0.876940
O O13 0.703933 0.772157 0.711744
O O14 0.779278 0.000000 0.631638
O O15 0.846607 0.820956 0.022617
O O16 0.866637 0.739141 0.133261
O O17 0.814968 0.000000 0.137823
O O18 0.019007 0.500000 0.301756
O O19 0.819124 0.000000 0.949712
O O20 0.750000 0.750000 0.000000
O O21 0.120570 0.500000 0.802440
#
# Coordination Sequence:
#
# PCOD9223365 Si02
#       8
#     8   8   8   8   8   8   8   8
#     4  10  18  33  55  83 116 154 193 234 284 348
#     4  10  18  34  59  86 116 153 192 232 287 355
#     4  11  24  43  62  81 110 157 203 243 289 347
#     4   8  16  32  56  83 113 147 186 232 280 336
#     4  10  20  36  58  88 119 152 192 242 295 346
#     4  12  24  36  53  84 120 152 190 243 299 354
#     4  10  23  40  61  88 120 152 191 240 294 349
#     4  10  21  39  61  87 117 154 198 243 287 341
#
# _framework density 9.2092220000000005
#
# number of rings (size 3 to 8) (size 9 to 14) (size 15 to 20)
#    0.000    1.875    1.250    4.125    0.000    4.750 
#    0.000    4.375    0.000    0.000    0.000    0.000 
#    0.000    0.000    0.000    0.000    0.000    0.000 
#
# Total GULP energy -178188.668169 kJ/mol
# GULP energy per Si atom -5568.395880 kJ/mol
# Density = 0.918826 g / cm^3
# Si number density = 9.209222 Si / 1000 Ang^3
#
#
#
# Elastic Constant Matrix: (Units=GPa)
#
#
# Indices 1 2 3 4 5 6 
#
# 1 120.4021 34.3343 42.2021 0.0002 -14.6392 -0.0001
# 2 34.3343 82.1294 28.3418 0.0003 -1.5137 -0.0001
# 3 42.2021 28.3418 75.9658 0.0004 0.7373 -0.0002
# 4 0.0002 0.0003 0.0004 18.4238 -0.0002 -4.7174
# 5 -14.6392 -1.5137 0.7373 -0.0002 23.8459 0.0001
# 6 -0.0001 -0.0001 -0.0002 -4.7174 0.0001 36.7315
#
#
#
# Elastic Compliance Matrix: (Units=1/GPa)
#
#
# Indices 1 2 3 4 5 6 
#
# 1 0.012021 -0.002939 -0.005653 0.000000 0.007368 0.000000
# 2 -0.002939 0.014720 -0.003852 0.000000 -0.000751 0.000000
# 3 -0.005653 -0.003852 0.017783 0.000000 -0.004265 0.000000
# 4 0.000000 0.000000 0.000000 0.056123 0.000000 0.007208
# 5 0.007368 -0.000751 -0.004265 0.000000 0.046543 0.000000
# 6 0.000000 0.000000 0.000000 0.007208 0.000000 0.028150
#
#
# Mechanical properties :
#
#
# Convention : Reuss Voigt Hill
#
# Bulk Modulus (GPa) = 50.92694 54.25039 52.58866
# Shear Modulus (GPa) = 24.18105 27.37484 25.77795
#
# Velocity S-wave (km/s) = 3.62729 3.85940 3.74514
# Velocity P-wave (km/s) = 6.72703 7.02697 6.87864
#
# Compressibility (1/GPa) = 0.01963597
#
# Stress axis : x y z
#
# Youngs Moduli (GPa) = 83.18884 67.93553 56.23378
#
# Poissons Ratio (x) = 0.19964 0.31790
# Poissons Ratio (y) = 0.24447 0.21661
# Poissons Ratio (z) = 0.47028 0.26168
#
# Static dielectric constant tensor:
#      x y z
#    x 1.603190 0.000000 0.008110 
#    y 0.000000 1.628850 0.000000 
#    z 0.008110 0.000000 1.770930 
# 
# From -- ./inp_files/324107.got.cif
#   From: 2010.05.17/outbox.ucp.g08.bks.cvg/sg12_163_cif.got.tgz:324107.got - 2010.06.11 11:47:21.
