data_PCOD9223512
_publ_section_title
;
Structure prediction by ZEFSAII (Michael W. Deem and Ramdas Pophale) SiO2 
 PCOD9223512
Probable space group: C 2/M
;
_chemical_formula_sum "Si O2"
_cell_formula_units_Z 28
_cell_length_a 30.000000
_cell_length_b 9.000000
_cell_length_c 18.000000
_cell_angle_alpha 90.000000
_cell_angle_beta 40.000000
_cell_angle_gamma 90.000000
_cell_volume 3123.947783
_symmetry_space_group_name_H-M "C 2/M"
_symmetry_group_IT_number 12
_symmetry_cell_setting 'monoclinic'
loop_
_space_group_symop_operation_xyz
x,y,z
-x,y,-z
-x,-y,-z
x,-y,z
1/2+x,1/2+y,z
1/2-x,1/2+y,-z
1/2-x,1/2-y,-z
1/2+x,1/2-y,z
loop_
_atom_site_type_symbol
_atom_site_label
_atom_site_fract_x
_atom_site_fract_y
_atom_site_fract_z
Si Si1 0.759352 0.332780 0.195925
Si Si2 0.403443 0.672895 0.368476
Si Si3 0.078184 0.666638 0.966044
Si Si4 0.948466 0.821243 0.848435
Si Si5 0.281828 0.175637 0.609594
Si Si6 0.295542 0.324360 0.004281
Si Si7 0.123886 0.170148 0.770769
O O1 0.739712 0.500000 0.199115
O O2 0.838859 0.337212 0.122938
O O3 0.714297 0.268957 0.319942
O O4 0.760833 0.221065 0.125981
O O5 0.394299 0.500000 0.402986
O O6 0.482117 0.723485 0.283477
O O7 0.343940 0.772855 0.478563
O O8 0.396228 0.677611 0.288813
O O9 0.051149 0.500000 0.005396
O O10 0.077248 0.731347 0.884530
O O11 0.049067 0.764300 0.070129
O O12 0.948211 0.000000 0.851284
O O13 0.875617 0.770546 0.906426
O O14 0.205690 0.208496 0.672469
O O15 0.284327 0.000000 0.620531
O O16 0.296838 0.500000 0.993044
O O17 0.250000 0.250000 0.000000
O O18 0.116775 0.000000 0.806474
#
# Coordination Sequence:
#
# PCOD9223512 Si02
#       7
#     8   8   8   8   8   8   8
#     4   9  17  31  51  74  98 127 161 197 237 284
#     4  10  20  33  48  67  94 133 172 204 238 281
#     4   9  17  29  47  69  95 126 162 204 246 284
#     4   9  19  34  50  69  97 130 162 194 238 294
#     4  10  19  31  48  71  98 130 167 207 244 278
#     4  10  19  33  55  81 103 123 151 192 240 292
#     4   9  18  31  47  67  94 129 170 209 244 280
#
# _framework density 8.9630179999999999
#
# number of rings (size 3 to 8) (size 9 to 14) (size 15 to 20)
#    0.000    2.571    0.000    2.143    0.000    6.286 
#    0.000    2.857    0.000    0.857    0.000    6.000 
#    0.000    0.000    0.000    0.000    0.000    0.000 
#
# Total GULP energy -156087.663521 kJ/mol
# GULP energy per Si atom -5574.559411 kJ/mol
# Density = 0.894262 g / cm^3
# Si number density = 8.963018 Si / 1000 Ang^3
#
#
#
# Elastic Constant Matrix: (Units=GPa)
#
#
# Indices 1 2 3 4 5 6 
#
# 1 65.2463 16.0922 18.0888 0.0027 -6.7180 -0.0016
# 2 16.0922 26.8533 27.8248 0.0059 -10.1129 -0.0037
# 3 18.0888 27.8248 76.1656 0.0048 -17.7061 -0.0045
# 4 0.0027 0.0059 0.0048 26.7663 -0.0002 6.4016
# 5 -6.7180 -10.1129 -17.7061 -0.0002 11.8251 0.0003
# 6 -0.0016 -0.0037 -0.0045 6.4016 0.0003 20.7868
#
#
#
# Elastic Compliance Matrix: (Units=1/GPa)
#
#
# Indices 1 2 3 4 5 6 
#
# 1 0.018008 -0.009982 -0.000362 0.000001 0.001151 -0.000001
# 2 -0.009982 0.072354 -0.016866 -0.000015 0.030952 0.000012
# 3 -0.000362 -0.016866 0.024506 -0.000001 0.022064 0.000002
# 4 0.000001 -0.000015 -0.000001 0.040331 -0.000013 -0.012420
# 5 0.001151 0.030952 0.022064 -0.000013 0.144727 0.000012
# 6 -0.000001 0.000012 0.000002 -0.012420 0.000012 0.051932
#
#
# Mechanical properties :
#
#
# Convention : Reuss Voigt Hill
#
# Bulk Modulus (GPa) = 16.54378 32.47522 24.50950
# Shear Modulus (GPa) = 11.72528 18.95961 15.34244
#
# Velocity S-wave (km/s) = 2.56030 3.25569 2.92871
# Velocity P-wave (km/s) = 4.24136 5.68228 5.01385
#
# Compressibility (1/GPa) = 0.06044567
#
# Stress axis : x y z
#
# Youngs Moduli (GPa) = 55.53229 13.82086 40.80609
#
# Poissons Ratio (x) = 0.13797 0.01479
# Poissons Ratio (y) = 0.55435 0.68825
# Poissons Ratio (z) = 0.02013 0.23311
#
# Static dielectric constant tensor:
#      x y z
#    x 1.640730 0.000000 -0.013690 
#    y 0.000000 1.619820 0.000000 
#    z -0.013690 0.000000 1.606850 
# 
# From -- ./inp_files/280930.got.cif
#   From: 2010.05.17/outbox.ucp.g08.bks.cvg/sg12_141_cif.got.tgz:280930.got - 2010.06.11 11:47:21.
