data_PCOD9223632
_publ_section_title
;
Structure prediction by ZEFSAII (Michael W. Deem and Ramdas Pophale) SiO2 
 PCOD9223632
Probable space group: C 2/M
;
_chemical_formula_sum "Si O2"
_cell_formula_units_Z 32
_cell_length_a 24.000000
_cell_length_b 9.000000
_cell_length_c 30.000000
_cell_angle_alpha 90.000000
_cell_angle_beta 30.000000
_cell_angle_gamma 90.000000
_cell_volume 3240.000000
_symmetry_space_group_name_H-M "C 2/M"
_symmetry_group_IT_number 12
_symmetry_cell_setting 'monoclinic'
loop_
_space_group_symop_operation_xyz
x,y,z
-x,y,-z
-x,-y,-z
x,-y,z
1/2+x,1/2+y,z
1/2-x,1/2+y,-z
1/2-x,1/2-y,-z
1/2+x,1/2-y,z
loop_
_atom_site_type_symbol
_atom_site_label
_atom_site_fract_x
_atom_site_fract_y
_atom_site_fract_z
Si Si1 0.632243 0.672420 0.415058
Si Si2 0.694357 0.177116 0.465921
Si Si3 0.792144 0.820982 0.042407
Si Si4 0.590756 0.678039 0.620000
Si Si5 0.516089 0.679951 0.838497
Si Si6 0.560105 0.321166 0.199653
Si Si7 0.371399 0.319190 0.085148
Si Si8 0.280036 0.320266 0.241544
O O1 0.500000 0.680071 0.500000
O O2 0.666050 0.500000 0.392824
O O3 0.675514 0.748522 0.430885
O O4 0.680355 0.752729 0.338246
O O5 0.605552 0.237839 0.563461
O O6 0.808918 0.208660 0.414070
O O7 0.688096 0.000000 0.464553
O O8 0.679211 0.744602 0.106544
O O9 0.820285 0.776374 0.073521
O O10 0.781717 0.000000 0.047565
O O11 0.896897 0.775813 0.940169
O O12 0.591531 0.500000 0.611599
O O13 0.481938 0.724584 0.722739
O O14 0.520071 0.500000 0.836817
O O15 0.523500 0.725397 0.782037
O O16 0.612085 0.729239 0.804816
O O17 0.563949 0.500000 0.196598
O O18 0.374777 0.500000 0.083582
O O19 0.299565 0.271573 0.177387
O O20 0.500000 0.269953 0.000000
O O21 0.273762 0.500000 0.246498
#
# Coordination Sequence:
#
# PCOD9223632 Si02
#       8
#     8   8   8   8   8   8   8   8
#     4  11  25  42  57  79 116 155 186 227 291 351
#     4  10  20  37  63  87 107 139 190 238 277 329
#     4  10  19  32  52  79 109 142 182 227 272 319
#     4   9  19  36  57  83 115 149 181 224 285 343
#     4   9  17  32  55  79 107 143 182 225 274 324
#     4  10  20  33  49  74 111 150 182 213 266 332
#     4   9  16  31  56  83 107 136 178 228 279 325
#     4  10  19  35  62  87 106 138 188 238 280 330
#
# _framework density 9.8765429999999999
#
# number of rings (size 3 to 8) (size 9 to 14) (size 15 to 20)
#    0.000    2.250    1.250    1.875    0.000    5.000 
#    0.000    5.625    0.000    0.750    0.000    0.000 
#    0.000    0.000    0.000    0.000    0.000    0.000 
#
# Total GULP energy -178466.310260 kJ/mol
# GULP energy per Si atom -5577.072196 kJ/mol
# Density = 0.985406 g / cm^3
# Si number density = 9.876543 Si / 1000 Ang^3
#
#
#
# Elastic Constant Matrix: (Units=GPa)
#
#
# Indices 1 2 3 4 5 6 
#
# 1 68.1973 16.2579 13.6193 -0.0018 26.6494 0.0031
# 2 16.2579 23.1939 15.0282 -0.0031 9.4952 0.0069
# 3 13.6193 15.0282 83.1329 -0.0011 26.6155 0.0012
# 4 -0.0018 -0.0031 -0.0011 12.6856 0.0003 -5.5955
# 5 26.6494 9.4952 26.6155 0.0003 31.9689 -0.0006
# 6 0.0031 0.0069 0.0012 -5.5955 -0.0006 11.8883
#
#
#
# Elastic Compliance Matrix: (Units=1/GPa)
#
#
# Indices 1 2 3 4 5 6 
#
# 1 0.024807 -0.011861 0.004871 0.000001 -0.021212 -0.000001
# 2 -0.011861 0.056844 -0.008307 -0.000001 -0.000080 -0.000030
# 3 0.004871 -0.008307 0.018055 0.000001 -0.016625 0.000001
# 4 0.000001 -0.000001 0.000001 0.099483 -0.000001 0.046823
# 5 -0.021212 -0.000080 -0.016625 -0.000001 0.062828 0.000010
# 6 -0.000001 -0.000030 0.000001 0.046823 0.000010 0.106154
#
#
# Mechanical properties :
#
#
# Convention : Reuss Voigt Hill
#
# Bulk Modulus (GPa) = 14.46918 29.37055 21.91987
# Shear Modulus (GPa) = 11.85387 19.94981 15.90184
#
# Velocity S-wave (km/s) = 2.45236 3.18143 2.84038
# Velocity P-wave (km/s) = 3.91914 5.32883 4.67740
#
# Compressibility (1/GPa) = 0.06911239
#
# Stress axis : x y z
#
# Youngs Moduli (GPa) = 40.31095 17.59194 55.38555
#
# Poissons Ratio (x) = 0.20866 -0.26980
# Poissons Ratio (y) = 0.47814 0.46010
# Poissons Ratio (z) = -0.19637 0.14614
#
# Static dielectric constant tensor:
#      x y z
#    x 1.675920 0.000000 -0.000170 
#    y 0.000000 1.665810 0.000000 
#    z -0.000170 0.000000 1.737270 
# 
# From -- ./inp_files/382316.got.cif
#   From: 2010.05.17/outbox.ucp.g08.bks.cvg/sg12_192_cif.got.tgz:382316.got - 2010.06.11 11:47:21.
