data_PCOD9223113
_publ_section_title
;
Structure prediction by ZEFSAII (Michael W. Deem and Ramdas Pophale) SiO2 
 PCOD9223113
Probable space group: C 2/M
;
_chemical_formula_sum "Si O2"
_cell_formula_units_Z 32
_cell_length_a 9.977375
_cell_length_b 13.629239
_cell_length_c 15.985428
_cell_angle_alpha 90.000000
_cell_angle_beta 143.668838
_cell_angle_gamma 90.000000
_cell_volume 1287.848913
_symmetry_space_group_name_H-M "C 2/M"
_symmetry_group_IT_number 12
_symmetry_cell_setting 'monoclinic'
loop_
_space_group_symop_operation_xyz
x,y,z
-x,y,-z
-x,-y,-z
x,-y,z
1/2+x,1/2+y,z
1/2-x,1/2+y,-z
1/2-x,1/2-y,-z
1/2+x,1/2-y,z
loop_
_atom_site_type_symbol
_atom_site_label
_atom_site_fract_x
_atom_site_fract_y
_atom_site_fract_z
Si Si1 0.184890 0.000000 0.771713
Si Si2 0.485728 0.670970 0.109193
Si Si3 0.117487 0.786477 0.756369
Si Si4 0.471293 0.892695 0.387334
Si Si5 0.184242 0.500000 0.962698
O O1 0.062773 0.104088 0.697161
O O2 0.247511 0.000000 0.903343
O O3 0.414028 0.000000 0.831561
O O4 0.623236 0.759582 0.135923
O O5 0.396052 0.712052 0.151208
O O6 0.700811 0.602833 0.238496
O O7 0.298432 0.596479 0.979095
O O8 0.970098 0.700015 0.641154
O O9 0.500000 0.871042 0.500000
O O10 0.568146 0.000000 0.416447
#
# Coordination Sequence:
#
# PCOD9223113 Si02
#       5
#     4   8   8   8   4
#     4   9  18  32  52  77 103 131 169 205 248 303
#     4   9  17  33  51  75 102 130 169 205 247 293
#     4   9  19  33  51  76 103 131 166 209 250 294
#     4   9  18  34  54  74  97 136 175 201 243 303
#     4   9  16  32  56  73  95 143 175 191 240 315
#
# _framework density 24.847636000000001
#
# number of rings (size 3 to 8) (size 9 to 14) (size 15 to 20)
#    1.500    1.500    1.250    0.000    0.000    2.000 
#    2.250    0.625    0.000    1.500    0.000    0.000 
#    0.000    0.000    0.000    0.000    0.000    0.000 
#
# Total GULP energy -89257.883915 kJ/mol
# GULP energy per Si atom -5578.617745 kJ/mol
# Density = 2.479108 g / cm^3
# Si number density = 24.847636 Si / 1000 Ang^3
#
#
#
# Elastic Constant Matrix: (Units=GPa)
#
#
# Indices 1 2 3 4 5 6 
#
# 1 109.4743 49.8497 5.6819 0.0000 13.5904 0.0000
# 2 49.8497 223.0308 27.5433 0.0000 -20.5543 0.0000
# 3 5.6819 27.5433 38.2138 -0.0002 -3.6654 -0.0002
# 4 0.0000 0.0000 -0.0002 33.2920 -0.0001 -4.0428
# 5 13.5904 -20.5543 -3.6654 -0.0001 29.5045 -0.0001
# 6 0.0000 0.0000 -0.0002 -4.0428 -0.0001 44.6363
#
#
#
# Elastic Compliance Matrix: (Units=1/GPa)
#
#
# Indices 1 2 3 4 5 6 
#
# 1 0.011580 -0.003281 -0.000089 0.000000 -0.007631 0.000000
# 2 -0.003281 0.006133 -0.003419 0.000000 0.005359 0.000000
# 3 -0.000089 -0.003419 0.028764 0.000000 0.001233 0.000000
# 4 0.000000 0.000000 0.000000 0.030371 0.000000 0.002751
# 5 -0.007631 0.005359 0.001233 0.000000 0.041294 0.000000
# 6 0.000000 0.000000 0.000000 0.002751 0.000000 0.022652
#
#
# Mechanical properties :
#
#
# Convention : Reuss Voigt Hill
#
# Bulk Modulus (GPa) = 30.39466 59.65208 45.02337
# Shear Modulus (GPa) = 30.24085 40.66282 35.45183
#
# Velocity S-wave (km/s) = 3.49241 4.04974 3.78136
# Velocity P-wave (km/s) = 5.34056 6.77691 6.10115
#
# Compressibility (1/GPa) = 0.03290052
#
# Stress axis : x y z
#
# Youngs Moduli (GPa) = 86.35369 163.05296 34.76550
#
# Poissons Ratio (x) = 0.53490 0.00310
# Poissons Ratio (y) = 0.28328 0.11885
# Poissons Ratio (z) = 0.00771 0.55742
#
# Static dielectric constant tensor:
#      x y z
#    x 1.943410 0.000000 0.002340 
#    y 0.000000 2.007610 0.000000 
#    z 0.002340 0.000000 2.039490 
# 
# From -- ./inp_files/96718.got.cif
#   From: 2010.05.17/outbox.cif.g08.bks.cpg/sg12_49_cif.got.tgz:96718.got - 2010.06.03 13:09:07.
