data_PCOD9223721
_publ_section_title
;
Structure prediction by ZEFSAII (Michael W. Deem and Ramdas Pophale) SiO2 
 PCOD9223721
Probable space group: C 2/M
;
_chemical_formula_sum "Si O2"
_cell_formula_units_Z 28
_cell_length_a 18.000000
_cell_length_b 9.000000
_cell_length_c 30.000000
_cell_angle_alpha 90.000000
_cell_angle_beta 40.000000
_cell_angle_gamma 90.000000
_cell_volume 3123.947783
_symmetry_space_group_name_H-M "C 2/M"
_symmetry_group_IT_number 12
_symmetry_cell_setting 'monoclinic'
loop_
_space_group_symop_operation_xyz
x,y,z
-x,y,-z
-x,-y,-z
x,-y,z
1/2+x,1/2+y,z
1/2-x,1/2+y,-z
1/2-x,1/2-y,-z
1/2+x,1/2-y,z
loop_
_atom_site_type_symbol
_atom_site_label
_atom_site_fract_x
_atom_site_fract_y
_atom_site_fract_z
Si Si1 0.768676 0.678738 0.710236
Si Si2 0.200595 0.678902 0.568028
Si Si3 0.477279 0.178936 0.151167
Si Si4 0.631227 0.678541 0.426094
Si Si5 0.841427 0.819557 0.993004
Si Si6 0.160126 0.678940 0.146331
Si Si7 0.440515 0.820000 0.712764
O O1 0.755397 0.500000 0.713517
O O2 0.646728 0.753506 0.779338
O O3 0.820321 0.741297 0.640215
O O4 0.858306 0.713418 0.708858
O O5 0.196875 0.500000 0.563652
O O6 0.250000 0.750000 0.500000
O O7 0.285994 0.710648 0.569977
O O8 0.071241 0.730076 0.641433
O O9 0.537033 0.252507 0.079928
O O10 0.562730 0.211731 0.153772
O O11 0.471746 0.000000 0.148664
O O12 0.500000 0.720052 0.500000
O O13 0.633178 0.500000 0.417333
O O14 0.843647 0.000000 0.988798
O O15 0.750000 0.750000 0.000000
O O16 0.784198 0.777747 0.067325
O O17 0.165920 0.500000 0.147314
O O18 0.116618 0.735430 0.214479
O O19 0.447206 0.000000 0.713697
#
# Coordination Sequence:
#
# PCOD9223721 Si02
#       7
#     8   8   8   8   8   8   8
#     4  11  22  34  52  77 104 135 173 219 262 304
#     4  10  20  35  56  79 105 138 173 211 254 304
#     4  10  19  33  54  76 103 139 175 216 265 316
#     4  10  21  37  57  80 107 139 172 208 258 318
#     4   9  16  28  50  79 106 134 173 219 265 314
#     4   8  15  30  53  76  98 131 173 213 255 307
#     4   9  18  33  51  73 101 134 173 213 256 306
#
# _framework density 8.9630179999999999
#
# number of rings (size 3 to 8) (size 9 to 14) (size 15 to 20)
#    0.000    2.429    0.000    3.857    0.000    3.143 
#    0.000    1.429    0.000   16.286    0.000    0.000 
#    0.000    0.000    0.000    0.000    0.000    0.000 
#
# Total GULP energy -156106.824536 kJ/mol
# GULP energy per Si atom -5575.243733 kJ/mol
# Density = 0.894262 g / cm^3
# Si number density = 8.963018 Si / 1000 Ang^3
#
#
#
# Elastic Constant Matrix: (Units=GPa)
#
#
# Indices 1 2 3 4 5 6 
#
# 1 94.1393 41.0463 97.8829 0.0000 6.7903 -0.0003
# 2 41.0463 55.5595 58.1874 0.0000 -1.5516 -0.0014
# 3 97.8829 58.1874 244.2207 0.0000 6.9652 0.0000
# 4 0.0000 0.0000 0.0000 40.3899 0.0000 1.7282
# 5 6.7903 -1.5516 6.9652 0.0000 36.2008 0.0000
# 6 -0.0003 -0.0014 0.0000 1.7282 0.0000 17.3820
#
#
#
# Elastic Compliance Matrix: (Units=1/GPa)
#
#
# Indices 1 2 3 4 5 6 
#
# 1 0.021474 -0.009377 -0.006281 0.000000 -0.003221 0.000000
# 2 -0.009377 0.028243 -0.003073 0.000000 0.003560 0.000002
# 3 -0.006281 -0.003073 0.007355 0.000000 -0.000369 0.000000
# 4 0.000000 0.000000 0.000000 0.024864 0.000000 -0.002472
# 5 -0.003221 0.003560 -0.000369 0.000000 0.028451 0.000000
# 6 0.000000 0.000002 0.000000 -0.002472 0.000000 0.057776
#
#
# Mechanical properties :
#
#
# Convention : Reuss Voigt Hill
#
# Bulk Modulus (GPa) = 50.98969 87.57253 69.28111
# Shear Modulus (GPa) = 23.56701 31.91474 27.74087
#
# Velocity S-wave (km/s) = 3.62979 4.22400 3.93812
# Velocity P-wave (km/s) = 6.78774 8.52923 7.70783
#
# Compressibility (1/GPa) = 0.01961181
#
# Stress axis : x y z
#
# Youngs Moduli (GPa) = 46.56857 35.40659 135.97053
#
# Poissons Ratio (x) = 0.33199 0.85399
# Poissons Ratio (y) = 0.43665 0.41779
# Poissons Ratio (z) = 0.29248 0.10879
#
# Static dielectric constant tensor:
#      x y z
#    x 1.608370 0.000000 -0.007410 
#    y 0.000000 1.605290 0.000000 
#    z -0.007410 0.000000 1.628020 
# 
# From -- ./inp_files/377664.got.cif
#   From: 2010.05.17/outbox.ucp.g08.bks.cvg/sg12_189_cif.got.tgz:377664.got - 2010.06.11 11:47:21.
