data_PCOD9223169
_publ_section_title
;
Structure prediction by ZEFSAII (Michael W. Deem and Ramdas Pophale) SiO2 
 PCOD9223169
Probable space group: C 2/M
;
_chemical_formula_sum "Si O2"
_cell_formula_units_Z 28
_cell_length_a 21.000000
_cell_length_b 9.000000
_cell_length_c 30.000000
_cell_angle_alpha 90.000000
_cell_angle_beta 30.000000
_cell_angle_gamma 90.000000
_cell_volume 2835.000000
_symmetry_space_group_name_H-M "C 2/M"
_symmetry_group_IT_number 12
_symmetry_cell_setting 'monoclinic'
loop_
_space_group_symop_operation_xyz
x,y,z
-x,y,-z
-x,-y,-z
x,-y,z
1/2+x,1/2+y,z
1/2-x,1/2+y,-z
1/2-x,1/2-y,-z
1/2+x,1/2-y,z
loop_
_atom_site_type_symbol
_atom_site_label
_atom_site_fract_x
_atom_site_fract_y
_atom_site_fract_z
Si Si1 0.942823 0.174861 0.841451
Si Si2 0.290765 0.819523 0.702963
Si Si3 0.218158 0.321802 0.658943
Si Si4 0.989879 0.826388 0.098743
Si Si5 0.092908 0.320227 0.278217
Si Si6 0.815800 0.678919 0.417977
Si Si7 0.231660 0.818923 0.906780
O O1 0.934188 0.182270 0.900362
O O2 0.828135 0.251048 0.884653
O O3 0.074662 0.259391 0.751403
O O4 0.952904 0.000000 0.823651
O O5 0.301676 0.749688 0.647489
O O6 0.390658 0.773852 0.680474
O O7 0.151686 0.768767 0.806041
O O8 0.289216 0.000000 0.699657
O O9 0.217972 0.500000 0.663152
O O10 0.249896 0.279914 0.588837
O O11 0.969300 0.000000 0.100198
O O12 0.087996 0.765999 0.003013
O O13 0.091762 0.500000 0.279778
O O14 0.212319 0.277353 0.175263
O O15 0.963808 0.273144 0.331940
O O16 0.813326 0.500000 0.422265
O O17 0.750000 0.750000 0.500000
O O18 0.234511 0.000000 0.908786
#
# Coordination Sequence:
#
# PCOD9223169 Si02
#       7
#     8   8   8   8   8   8   8
#     4  10  18  29  46  74 107 138 180 223 260 305
#     4   9  18  34  54  78 109 142 179 217 255 308
#     4  10  19  35  57  79 106 139 175 213 261 318
#     4   8  16  27  44  73 104 138 180 219 257 300
#     4   9  18  34  55  78 107 140 175 218 264 313
#     4  10  21  38  59  84 106 132 170 214 265 318
#     4  10  17  29  48  71 105 144 179 219 263 305
#
# _framework density 9.8765429999999999
#
# number of rings (size 3 to 8) (size 9 to 14) (size 15 to 20)
#    0.000    2.571    1.429    2.143    0.000    1.714 
#    0.000    7.857    0.000    4.286    0.000    5.000 
#    0.000    0.000    0.000    0.000    0.000    0.000 
#
# Total GULP energy -156038.342586 kJ/mol
# GULP energy per Si atom -5572.797950 kJ/mol
# Density = 0.985406 g / cm^3
# Si number density = 9.876543 Si / 1000 Ang^3
#
#
#
# Elastic Constant Matrix: (Units=GPa)
#
#
# Indices 1 2 3 4 5 6 
#
# 1 91.2516 16.1527 2.1703 -0.0027 12.8343 0.0080
# 2 16.1527 24.7892 -0.3632 -0.0022 8.1003 0.0034
# 3 2.1703 -0.3632 30.5435 0.0001 26.3369 -0.0001
# 4 -0.0027 -0.0022 0.0001 17.3628 -0.0005 2.0449
# 5 12.8343 8.1003 26.3369 -0.0005 16.5763 0.0004
# 6 0.0080 0.0034 -0.0001 2.0449 0.0004 23.5901
#
#
#
# Elastic Compliance Matrix: (Units=1/GPa)
#
#
# Indices 1 2 3 4 5 6 
#
# 1 0.011924 -0.010247 -0.007226 0.000001 0.007257 -0.000003
# 2 -0.010247 0.036334 -0.026024 0.000004 0.031527 -0.000003
# 3 -0.007226 -0.026024 -0.046362 -0.000002 0.091973 0.000004
# 4 0.000001 0.000004 -0.000002 0.058188 0.000002 -0.005044
# 5 0.007257 0.031527 0.091973 0.000002 -0.106827 -0.000005
# 6 -0.000003 -0.000003 0.000004 -0.005044 -0.000005 0.042828
#
#
# Mechanical properties :
#
#
# Convention : Reuss Voigt Hill
#
# Bulk Modulus (GPa) = -11.75101 20.27820 4.26359
# Shear Modulus (GPa) = 91.38368 20.08081 55.73224
#
# Velocity S-wave (km/s) = 6.80907 3.19186 5.31749
# Velocity P-wave (km/s) = 7.47369 4.88591 6.31380
#
# Compressibility (1/GPa) = -0.08509907
#
# Stress axis : x y z
#
# Youngs Moduli (GPa) = 83.86637 27.52258 -21.56955
#
# Poissons Ratio (x) = 0.28202 -0.15587
# Poissons Ratio (y) = 0.85935 -0.56133
# Poissons Ratio (z) = 0.60606 0.71626
#
# Static dielectric constant tensor:
#      x y z
#    x 1.713290 0.000000 0.022150 
#    y 0.000000 1.662440 0.000000 
#    z 0.022150 0.000000 1.735840 
# 
# From -- ./inp_files/280244.got.cif
#   From: 2010.05.17/outbox.ucp.g08.bks.cvg/sg12_141_cif.got.tgz:280244.got - 2010.06.11 11:47:21.
