data_PCOD9223825
_publ_section_title
;
Structure prediction by ZEFSAII (Michael W. Deem and Ramdas Pophale) SiO2 
 PCOD9223825
Probable space group: C 2/M
;
_chemical_formula_sum "Si O2"
_cell_formula_units_Z 28
_cell_length_a 21.000000
_cell_length_b 18.000000
_cell_length_c 9.000000
_cell_angle_alpha 90.000000
_cell_angle_beta 60.000000
_cell_angle_gamma 90.000000
_cell_volume 2946.218424
_symmetry_space_group_name_H-M "C 2/M"
_symmetry_group_IT_number 12
_symmetry_cell_setting 'monoclinic'
loop_
_space_group_symop_operation_xyz
x,y,z
-x,y,-z
-x,-y,-z
x,-y,z
1/2+x,1/2+y,z
1/2-x,1/2+y,-z
1/2-x,1/2-y,-z
1/2+x,1/2-y,z
loop_
_atom_site_type_symbol
_atom_site_label
_atom_site_fract_x
_atom_site_fract_y
_atom_site_fract_z
Si Si1 0.771136 0.637759 0.361358
Si Si2 0.560889 0.086283 0.797356
Si Si3 0.732420 0.312438 0.708086
Si Si4 0.165191 0.780211 0.070490
Si Si5 0.330323 0.918648 0.762104
Si Si6 0.202929 0.078600 0.159868
Si Si7 0.038348 0.668916 0.309039
O O1 0.856864 0.615073 0.265184
O O2 0.727316 0.639536 0.566535
O O3 0.764066 0.724496 0.322915
O O4 0.733963 0.584840 0.287297
O O5 0.526770 0.142286 0.718951
O O6 0.566324 0.000000 0.742854
O O7 0.500000 0.087709 0.000000
O O8 0.805721 0.348630 0.692860
O O9 0.668934 0.317284 0.903735
O O10 0.154812 0.848858 0.191599
O O11 0.100754 0.721192 0.163401
O O12 0.250000 0.750000 0.000000
O O13 0.413858 0.904487 0.708143
O O14 0.321050 0.000000 0.702500
O O15 0.274480 0.916767 0.967380
O O16 0.166429 0.000000 0.172179
O O17 0.000000 0.701347 0.500000
#
# Coordination Sequence:
#
# PCOD9223825 Si02
#       7
#     8   8   8   8   8   8   8
#     4  11  20  33  51  78 113 145 191 227 269 323
#     4  11  24  36  49  76 121 164 185 208 269 347
#     4  10  20  33  55  77 101 146 190 240 274 313
#     4  11  19  39  60  77 107 148 191 238 275 325
#     4  10  19  34  53  78 111 148 185 227 277 328
#     4  10  19  33  59  84 108 145 189 233 280 322
#     4  12  23  35  55  82 111 148 188 228 274 333
#
# _framework density 9.5037079999999996
#
# number of rings (size 3 to 8) (size 9 to 14) (size 15 to 20)
#    0.000    1.286    4.286    3.429    0.000    5.714 
#    0.000    0.000    0.000    0.429    0.000    1.000 
#    0.000    6.857    0.000    0.000    0.000    0.000 
#
# Total GULP energy -155878.548401 kJ/mol
# GULP energy per Si atom -5567.091014 kJ/mol
# Density = 0.948208 g / cm^3
# Si number density = 9.503708 Si / 1000 Ang^3
#
#
#
# Elastic Constant Matrix: (Units=GPa)
#
#
# Indices 1 2 3 4 5 6 
#
# 1 17.7326 32.9811 23.1259 0.0000 14.8297 0.0000
# 2 32.9811 104.8810 16.5278 0.0000 -1.8408 0.0000
# 3 23.1259 16.5278 82.9832 0.0000 3.2907 0.0000
# 4 0.0000 0.0000 0.0000 5.7431 0.0000 1.4380
# 5 14.8297 -1.8408 3.2907 0.0000 14.4647 0.0000
# 6 0.0000 0.0000 0.0000 1.4380 0.0000 16.3340
#
#
#
# Elastic Compliance Matrix: (Units=1/GPa)
#
#
# Indices 1 2 3 4 5 6 
#
# 1 -0.086262 0.026264 0.015307 0.000000 0.088299 0.000000
# 2 0.026264 0.001890 -0.006698 0.000000 -0.025162 0.000000
# 3 0.015307 -0.006698 0.009864 0.000000 -0.018790 0.000000
# 4 0.000000 0.000000 0.000000 0.178048 0.000000 -0.015675
# 5 0.088299 -0.025162 -0.018790 0.000000 -0.020321 0.000000
# 6 0.000000 0.000000 0.000000 -0.015675 0.000000 0.062602
#
#
# Mechanical properties :
#
#
# Convention : Reuss Voigt Hill
#
# Bulk Modulus (GPa) = -209.98562 38.98515 -85.50023
# Shear Modulus (GPa) = 67.12563 16.17246 41.64905
#
# Velocity S-wave (km/s) = 5.94913 2.92010 4.68610
# Velocity P-wave (km/s) = 7.97031 5.65016 3.97502
#
# Compressibility (1/GPa) = -0.00476223
#
# Stress axis : x y z
#
# Youngs Moduli (GPa) = -11.59261 529.23236 101.37967
#
# Poissons Ratio (x) = -13.89958 -1.55184
# Poissons Ratio (y) = 0.30446 0.67901
# Poissons Ratio (z) = 0.17745 3.54466
#
# Static dielectric constant tensor:
#      x y z
#    x 1.695890 0.000000 0.120350 
#    y 0.000000 1.683710 0.000000 
#    z 0.120350 0.000000 1.759730 
# 
# From -- ./inp_files/87817.got.cif
#   From: 2010.05.17/outbox.ucp.g08.bks.cvg/sg12_44_cif.got.tgz:87817.got - 2010.06.11 11:47:21.
