data_PCOD9223918
_publ_section_title
;
Structure prediction by ZEFSAII (Michael W. Deem and Ramdas Pophale) SiO2 
 PCOD9223918
Probable space group: C 2/M
;
_chemical_formula_sum "Si O2"
_cell_formula_units_Z 28
_cell_length_a 18.000000
_cell_length_b 15.000000
_cell_length_c 12.000000
_cell_angle_alpha 90.000000
_cell_angle_beta 110.000000
_cell_angle_gamma 90.000000
_cell_volume 3044.604091
_symmetry_space_group_name_H-M "C 2/M"
_symmetry_group_IT_number 12
_symmetry_cell_setting 'monoclinic'
loop_
_space_group_symop_operation_xyz
x,y,z
-x,y,-z
-x,-y,-z
x,-y,z
1/2+x,1/2+y,z
1/2-x,1/2+y,-z
1/2-x,1/2-y,-z
1/2+x,1/2-y,z
loop_
_atom_site_type_symbol
_atom_site_label
_atom_site_fract_x
_atom_site_fract_y
_atom_site_fract_z
Si Si1 0.741522 0.605808 0.978112
Si Si2 0.926936 0.897125 0.177420
Si Si3 0.407957 0.596615 0.428161
Si Si4 0.341467 0.889487 0.812425
Si Si5 0.942912 0.214797 0.863282
Si Si6 0.222416 0.770984 0.608468
Si Si7 0.776329 0.891815 0.781316
O O1 0.730721 0.500000 0.955605
O O2 0.652575 0.642516 0.918752
O O3 0.804225 0.631315 0.915981
O O4 0.763107 0.619407 0.117053
O O5 0.901733 0.904669 0.292160
O O6 0.001272 0.832033 0.200644
O O7 0.944527 0.000000 0.146576
O O8 0.500000 0.601076 0.500000
O O9 0.378065 0.500000 0.456825
O O10 0.362396 0.682921 0.444776
O O11 0.414026 0.818230 0.834186
O O12 0.276229 0.848337 0.694393
O O13 0.352821 0.000000 0.808406
O O14 0.864932 0.151374 0.830881
O O15 0.000000 0.209496 0.000000
O O16 0.250000 0.750000 0.500000
O O17 0.230086 0.677392 0.678094
O O18 0.778482 0.000000 0.757886
#
# Coordination Sequence:
#
# PCOD9223918 Si02
#       7
#     8   8   8   8   8   8   8
#     4   9  17  35  62  87 112 149 194 241 295 352
#     4  10  19  34  58  88 121 150 187 242 299 350
#     4  10  22  39  62  87 114 151 196 251 299 339
#     4  10  22  40  60  84 117 158 201 240 288 349
#     4  11  22  33  54  91 123 155 185 234 294 350
#     4  11  24  39  60  89 116 155 200 247 292 353
#     4  10  22  37  58  88 122 156 192 242 301 355
#
# _framework density 9.1965979999999998
#
# number of rings (size 3 to 8) (size 9 to 14) (size 15 to 20)
#    0.000    1.857    2.857    0.857    4.000    5.429 
#    0.000    0.000    0.000    1.286    0.000    0.000 
#    0.000    0.000    0.000    0.000    0.000    0.000 
#
# Total GULP energy -155895.256855 kJ/mol
# GULP energy per Si atom -5567.687745 kJ/mol
# Density = 0.917567 g / cm^3
# Si number density = 9.196598 Si / 1000 Ang^3
#
#
#
# Elastic Constant Matrix: (Units=GPa)
#
#
# Indices 1 2 3 4 5 6 
#
# 1 69.1688 49.1495 13.2812 0.0000 -9.8577 0.0000
# 2 49.1495 153.5824 33.5581 0.0000 -4.3600 0.0000
# 3 13.2812 33.5581 58.1044 0.0000 -8.6447 0.0000
# 4 0.0000 0.0000 0.0000 28.4445 0.0000 10.5419
# 5 -9.8577 -4.3600 -8.6447 0.0000 25.9647 0.0000
# 6 0.0000 0.0000 0.0000 10.5419 0.0000 35.6877
#
#
#
# Elastic Compliance Matrix: (Units=1/GPa)
#
#
# Indices 1 2 3 4 5 6 
#
# 1 0.019736 -0.006130 -0.000009 0.000000 0.006460 0.000000
# 2 -0.006130 0.009357 -0.004330 0.000000 -0.002198 0.000000
# 3 -0.000009 -0.004330 0.020626 0.000000 0.006137 0.000000
# 4 0.000000 0.000000 0.000000 0.039478 0.000000 -0.011662
# 5 0.006460 -0.002198 0.006137 0.000000 0.042641 0.000000
# 6 0.000000 0.000000 0.000000 -0.011662 0.000000 0.031466
#
#
# Mechanical properties :
#
#
# Convention : Reuss Voigt Hill
#
# Bulk Modulus (GPa) = 34.74648 52.53702 43.64175
# Shear Modulus (GPa) = 25.79507 30.34383 28.06945
#
# Velocity S-wave (km/s) = 3.74896 4.06609 3.91074
# Velocity P-wave (km/s) = 6.13771 7.11825 6.64609
#
# Compressibility (1/GPa) = 0.02877990
#
# Stress axis : x y z
#
# Youngs Moduli (GPa) = 50.66870 106.87541 48.48224
#
# Poissons Ratio (x) = 0.65520 0.00045
# Poissons Ratio (y) = 0.31062 0.20991
# Poissons Ratio (z) = 0.00047 0.46273
#
# Static dielectric constant tensor:
#      x y z
#    x 1.659890 0.000000 0.025350 
#    y 0.000000 1.667430 0.000000 
#    z 0.025350 0.000000 1.768850 
# 
# From -- ./inp_files/156161.got.cif
#   From: 2010.05.17/outbox.ucp.g08.bks.cvg/sg12_79_cif.got.tgz:156161.got - 2010.06.11 11:47:21.
