data_PCOD9223532
_publ_section_title
;
Structure prediction by ZEFSAII (Michael W. Deem and Ramdas Pophale) SiO2 
 PCOD9223532
Probable space group: C 2/M
;
_chemical_formula_sum "Si O2"
_cell_formula_units_Z 32
_cell_length_a 18.000000
_cell_length_b 15.000000
_cell_length_c 15.000000
_cell_angle_alpha 90.000000
_cell_angle_beta 60.000000
_cell_angle_gamma 90.000000
_cell_volume 3507.402885
_symmetry_space_group_name_H-M "C 2/M"
_symmetry_group_IT_number 12
_symmetry_cell_setting 'monoclinic'
loop_
_space_group_symop_operation_xyz
x,y,z
-x,y,-z
-x,-y,-z
x,-y,z
1/2+x,1/2+y,z
1/2-x,1/2+y,-z
1/2-x,1/2-y,-z
1/2+x,1/2-y,z
loop_
_atom_site_type_symbol
_atom_site_label
_atom_site_fract_x
_atom_site_fract_y
_atom_site_fract_z
Si Si1 0.703534 0.894479 0.723186
Si Si2 0.319312 0.603072 0.112408
Si Si3 0.822852 0.397304 0.655688
Si Si4 0.368579 0.604658 0.739824
Si Si5 0.270592 0.104222 0.022085
Si Si6 0.974115 0.733590 0.617280
Si Si7 0.130494 0.605861 0.572634
Si Si8 0.399830 0.209254 0.063411
O O1 0.801022 0.879714 0.698756
O O2 0.684447 0.877525 0.630514
O O3 0.643673 0.834845 0.822821
O O4 0.686096 0.000000 0.750543
O O5 0.350891 0.500000 0.087347
O O6 0.263977 0.611817 0.236095
O O7 0.385736 0.684181 0.071419
O O8 0.257645 0.617325 0.063078
O O9 0.852246 0.500000 0.649520
O O10 0.892246 0.331140 0.655806
O O11 0.818585 0.381827 0.551595
O O12 0.394883 0.500000 0.722175
O O13 0.311322 0.618759 0.863364
O O14 0.443851 0.677009 0.685814
O O15 0.346369 0.166500 0.013088
O O16 0.295275 0.000000 0.018398
O O17 0.000000 0.757151 0.500000
O O18 0.050250 0.673977 0.614316
O O19 0.104249 0.500000 0.590557
O O20 0.500000 0.187615 0.000000
#
# Coordination Sequence:
#
# PCOD9223532 Si02
#       8
#     8   8   8   8   8   8   8   8
#     4   9  19  36  56  77 103 136 171 208 255 309
#     4  10  21  37  56  76 100 137 181 214 246 299
#     4   9  17  31  52  76 102 132 169 213 255 300
#     4   9  18  34  54  74 102 139 175 210 247 297
#     4   9  19  36  57  78 100 132 175 218 256 299
#     4  10  19  31  49  77 108 136 168 211 258 301
#     4   9  18  33  54  80 106 131 164 211 265 308
#     4  11  22  34  52  79 110 137 164 210 263 309
#
# _framework density 9.1235599999999994
#
# number of rings (size 3 to 8) (size 9 to 14) (size 15 to 20)
#    0.000    2.500    0.000    3.375    0.000    5.000 
#    0.000    8.125    0.000    0.750    0.000    0.000 
#    0.000    0.000    0.000    0.000    0.000    0.000 
#
# Total GULP energy -178532.438670 kJ/mol
# GULP energy per Si atom -5579.138708 kJ/mol
# Density = 0.910279 g / cm^3
# Si number density = 9.123560 Si / 1000 Ang^3
#
#
#
# Elastic Constant Matrix: (Units=GPa)
#
#
# Indices 1 2 3 4 5 6 
#
# 1 42.6741 27.5181 31.3624 0.0000 11.9049 0.0000
# 2 27.5181 87.5833 34.7903 0.0000 -5.8593 0.0000
# 3 31.3624 34.7903 58.4370 0.0000 11.2753 0.0000
# 4 0.0000 0.0000 0.0000 25.4141 0.0000 -3.0488
# 5 11.9049 -5.8593 11.2753 0.0000 27.3723 0.0000
# 6 0.0000 0.0000 0.0000 -3.0488 0.0000 23.4562
#
#
#
# Elastic Compliance Matrix: (Units=1/GPa)
#
#
# Indices 1 2 3 4 5 6 
#
# 1 0.045050 -0.008748 -0.016108 0.000000 -0.014831 0.000000
# 2 -0.008748 0.018201 -0.008285 0.000000 0.011114 0.000000
# 3 -0.016108 -0.008285 0.032243 0.000000 -0.008049 0.000000
# 4 0.000000 0.000000 0.000000 0.039971 0.000000 0.005195
# 5 -0.014831 0.011114 -0.008049 0.000000 0.048678 0.000000
# 6 0.000000 0.000000 0.000000 0.005195 0.000000 0.043308
#
#
# Mechanical properties :
#
#
# Convention : Reuss Voigt Hill
#
# Bulk Modulus (GPa) = 34.23321 41.78178 38.00750
# Shear Modulus (GPa) = 16.47595 21.58343 19.02969
#
# Velocity S-wave (km/s) = 3.00815 3.44298 3.23288
# Velocity P-wave (km/s) = 5.55580 6.22518 5.89999
#
# Compressibility (1/GPa) = 0.02921140
#
# Stress axis : x y z
#
# Youngs Moduli (GPa) = 22.19736 54.94228 31.01428
#
# Poissons Ratio (x) = 0.48064 0.49958
# Poissons Ratio (y) = 0.19419 0.25696
# Poissons Ratio (z) = 0.35756 0.45521
#
# Static dielectric constant tensor:
#      x y z
#    x 1.598360 0.000000 0.007560 
#    y 0.000000 1.645710 0.000000 
#    z 0.007560 0.000000 1.629560 
# 
# From -- ./inp_files/225240.got.cif
#   From: 2010.05.17/outbox.ucp.g08.bks.cvg/sg12_113_cif.got.tgz:225240.got - 2010.06.11 11:47:21.
