data_PCOD9223745
_publ_section_title
;
Structure prediction by ZEFSAII (Michael W. Deem and Ramdas Pophale) SiO2 
 PCOD9223745
Probable space group: C 2/M
;
_chemical_formula_sum "Si O2"
_cell_formula_units_Z 28
_cell_length_a 18.000000
_cell_length_b 9.000000
_cell_length_c 27.000000
_cell_angle_alpha 90.000000
_cell_angle_beta 140.000000
_cell_angle_gamma 90.000000
_cell_volume 2811.553005
_symmetry_space_group_name_H-M "C 2/M"
_symmetry_group_IT_number 12
_symmetry_cell_setting 'monoclinic'
loop_
_space_group_symop_operation_xyz
x,y,z
-x,y,-z
-x,-y,-z
x,-y,z
1/2+x,1/2+y,z
1/2-x,1/2+y,-z
1/2-x,1/2-y,-z
1/2+x,1/2-y,z
loop_
_atom_site_type_symbol
_atom_site_label
_atom_site_fract_x
_atom_site_fract_y
_atom_site_fract_z
Si Si1 0.557326 0.180940 0.154900
Si Si2 0.566426 0.673684 0.670387
Si Si3 0.398655 0.829419 0.408383
Si Si4 0.389834 0.169518 0.981434
Si Si5 0.131049 0.827924 0.297482
Si Si6 0.739523 0.678207 0.169871
Si Si7 0.154206 0.674126 0.415843
O O1 0.575104 0.247550 0.219759
O O2 0.648952 0.263363 0.165456
O O3 0.575190 0.000000 0.164632
O O4 0.438524 0.205436 0.061596
O O5 0.537899 0.500000 0.661891
O O6 0.618074 0.705691 0.642683
O O7 0.647194 0.732155 0.755753
O O8 0.460535 0.786361 0.613284
O O9 0.500000 0.793769 0.500000
O O10 0.270101 0.835256 0.364498
O O11 0.421692 0.000000 0.402435
O O12 0.302599 0.275903 0.906851
O O13 0.344890 0.000000 0.959395
O O14 0.500000 0.168844 0.000000
O O15 0.122214 0.743409 0.345583
O O16 0.088717 0.000000 0.278158
O O17 0.752453 0.500000 0.180153
O O18 0.178941 0.500000 0.423368
O O19 0.250000 0.750000 0.500000
#
# Coordination Sequence:
#
# PCOD9223745 Si02
#       7
#     8   8   8   8   8   8   8
#     4  10  19  33  54  83 119 156 195 240 291 346
#     4  12  24  39  61  86 117 154 198 243 293 352
#     4  10  21  37  58  85 117 149 186 239 297 347
#     4   8  16  30  49  77 115 155 192 235 288 345
#     4  11  22  37  60  88 120 155 196 243 294 350
#     4  11  20  32  53  84 119 154 195 242 294 346
#     4  12  26  45  65  86 117 154 200 245 294 354
#
# _framework density 9.9589090000000002
#
# number of rings (size 3 to 8) (size 9 to 14) (size 15 to 20)
#    0.000    1.429    1.429    6.429    0.000    5.143 
#    0.000    0.000    0.000    0.857    0.000    0.000 
#    0.000    0.000    0.000    0.000    0.000    0.000 
#
# Total GULP energy -155984.408786 kJ/mol
# GULP energy per Si atom -5570.871742 kJ/mol
# Density = 0.993624 g / cm^3
# Si number density = 9.958909 Si / 1000 Ang^3
#
#
#
# Elastic Constant Matrix: (Units=GPa)
#
#
# Indices 1 2 3 4 5 6 
#
# 1 16.2033 15.1480 -12.2671 0.0000 -4.8764 0.0000
# 2 15.1480 122.5064 44.6411 0.0000 -27.7493 0.0000
# 3 -12.2671 44.6411 107.1893 0.0000 -17.4879 0.0000
# 4 0.0000 0.0000 0.0000 34.4661 0.0000 -6.2976
# 5 -4.8764 -27.7493 -17.4879 0.0000 24.0582 0.0000
# 6 0.0000 0.0000 0.0000 -6.2976 0.0000 21.2899
#
#
#
# Elastic Compliance Matrix: (Units=1/GPa)
#
#
# Indices 1 2 3 4 5 6 
#
# 1 0.096480 -0.015612 0.020190 0.000000 0.016225 0.000000
# 2 -0.015612 0.014408 -0.006345 0.000000 0.008842 0.000000
# 3 0.020190 -0.006345 0.015607 0.000000 0.008119 0.000000
# 4 0.000000 0.000000 0.000000 0.030672 0.000000 0.009073
# 5 0.016225 0.008842 0.008119 0.000000 0.060955 0.000000
# 6 0.000000 0.000000 0.000000 0.009073 0.000000 0.049654
#
#
# Mechanical properties :
#
#
# Convention : Reuss Voigt Hill
#
# Bulk Modulus (GPa) = 8.13257 37.88256 23.00757
# Shear Modulus (GPa) = 16.01045 29.18797 22.59921
#
# Velocity S-wave (km/s) = 2.83826 3.83223 3.37207
# Velocity P-wave (km/s) = 3.85135 6.21627 5.17083
#
# Compressibility (1/GPa) = 0.12296242
#
# Stress axis : x y z
#
# Youngs Moduli (GPa) = 10.36488 69.40517 64.07415
#
# Poissons Ratio (x) = 1.08355 -1.29369
# Poissons Ratio (y) = 0.16182 0.40653
# Poissons Ratio (z) = -0.20927 0.44035
#
# Static dielectric constant tensor:
#      x y z
#    x 1.778440 0.000000 0.049050 
#    y 0.000000 1.690590 0.000000 
#    z 0.049050 0.000000 1.740100 
# 
# From -- ./inp_files/363156.got.cif
#   From: 2010.05.17/outbox.ucp.g08.bks.cvg/sg12_182_cif.got.tgz:363156.got - 2010.06.11 11:47:21.
