data_PCOD9223654
_publ_section_title
;
Structure prediction by ZEFSAII (Michael W. Deem and Ramdas Pophale) SiO2 
 PCOD9223654
Probable space group: C 2/M
;
_chemical_formula_sum "Si O2"
_cell_formula_units_Z 32
_cell_length_a 30.000000
_cell_length_b 9.000000
_cell_length_c 24.000000
_cell_angle_alpha 90.000000
_cell_angle_beta 30.000000
_cell_angle_gamma 90.000000
_cell_volume 3240.000000
_symmetry_space_group_name_H-M "C 2/M"
_symmetry_group_IT_number 12
_symmetry_cell_setting 'monoclinic'
loop_
_space_group_symop_operation_xyz
x,y,z
-x,y,-z
-x,-y,-z
x,-y,z
1/2+x,1/2+y,z
1/2-x,1/2+y,-z
1/2-x,1/2-y,-z
1/2+x,1/2-y,z
loop_
_atom_site_type_symbol
_atom_site_label
_atom_site_fract_x
_atom_site_fract_y
_atom_site_fract_z
Si Si1 0.669059 0.178616 0.735117
Si Si2 0.500979 0.669951 0.432618
Si Si3 0.639231 0.821705 0.493384
Si Si4 0.199904 0.821408 0.211991
Si Si5 0.861939 0.679574 0.107387
Si Si6 0.304205 0.822569 0.892272
Si Si7 0.489047 0.820327 0.868895
Si Si8 0.991815 0.680296 0.739551
O O1 0.762754 0.253069 0.618671
O O2 0.630063 0.229262 0.837600
O O3 0.591271 0.207186 0.775157
O O4 0.682927 0.000000 0.723593
O O5 0.500000 0.659231 0.500000
O O6 0.495111 0.500000 0.416893
O O7 0.422917 0.764278 0.489932
O O8 0.599432 0.735329 0.318423
O O9 0.583194 0.775234 0.609501
O O10 0.644669 0.000000 0.486611
O O11 0.260376 0.787208 0.199212
O O12 0.240087 0.747260 0.114337
O O13 0.197758 0.000000 0.209589
O O14 0.873806 0.500000 0.095565
O O15 0.926327 0.733961 0.987880
O O16 0.407294 0.779033 0.792793
O O17 0.299366 0.000000 0.896577
O O18 0.250000 0.750000 0.000000
O O19 0.476301 0.765145 0.819486
O O20 0.475420 0.000000 0.882104
O O21 0.993571 0.500000 0.740127
#
# Coordination Sequence:
#
# PCOD9223654 Si02
#       8
#     8   8   8   8   8   8   8   8
#     4  10  20  35  58  86 110 140 188 241 287 333
#     4  10  20  35  56  82 112 145 184 232 277 321
#     4  11  22  37  55  78 113 155 191 227 277 340
#     4  10  19  32  53  80 110 143 178 218 273 330
#     4   9  17  32  56  86 115 140 178 233 289 339
#     4  11  21  35  54  78 111 146 184 226 270 326
#     4   9  17  32  57  84 108 141 187 237 287 335
#     4   9  19  35  54  78 111 147 185 231 279 331
#
# _framework density 9.8765429999999999
#
# number of rings (size 3 to 8) (size 9 to 14) (size 15 to 20)
#    0.000    2.125    1.250    2.625    0.000    6.250 
#    0.000    1.875    0.000    6.000    0.000    0.000 
#    0.000    0.000    0.000    0.000    0.000    0.000 
#
# Total GULP energy -178312.244124 kJ/mol
# GULP energy per Si atom -5572.257629 kJ/mol
# Density = 0.985406 g / cm^3
# Si number density = 9.876543 Si / 1000 Ang^3
#
#
#
# Elastic Constant Matrix: (Units=GPa)
#
#
# Indices 1 2 3 4 5 6 
#
# 1 74.9580 12.7026 12.6648 0.0048 10.9028 -0.0007
# 2 12.7026 -22.5554 -2.7989 0.0152 -20.8896 -0.0085
# 3 12.6648 -2.7989 85.2847 0.0077 -3.7195 -0.0036
# 4 0.0048 0.0152 0.0077 21.6015 -0.0015 1.5206
# 5 10.9028 -20.8896 -3.7195 -0.0015 23.6530 -0.0011
# 6 -0.0007 -0.0085 -0.0036 1.5206 -0.0011 15.3042
#
#
#
# Elastic Compliance Matrix: (Units=1/GPa)
#
#
# Indices 1 2 3 4 5 6 
#
# 1 0.012397 0.006989 -0.001603 -0.000007 0.000206 0.000005
# 2 0.006989 -0.020190 -0.002637 0.000013 -0.021467 -0.000014
# 3 -0.001603 -0.002637 0.011889 -0.000002 0.000280 0.000001
# 4 -0.000007 0.000013 -0.000002 0.046619 0.000017 -0.004632
# 5 0.000206 -0.021467 0.000280 0.000017 0.023267 -0.000012
# 6 0.000005 -0.000014 0.000001 -0.004632 -0.000012 0.065802
#
#
# Mechanical properties :
#
#
# Convention : Reuss Voigt Hill
#
# Bulk Modulus (GPa) = 104.20524 20.31383 62.25953
# Shear Modulus (GPa) = 36.36800 19.78631 28.07715
#
# Velocity S-wave (km/s) = 4.29549 3.16837 3.77424
# Velocity P-wave (km/s) = 8.80171 4.86734 7.11200
#
# Compressibility (1/GPa) = 0.00959645
#
# Stress axis : x y z
#
# Youngs Moduli (GPa) = 80.66397 -49.52988 84.11082
#
# Poissons Ratio (x) = 0.34618 0.13480
# Poissons Ratio (y) = -0.56379 0.22178
# Poissons Ratio (z) = 0.12927 -0.13060
#
# Static dielectric constant tensor:
#      x y z
#    x 1.714920 0.000000 0.027990 
#    y 0.000000 1.661200 0.000000 
#    z 0.027990 0.000000 1.803950 
# 
# From -- ./inp_files/243871.got.cif
#   From: 2010.05.17/outbox.ucp.g08.bks.cvg/sg12_122_cif.got.tgz:243871.got - 2010.06.11 11:47:21.
