data_PCOD9223194
_publ_section_title
;
Structure prediction by ZEFSAII (Michael W. Deem and Ramdas Pophale) SiO2 
 PCOD9223194
Probable space group: C 2/M
;
_chemical_formula_sum "Si O2"
_cell_formula_units_Z 18
_cell_length_a 15.000000
_cell_length_b 21.000000
_cell_length_c 12.000000
_cell_angle_alpha 90.000000
_cell_angle_beta 30.000000
_cell_angle_gamma 90.000000
_cell_volume 1890.000000
_symmetry_space_group_name_H-M "C 2/M"
_symmetry_group_IT_number 12
_symmetry_cell_setting 'monoclinic'
loop_
_space_group_symop_operation_xyz
x,y,z
-x,y,-z
-x,-y,-z
x,-y,z
1/2+x,1/2+y,z
1/2-x,1/2+y,-z
1/2-x,1/2-y,-z
1/2+x,1/2-y,z
loop_
_atom_site_type_symbol
_atom_site_label
_atom_site_fract_x
_atom_site_fract_y
_atom_site_fract_z
Si Si1 0.500000 0.627132 0.000000
Si Si2 0.933711 0.922061 0.314732
Si Si3 0.203645 0.186733 0.126606
Si Si4 0.907122 0.666945 0.312897
Si Si5 0.263976 0.239091 0.679812
O O1 0.516810 0.586536 0.869464
O O2 0.662951 0.677017 0.836033
O O3 0.054335 0.865750 0.247850
O O4 0.734285 0.891119 0.538985
O O5 0.945134 0.000000 0.330780
O O6 0.178174 0.217502 0.277810
O O7 0.250000 0.250000 0.000000
O O8 0.389241 0.147938 0.923756
O O9 0.859132 0.716474 0.265779
O O10 0.889722 0.706503 0.448771
#
# Coordination Sequence:
#
# PCOD9223194 Si02
#       5
#     4   8   8   8   8
#     4  10  17  40  64  84 125 160 206 274 315 352
#     4  11  25  41  59  91 132 173 211 251 318 395
#     4  12  21  38  65  96 125 160 212 275 313 362
#     4  10  22  38  62  90 127 167 202 259 320 372
#     4  10  18  37  62  97 121 152 213 268 314 361
#
# _framework density 9.5238099999999992
#
# number of rings (size 3 to 8) (size 9 to 14) (size 15 to 20)
#    0.000    1.333    4.444    3.000    0.000    4.444 
#    0.000    2.222    0.000    6.667    0.000    0.000 
#    0.000    0.000    0.000    0.000    0.000    0.000 
#
# Total GULP energy -100232.913519 kJ/mol
# GULP energy per Si atom -5568.495196 kJ/mol
# Density = 0.950213 g / cm^3
# Si number density = 9.523810 Si / 1000 Ang^3
#
#
#
# Elastic Constant Matrix: (Units=GPa)
#
#
# Indices 1 2 3 4 5 6 
#
# 1 108.9687 43.2450 47.3192 0.0053 7.7801 -0.0029
# 2 43.2450 135.7865 32.8305 0.0075 -7.7992 -0.0041
# 3 47.3192 32.8305 112.9830 0.0103 -19.4684 -0.0113
# 4 0.0053 0.0075 0.0103 23.7562 -0.0082 3.0026
# 5 7.7801 -7.7992 -19.4684 -0.0082 37.2486 0.0079
# 6 -0.0029 -0.0041 -0.0113 3.0026 0.0079 38.1313
#
#
#
# Elastic Compliance Matrix: (Units=1/GPa)
#
#
# Indices 1 2 3 4 5 6 
#
# 1 0.013462 -0.003256 -0.005818 -0.000002 -0.006534 0.000000
# 2 -0.003256 0.008717 -0.000811 -0.000001 0.002082 0.000000
# 3 -0.005818 -0.000811 0.012862 -0.000002 0.007768 0.000002
# 4 -0.000002 -0.000001 -0.000002 0.042517 0.000009 -0.003348
# 5 -0.006534 0.002082 0.007768 0.000009 0.032707 -0.000006
# 6 0.000000 0.000000 0.000002 -0.003348 -0.000006 0.026489
#
#
# Mechanical properties :
#
#
# Convention : Reuss Voigt Hill
#
# Bulk Modulus (GPa) = 65.48168 67.16975 66.32572
# Shear Modulus (GPa) = 30.93792 35.45011 33.19401
#
# Velocity S-wave (km/s) = 4.03456 4.31876 4.17908
# Velocity P-wave (km/s) = 7.49374 7.75949 7.62777
#
# Compressibility (1/GPa) = 0.01527145
#
# Stress axis : x y z
#
# Youngs Moduli (GPa) = 74.28260 114.71803 77.75088
#
# Poissons Ratio (x) = 0.37352 0.45235
# Poissons Ratio (y) = 0.24187 0.06303
# Poissons Ratio (z) = 0.43218 0.09299
#
# Static dielectric constant tensor:
#      x y z
#    x 1.709170 0.000000 -0.034790 
#    y 0.000000 1.632190 0.000000 
#    z -0.034790 0.000000 1.771320 
# 
# From -- ./inp_files/61483.got.cif
#   From: 2010.05.17/outbox.ucp.g08.bks.cvg/sg12_31_cif.got.tgz:61483.got - 2010.06.11 11:47:21.
