data_PCOD9223390
_publ_section_title
;
Structure prediction by ZEFSAII (Michael W. Deem and Ramdas Pophale) SiO2 
 PCOD9223390
Probable space group: C 2/M
;
_chemical_formula_sum "Si O2"
_cell_formula_units_Z 24
_cell_length_a 12.000000
_cell_length_b 15.000000
_cell_length_c 15.000000
_cell_angle_alpha 90.000000
_cell_angle_beta 110.000000
_cell_angle_gamma 90.000000
_cell_volume 2537.170076
_symmetry_space_group_name_H-M "C 2/M"
_symmetry_group_IT_number 12
_symmetry_cell_setting 'monoclinic'
loop_
_space_group_symop_operation_xyz
x,y,z
-x,y,-z
-x,-y,-z
x,-y,z
1/2+x,1/2+y,z
1/2-x,1/2+y,-z
1/2-x,1/2-y,-z
1/2+x,1/2-y,z
loop_
_atom_site_type_symbol
_atom_site_label
_atom_site_fract_x
_atom_site_fract_y
_atom_site_fract_z
Si Si1 0.210079 0.900783 0.252074
Si Si2 0.419054 0.161520 0.904806
Si Si3 0.979468 0.753470 0.744074
Si Si4 0.329121 0.600963 0.158143
Si Si5 0.363320 0.356151 0.962331
Si Si6 0.018270 0.603583 0.611266
O O1 0.130995 0.820612 0.269652
O O2 0.204389 0.893458 0.142477
O O3 0.342702 0.893950 0.324948
O O4 0.164559 0.000000 0.263023
O O5 0.489002 0.195359 0.837354
O O6 0.304163 0.108718 0.842956
O O7 0.372354 0.250621 0.943798
O O8 0.500000 0.113780 0.000000
O O9 0.090757 0.821943 0.775259
O O10 0.966943 0.684164 0.658786
O O11 0.374418 0.500000 0.182542
O O12 0.320130 0.620311 0.049006
O O13 0.500000 0.388614 0.000000
O O14 0.977757 0.500000 0.618879
O O15 0.000000 0.618531 0.500000
#
# Coordination Sequence:
#
# PCOD9223390 Si02
#       6
#     8   8   8   8   8   8
#     4  10  20  35  59  91 120 154 199 239 287 346
#     4  10  21  35  52  79 122 165 201 233 283 343
#     4  11  21  38  63  85 117 155 193 243 297 351
#     4  12  23  34  55  87 127 164 197 237 283 347
#     4  10  18  34  57  84 120 165 205 237 271 334
#     4  10  24  45  66  87 110 146 202 257 300 348
#
# _framework density 9.4593579999999999
#
# number of rings (size 3 to 8) (size 9 to 14) (size 15 to 20)
#    0.000    1.500    5.000    3.500    2.333    2.333 
#    0.000    0.000    0.000    2.000    0.000    0.000 
#    0.000    0.000    0.000    0.000    0.000    0.000 
#
# Total GULP energy -133896.823112 kJ/mol
# GULP energy per Si atom -5579.034296 kJ/mol
# Density = 0.943783 g / cm^3
# Si number density = 9.459358 Si / 1000 Ang^3
#
#
#
# Elastic Constant Matrix: (Units=GPa)
#
#
# Indices 1 2 3 4 5 6 
#
# 1 30.3824 12.9647 1.7733 0.0000 5.8888 0.0000
# 2 12.9647 110.9854 37.4949 0.0000 -17.1080 0.0000
# 3 1.7733 37.4949 96.3184 0.0000 1.0159 0.0000
# 4 0.0000 0.0000 0.0000 3.7864 0.0000 3.7375
# 5 5.8888 -17.1080 1.0159 0.0000 25.8638 0.0000
# 6 0.0000 0.0000 0.0000 3.7375 0.0000 21.9662
#
#
#
# Elastic Compliance Matrix: (Units=1/GPa)
#
#
# Indices 1 2 3 4 5 6 
#
# 1 0.038619 -0.007423 0.002324 0.000000 -0.013794 0.000000
# 2 -0.007423 0.013256 -0.005136 0.000000 0.010660 0.000000
# 3 0.002324 -0.005136 0.012385 0.000000 -0.004413 0.000000
# 4 0.000000 0.000000 0.000000 0.317414 0.000000 -0.054008
# 5 -0.013794 0.010660 -0.004413 0.000000 0.049029 0.000000
# 6 0.000000 0.000000 0.000000 -0.054008 0.000000 0.054714
#
#
# Mechanical properties :
#
#
# Convention : Reuss Voigt Hill
#
# Bulk Modulus (GPa) = 22.83588 38.01690 30.42639
# Shear Modulus (GPa) = 9.60646 22.68684 16.14665
#
# Velocity S-wave (km/s) = 2.25583 3.46667 2.92460
# Velocity P-wave (km/s) = 4.34531 6.01350 5.24614
#
# Compressibility (1/GPa) = 0.04379074
#
# Stress axis : x y z
#
# Youngs Moduli (GPa) = 25.89389 75.44004 80.74086
#
# Poissons Ratio (x) = 0.55997 -0.18764
# Poissons Ratio (y) = 0.19220 0.41468
# Poissons Ratio (z) = -0.06018 0.38745
#
# Static dielectric constant tensor:
#      x y z
#    x 1.729600 0.000000 0.005740 
#    y 0.000000 1.704030 0.000000 
#    z 0.005740 0.000000 1.623500 
# 
# From -- ./inp_files/204579.got.cif
#   From: 2010.05.17/outbox.ucp.g08.bks.cvg/sg12_103_cif.got.tgz:204579.got - 2010.06.11 11:47:21.
