data_PCOD9223545
_publ_section_title
;
Structure prediction by ZEFSAII (Michael W. Deem and Ramdas Pophale) SiO2 
 PCOD9223545
Probable space group: C 2/M
;
_chemical_formula_sum "Si O2"
_cell_formula_units_Z 32
_cell_length_a 30.000000
_cell_length_b 9.000000
_cell_length_c 12.000000
_cell_angle_alpha 90.000000
_cell_angle_beta 90.000000
_cell_angle_gamma 90.000000
_cell_volume 3240.000000
_symmetry_space_group_name_H-M "C 2/M"
_symmetry_group_IT_number 12
_symmetry_cell_setting 'monoclinic'
loop_
_space_group_symop_operation_xyz
x,y,z
-x,y,-z
-x,-y,-z
x,-y,z
1/2+x,1/2+y,z
1/2-x,1/2+y,-z
1/2-x,1/2-y,-z
1/2+x,1/2-y,z
loop_
_atom_site_type_symbol
_atom_site_label
_atom_site_fract_x
_atom_site_fract_y
_atom_site_fract_z
Si Si1 0.323768 0.673483 0.528901
Si Si2 0.408107 0.674956 0.658404
Si Si3 0.949265 0.673945 0.010255
Si Si4 0.500483 0.830358 0.631342
Si Si5 0.782521 0.822266 0.774929
Si Si6 0.588406 0.173807 0.741150
Si Si7 0.366219 0.175338 0.866016
Si Si8 0.311942 0.179035 0.298832
O O1 0.315804 0.500000 0.503195
O O2 0.377156 0.693622 0.548797
O O3 0.300412 0.704198 0.647977
O O4 0.307056 0.771963 0.427241
O O5 0.403270 0.500000 0.689607
O O6 0.459169 0.724135 0.657364
O O7 0.385473 0.786673 0.744991
O O8 0.952892 0.500000 0.974687
O O9 0.932699 0.679225 0.136512
O O10 0.906714 0.736637 0.942681
O O11 0.000000 0.735574 0.000000
O O12 0.500000 0.846619 0.500000
O O13 0.548345 0.765271 0.665988
O O14 0.494947 0.000000 0.679905
O O15 0.817064 0.747911 0.861185
O O16 0.731021 0.770451 0.772525
O O17 0.784259 0.000000 0.791960
O O18 0.638754 0.234095 0.737341
O O19 0.592797 0.000000 0.707544
O O20 0.361432 0.000000 0.887535
O O21 0.311273 0.000000 0.291955
#
# Coordination Sequence:
#
# PCOD9223545 Si02
#       8
#     8   8   8   8   8   8   8   8
#     4   9  18  31  47  70 102 136 168 205 248 297
#     4  10  20  33  49  72 104 137 166 204 259 313
#     4   9  17  31  53  78 101 126 161 209 260 304
#     4  10  19  31  50  76 104 135 173 212 246 292
#     4   9  19  34  50  73 105 137 167 204 256 306
#     4   9  18  32  50  75 104 131 166 213 258 299
#     4  10  19  32  54  78  96 124 169 214 252 295
#     4  10  19  32  52  74  99 135 173 209 251 299
#
# _framework density 9.8765429999999999
#
# number of rings (size 3 to 8) (size 9 to 14) (size 15 to 20)
#    0.000    2.500    0.000    3.375    0.000    6.250 
#    0.000    1.250    0.000    8.250    0.000    0.000 
#    0.000    0.000    0.000    0.000    0.000    0.000 
#
# Total GULP energy -178150.934662 kJ/mol
# GULP energy per Si atom -5567.216708 kJ/mol
# Density = 0.985406 g / cm^3
# Si number density = 9.876543 Si / 1000 Ang^3
#
#
#
# Elastic Constant Matrix: (Units=GPa)
#
#
# Indices 1 2 3 4 5 6 
#
# 1 192.0440 22.8455 26.5512 0.0000 38.8928 0.0000
# 2 22.8455 9.8631 -3.7699 0.0000 7.0258 0.0000
# 3 26.5512 -3.7699 20.2977 0.0000 24.9553 0.0000
# 4 0.0000 0.0000 0.000022923.8513 0.0000**********
# 5 38.8928 7.0258 24.9553 0.0000 33.4553 0.0000
# 6 0.0000 0.0000 0.0000********** 0.0000 4743.7171
#
#
#
# Elastic Compliance Matrix: (Units=1/GPa)
#
#
# Indices 1 2 3 4 5 6 
#
# 1 0.006979 0.000264 0.011613 0.000000 -0.016831 0.000000
# 2 0.000264 -0.025079 -0.133895 0.000000 0.104836 0.000000
# 3 0.011613 -0.133895 -0.105719 0.000000 0.093477 0.000000
# 4 0.000000 0.000000 0.000000 0.005566 0.000000 0.012187
# 5 -0.016831 0.104836 0.093477 0.000000 -0.042286 0.000000
# 6 0.000000 0.000000 0.000000 0.012187 0.000000 0.026897
#
#
# Mechanical properties :
#
#
# Convention : Reuss Voigt Hill
#
# Bulk Modulus (GPa) = -2.71846 34.82872 16.05513
# Shear Modulus (GPa) = -408.98545 5551.97659 2571.49557
#
# Velocity S-wave (km/s) = -14.40480 53.07344 36.11988
# Velocity P-wave (km/s) = 16.67464 61.42793 41.80518
#
# Compressibility (1/GPa) = -0.36785522
#
# Stress axis : x y z
#
# Youngs Moduli (GPa) = 143.29051 -39.87444 -9.45901
#
# Poissons Ratio (x) = 0.01051 0.10985
# Poissons Ratio (y) = -0.03778 -1.26651
# Poissons Ratio (z) = -1.66410 -5.33899
#
# Static dielectric constant tensor:
#      x y z
#    x 1.792080 0.000000 0.019140 
#    y 0.000000 1.698110 0.000000 
#    z 0.019140 0.000000 1.724550 
# 
# From -- ./inp_files/187580.got.cif
#   From: 2010.05.17/outbox.ucp.g08.bks.cvg/sg12_94_cif.got.tgz:187580.got - 2010.06.11 11:47:21.
