data_PCOD9223027
_publ_section_title
;
Structure prediction by ZEFSAII (Michael W. Deem and Ramdas Pophale) SiO2 
 PCOD9223027
Probable space group: C 2/M
;
_chemical_formula_sum "Si O2"
_cell_formula_units_Z 48
_cell_length_a 14.678064
_cell_length_b 7.703913
_cell_length_c 31.235928
_cell_angle_alpha 90.000000
_cell_angle_beta 134.818453
_cell_angle_gamma 90.000000
_cell_volume 2505.482151
_symmetry_space_group_name_H-M "C 2/M"
_symmetry_group_IT_number 12
_symmetry_cell_setting 'monoclinic'
loop_
_space_group_symop_operation_xyz
x,y,z
-x,y,-z
-x,-y,-z
x,-y,z
1/2+x,1/2+y,z
1/2-x,1/2+y,-z
1/2-x,1/2-y,-z
1/2+x,1/2-y,z
loop_
_atom_site_type_symbol
_atom_site_label
_atom_site_fract_x
_atom_site_fract_y
_atom_site_fract_z
Si Si1 0.855265 0.291549 0.570176
Si Si2 0.856107 0.708084 0.333500
Si Si3 0.644063 0.292144 0.000000
Si Si4 0.644388 0.791916 0.333498
Si Si5 0.146822 0.787497 0.097882
Si Si6 0.146691 0.287615 0.764460
O O1 0.861110 0.500000 0.574073
O O2 0.750000 0.250000 0.500000
O O3 0.823132 0.228524 0.607673
O O4 0.999889 0.228525 0.607672
O O5 0.863267 0.500000 0.333581
O O6 0.750147 0.750000 0.333432
O O7 0.823719 0.767820 0.274509
O O8 0.636381 0.500000 1.000000
O O9 0.499624 0.231747 0.941026
O O10 0.750000 0.250000 0.000000
O O11 0.676547 0.231747 0.058975
O O12 0.499805 0.732180 0.274508
O O13 0.637473 0.000000 0.333580
O O14 0.250079 0.727220 0.166720
O O15 0.148907 0.000000 0.099272
O O16 0.148760 0.500000 0.765840
#
# Coordination Sequence:
#
# PCOD9223027 Si02
#       6
#     8   8   8   8   8   8
#     4   9  19  34  49  67  92 121 151 183 222 268
#     4   9  18  32  49  69  92 118 150 187 225 266
#     4   9  17  29  46  68  92 119 153 189 224 266
#     4   9  18  32  49  69  92 118 150 187 225 266
#     4   8  15  29  47  65  89 124 157 181 218 275
#     4   8  15  30  49  66  89 122 155 185 220 267
#
# _framework density 19.157990000000002
#
# number of rings (size 3 to 8) (size 9 to 14) (size 15 to 20)
#    0.000    3.333    0.000    3.000    0.000    3.333 
#    0.000    7.500    0.000    2.000    0.000    0.000 
#    0.000    0.000    0.000    0.000    0.000    0.000 
#
# Total GULP energy -133740.439147 kJ/mol
# GULP energy per Si atom -5572.518298 kJ/mol
# Density = 1.911439 g / cm^3
# Si number density = 19.157990 Si / 1000 Ang^3
#
#
#
# Elastic Constant Matrix: (Units=GPa)
#
#
# Indices 1 2 3 4 5 6 
#
# 1 217.4281 4.1061 132.3554 0.0000 -1.1120 0.0000
# 2 4.1061 26.3473 11.2355 0.0000 0.1186 0.0000
# 3 132.3554 11.2355 234.4392 0.0000 1.3989 0.0000
# 4 0.0000 0.0000 0.0000 10.3947 0.0000 -0.3167
# 5 -1.1120 0.1186 1.3989 0.0000 9.0688 0.0000
# 6 0.0000 0.0000 0.0000 -0.3167 0.0000 29.4463
#
#
#
# Elastic Compliance Matrix: (Units=1/GPa)
#
#
# Indices 1 2 3 4 5 6 
#
# 1 0.007037 0.000607 -0.004010 0.000000 0.001474 0.000000
# 2 0.000607 0.038799 -0.002202 0.000000 -0.000093 0.000000
# 3 -0.004010 -0.002202 0.006644 0.000000 -0.001488 0.000000
# 4 0.000000 0.000000 0.000000 0.096235 0.000000 0.001035
# 5 0.001474 -0.000093 -0.001488 0.000000 0.110679 0.000000
# 6 0.000000 0.000000 0.000000 0.001035 0.000000 0.033971
#
#
# Mechanical properties :
#
#
# Convention : Reuss Voigt Hill
#
# Bulk Modulus (GPa) = 24.23086 85.95653 55.09369
# Shear Modulus (GPa) = 15.70688 31.81647 23.76167
#
# Velocity S-wave (km/s) = 2.86643 4.07964 3.52561
# Velocity P-wave (km/s) = 4.86113 8.19487 6.73745
#
# Compressibility (1/GPa) = 0.04126969
#
# Stress axis : x y z
#
# Youngs Moduli (GPa) = 142.11408 25.77372 150.51064
#
# Poissons Ratio (x) = -0.01564 0.60362
# Poissons Ratio (y) = -0.08626 0.33136
# Poissons Ratio (z) = 0.56995 0.05674
#
# Static dielectric constant tensor:
#      x y z
#    x 1.654700 0.000000 0.000110 
#    y 0.000000 1.724820 0.000000 
#    z 0.000110 0.000000 1.661420 
# 
# From -- ./inp_files/303836.got.cif
#   From: 2010.05.17/outbox.cif.g08.bks.cpg/sg12_152_cif.got.tgz:303836.got - 2010.06.03 13:09:07.
