data_PCOD9223613
_publ_section_title
;
Structure prediction by ZEFSAII (Michael W. Deem and Ramdas Pophale) SiO2 
 PCOD9223613
Probable space group: C 2/M
;
_chemical_formula_sum "Si O2"
_cell_formula_units_Z 28
_cell_length_a 18.000000
_cell_length_b 9.000000
_cell_length_c 27.000000
_cell_angle_alpha 90.000000
_cell_angle_beta 140.000000
_cell_angle_gamma 90.000000
_cell_volume 2811.553005
_symmetry_space_group_name_H-M "C 2/M"
_symmetry_group_IT_number 12
_symmetry_cell_setting 'monoclinic'
loop_
_space_group_symop_operation_xyz
x,y,z
-x,y,-z
-x,-y,-z
x,-y,z
1/2+x,1/2+y,z
1/2-x,1/2+y,-z
1/2-x,1/2-y,-z
1/2+x,1/2-y,z
loop_
_atom_site_type_symbol
_atom_site_label
_atom_site_fract_x
_atom_site_fract_y
_atom_site_fract_z
Si Si1 0.031573 0.829632 0.898124
Si Si2 0.996909 0.675591 0.784970
Si Si3 0.071277 0.172105 0.484400
Si Si4 0.163410 0.820876 0.681901
Si Si5 0.803941 0.829611 0.841218
Si Si6 0.275289 0.322679 0.640005
Si Si7 0.265602 0.680560 0.930083
O O1 0.970114 0.723079 0.827350
O O2 0.935144 0.839304 0.890622
O O3 0.047958 0.000000 0.887029
O O4 0.150130 0.769243 0.982635
O O5 0.988963 0.500000 0.772648
O O6 0.131384 0.722643 0.856033
O O7 0.905729 0.759040 0.703545
O O8 0.186143 0.268115 0.552100
O O9 0.000000 0.179062 0.500000
O O10 0.974093 0.214485 0.394247
O O11 0.104415 0.000000 0.493742
O O12 0.223007 0.760764 0.762109
O O13 0.224636 0.744769 0.665623
O O14 0.174758 0.000000 0.683539
O O15 0.811473 0.770356 0.900459
O O16 0.757584 0.000000 0.818961
O O17 0.277265 0.500000 0.643771
O O18 0.269966 0.500000 0.936155
#
# Coordination Sequence:
#
# PCOD9223613 Si02
#       7
#     8   8   8   8   8   8   8
#     4  10  19  34  56  79 103 134 178 224 264 308
#     4  11  21  34  53  75 107 143 177 216 259 314
#     4   8  16  30  48  73 105 137 165 205 260 313
#     4  10  19  32  51  77 109 138 168 208 261 315
#     4  10  19  33  55  79 106 139 177 217 258 308
#     4  11  20  31  50  77 105 135 174 218 259 303
#     4   9  20  36  53  76 105 143 180 213 261 314
#
# _framework density 9.9589090000000002
#
# number of rings (size 3 to 8) (size 9 to 14) (size 15 to 20)
#    0.000    2.143    1.429    3.857    0.000    4.857 
#    0.000    2.857    0.000    2.571    0.000    0.000 
#    0.000    0.000    0.000    0.000    0.000    0.000 
#
# Total GULP energy -155961.077281 kJ/mol
# GULP energy per Si atom -5570.038474 kJ/mol
# Density = 0.993624 g / cm^3
# Si number density = 9.958909 Si / 1000 Ang^3
#
#
#
# Elastic Constant Matrix: (Units=GPa)
#
#
# Indices 1 2 3 4 5 6 
#
# 1 16.0772 0.1635 8.3650 0.0000 10.6432 0.0000
# 2 0.1635 73.4708 45.8027 0.0000 16.4497 0.0000
# 3 8.3650 45.8027 155.3581 0.0000 33.6396 0.0000
# 4 0.0000 0.0000 0.0000 27.2795 0.0000 9.0014
# 5 10.6432 16.4497 33.6396 0.0000 19.8008 0.0000
# 6 0.0000 0.0000 0.0000 9.0014 0.0000 6.6856
#
#
#
# Elastic Compliance Matrix: (Units=1/GPa)
#
#
# Indices 1 2 3 4 5 6 
#
# 1 0.116954 0.014292 0.008973 0.000000 -0.089982 0.000000
# 2 0.014292 0.019427 -0.002118 0.000000 -0.020223 0.000000
# 3 0.008973 -0.002118 0.011455 0.000000 -0.022525 0.000000
# 4 0.000000 0.000000 0.000000 0.065962 0.000000 -0.088810
# 5 -0.089982 -0.020223 -0.022525 0.000000 0.153937 0.000000
# 6 0.000000 0.000000 0.000000 -0.088810 0.000000 0.269147
#
#
# Mechanical properties :
#
#
# Convention : Reuss Voigt Hill
#
# Bulk Modulus (GPa) = 5.25954 39.28539 22.27246
# Shear Modulus (GPa) = 7.59918 23.45819 15.52868
#
# Velocity S-wave (km/s) = 1.95539 3.43556 2.79523
# Velocity P-wave (km/s) = 2.78288 5.95852 4.65018
#
# Compressibility (1/GPa) = 0.19013075
#
# Stress axis : x y z
#
# Youngs Moduli (GPa) = 8.55036 51.47366 87.29496
#
# Poissons Ratio (x) = -0.73568 -0.78328
# Poissons Ratio (y) = -0.12220 0.18491
# Poissons Ratio (z) = -0.07672 0.10903
#
# Static dielectric constant tensor:
#      x y z
#    x 1.834450 0.000000 0.035640 
#    y 0.000000 1.710680 0.000000 
#    z 0.035640 0.000000 1.700870 
# 
# From -- ./inp_files/363095.got.cif
#   From: 2010.05.17/outbox.ucp.g08.bks.cvg/sg12_182_cif.got.tgz:363095.got - 2010.06.11 11:47:21.
