data_PCOD9223897
_publ_section_title
;
Structure prediction by ZEFSAII (Michael W. Deem and Ramdas Pophale) SiO2 
 PCOD9223897
Probable space group: C 2/M
;
_chemical_formula_sum "Si O2"
_cell_formula_units_Z 32
_cell_length_a 30.000000
_cell_length_b 9.000000
_cell_length_c 24.000000
_cell_angle_alpha 90.000000
_cell_angle_beta 30.000000
_cell_angle_gamma 90.000000
_cell_volume 3240.000000
_symmetry_space_group_name_H-M "C 2/M"
_symmetry_group_IT_number 12
_symmetry_cell_setting 'monoclinic'
loop_
_space_group_symop_operation_xyz
x,y,z
-x,y,-z
-x,-y,-z
x,-y,z
1/2+x,1/2+y,z
1/2-x,1/2+y,-z
1/2-x,1/2-y,-z
1/2+x,1/2-y,z
loop_
_atom_site_type_symbol
_atom_site_label
_atom_site_fract_x
_atom_site_fract_y
_atom_site_fract_z
Si Si1 0.965567 0.825419 0.668717
Si Si2 0.816279 0.324020 0.766946
Si Si3 0.623243 0.674030 0.409773
Si Si4 0.966208 0.820052 0.097748
Si Si5 0.329021 0.174711 0.445947
Si Si6 0.758343 0.823282 0.339173
Si Si7 0.975635 0.677819 0.777169
Si Si8 0.615710 0.678045 0.022540
O O1 0.868810 0.784314 0.750968
O O2 0.971756 0.727935 0.717321
O O3 0.039357 0.790111 0.540978
O O4 0.975930 0.000000 0.670246
O O5 0.830733 0.500000 0.762056
O O6 0.861181 0.280129 0.659658
O O7 0.710984 0.294913 0.889708
O O8 0.615016 0.500000 0.402400
O O9 0.712231 0.708179 0.347840
O O10 0.863904 0.787985 0.225611
O O11 0.036693 0.768253 0.067504
O O12 0.971731 0.000000 0.090508
O O13 0.000000 0.768859 0.000000
O O14 0.250000 0.250000 0.500000
O O15 0.301127 0.193588 0.540668
O O16 0.423066 0.231070 0.320276
O O17 0.329500 0.000000 0.435456
O O18 0.751061 0.000000 0.330598
O O19 0.969861 0.500000 0.787259
O O20 0.903667 0.749043 0.896483
O O21 0.608960 0.500000 0.036690
#
# Coordination Sequence:
#
# PCOD9223897 Si02
#       8
#     8   8   8   8   8   8   8   8
#     4  11  24  42  64  90 122 161 202 251 310 367
#     4  11  24  41  65  92 119 158 204 253 306 367
#     4  11  23  39  61  91 125 159 198 250 308 366
#     4   9  17  32  57  87 118 156 202 246 292 354
#     4  10  21  35  55  84 117 156 201 246 297 354
#     4  10  19  34  57  84 117 157 198 244 294 351
#     4  11  23  40  62  89 122 160 205 256 303 358
#     4  10  22  41  63  89 122 162 206 250 305 367
#
# _framework density 9.8765429999999999
#
# number of rings (size 3 to 8) (size 9 to 14) (size 15 to 20)
#    0.000    1.625    1.250    3.375    0.000    9.000 
#    0.000    0.625    0.000    1.500    0.000    0.000 
#    0.000    0.000    0.000    0.000    0.000    0.000 
#
# Total GULP energy -178374.829846 kJ/mol
# GULP energy per Si atom -5574.213433 kJ/mol
# Density = 0.985406 g / cm^3
# Si number density = 9.876543 Si / 1000 Ang^3
#
#
#
# Elastic Constant Matrix: (Units=GPa)
#
#
# Indices 1 2 3 4 5 6 
#
# 1 31.9334 5.7715 24.5330 0.0023 -5.8386 -0.0014
# 2 5.7715 5.8603 30.4530 0.0024 6.4960 -0.0017
# 3 24.5330 30.4530 99.3017 -0.0024 4.9919 -0.0020
# 4 0.0023 0.0024 -0.0024 30.6106 -0.0033 1.5387
# 5 -5.8386 6.4960 4.9919 -0.0033 31.7238 0.0023
# 6 -0.0014 -0.0017 -0.0020 1.5387 0.0023 26.1979
#
#
#
# Elastic Compliance Matrix: (Units=1/GPa)
#
#
# Indices 1 2 3 4 5 6 
#
# 1 0.041020 -0.006125 -0.008768 -0.000002 0.010183 0.000000
# 2 -0.006125 -0.233710 0.071401 0.000029 0.035494 -0.000015
# 3 -0.008768 0.071401 -0.008915 -0.000007 -0.014832 0.000005
# 4 -0.000002 0.000029 -0.000007 0.032765 -0.000002 -0.001924
# 5 0.010183 0.035494 -0.014832 -0.000002 0.028462 -0.000001
# 6 0.000000 -0.000015 0.000005 -0.001924 -0.000001 0.038284
#
#
# Mechanical properties :
#
#
# Convention : Reuss Voigt Hill
#
# Bulk Modulus (GPa) = -11.28826 28.73448 8.72311
# Shear Modulus (GPa) = -20.43826 22.79565 1.17869
#
# Velocity S-wave (km/s) = -3.22014 3.40079 0.77331
# Velocity P-wave (km/s) = 4.42186 5.47712 2.28539
#
# Compressibility (1/GPa) = -0.08858758
#
# Stress axis : x y z
#
# Youngs Moduli (GPa) = 24.37837 -4.27881 -112.17470
#
# Poissons Ratio (x) = -0.02621 -0.98352
# Poissons Ratio (y) = 0.14931 8.00940
# Poissons Ratio (z) = 0.21374 0.30551
#
# Static dielectric constant tensor:
#      x y z
#    x 1.830160 0.000000 0.012360 
#    y 0.000000 1.672920 0.000000 
#    z 0.012360 0.000000 1.674460 
# 
# From -- ./inp_files/353275.got.cif
#   From: 2010.05.17/outbox.ucp.g08.bks.cvg/sg12_177_cif.got.tgz:353275.got - 2010.06.11 11:47:21.
