data_PCOD9223851
_publ_section_title
;
Structure prediction by ZEFSAII (Michael W. Deem and Ramdas Pophale) SiO2 
 PCOD9223851
Probable space group: C 2/M
;
_chemical_formula_sum "Si O2"
_cell_formula_units_Z 32
_cell_length_a 30.000000
_cell_length_b 9.000000
_cell_length_c 18.000000
_cell_angle_alpha 90.000000
_cell_angle_beta 40.000000
_cell_angle_gamma 90.000000
_cell_volume 3123.947783
_symmetry_space_group_name_H-M "C 2/M"
_symmetry_group_IT_number 12
_symmetry_cell_setting 'monoclinic'
loop_
_space_group_symop_operation_xyz
x,y,z
-x,y,-z
-x,-y,-z
x,-y,z
1/2+x,1/2+y,z
1/2-x,1/2+y,-z
1/2-x,1/2-y,-z
1/2+x,1/2-y,z
loop_
_atom_site_type_symbol
_atom_site_label
_atom_site_fract_x
_atom_site_fract_y
_atom_site_fract_z
Si Si1 0.812486 0.174895 0.097139
Si Si2 0.306278 0.679471 0.270228
Si Si3 0.842759 0.177225 0.530760
Si Si4 0.044568 0.181556 0.871824
Si Si5 0.530520 0.318113 0.725958
Si Si6 0.082240 0.827259 0.407074
Si Si7 0.892591 0.171469 0.851567
Si Si8 0.183523 0.674125 0.172863
O O1 0.823764 0.232699 0.164189
O O2 0.746617 0.241324 0.139279
O O3 0.796581 0.000000 0.128220
O O4 0.875281 0.179734 0.960514
O O5 0.302483 0.500000 0.278942
O O6 0.230841 0.743760 0.382409
O O7 0.374396 0.723416 0.228382
O O8 0.894701 0.224045 0.399336
O O9 0.884738 0.204844 0.554144
O O10 0.831905 0.000000 0.540612
O O11 0.018318 0.231961 0.825344
O O12 0.041474 0.000000 0.877018
O O13 0.000000 0.231187 0.000000
O O14 0.527097 0.500000 0.729265
O O15 0.470162 0.268372 0.746696
O O16 0.116778 0.713120 0.306631
O O17 0.000000 0.818125 0.500000
O O18 0.101129 0.000000 0.365972
O O19 0.832957 0.253760 0.884253
O O20 0.890779 0.000000 0.830268
O O21 0.194976 0.500000 0.148228
#
# Coordination Sequence:
#
# PCOD9223851 Si02
#       8
#     8   8   8   8   8   8   8   8
#     4   9  18  32  51  76 106 139 175 218 268 318
#     4  10  19  34  56  81 110 141 177 221 268 321
#     4  10  20  34  52  76 108 142 178 220 265 317
#     4   9  17  31  56  87 110 134 175 223 267 313
#     4   9  18  33  53  78 106 136 177 225 265 306
#     4  10  20  35  54  74  99 141 193 230 259 309
#     4  10  19  34  55  75 102 142 182 223 267 315
#     4  11  21  33  49  76 111 139 172 220 274 328
#
# _framework density 10.243449
#
# number of rings (size 3 to 8) (size 9 to 14) (size 15 to 20)
#    0.000    2.250    1.250    2.250    0.000    5.750 
#    0.000    3.125    0.000    1.125    0.000    0.000 
#    0.000    0.000    0.000    0.000    0.000    0.000 
#
# Total GULP energy -178247.018774 kJ/mol
# GULP energy per Si atom -5570.219337 kJ/mol
# Density = 1.022013 g / cm^3
# Si number density = 10.243449 Si / 1000 Ang^3
#
#
#
# Elastic Constant Matrix: (Units=GPa)
#
#
# Indices 1 2 3 4 5 6 
#
# 1 115.3579 18.2559 24.4118 -0.0082 -18.3361 -0.0060
# 2 18.2559 1.7868 -4.5842 -0.0167 -5.0441 -0.0059
# 3 24.4118 -4.5842 25.3360 -0.0213 -3.0628 -0.0211
# 4 -0.0082 -0.0167 -0.0213 17.5733 0.0059 -12.1819
# 5 -18.3361 -5.0441 -3.0628 0.0059 32.7228 0.0083
# 6 -0.0060 -0.0059 -0.0211 -12.1819 0.0083 2.8936
#
#
#
# Elastic Compliance Matrix: (Units=1/GPa)
#
#
# Indices 1 2 3 4 5 6 
#
# 1 0.000028 0.049855 0.010038 -0.000084 0.008640 -0.000203
# 2 0.049855 -0.210575 -0.087674 0.000480 -0.012730 0.001096
# 3 0.010038 -0.087674 0.013129 0.000047 -0.006661 0.000155
# 4 -0.000084 0.000480 0.000047 -0.029664 0.000069 -0.124881
# 5 0.008640 -0.012730 -0.006661 0.000069 0.032815 0.000138
# 6 -0.000203 0.001096 0.000155 -0.124881 0.000138 -0.180152
#
#
# Mechanical properties :
#
#
# Convention : Reuss Voigt Hill
#
# Bulk Modulus (GPa) = -3.95286 24.29420 10.17067
# Shear Modulus (GPa) = -12.40141 17.59775 2.59817
#
# Velocity S-wave (km/s) = -2.46302 2.93401 1.12737
# Velocity P-wave (km/s) = 3.16580 4.83343 2.58261
#
# Compressibility (1/GPa) = -0.25298135
#
# Stress axis : x y z
#
# Youngs Moduli (GPa) = 35551.35481 -4.74891 76.16529
#
# Poissons Ratio (x) = 0.23675 -0.76452
# Poissons Ratio (y) = -1772.39876 6.67774
# Poissons Ratio (z) = -356.85363 -0.41636
#
# Static dielectric constant tensor:
#      x y z
#    x 1.781310 0.000000 0.022360 
#    y 0.000000 1.708280 0.000010 
#    z 0.022360 0.000010 1.783670 
# 
# From -- ./inp_files/295654.got.cif
#   From: 2010.05.17/outbox.ucp.g08.bks.cvg/sg12_148_cif.got.tgz:295654.got - 2010.06.11 11:47:21.
