data_PCOD9223257
_publ_section_title
;
Structure prediction by ZEFSAII (Michael W. Deem and Ramdas Pophale) SiO2 
 PCOD9223257
Probable space group: C 2/M
;
_chemical_formula_sum "Si O2"
_cell_formula_units_Z 32
_cell_length_a 24.000000
_cell_length_b 9.000000
_cell_length_c 18.000000
_cell_angle_alpha 90.000000
_cell_angle_beta 80.000000
_cell_angle_gamma 90.000000
_cell_volume 3828.932544
_symmetry_space_group_name_H-M "C 2/M"
_symmetry_group_IT_number 12
_symmetry_cell_setting 'monoclinic'
loop_
_space_group_symop_operation_xyz
x,y,z
-x,y,-z
-x,-y,-z
x,-y,z
1/2+x,1/2+y,z
1/2-x,1/2+y,-z
1/2-x,1/2-y,-z
1/2+x,1/2-y,z
loop_
_atom_site_type_symbol
_atom_site_label
_atom_site_fract_x
_atom_site_fract_y
_atom_site_fract_z
Si Si1 0.275181 0.179083 0.067390
Si Si2 0.055718 0.320793 0.806901
Si Si3 0.906769 0.678124 0.032768
Si Si4 0.939504 0.179467 0.869499
Si Si5 0.173540 0.179951 0.193713
Si Si6 0.340758 0.179412 0.327553
Si Si7 0.311951 0.178935 0.497239
Si Si8 0.292681 0.680050 0.652127
O O1 0.340728 0.220606 0.055277
O O2 0.232864 0.226909 0.142611
O O3 0.273313 0.000000 0.064660
O O4 0.250000 0.250000 0.000000
O O5 0.050239 0.500000 0.799413
O O6 0.069605 0.291153 0.890557
O O7 0.108090 0.272150 0.739965
O O8 0.994478 0.243017 0.813644
O O9 0.911452 0.500000 0.019030
O O10 0.934501 0.758536 0.955298
O O11 0.881496 0.226692 0.840384
O O12 0.942117 0.000000 0.871118
O O13 0.176319 0.222766 0.278940
O O14 0.173023 0.000000 0.192075
O O15 0.347542 0.216940 0.414191
O O16 0.274776 0.223387 0.326051
O O17 0.340803 0.000000 0.321483
O O18 0.250000 0.250000 0.500000
O O19 0.324855 0.246010 0.575029
O O20 0.308535 0.000000 0.501302
O O21 0.293009 0.500000 0.643171
#
# Coordination Sequence:
#
# PCOD9223257 Si02
#       8
#     8   8   8   8   8   8   8   8
#     4  10  18  31  50  72  96 126 160 199 245 293
#     4  10  20  35  52  70  92 125 169 209 238 280
#     4  10  20  33  52  73  93 122 166 208 243 288
#     4  11  22  35  49  68  96 131 166 203 248 292
#     4   9  18  32  50  70  97 131 163 195 241 299
#     4   8  15  29  51  74  96 123 156 193 237 287
#     4   9  16  28  48  76 105 130 155 189 239 294
#     4   9  16  30  52  76  99 127 160 195 240 292
#
# _framework density 8.3574210000000004
#
# number of rings (size 3 to 8) (size 9 to 14) (size 15 to 20)
#    0.000    2.500    1.250    2.625    0.000    5.000 
#    0.000    5.000    0.000    3.750    0.000    5.250 
#    0.000    0.000    0.000    0.000    0.000    0.000 
#
# Total GULP energy -178140.589845 kJ/mol
# GULP energy per Si atom -5566.893433 kJ/mol
# Density = 0.833840 g / cm^3
# Si number density = 8.357421 Si / 1000 Ang^3
#
#
#
# Elastic Constant Matrix: (Units=GPa)
#
#
# Indices 1 2 3 4 5 6 
#
# 1 75.4903 16.9239 41.4583 0.0000 -18.9303 0.0000
# 2 16.9239 24.6124 27.4033 0.0000 -5.6435 0.0000
# 3 41.4583 27.4033 143.6500 0.0000 -12.9534 0.0000
# 4 0.0000 0.0000 0.0000 28.3164 0.0000 -3.1015
# 5 -18.9303 -5.6435 -12.9534 0.0000 25.1039 0.0000
# 6 0.0000 0.0000 0.0000 -3.1015 0.0000 22.0429
#
#
#
# Elastic Compliance Matrix: (Units=1/GPa)
#
#
# Indices 1 2 3 4 5 6 
#
# 1 0.019494 -0.007197 -0.003223 0.000000 0.011419 0.000000
# 2 -0.007197 0.055388 -0.008239 0.000000 0.002773 0.000000
# 3 -0.003223 -0.008239 0.009520 0.000000 0.000629 0.000000
# 4 0.000000 0.000000 0.000000 0.035868 0.000000 0.005047
# 5 0.011419 0.002773 0.000629 0.000000 0.049393 0.000000
# 6 0.000000 0.000000 0.000000 0.005047 0.000000 0.046076
#
#
# Mechanical properties :
#
#
# Convention : Reuss Voigt Hill
#
# Bulk Modulus (GPa) = 21.23908 46.14706 33.69307
# Shear Modulus (GPa) = 18.60450 25.62378 22.11414
#
# Velocity S-wave (km/s) = 3.33986 3.91960 3.64129
# Velocity P-wave (km/s) = 5.25426 6.93921 6.15467
#
# Compressibility (1/GPa) = 0.04708302
#
# Stress axis : x y z
#
# Youngs Moduli (GPa) = 51.29811 18.05455 105.04084
#
# Poissons Ratio (x) = 0.12994 0.33859
# Poissons Ratio (y) = 0.36920 0.86541
# Poissons Ratio (z) = 0.16536 0.14875
#
# Static dielectric constant tensor:
#      x y z
#    x 1.590630 0.000000 0.012150 
#    y 0.000000 1.565670 0.000000 
#    z 0.012150 0.000000 1.598840 
# 
# From -- ./inp_files/287580.got.cif
#   From: 2010.05.17/outbox.ucp.g08.bks.cvg/sg12_144_cif.got.tgz:287580.got - 2010.06.11 11:47:21.
