data_PCOD9223052
_publ_section_title
;
Structure prediction by ZEFSAII (Michael W. Deem and Ramdas Pophale) SiO2 
 PCOD9223052
Probable space group: C 2/M
;
_chemical_formula_sum "Si O2"
_cell_formula_units_Z 40
_cell_length_a 12.864741
_cell_length_b 21.050058
_cell_length_c 11.656363
_cell_angle_alpha 90.000000
_cell_angle_beta 143.700220
_cell_angle_gamma 90.000000
_cell_volume 1868.729804
_symmetry_space_group_name_H-M "C 2/M"
_symmetry_group_IT_number 12
_symmetry_cell_setting 'monoclinic'
loop_
_space_group_symop_operation_xyz
x,y,z
-x,y,-z
-x,-y,-z
x,-y,z
1/2+x,1/2+y,z
1/2-x,1/2+y,-z
1/2-x,1/2-y,-z
1/2+x,1/2-y,z
loop_
_atom_site_type_symbol
_atom_site_label
_atom_site_fract_x
_atom_site_fract_y
_atom_site_fract_z
Si Si1 0.169785 0.835325 0.460915
Si Si2 0.053212 0.426424 0.416502
Si Si3 0.383848 0.886343 0.057316
Si Si4 0.229392 0.926881 0.695752
Si Si5 0.970581 0.251712 0.839350
O O1 0.303173 0.874447 0.496085
O O2 0.114348 0.884780 0.508408
O O3 0.024794 0.804383 0.249583
O O4 0.279602 0.782813 0.634223
O O5 0.110911 0.500000 0.451199
O O6 0.000000 0.417613 0.500000
O O7 0.884644 0.413249 0.185479
O O8 0.572804 0.912063 0.176961
O O9 0.399441 0.810323 0.069100
O O10 0.245925 0.910223 0.843475
O O11 0.191843 0.000000 0.646861
O O12 0.000000 0.235219 0.000000
#
# Coordination Sequence:
#
# PCOD9223052 Si02
#       5
#     8   8   8   8   8
#     4   9  16  23  39  59  78 103 129 160 197 238
#     4   9  16  25  37  55  81 108 131 158 195 237
#     4   9  13  22  36  57  73  98 123 158 198 233
#     4   9  13  20  35  57  76  91 119 163 205 230
#     4   9  14  25  38  58  78 102 131 158 197 237
#
# _framework density 21.404913000000001
#
# number of rings (size 3 to 8) (size 9 to 14) (size 15 to 20)
#    0.000    3.400    4.000    4.200    0.000    0.000 
#    0.000    0.000    0.000    7.200    0.000    0.000 
#    0.000    0.000    0.000    6.400    0.000   67.400 
#
# Total GULP energy -111393.144882 kJ/mol
# GULP energy per Si atom -5569.657244 kJ/mol
# Density = 2.135619 g / cm^3
# Si number density = 21.404913 Si / 1000 Ang^3
#
#
#
# Elastic Constant Matrix: (Units=GPa)
#
#
# Indices 1 2 3 4 5 6 
#
# 1 56.2631 23.2424 62.8829 0.0000 -15.7171 0.0000
# 2 23.2424 116.8152 61.2376 0.0000 -27.6718 0.0000
# 3 62.8829 61.2376 167.8626 0.0000 -48.1247 0.0000
# 4 0.0000 0.0000 0.0000 34.5796 0.0000 -21.0513
# 5 -15.7171 -27.6718 -48.1247 0.0000 50.9963 0.0000
# 6 0.0000 0.0000 0.0000 -21.0513 0.0000 2.5209
#
#
#
# Elastic Compliance Matrix: (Units=1/GPa)
#
#
# Indices 1 2 3 4 5 6 
#
# 1 0.030719 -0.000312 -0.011965 0.000000 -0.001993 0.000000
# 2 -0.000312 0.010905 -0.003006 0.000000 0.002985 0.000000
# 3 -0.011965 -0.003006 0.013724 0.000000 0.007633 0.000000
# 4 0.000000 0.000000 0.000000 -0.007081 0.000000 -0.059135
# 5 -0.001993 0.002985 0.007633 0.000000 0.027818 0.000000
# 6 0.000000 0.000000 0.000000 -0.059135 0.000000 -0.097137
#
#
# Mechanical properties :
#
#
# Convention : Reuss Voigt Hill
#
# Bulk Modulus (GPa) = 40.35047 70.62963 55.49005
# Shear Modulus (GPa) = 281.31785 30.52456 155.92120
#
# Velocity S-wave (km/s) = 11.47659 3.78041 8.54411
# Velocity P-wave (km/s) = 13.94661 7.21969 11.10477
#
# Compressibility (1/GPa) = 0.02478286
#
# Stress axis : x y z
#
# Youngs Moduli (GPa) = 32.55361 91.69798 72.86323
#
# Poissons Ratio (x) = 0.02858 0.87182
# Poissons Ratio (y) = 0.01015 0.21902
# Poissons Ratio (z) = 0.38951 0.27563
#
# Static dielectric constant tensor:
#      x y z
#    x 1.878640 0.000000 0.052530 
#    y 0.000000 1.811570 0.000000 
#    z 0.052530 0.000000 1.840960 
# 
# From -- ./inp_files/159944.got.cif
#   From: 2010.05.17/outbox.cif.g08.bks.cpg/sg12_80_cif.got.tgz:159944.got - 2010.06.03 13:09:07.
