data_PCOD9223865
_publ_section_title
;
Structure prediction by ZEFSAII (Michael W. Deem and Ramdas Pophale) SiO2 
 PCOD9223865
Probable space group: C 2/M
;
_chemical_formula_sum "Si O2"
_cell_formula_units_Z 24
_cell_length_a 9.000000
_cell_length_b 24.000000
_cell_length_c 12.000000
_cell_angle_alpha 90.000000
_cell_angle_beta 70.000000
_cell_angle_gamma 90.000000
_cell_volume 2435.683273
_symmetry_space_group_name_H-M "C 2/M"
_symmetry_group_IT_number 12
_symmetry_cell_setting 'monoclinic'
loop_
_space_group_symop_operation_xyz
x,y,z
-x,y,-z
-x,-y,-z
x,-y,z
1/2+x,1/2+y,z
1/2-x,1/2+y,-z
1/2-x,1/2-y,-z
1/2+x,1/2-y,z
loop_
_atom_site_type_symbol
_atom_site_label
_atom_site_fract_x
_atom_site_fract_y
_atom_site_fract_z
Si Si1 0.860145 0.561562 0.314805
Si Si2 0.189541 0.726741 0.337094
Si Si3 0.320369 0.938029 0.903347
Si Si4 0.140340 0.937243 0.170422
Si Si5 0.654963 0.180648 0.590636
Si Si6 0.910282 0.845720 0.133293
O O1 0.868592 0.500000 0.365726
O O2 0.705263 0.564951 0.278112
O O3 0.865421 0.614962 0.391532
O O4 0.004819 0.565656 0.190180
O O5 0.220998 0.791424 0.356096
O O6 0.204829 0.696167 0.452896
O O7 0.321983 0.702289 0.222425
O O8 0.013189 0.711224 0.343906
O O9 0.221191 0.889295 0.873890
O O10 0.261605 0.000000 0.886879
O O11 0.284980 0.933737 0.043984
O O12 0.028210 0.885408 0.172506
O O13 0.071635 0.000000 0.170717
O O14 0.000000 0.824633 0.000000
#
# Coordination Sequence:
#
# PCOD9223865 Si02
#       6
#     8   8   8   8   8   8
#     4  10  19  34  56  85 116 144 186 239 283 323
#     4  10  22  41  61  83 106 150 194 227 274 338
#     4   9  16  30  52  78 113 154 191 226 273 337
#     4   9  18  30  50  81 117 157 188 220 277 342
#     4  10  22  41  63  82 108 150 194 229 273 337
#     4  10  19  34  55  83 116 144 186 235 281 326
#
# _framework density 9.8534980000000001
#
# number of rings (size 3 to 8) (size 9 to 14) (size 15 to 20)
#    0.000    2.333    1.667    1.000    2.333    4.000 
#    0.000    5.833    0.000    2.000    0.000    0.000 
#    0.000    0.000    0.000    0.000    0.000    0.000 
#
# Total GULP energy -133750.010364 kJ/mol
# GULP energy per Si atom -5572.917098 kJ/mol
# Density = 0.983107 g / cm^3
# Si number density = 9.853498 Si / 1000 Ang^3
#
#
#
# Elastic Constant Matrix: (Units=GPa)
#
#
# Indices 1 2 3 4 5 6 
#
# 1 40.9982 18.6344 19.1893 0.0000 -1.8569 0.0000
# 2 18.6344 89.8694 23.1537 0.0000 -0.2722 0.0000
# 3 19.1893 23.1537 43.2625 0.0000 -12.8210 0.0000
# 4 0.0000 0.0000 0.0000 23.4070 0.0000 -1.0031
# 5 -1.8569 -0.2722 -12.8210 0.0000 15.3469 0.0000
# 6 0.0000 0.0000 0.0000 -1.0031 0.0000 15.5849
#
#
#
# Elastic Compliance Matrix: (Units=1/GPa)
#
#
# Indices 1 2 3 4 5 6 
#
# 1 0.032575 -0.002730 -0.015728 0.000000 -0.009246 0.000000
# 2 -0.002730 0.013794 -0.008236 0.000000 -0.006966 0.000000
# 3 -0.015728 -0.008236 0.045043 0.000000 0.035580 0.000000
# 4 0.000000 0.000000 0.000000 0.042840 0.000000 0.002757
# 5 -0.009246 -0.006966 0.035580 0.000000 0.093642 0.000000
# 6 0.000000 0.000000 0.000000 0.002757 0.000000 0.064342
#
#
# Mechanical properties :
#
#
# Convention : Reuss Voigt Hill
#
# Bulk Modulus (GPa) = 26.29898 32.89833 29.59865
# Shear Modulus (GPa) = 13.95483 18.41127 16.18305
#
# Velocity S-wave (km/s) = 2.66393 3.05987 2.86874
# Velocity P-wave (km/s) = 4.77870 5.40497 5.10146
#
# Compressibility (1/GPa) = 0.03802429
#
# Stress axis : x y z
#
# Youngs Moduli (GPa) = 30.69846 72.49437 22.20106
#
# Poissons Ratio (x) = 0.19794 0.34917
# Poissons Ratio (y) = 0.08382 0.18285
# Poissons Ratio (z) = 0.48281 0.59705
#
# Static dielectric constant tensor:
#      x y z
#    x 1.734920 0.000000 0.017840 
#    y 0.000000 1.681780 0.000000 
#    z 0.017840 0.000000 1.678730 
# 
# From -- ./inp_files/122006.got.cif
#   From: 2010.05.17/outbox.ucp.g08.bks.cvg/sg12_62_cif.got.tgz:122006.got - 2010.06.11 11:47:21.
