data_PCOD9223177
_publ_section_title
;
Structure prediction by ZEFSAII (Michael W. Deem and Ramdas Pophale) SiO2 
 PCOD9223177
Probable space group: C 2/M
;
_chemical_formula_sum "Si O2"
_cell_formula_units_Z 30
_cell_length_a 15.000000
_cell_length_b 21.000000
_cell_length_c 21.000000
_cell_angle_alpha 90.000000
_cell_angle_beta 150.000000
_cell_angle_gamma 90.000000
_cell_volume 3307.500000
_symmetry_space_group_name_H-M "C 2/M"
_symmetry_group_IT_number 12
_symmetry_cell_setting 'monoclinic'
loop_
_space_group_symop_operation_xyz
x,y,z
-x,y,-z
-x,-y,-z
x,-y,z
1/2+x,1/2+y,z
1/2-x,1/2+y,-z
1/2-x,1/2-y,-z
1/2+x,1/2-y,z
loop_
_atom_site_type_symbol
_atom_site_label
_atom_site_fract_x
_atom_site_fract_y
_atom_site_fract_z
Si Si1 0.667020 0.571764 0.966795
Si Si2 0.551543 0.766509 0.200087
Si Si3 0.709518 0.353261 0.119058
Si Si4 0.500000 0.837327 0.500000
Si Si5 0.813840 0.772435 0.244965
Si Si6 0.737685 0.328330 0.920454
Si Si7 0.747013 0.929580 0.732208
Si Si8 0.821216 0.231056 0.474800
O O1 0.729866 0.500000 0.017630
O O2 0.718520 0.599088 0.930266
O O3 0.453042 0.571779 0.839292
O O4 0.730198 0.620996 0.060693
O O5 0.689324 0.752991 0.227570
O O6 0.440534 0.709070 0.164618
O O7 0.673066 0.796170 0.333236
O O8 0.400343 0.802233 0.064378
O O9 0.829596 0.293943 0.214933
O O10 0.750101 0.410208 0.192226
O O11 0.500000 0.334750 0.000000
O O12 0.633259 0.880297 0.622381
O O13 0.388394 0.793220 0.478531
O O14 0.743299 0.816717 0.143437
O O15 0.990565 0.801285 0.387859
O O16 0.674631 0.000000 0.678452
O O17 0.750000 0.250000 0.500000
#
# Coordination Sequence:
#
# PCOD9223177 Si02
#       8
#     8   8   8   4   8   8   8   8
#     4  10  21  35  52  76 109 144 183 230 276 323
#     4  11  21  37  54  85 114 147 180 224 283 333
#     4  10  17  31  52  77 105 140 177 220 272 328
#     4  12  21  36  54  72 116 156 179 228 270 330
#     4  12  21  35  57  83 113 146 182 227 280 342
#     4  11  22  34  58  82 113 142 186 231 274 338
#     4  10  20  33  51  77 107 148 192 219 263 333
#     4  12  23  35  52  81 115 152 183 221 278 338
#
# _framework density 9.0702949999999998
#
# number of rings (size 3 to 8) (size 9 to 14) (size 15 to 20)
#    0.000    1.067    4.000    5.800    0.000    1.600 
#    0.000    0.000    0.000    1.600    0.000    0.000 
#    0.000    2.133    0.000    0.533    0.000    0.000 
#
# Total GULP energy -167096.957761 kJ/mol
# GULP energy per Si atom -5569.898592 kJ/mol
# Density = 0.904965 g / cm^3
# Si number density = 9.070295 Si / 1000 Ang^3
#
#
#
# Elastic Constant Matrix: (Units=GPa)
#
#
# Indices 1 2 3 4 5 6 
#
# 1 96.3326 24.2769 30.7494 -0.0013 -18.8839 0.0009
# 2 24.2769 33.0636 9.9671 0.0004 -9.9363 0.0001
# 3 30.7494 9.9671 116.1866 0.0060 -24.9391 0.0009
# 4 -0.0013 0.0004 0.0060 12.6585 0.0008 -1.9329
# 5 -18.8839 -9.9363 -24.9391 0.0008 32.6159 0.0005
# 6 0.0009 0.0001 0.0009 -1.9329 0.0005 5.5918
#
#
#
# Elastic Compliance Matrix: (Units=1/GPa)
#
#
# Indices 1 2 3 4 5 6 
#
# 1 0.013947 -0.008433 -0.002137 0.000002 0.003872 -0.000001
# 2 -0.008433 0.038456 0.000478 -0.000003 0.007198 -0.000001
# 3 -0.002137 0.000478 0.010644 -0.000006 0.007047 -0.000004
# 4 0.000002 -0.000003 -0.000006 0.083400 -0.000007 0.028828
# 5 0.003872 0.007198 0.007047 -0.000007 0.040483 -0.000008
# 6 -0.000001 -0.000001 -0.000004 0.028828 -0.000008 0.188799
#
#
# Mechanical properties :
#
#
# Convention : Reuss Voigt Hill
#
# Bulk Modulus (GPa) = 23.32964 41.72997 32.52981
# Shear Modulus (GPa) = 12.18918 22.21251 17.20085
#
# Velocity S-wave (km/s) = 2.59497 3.50303 3.08262
# Velocity P-wave (km/s) = 4.67620 6.27815 5.53544
#
# Compressibility (1/GPa) = 0.04286392
#
# Stress axis : x y z
#
# Youngs Moduli (GPa) = 71.70045 26.00398 93.94993
#
# Poissons Ratio (x) = 0.21928 0.20073
# Poissons Ratio (y) = 0.60463 -0.04490
# Poissons Ratio (z) = 0.15319 -0.01243
#
# Static dielectric constant tensor:
#      x y z
#    x 1.658000 0.000000 0.033940 
#    y 0.000000 1.634790 0.000000 
#    z 0.033940 0.000000 1.698200 
# 
# From -- ./inp_files/312172.got.cif
#   From: 2010.05.17/outbox.ucp.g08.bks.cvg/sg12_157_cif.got.tgz:312172.got - 2010.06.11 11:47:21.
