data_PCOD9223941
_publ_section_title
;
Structure prediction by ZEFSAII (Michael W. Deem and Ramdas Pophale) SiO2 
 PCOD9223941
Probable space group: C 2/M
;
_chemical_formula_sum "Si O2"
_cell_formula_units_Z 32
_cell_length_a 30.000000
_cell_length_b 9.000000
_cell_length_c 24.000000
_cell_angle_alpha 90.000000
_cell_angle_beta 30.000000
_cell_angle_gamma 90.000000
_cell_volume 3240.000000
_symmetry_space_group_name_H-M "C 2/M"
_symmetry_group_IT_number 12
_symmetry_cell_setting 'monoclinic'
loop_
_space_group_symop_operation_xyz
x,y,z
-x,y,-z
-x,-y,-z
x,-y,z
1/2+x,1/2+y,z
1/2-x,1/2+y,-z
1/2-x,1/2-y,-z
1/2+x,1/2-y,z
loop_
_atom_site_type_symbol
_atom_site_label
_atom_site_fract_x
_atom_site_fract_y
_atom_site_fract_z
Si Si1 0.466253 0.828120 0.972743
Si Si2 0.776016 0.322436 0.612072
Si Si3 0.597739 0.322934 0.743751
Si Si4 0.270846 0.179344 0.221681
Si Si5 0.970647 0.179104 0.387559
Si Si6 0.519383 0.177341 0.219201
Si Si7 0.140825 0.819905 0.268627
Si Si8 0.717595 0.178778 0.977881
O O1 0.530945 0.728366 0.865556
O O2 0.472066 0.000000 0.946236
O O3 0.500000 0.825245 0.000000
O O4 0.361653 0.786682 0.089382
O O5 0.787194 0.500000 0.601723
O O6 0.699978 0.287754 0.648657
O O7 0.733780 0.262505 0.715139
O O8 0.872031 0.246647 0.499792
O O9 0.590076 0.500000 0.744055
O O10 0.562621 0.235065 0.728401
O O11 0.182805 0.221476 0.282242
O O12 0.271984 0.000000 0.229229
O O13 0.014895 0.238608 0.282771
O O14 0.041191 0.225216 0.359455
O O15 0.964664 0.000000 0.393320
O O16 0.612351 0.212791 0.086681
O O17 0.515541 0.000000 0.231828
O O18 0.140841 0.000000 0.267341
O O19 0.214666 0.770421 0.143404
O O20 0.724415 0.000000 0.973418
O O21 0.750000 0.250000 0.000000
#
# Coordination Sequence:
#
# PCOD9223941 Si02
#       8
#     8   8   8   8   8   8   8   8
#     4  10  19  34  61  93 123 155 193 239 293 355
#     4  11  25  43  60  84 118 155 201 253 300 348
#     4  11  24  40  61  87 121 160 198 244 298 357
#     4  10  20  38  63  89 120 158 196 238 293 355
#     4  11  23  41  64  86 115 157 203 248 296 353
#     4  11  23  39  63  92 123 156 195 245 298 352
#     4   9  19  36  60  89 120 154 195 237 285 350
#     4  10  19  35  60  90 124 157 190 235 290 350
#
# _framework density 9.8765429999999999
#
# number of rings (size 3 to 8) (size 9 to 14) (size 15 to 20)
#    0.000    1.625    2.500    2.250    0.000    5.750 
#    0.000    4.375    0.000    0.000    0.000    0.000 
#    0.000    0.000    0.000    0.000    0.000    0.000 
#
# Total GULP energy -178743.954824 kJ/mol
# GULP energy per Si atom -5585.748588 kJ/mol
# Density = 0.985406 g / cm^3
# Si number density = 9.876543 Si / 1000 Ang^3
#
#
#
# Elastic Constant Matrix: (Units=GPa)
#
#
# Indices 1 2 3 4 5 6 
#
# 1 95.7675 20.8915 8.5599 0.0033 -37.4168 -0.0041
# 2 20.8915 43.2565 22.6640 0.0196 -19.6992 -0.0122
# 3 8.5599 22.6640 66.7302 0.0093 -36.7386 -0.0074
# 4 0.0033 0.0196 0.0093 34.1505 -0.0012 0.8134
# 5 -37.4168 -19.6992 -36.7386 -0.0012 37.5183 0.0013
# 6 -0.0041 -0.0122 -0.0074 0.8134 0.0013 22.0461
#
#
#
# Elastic Compliance Matrix: (Units=1/GPa)
#
#
# Indices 1 2 3 4 5 6 
#
# 1 0.031017 -0.004123 0.028770 -0.000007 0.056940 0.000010
# 2 -0.004123 0.031277 -0.007196 -0.000016 0.005264 0.000014
# 3 0.028770 -0.007196 0.059571 -0.000012 0.083247 0.000017
# 4 -0.000007 -0.000016 -0.000012 0.029308 -0.000026 -0.001081
# 5 0.056940 0.005264 0.083247 -0.000026 0.167720 0.000032
# 6 0.000010 0.000014 0.000017 -0.001081 0.000032 0.045399
#
#
# Mechanical properties :
#
#
# Convention : Reuss Voigt Hill
#
# Bulk Modulus (GPa) = 6.37891 34.44277 20.41084
# Shear Modulus (GPa) = 13.10118 28.98556 21.04337
#
# Velocity S-wave (km/s) = 2.57815 3.83481 3.26747
# Velocity P-wave (km/s) = 3.47834 6.08952 4.95888
#
# Compressibility (1/GPa) = 0.15676652
#
# Stress axis : x y z
#
# Youngs Moduli (GPa) = 32.24084 31.97272 16.78666
#
# Poissons Ratio (x) = 0.13183 -0.48295
# Poissons Ratio (y) = 0.13294 0.12079
# Poissons Ratio (z) = -0.92757 0.23007
#
# Static dielectric constant tensor:
#      x y z
#    x 1.731860 0.000000 -0.007000 
#    y 0.000000 1.654870 0.000000 
#    z -0.007000 0.000000 1.684080 
# 
# From -- ./inp_files/353411.got.cif
#   From: 2010.05.17/outbox.ucp.g08.bks.cvg/sg12_177_cif.got.tgz:353411.got - 2010.06.11 11:47:21.
