data_PCOD9223399
_publ_section_title
;
Structure prediction by ZEFSAII (Michael W. Deem and Ramdas Pophale) SiO2 
 PCOD9223399
Probable space group: C 2/M
;
_chemical_formula_sum "Si O2"
_cell_formula_units_Z 28
_cell_length_a 15.000000
_cell_length_b 9.000000
_cell_length_c 21.000000
_cell_angle_alpha 90.000000
_cell_angle_beta 90.000000
_cell_angle_gamma 90.000000
_cell_volume 2835.000000
_symmetry_space_group_name_H-M "C 2/M"
_symmetry_group_IT_number 12
_symmetry_cell_setting 'monoclinic'
loop_
_space_group_symop_operation_xyz
x,y,z
-x,y,-z
-x,-y,-z
x,-y,z
1/2+x,1/2+y,z
1/2-x,1/2+y,-z
1/2-x,1/2-y,-z
1/2+x,1/2-y,z
loop_
_atom_site_type_symbol
_atom_site_label
_atom_site_fract_x
_atom_site_fract_y
_atom_site_fract_z
Si Si1 0.673942 0.174948 0.413120
Si Si2 0.995327 0.178714 0.214925
Si Si3 0.015627 0.821286 0.353275
Si Si4 0.130758 0.177333 0.547342
Si Si5 0.142558 0.676978 0.877713
Si Si6 0.166289 0.819980 0.147103
Si Si7 0.106736 0.173455 0.007063
O O1 0.613985 0.257963 0.361963
O O2 0.779841 0.200883 0.411274
O O3 0.643264 0.236471 0.481870
O O4 0.658210 0.000000 0.409456
O O5 0.972760 0.225050 0.286361
O O6 0.096574 0.224627 0.200178
O O7 0.937333 0.248241 0.159564
O O8 0.988271 0.000000 0.210426
O O9 0.954433 0.775139 0.412376
O O10 0.019645 0.000000 0.353663
O O11 0.124322 0.000000 0.533608
O O12 0.134493 0.500000 0.876092
O O13 0.233131 0.727105 0.843498
O O14 0.146911 0.730854 0.950315
O O15 0.133687 0.772983 0.077013
O O16 0.165704 0.000000 0.145386
O O17 0.133196 0.000000 0.000179
O O18 0.000000 0.179987 0.000000
#
# Coordination Sequence:
#
# PCOD9223399 Si02
#       7
#     8   8   8   8   8   8   8
#     4  10  20  34  55  82 112 142 174 219 270 317
#     4  10  21  40  58  74 103 147 188 213 255 326
#     4  10  21  36  57  79 104 143 184 221 260 312
#     4   9  19  36  55  80 112 142 176 219 266 315
#     4  11  22  35  54  82 111 135 171 227 276 307
#     4   9  19  36  56  78 106 140 176 217 265 320
#     4  10  18  34  60  80 103 142 179 213 262 324
#
# _framework density 9.8765429999999999
#
# number of rings (size 3 to 8) (size 9 to 14) (size 15 to 20)
#    0.000    2.143    1.429    1.714    0.000    4.857 
#    0.000    2.143    0.000    0.000    0.000    0.000 
#    0.000    0.000    0.000    0.000    0.000    0.000 
#
# Total GULP energy -156189.983015 kJ/mol
# GULP energy per Si atom -5578.213679 kJ/mol
# Density = 0.985406 g / cm^3
# Si number density = 9.876543 Si / 1000 Ang^3
#
#
#
# Elastic Constant Matrix: (Units=GPa)
#
#
# Indices 1 2 3 4 5 6 
#
# 1 61.0949 11.9848 7.3204 0.0000 -11.0140 0.0000
# 2 11.9848 7.7829 6.4748 0.0000 -2.6183 0.0000
# 3 7.3204 6.4748 30.0607 0.0000 7.8273 0.0000
# 4 0.0000 0.0000 0.0000 13.5620 0.0000 6.8623
# 5 -11.0140 -2.6183 7.8273 0.0000 5.7066 0.0000
# 6 0.0000 0.0000 0.0000 6.8623 0.0000 19.8395
#
#
#
# Elastic Compliance Matrix: (Units=1/GPa)
#
#
# Indices 1 2 3 4 5 6 
#
# 1 -0.326794 -1.160248 0.983645 0.000000 -2.512277 0.000000
# 2 -1.160248 -3.372059 3.103069 0.000000 -8.042784 0.000000
# 3 0.983645 3.103069 -2.706243 0.000000 7.034213 0.000000
# 4 0.000000 0.000000 0.000000 0.089379 0.000000 -0.030915
# 5 -2.512277 -8.042784 7.034213 0.000000-18.012146 0.000000
# 6 0.000000 0.000000 0.000000 -0.030915 0.000000 0.061098
#
#
# Mechanical properties :
#
#
# Convention : Reuss Voigt Hill
#
# Bulk Modulus (GPa) = -1.81106 16.72205 7.45550
# Shear Modulus (GPa) = -0.16500 12.69885 6.26693
#
# Velocity S-wave (km/s) = -0.28933 2.53826 1.78312
# Velocity P-wave (km/s) = 1.01511 4.13210 2.83230
#
# Compressibility (1/GPa) = -0.55216276
#
# Stress axis : x y z
#
# Youngs Moduli (GPa) = -3.06003 -0.29655 -0.36952
#
# Poissons Ratio (x) = -0.34408 0.36347
# Poissons Ratio (y) = -3.55039 1.14663
# Poissons Ratio (z) = 3.00998 0.92023
#
# Static dielectric constant tensor:
#      x y z
#    x 1.717460 0.000000 -0.006690 
#    y 0.000000 1.659290 0.000000 
#    z -0.006690 0.000000 1.693720 
# 
# From -- ./inp_files/308909.got.cif
#   From: 2010.05.17/outbox.ucp.g08.bks.cvg/sg12_155_cif.got.tgz:308909.got - 2010.06.11 11:47:21.
