data_PCOD9223485
_publ_section_title
;
Structure prediction by ZEFSAII (Michael W. Deem and Ramdas Pophale) SiO2 
 PCOD9223485
Probable space group: C 2/M
;
_chemical_formula_sum "Si O2"
_cell_formula_units_Z 28
_cell_length_a 30.000000
_cell_length_b 9.000000
_cell_length_c 15.000000
_cell_angle_alpha 90.000000
_cell_angle_beta 70.000000
_cell_angle_gamma 90.000000
_cell_volume 3805.755114
_symmetry_space_group_name_H-M "C 2/M"
_symmetry_group_IT_number 12
_symmetry_cell_setting 'monoclinic'
loop_
_space_group_symop_operation_xyz
x,y,z
-x,y,-z
-x,-y,-z
x,-y,z
1/2+x,1/2+y,z
1/2-x,1/2+y,-z
1/2-x,1/2-y,-z
1/2+x,1/2-y,z
loop_
_atom_site_type_symbol
_atom_site_label
_atom_site_fract_x
_atom_site_fract_y
_atom_site_fract_z
Si Si1 0.633292 0.825102 0.302533
Si Si2 0.133785 0.819815 0.588439
Si Si3 0.811317 0.177831 0.887608
Si Si4 0.210971 0.323395 0.403384
Si Si5 0.556202 0.320782 0.486037
Si Si6 0.788846 0.820657 0.106053
Si Si7 0.187974 0.318432 0.716510
O O1 0.646254 0.743211 0.201511
O O2 0.680006 0.813423 0.333807
O O3 0.590030 0.752376 0.387566
O O4 0.624223 0.000000 0.294398
O O5 0.177205 0.756573 0.498655
O O6 0.084899 0.784718 0.562144
O O7 0.146546 0.746929 0.677755
O O8 0.135742 0.000000 0.594714
O O9 0.763324 0.254497 0.881776
O O10 0.807517 0.000000 0.877863
O O11 0.815279 0.204717 0.992068
O O12 0.217466 0.500000 0.419264
O O13 0.261465 0.242353 0.356818
O O14 0.500000 0.281592 0.500000
O O15 0.558455 0.500000 0.478902
O O16 0.810604 0.744485 0.181086
O O17 0.785737 0.000000 0.122905
O O18 0.186623 0.500000 0.717460
#
# Coordination Sequence:
#
# PCOD9223485 Si02
#       7
#     8   8   8   8   8   8   8
#     4  10  19  30  49  73 100 131 163 200 241 289
#     4  10  20  33  49  68  94 125 159 199 242 290
#     4  10  19  31  48  69  96 130 167 204 241 283
#     4  10  19  31  45  65  95 129 165 200 234 279
#     4   9  19  36  56  76  97 123 159 202 247 295
#     4  10  20  32  46  67  96 131 169 206 240 278
#     4  12  22  31  45  66  95 132 168 199 237 283
#
# _framework density 7.357278
#
# number of rings (size 3 to 8) (size 9 to 14) (size 15 to 20)
#    0.000    1.857    1.429    3.857    0.000    3.714 
#    0.000    0.000    0.000    0.000    0.000    1.000 
#    0.000    8.000    0.000    0.000    0.000    0.000 
#
# Total GULP energy -155925.474115 kJ/mol
# GULP energy per Si atom -5568.766933 kJ/mol
# Density = 0.734053 g / cm^3
# Si number density = 7.357278 Si / 1000 Ang^3
#
#
#
# Elastic Constant Matrix: (Units=GPa)
#
#
# Indices 1 2 3 4 5 6 
#
# 1 102.4642 37.4240 43.9612 0.0000 10.7540 0.0000
# 2 37.4240 103.6808 44.8653 0.0000 8.9939 0.0000
# 3 43.9612 44.8653 107.5761 0.0000 19.1651 0.0000
# 4 0.0000 0.0000 0.0000 29.0390 0.0000 3.8510
# 5 10.7540 8.9939 19.1651 0.0000 27.8472 0.0000
# 6 0.0000 0.0000 0.0000 3.8510 0.0000 25.0204
#
#
#
# Elastic Compliance Matrix: (Units=1/GPa)
#
#
# Indices 1 2 3 4 5 6 
#
# 1 0.012514 -0.002795 -0.003702 0.000000 -0.001382 0.000000
# 2 -0.002795 0.012399 -0.003998 0.000000 -0.000174 0.000000
# 3 -0.003702 -0.003998 0.013667 0.000000 -0.006685 0.000000
# 4 0.000000 0.000000 0.000000 0.035154 0.000000 -0.005411
# 5 -0.001382 -0.000174 -0.006685 0.000000 0.041101 0.000000
# 6 0.000000 0.000000 0.000000 -0.005411 0.000000 0.040800
#
#
# Mechanical properties :
#
#
# Convention : Reuss Voigt Hill
#
# Bulk Modulus (GPa) = 56.85101 62.91355 59.88228
# Shear Modulus (GPa) = 27.39914 28.87934 28.13924
#
# Velocity S-wave (km/s) = 4.31982 4.43497 4.37778
# Velocity P-wave (km/s) = 7.97502 8.31108 8.14478
#
# Compressibility (1/GPa) = 0.01758984
#
# Stress axis : x y z
#
# Youngs Moduli (GPa) = 79.91263 80.65199 73.16995
#
# Poissons Ratio (x) = 0.22543 0.27086
# Poissons Ratio (y) = 0.22336 0.29253
# Poissons Ratio (z) = 0.29582 0.32244
#
# Static dielectric constant tensor:
#      x y z
#    x 1.487120 0.000000 0.021460 
#    y 0.000000 1.495200 0.000000 
#    z 0.021460 0.000000 1.521440 
# 
# From -- ./inp_files/243046.got.cif
#   From: 2010.05.17/outbox.ucp.g08.bks.cvg/sg12_122_cif.got.tgz:243046.got - 2010.06.11 11:47:21.
