data_PCOD9223561
_publ_section_title
;
Structure prediction by ZEFSAII (Michael W. Deem and Ramdas Pophale) SiO2 
 PCOD9223561
Probable space group: C 2/M
;
_chemical_formula_sum "Si O2"
_cell_formula_units_Z 32
_cell_length_a 30.000000
_cell_length_b 9.000000
_cell_length_c 15.000000
_cell_angle_alpha 90.000000
_cell_angle_beta 120.000000
_cell_angle_gamma 90.000000
_cell_volume 3507.402885
_symmetry_space_group_name_H-M "C 2/M"
_symmetry_group_IT_number 12
_symmetry_cell_setting 'monoclinic'
loop_
_space_group_symop_operation_xyz
x,y,z
-x,y,-z
-x,-y,-z
x,-y,z
1/2+x,1/2+y,z
1/2-x,1/2+y,-z
1/2-x,1/2-y,-z
1/2+x,1/2-y,z
loop_
_atom_site_type_symbol
_atom_site_label
_atom_site_fract_x
_atom_site_fract_y
_atom_site_fract_z
Si Si1 0.791114 0.672070 0.978271
Si Si2 0.974895 0.680405 0.244451
Si Si3 0.843360 0.178296 0.368037
Si Si4 0.048148 0.680650 0.985218
Si Si5 0.246043 0.319473 0.396165
Si Si6 0.367694 0.172916 0.213574
Si Si7 0.336173 0.181206 0.837199
Si Si8 0.460264 0.320484 0.540802
O O1 0.776074 0.500000 0.953064
O O2 0.841911 0.679451 0.090385
O O3 0.750000 0.750000 0.000000
O O4 0.803451 0.730479 0.891875
O O5 0.978363 0.500000 0.248541
O O6 0.925448 0.726582 0.254201
O O7 0.021971 0.749406 0.347347
O O8 0.964286 0.725148 0.130378
O O9 0.796785 0.222416 0.387782
O O10 0.838725 0.240681 0.262901
O O11 0.901066 0.221546 0.458465
O O12 0.841888 0.000000 0.361722
O O13 0.049923 0.500000 0.985696
O O14 0.104114 0.727401 0.082555
O O15 0.000000 0.724719 0.000000
O O16 0.245470 0.500000 0.403943
O O17 0.250000 0.250000 0.500000
O O18 0.195383 0.277139 0.284747
O O19 0.368674 0.000000 0.240920
O O20 0.336700 0.000000 0.838578
O O21 0.500000 0.277278 0.500000
O O22 0.462484 0.500000 0.549913
#
# Coordination Sequence:
#
# PCOD9223561 Si02
#       8
#     8   8   8   8   8   8   8   8
#     4  10  19  32  51  77 109 141 175 214 263 318
#     4  10  19  32  52  80 110 139 176 224 275 314
#     4  10  21  37  55  78 107 145 187 220 262 325
#     4   9  17  31  53  80 108 138 174 216 262 318
#     4  10  22  39  59  79 104 140 181 225 267 311
#     4  10  19  31  51  79 111 140 170 223 278 315
#     4   9  17  33  54  75 103 139 174 211 261 317
#     4  10  20  34  52  75 108 148 185 218 261 324
#
# _framework density 9.1235599999999994
#
# number of rings (size 3 to 8) (size 9 to 14) (size 15 to 20)
#    0.000    2.250    2.500    0.750    0.000    3.750 
#    0.000    1.875    0.000    1.125    0.000    0.000 
#    0.000    0.000    0.000    0.000    0.000    0.000 
#
# Total GULP energy -178320.288382 kJ/mol
# GULP energy per Si atom -5572.509012 kJ/mol
# Density = 0.910279 g / cm^3
# Si number density = 9.123560 Si / 1000 Ang^3
#
#
#
# Elastic Constant Matrix: (Units=GPa)
#
#
# Indices 1 2 3 4 5 6 
#
# 1 107.3024 14.7600 59.6280 0.0000 -10.8094 0.0000
# 2 14.7600 6.7521 20.1330 0.0000 -3.6511 0.0000
# 3 59.6280 20.1330 148.1216 0.0000 -15.3926 0.0000
# 4 0.0000 0.0000 0.0000 28.6914 0.0000 -3.6252
# 5 -10.8094 -3.6511 -15.3926 0.0000 35.6265 0.0000
# 6 0.0000 0.0000 0.0000 -3.6252 0.0000 18.8408
#
#
#
# Elastic Compliance Matrix: (Units=1/GPa)
#
#
# Indices 1 2 3 4 5 6 
#
# 1 0.013861 -0.022646 -0.002414 0.000000 0.000842 0.000000
# 2 -0.022646 0.290535 -0.029310 0.000000 0.010240 0.000000
# 3 -0.002414 -0.029310 0.011851 0.000000 0.001384 0.000000
# 4 0.000000 0.000000 0.000000 0.035722 0.000000 0.006873
# 5 0.000842 0.010240 0.001384 0.000000 0.029972 0.000000
# 6 0.000000 0.000000 0.000000 0.006873 0.000000 0.054399
#
#
# Mechanical properties :
#
#
# Convention : Reuss Voigt Hill
#
# Bulk Modulus (GPa) = 4.81910 50.13533 27.47721
# Shear Modulus (GPa) = 8.14004 27.80877 17.97440
#
# Velocity S-wave (km/s) = 2.11440 3.90809 3.14196
# Velocity P-wave (km/s) = 2.93388 6.92096 5.31542
#
# Compressibility (1/GPa) = 0.20750756
#
# Stress axis : x y z
#
# Youngs Moduli (GPa) = 72.14533 3.44192 84.38254
#
# Poissons Ratio (x) = 0.07794 0.20373
# Poissons Ratio (y) = 1.63377 2.47323
# Poissons Ratio (z) = 0.17419 0.10088
#
# Static dielectric constant tensor:
#      x y z
#    x 1.659350 0.000000 0.038530 
#    y 0.000000 1.618540 0.000000 
#    z 0.038530 0.000000 1.653420 
# 
# From -- ./inp_files/249195.got.cif
#   From: 2010.05.17/outbox.ucp.g08.bks.cvg/sg12_125_cif.got.tgz:249195.got - 2010.06.11 11:47:21.
