data_PCOD9223841
_publ_section_title
;
Structure prediction by ZEFSAII (Michael W. Deem and Ramdas Pophale) SiO2 
 PCOD9223841
Probable space group: C 2/M
;
_chemical_formula_sum "Si O2"
_cell_formula_units_Z 24
_cell_length_a 30.000000
_cell_length_b 9.000000
_cell_length_c 9.000000
_cell_angle_alpha 90.000000
_cell_angle_beta 90.000000
_cell_angle_gamma 90.000000
_cell_volume 2430.000000
_symmetry_space_group_name_H-M "C 2/M"
_symmetry_group_IT_number 12
_symmetry_cell_setting 'monoclinic'
loop_
_space_group_symop_operation_xyz
x,y,z
-x,y,-z
-x,-y,-z
x,-y,z
1/2+x,1/2+y,z
1/2-x,1/2+y,-z
1/2-x,1/2-y,-z
1/2+x,1/2-y,z
loop_
_atom_site_type_symbol
_atom_site_label
_atom_site_fract_x
_atom_site_fract_y
_atom_site_fract_z
Si Si1 0.935429 0.821625 0.347241
Si Si2 0.847206 0.822780 0.148600
Si Si3 0.478517 0.331638 0.836595
Si Si4 0.613652 0.164759 0.117833
Si Si5 0.627567 0.832552 0.457186
Si Si6 0.289613 0.324397 0.408524
O O1 0.894223 0.790017 0.233892
O O2 0.920290 0.731411 0.491971
O O3 0.982562 0.778991 0.274919
O O4 0.936234 0.000000 0.372577
O O5 0.803950 0.771877 0.242485
O O6 0.844702 0.000000 0.140421
O O7 0.853967 0.754841 0.988436
O O8 0.466109 0.500000 0.791313
O O9 0.434543 0.237030 0.858793
O O10 0.500000 0.339550 0.000000
O O11 0.632462 0.157068 0.282456
O O12 0.608288 0.000000 0.054497
O O13 0.664490 0.716294 0.509273
O O14 0.633915 0.000000 0.519624
O O15 0.281804 0.500000 0.404414
O O16 0.250000 0.250000 0.500000
#
# Coordination Sequence:
#
# PCOD9223841 Si02
#       6
#     8   8   8   8   8   8
#     4   9  18  34  55  78 103 142 192 232 271 320
#     4   9  18  35  57  80 108 141 180 222 267 322
#     4  10  19  34  54  76 107 145 189 235 272 316
#     4  11  23  35  51  80 114 148 184 225 273 318
#     4  10  22  38  54  78 115 148 178 223 273 321
#     4  10  21  39  64  89 109 136 176 219 268 328
#
# _framework density 9.8765429999999999
#
# number of rings (size 3 to 8) (size 9 to 14) (size 15 to 20)
#    0.000    2.167    1.667    2.500    0.000    7.667 
#    0.000    4.167    0.000    0.000    0.000    0.000 
#    0.000    0.000    0.000    0.000    0.000    0.000 
#
# Total GULP energy -133729.133831 kJ/mol
# GULP energy per Si atom -5572.047243 kJ/mol
# Density = 0.985406 g / cm^3
# Si number density = 9.876543 Si / 1000 Ang^3
#
#
#
# Elastic Constant Matrix: (Units=GPa)
#
#
# Indices 1 2 3 4 5 6 
#
# 1 70.2735 5.7564 30.4127 0.0000 -51.3502 0.0000
# 2 5.7564 1.2582 23.8861 0.0000 -21.5843 0.0000
# 3 30.4127 23.8861 94.3790 0.0000 -45.5786 0.0000
# 4 0.0000 0.0000 0.0000 16.4608 0.0000 2.2698
# 5 -51.3502 -21.5843 -45.5786 0.0000 44.1142 0.0000
# 6 0.0000 0.0000 0.0000 2.2698 0.0000 18.7834
#
#
#
# Elastic Compliance Matrix: (Units=1/GPa)
#
#
# Indices 1 2 3 4 5 6 
#
# 1 0.027267 -0.054237 0.014874 0.000000 0.020571 0.000000
# 2 -0.054237 0.000994 -0.026003 0.000000 -0.089513 0.000000
# 3 0.014874 -0.026003 0.029141 0.000000 0.034700 0.000000
# 4 0.000000 0.000000 0.000000 0.061780 0.000000 -0.007465
# 5 0.020571 -0.089513 0.034700 0.000000 0.038669 0.000000
# 6 0.000000 0.000000 0.000000 -0.007465 0.000000 0.054140
#
#
# Mechanical properties :
#
#
# Convention : Reuss Voigt Hill
#
# Bulk Modulus (GPa) = -13.63746 31.78012 9.07133
# Shear Modulus (GPa) = 15.70950 22.92873 19.31911
#
# Velocity S-wave (km/s) = 2.82315 3.41070 3.13074
# Velocity P-wave (km/s) = 1.92561 5.62442 4.20369
#
# Compressibility (1/GPa) = -0.07332742
#
# Stress axis : x y z
#
# Youngs Moduli (GPa) = 36.67406 1006.05684 34.31567
#
# Poissons Ratio (x) = 54.56505 -0.51043
# Poissons Ratio (y) = 1.98907 0.89230
# Poissons Ratio (z) = -0.54551 26.16028
#
# Static dielectric constant tensor:
#      x y z
#    x 1.687370 0.000000 0.003420 
#    y 0.000000 1.684140 0.000000 
#    z 0.003420 0.000000 1.769850 
# 
# From -- ./inp_files/108760.got.cif
#   From: 2010.05.17/outbox.ucp.g08.bks.cvg/sg12_55_cif.got.tgz:108760.got - 2010.06.11 11:47:21.
