data_PCOD9223327
_publ_section_title
;
Structure prediction by ZEFSAII (Michael W. Deem and Ramdas Pophale) SiO2 
 PCOD9223327
Probable space group: C 2/M
;
_chemical_formula_sum "Si O2"
_cell_formula_units_Z 32
_cell_length_a 30.000000
_cell_length_b 9.000000
_cell_length_c 15.000000
_cell_angle_alpha 90.000000
_cell_angle_beta 50.000000
_cell_angle_gamma 90.000000
_cell_volume 3102.479995
_symmetry_space_group_name_H-M "C 2/M"
_symmetry_group_IT_number 12
_symmetry_cell_setting 'monoclinic'
loop_
_space_group_symop_operation_xyz
x,y,z
-x,y,-z
-x,-y,-z
x,-y,z
1/2+x,1/2+y,z
1/2-x,1/2+y,-z
1/2-x,1/2-y,-z
1/2+x,1/2-y,z
loop_
_atom_site_type_symbol
_atom_site_label
_atom_site_fract_x
_atom_site_fract_y
_atom_site_fract_z
Si Si1 0.350900 0.822360 0.525085
Si Si2 0.052490 0.178900 0.248449
Si Si3 0.938162 0.178142 0.282950
Si Si4 0.115011 0.821120 0.827420
Si Si5 0.236812 0.321399 0.613385
Si Si6 0.107346 0.322266 0.339930
Si Si7 0.262948 0.820489 0.888020
Si Si8 0.360417 0.679749 0.012344
O O1 0.384576 0.764721 0.395552
O O2 0.289001 0.740477 0.608124
O O3 0.392190 0.785751 0.556128
O O4 0.341406 0.000000 0.536171
O O5 0.060742 0.246932 0.335394
O O6 0.107311 0.231593 0.118115
O O7 0.995880 0.219207 0.263241
O O8 0.053627 0.000000 0.254260
O O9 0.934778 0.208940 0.181567
O O10 0.930060 0.000000 0.304424
O O11 0.174393 0.739610 0.723552
O O12 0.125177 0.000000 0.812165
O O13 0.105213 0.778003 0.942602
O O14 0.237752 0.500000 0.608008
O O15 0.250000 0.250000 0.500000
O O16 0.101985 0.500000 0.337657
O O17 0.172947 0.277038 0.226288
O O18 0.262727 0.000000 0.893620
O O19 0.250000 0.750000 0.000000
O O20 0.207310 0.776079 0.899337
O O21 0.361717 0.500000 0.006803
#
# Coordination Sequence:
#
# PCOD9223327 Si02
#       8
#     8   8   8   8   8   8   8   8
#     4  11  23  40  62  85 115 154 194 238 290 349
#     4  10  21  38  59  84 115 153 198 245 290 340
#     4  10  22  38  58  85 115 151 198 246 291 340
#     4  10  20  37  60  85 118 155 192 237 286 343
#     4  12  23  37  60  90 121 152 189 233 288 348
#     4  10  22  38  58  85 115 151 193 239 292 349
#     4  10  18  32  55  82 112 143 181 227 283 345
#     4   9  18  34  58  85 115 151 190 235 287 345
#
# _framework density 10.314329000000001
#
# number of rings (size 3 to 8) (size 9 to 14) (size 15 to 20)
#    0.000    1.750    2.500    2.250    0.000    4.500 
#    0.000    7.500    0.000    0.000    0.000    2.625 
#    0.000    0.000    0.000    0.000    0.000    0.000 
#
# Total GULP energy -178645.385676 kJ/mol
# GULP energy per Si atom -5582.668302 kJ/mol
# Density = 1.029085 g / cm^3
# Si number density = 10.314329 Si / 1000 Ang^3
#
#
#
# Elastic Constant Matrix: (Units=GPa)
#
#
# Indices 1 2 3 4 5 6 
#
# 1 153.4456 29.5165 7.8851 0.0000 22.2081 0.0000
# 2 29.5165 25.1821 -2.0094 0.0000 3.3001 0.0000
# 3 7.8851 -2.0094 25.8307 0.0000 16.3608 0.0000
# 4 0.0000 0.0000 0.0000 18.8818 0.0000 1.9115
# 5 22.2081 3.3001 16.3608 0.0000 34.9706 0.0000
# 6 0.0000 0.0000 0.0000 1.9115 0.0000 27.1015
#
#
#
# Elastic Compliance Matrix: (Units=1/GPa)
#
#
# Indices 1 2 3 4 5 6 
#
# 1 0.009175 -0.010220 -0.000734 0.000000 -0.004519 0.000000
# 2 -0.010220 0.052748 0.008903 0.000000 -0.002653 0.000000
# 3 -0.000734 0.008903 0.056656 0.000000 -0.026880 0.000000
# 4 0.000000 0.000000 0.000000 0.053342 0.000000 -0.003762
# 5 -0.004519 -0.002653 -0.026880 0.000000 0.044291 0.000000
# 6 0.000000 0.000000 0.000000 -0.003762 0.000000 0.037164
#
#
# Mechanical properties :
#
#
# Convention : Reuss Voigt Hill
#
# Bulk Modulus (GPa) = 8.73535 30.58254 19.65894
# Shear Modulus (GPa) = 16.91272 27.46185 22.18729
#
# Velocity S-wave (km/s) = 2.86644 3.65258 3.28313
# Velocity P-wave (km/s) = 3.89859 5.71366 4.89106
#
# Compressibility (1/GPa) = 0.11447744
#
# Stress axis : x y z
#
# Youngs Moduli (GPa) = 108.99696 18.95805 17.65046
#
# Poissons Ratio (x) = 0.19375 0.01295
# Poissons Ratio (y) = 1.11396 -0.15715
# Poissons Ratio (z) = 0.07996 -0.16879
#
# Static dielectric constant tensor:
#      x y z
#    x 1.774110 0.000000 0.016550 
#    y 0.000000 1.684050 0.000000 
#    z 0.016550 0.000000 1.752840 
# 
# From -- ./inp_files/249761.got.cif
#   From: 2010.05.17/outbox.ucp.g08.bks.cvg/sg12_125_cif.got.tgz:249761.got - 2010.06.11 11:47:21.
