data_PCOD9223283
_publ_section_title
;
Structure prediction by ZEFSAII (Michael W. Deem and Ramdas Pophale) SiO2 
 PCOD9223283
Probable space group: C 2/M
;
_chemical_formula_sum "Si O2"
_cell_formula_units_Z 32
_cell_length_a 24.000000
_cell_length_b 9.000000
_cell_length_c 18.000000
_cell_angle_alpha 90.000000
_cell_angle_beta 90.000000
_cell_angle_gamma 90.000000
_cell_volume 3888.000000
_symmetry_space_group_name_H-M "C 2/M"
_symmetry_group_IT_number 12
_symmetry_cell_setting 'monoclinic'
loop_
_space_group_symop_operation_xyz
x,y,z
-x,y,-z
-x,-y,-z
x,-y,z
1/2+x,1/2+y,z
1/2-x,1/2+y,-z
1/2-x,1/2-y,-z
1/2+x,1/2-y,z
loop_
_atom_site_type_symbol
_atom_site_label
_atom_site_fract_x
_atom_site_fract_y
_atom_site_fract_z
Si Si1 0.929127 0.319691 0.236719
Si Si2 0.279923 0.320802 0.829620
Si Si3 0.140622 0.321076 0.291212
Si Si4 0.339064 0.680559 0.124317
Si Si5 0.874624 0.177239 0.954387
Si Si6 0.079658 0.178802 0.432680
Si Si7 0.451717 0.823103 0.835906
Si Si8 0.551038 0.678973 0.601463
O O1 0.924240 0.500000 0.238666
O O2 0.881270 0.246709 0.185828
O O3 0.929847 0.258069 0.321930
O O4 0.987278 0.280891 0.194465
O O5 0.274299 0.500000 0.821553
O O6 0.306879 0.252577 0.753373
O O7 0.221634 0.246666 0.854308
O O8 0.323241 0.292082 0.897706
O O9 0.148256 0.500000 0.297348
O O10 0.120891 0.255602 0.371818
O O11 0.090284 0.291749 0.232742
O O12 0.337607 0.500000 0.127434
O O13 0.359138 0.722623 0.039502
O O14 0.927567 0.248511 0.911051
O O15 0.883076 0.000000 0.956267
O O16 0.080630 0.219762 0.521698
O O17 0.015326 0.209594 0.408794
O O18 0.087904 0.000000 0.428623
O O19 0.451439 0.000000 0.848297
O O20 0.557260 0.500000 0.609432
#
# Coordination Sequence:
#
# PCOD9223283 Si02
#       8
#     8   8   8   8   8   8   8   8
#     4  11  22  36  52  75 108 145 181 216 257 313
#     4  10  20  36  57  80 103 134 175 222 268 312
#     4  10  18  31  52  80 110 140 173 216 263 308
#     4  11  23  38  54  76 103 138 179 220 266 316
#     4   9  20  36  56  79 103 132 173 221 269 314
#     4   9  17  30  51  80 110 139 174 213 259 310
#     4   9  19  33  50  75 107 140 174 213 262 309
#     4   9  18  32  51  77 109 143 175 213 258 307
#
# _framework density 8.2304530000000007
#
# number of rings (size 3 to 8) (size 9 to 14) (size 15 to 20)
#    0.000    2.250    1.250    2.625    0.000    4.000 
#    0.000    3.750    0.000    0.750    0.000    0.000 
#    0.000    0.000    0.000    0.000    0.000    0.000 
#
# Total GULP energy -178327.941824 kJ/mol
# GULP energy per Si atom -5572.748182 kJ/mol
# Density = 0.821172 g / cm^3
# Si number density = 8.230453 Si / 1000 Ang^3
#
#
#
# Elastic Constant Matrix: (Units=GPa)
#
#
# Indices 1 2 3 4 5 6 
#
# 1 81.1442 38.5913 65.8966 0.0000 -15.3635 0.0000
# 2 38.5913 70.6855 61.7473 0.0000 -9.9182 0.0000
# 3 65.8966 61.7473 181.9167 0.0000 -29.0263 0.0000
# 4 0.0000 0.0000 0.0000 36.5755 0.0000 -9.3303
# 5 -15.3635 -9.9182 -29.0263 0.0000 32.6018 0.0000
# 6 0.0000 0.0000 0.0000 -9.3303 0.0000 27.4539
#
#
#
# Elastic Compliance Matrix: (Units=1/GPa)
#
#
# Indices 1 2 3 4 5 6 
#
# 1 0.019551 -0.006375 -0.004380 0.000000 0.003375 0.000000
# 2 -0.006375 0.022188 -0.005390 0.000000 -0.001053 0.000000
# 3 -0.004380 -0.005390 0.009700 0.000000 0.004932 0.000000
# 4 0.000000 0.000000 0.000000 0.029936 0.000000 0.010174
# 5 0.003375 -0.001053 0.004932 0.000000 0.036335 0.000000
# 6 0.000000 0.000000 0.000000 0.010174 0.000000 0.039882
#
#
# Mechanical properties :
#
#
# Convention : Reuss Voigt Hill
#
# Bulk Modulus (GPa) = 52.21859 74.02411 63.12135
# Shear Modulus (GPa) = 25.47565 30.49365 27.98465
#
# Velocity S-wave (km/s) = 3.93828 4.30872 4.12766
# Velocity P-wave (km/s) = 7.24374 8.35588 7.81961
#
# Compressibility (1/GPa) = 0.01915027
#
# Stress axis : x y z
#
# Youngs Moduli (GPa) = 51.14740 45.06882 103.09030
#
# Poissons Ratio (x) = 0.28729 0.45154
# Poissons Ratio (y) = 0.32604 0.55568
# Poissons Ratio (z) = 0.22403 0.24293
#
# Static dielectric constant tensor:
#      x y z
#    x 1.556850 0.000000 -0.002330 
#    y 0.000000 1.557440 0.000000 
#    z -0.002330 0.000000 1.549570 
# 
# From -- ./inp_files/287626.got.cif
#   From: 2010.05.17/outbox.ucp.g08.bks.cvg/sg12_144_cif.got.tgz:287626.got - 2010.06.11 11:47:21.
