data_PCOD9223890
_publ_section_title
;
Structure prediction by ZEFSAII (Michael W. Deem and Ramdas Pophale) SiO2 
 PCOD9223890
Probable space group: C 2/M
;
_chemical_formula_sum "Si O2"
_cell_formula_units_Z 28
_cell_length_a 18.000000
_cell_length_b 9.000000
_cell_length_c 27.000000
_cell_angle_alpha 90.000000
_cell_angle_beta 40.000000
_cell_angle_gamma 90.000000
_cell_volume 2811.553005
_symmetry_space_group_name_H-M "C 2/M"
_symmetry_group_IT_number 12
_symmetry_cell_setting 'monoclinic'
loop_
_space_group_symop_operation_xyz
x,y,z
-x,y,-z
-x,-y,-z
x,-y,z
1/2+x,1/2+y,z
1/2-x,1/2+y,-z
1/2-x,1/2-y,-z
1/2+x,1/2-y,z
loop_
_atom_site_type_symbol
_atom_site_label
_atom_site_fract_x
_atom_site_fract_y
_atom_site_fract_z
Si Si1 0.359276 0.176003 0.677720
Si Si2 0.292443 0.676891 0.345169
Si Si3 0.754936 0.674501 0.921429
Si Si4 0.075669 0.319300 0.509424
Si Si5 0.233337 0.326504 0.832211
Si Si6 0.015622 0.829899 0.179927
Si Si7 0.491967 0.328697 0.079424
O O1 0.284830 0.190564 0.665184
O O2 0.492430 0.220173 0.597644
O O3 0.300725 0.276138 0.748948
O O4 0.355711 0.000000 0.692832
O O5 0.308914 0.500000 0.344809
O O6 0.207191 0.733623 0.432411
O O7 0.420553 0.736394 0.266420
O O8 0.761777 0.500000 0.925468
O O9 0.776884 0.723668 0.854148
O O10 0.863036 0.751165 0.891807
O O11 0.624407 0.716970 0.002657
O O12 0.079947 0.500000 0.506936
O O13 0.000000 0.275300 0.500000
O O14 0.248445 0.500000 0.834397
O O15 0.098490 0.283786 0.897404
O O16 0.960782 0.833295 0.153373
O O17 0.040162 0.000000 0.182180
O O18 0.477287 0.500000 0.068611
#
# Coordination Sequence:
#
# PCOD9223890 Si02
#       7
#     8   8   8   8   8   8   8
#     4   9  15  29  52  77 107 139 174 213 258 312
#     4   8  13  25  49  80 109 136 169 211 258 309
#     4  11  24  39  55  76 106 142 181 220 264 317
#     4   7  11  20  43  78 106 132 169 210 251 305
#     4  12  24  36  54  79 108 140 179 223 267 314
#     4  10  19  34  57  82 111 140 171 214 264 316
#     4  10  21  39  60  80 103 137 177 220 268 317
#
# _framework density 9.9589090000000002
#
# number of rings (size 3 to 8) (size 9 to 14) (size 15 to 20)
#    0.000    2.429    1.429    4.286    0.000    3.429 
#    0.000    0.000    0.000    5.571    0.000    0.000 
#    0.000    0.000    0.000    0.000    0.000    0.000 
#
# Total GULP energy -155886.844602 kJ/mol
# GULP energy per Si atom -5567.387307 kJ/mol
# Density = 0.993624 g / cm^3
# Si number density = 9.958909 Si / 1000 Ang^3
#
#
#
# Elastic Constant Matrix: (Units=GPa)
#
#
# Indices 1 2 3 4 5 6 
#
# 1 16.1471 1.3016 2.1991 0.0000 9.2929 0.0001
# 2 1.3016 -9.5791 16.7100 0.0000 -4.0953 0.0002
# 3 2.1991 16.7100 121.8175 0.0000 -5.6969 0.0000
# 4 0.0000 0.0000 0.0000 19.8679 0.0000 -5.8790
# 5 9.2929 -4.0953 -5.6969 0.0000 -9.3642 0.0000
# 6 0.0001 0.0002 0.0000 -5.8790 0.0000 7.3880
#
#
#
# Elastic Compliance Matrix: (Units=1/GPa)
#
#
# Indices 1 2 3 4 5 6 
#
# 1 0.038852 -0.008085 0.002310 0.000000 0.040686 0.000000
# 2 -0.008085 -0.091506 0.013802 0.000001 0.023599 0.000004
# 3 0.002310 0.013802 0.005930 0.000000 -0.007351 -0.000001
# 4 0.000000 0.000001 0.000000 0.065834 0.000000 0.052388
# 5 0.040686 0.023599 -0.007351 0.000000 -0.072262 -0.000001
# 6 0.000000 0.000004 -0.000001 0.052388 -0.000001 0.177042
#
#
# Mechanical properties :
#
#
# Convention : Reuss Voigt Hill
#
# Bulk Modulus (GPa) = -32.60600 18.75631 -6.92484
# Shear Modulus (GPa) = 51.22182 10.79000 31.00591
#
# Velocity S-wave (km/s) = 5.07665 2.33003 3.94977
# Velocity P-wave (km/s) = 4.23762 4.08362 4.16133
#
# Compressibility (1/GPa) = -0.03066920
#
# Stress axis : x y z
#
# Youngs Moduli (GPa) = 25.73863 -10.92829 168.62483
#
# Poissons Ratio (x) = -0.08835 -0.38959
# Poissons Ratio (y) = 0.20810 -2.32729
# Poissons Ratio (z) = -0.05947 0.15083
#
# Static dielectric constant tensor:
#      x y z
#    x 1.846790 0.000000 0.019490 
#    y 0.000000 1.662620 0.000000 
#    z 0.019490 0.000000 1.761280 
# 
# From -- ./inp_files/362948.got.cif
#   From: 2010.05.17/outbox.ucp.g08.bks.cvg/sg12_182_cif.got.tgz:362948.got - 2010.06.11 11:47:21.
