data_PCOD9223756
_publ_section_title
;
Structure prediction by ZEFSAII (Michael W. Deem and Ramdas Pophale) SiO2 
 PCOD9223756
Probable space group: C 2/M
;
_chemical_formula_sum "Si O2"
_cell_formula_units_Z 32
_cell_length_a 24.000000
_cell_length_b 9.000000
_cell_length_c 18.000000
_cell_angle_alpha 90.000000
_cell_angle_beta 100.000000
_cell_angle_gamma 90.000000
_cell_volume 3828.932544
_symmetry_space_group_name_H-M "C 2/M"
_symmetry_group_IT_number 12
_symmetry_cell_setting 'monoclinic'
loop_
_space_group_symop_operation_xyz
x,y,z
-x,y,-z
-x,-y,-z
x,-y,z
1/2+x,1/2+y,z
1/2-x,1/2+y,-z
1/2-x,1/2-y,-z
1/2+x,1/2-y,z
loop_
_atom_site_type_symbol
_atom_site_label
_atom_site_fract_x
_atom_site_fract_y
_atom_site_fract_z
Si Si1 0.734507 0.676358 0.575314
Si Si2 0.668929 0.323167 0.311293
Si Si3 0.948806 0.826772 0.320412
Si Si4 0.592920 0.679066 0.154649
Si Si5 0.432508 0.172657 0.001277
Si Si6 0.573509 0.670276 0.414160
Si Si7 0.614949 0.826640 0.565004
Si Si8 0.037516 0.822270 0.844947
O O1 0.738859 0.500000 0.569918
O O2 0.750000 0.750000 0.500000
O O3 0.776086 0.736022 0.649092
O O4 0.671275 0.728846 0.576061
O O5 0.680951 0.500000 0.309186
O O6 0.638703 0.275858 0.227427
O O7 0.623456 0.303429 0.367053
O O8 0.917312 0.717439 0.368075
O O9 0.941125 0.788765 0.232465
O O10 0.014942 0.818669 0.356778
O O11 0.931738 0.000000 0.328199
O O12 0.594498 0.500000 0.150563
O O13 0.529134 0.720753 0.165940
O O14 0.599025 0.747219 0.074058
O O15 0.427866 0.246662 0.080868
O O16 0.417546 0.000000 0.999784
O O17 0.500000 0.185028 0.000000
O O18 0.578418 0.500000 0.443242
O O19 0.578400 0.778718 0.484829
O O20 0.628569 0.000000 0.564484
O O21 0.039235 0.000000 0.855872
#
# Coordination Sequence:
#
# PCOD9223756 Si02
#       8
#     8   8   8   8   8   8   8   8
#     4  12  24  39  57  76  99 132 173 219 265 309
#     4  10  19  33  55  80 104 134 172 214 259 307
#     4  10  20  35  54  77 104 139 177 214 258 309
#     4   9  16  29  49  74 102 134 171 207 247 303
#     4   9  17  27  41  67 103 139 169 204 251 297
#     4  10  19  34  55  76 103 138 173 212 260 309
#     4  12  25  38  52  74 102 138 178 218 260 305
#     4   9  16  29  49  72  99 135 174 206 246 302
#
# _framework density 8.3574210000000004
#
# number of rings (size 3 to 8) (size 9 to 14) (size 15 to 20)
#    0.000    1.875    2.500    3.000    0.000    4.500 
#    0.000    0.000    0.000    0.000    0.000    0.875 
#    0.000    0.000    0.000    0.000    0.000    0.000 
#
# Total GULP energy -178539.304894 kJ/mol
# GULP energy per Si atom -5579.353278 kJ/mol
# Density = 0.833840 g / cm^3
# Si number density = 8.357421 Si / 1000 Ang^3
#
#
#
# Elastic Constant Matrix: (Units=GPa)
#
#
# Indices 1 2 3 4 5 6 
#
# 1 12.0313 7.4129 10.6157 0.0000 -3.6912 0.0000
# 2 7.4129 55.4026 54.8667 0.0000 1.7354 0.0000
# 3 10.6157 54.8667 137.9603 0.0000 12.8600 0.0000
# 4 0.0000 0.0000 0.0000 13.4625 0.0000 4.1407
# 5 -3.6912 1.7354 12.8600 0.0000 12.5607 0.0000
# 6 0.0000 0.0000 0.0000 4.1407 0.0000 19.3045
#
#
#
# Elastic Compliance Matrix: (Units=1/GPa)
#
#
# Indices 1 2 3 4 5 6 
#
# 1 0.108852 -0.006011 -0.009999 0.000000 0.043055 0.000000
# 2 -0.006011 0.031028 -0.012507 0.000000 0.006751 0.000000
# 3 -0.009999 -0.012507 0.014487 0.000000 -0.016043 0.000000
# 4 0.000000 0.000000 0.000000 0.079527 0.000000 -0.017058
# 5 0.043055 0.006751 -0.016043 0.000000 0.107758 0.000000
# 6 0.000000 0.000000 0.000000 -0.017058 0.000000 0.055460
#
#
# Mechanical properties :
#
#
# Convention : Reuss Voigt Hill
#
# Bulk Modulus (GPa) = 10.27390 39.02055 24.64723
# Shear Modulus (GPa) = 10.27559 17.89879 14.08719
#
# Velocity S-wave (km/s) = 2.48212 3.27591 2.90624
# Velocity P-wave (km/s) = 3.79137 6.14038 5.10288
#
# Compressibility (1/GPa) = 0.09733403
#
# Stress axis : x y z
#
# Youngs Moduli (GPa) = 9.18681 32.22877 69.02680
#
# Poissons Ratio (x) = 0.19373 0.69017
# Poissons Ratio (y) = 0.05522 0.86329
# Poissons Ratio (z) = 0.09186 0.40307
#
# Static dielectric constant tensor:
#      x y z
#    x 1.587690 0.000000 -0.018440 
#    y 0.000000 1.563540 0.000000 
#    z -0.018440 0.000000 1.560940 
# 
# From -- ./inp_files/287757.got.cif
#   From: 2010.05.17/outbox.ucp.g08.bks.cvg/sg12_144_cif.got.tgz:287757.got - 2010.06.11 11:47:21.
