data_PCOD9223167
_publ_section_title
;
Structure prediction by ZEFSAII (Michael W. Deem and Ramdas Pophale) SiO2 
 PCOD9223167
Probable space group: C 2/M
;
_chemical_formula_sum "Si O2"
_cell_formula_units_Z 28
_cell_length_a 18.000000
_cell_length_b 15.000000
_cell_length_c 12.000000
_cell_angle_alpha 90.000000
_cell_angle_beta 70.000000
_cell_angle_gamma 90.000000
_cell_volume 3044.604091
_symmetry_space_group_name_H-M "C 2/M"
_symmetry_group_IT_number 12
_symmetry_cell_setting 'monoclinic'
loop_
_space_group_symop_operation_xyz
x,y,z
-x,y,-z
-x,-y,-z
x,-y,z
1/2+x,1/2+y,z
1/2-x,1/2+y,-z
1/2-x,1/2-y,-z
1/2+x,1/2-y,z
loop_
_atom_site_type_symbol
_atom_site_label
_atom_site_fract_x
_atom_site_fract_y
_atom_site_fract_z
Si Si1 0.291422 0.602632 0.119887
Si Si2 0.371501 0.239990 0.508208
Si Si3 0.198261 0.690557 0.834519
Si Si4 0.118984 0.605665 0.089731
Si Si5 0.540070 0.240867 0.300501
Si Si6 0.264817 0.110443 0.421880
Si Si7 0.360636 0.395319 0.844677
O O1 0.299301 0.500000 0.165820
O O2 0.303043 0.700158 0.173838
O O3 0.203131 0.606344 0.112509
O O4 0.350431 0.605432 0.983444
O O5 0.449333 0.243738 0.389054
O O6 0.405530 0.226652 0.616215
O O7 0.317295 0.157037 0.493051
O O8 0.317872 0.331250 0.532899
O O9 0.194111 0.641991 0.716252
O O10 0.283290 0.656552 0.837879
O O11 0.137002 0.653476 0.960555
O O12 0.097467 0.500000 0.087130
O O13 0.060394 0.664668 0.197611
O O14 0.566558 0.336052 0.235012
O O15 0.258194 0.000000 0.430914
O O16 0.360932 0.500000 0.809296
#
# Coordination Sequence:
#
# PCOD9223167 Si02
#       7
#     8   8   8   8   8   8   8
#     4   9  16  27  50  87 124 153 188 233 291 359
#     4  10  25  40  60  85 116 162 203 247 297 347
#     4  11  17  33  57  88 122 153 192 243 298 356
#     4  10  18  29  53  87 118 151 190 242 303 354
#     4  11  20  39  59  87 124 151 196 254 300 354
#     4  11  23  43  63  84 117 161 207 246 294 359
#     4  10  17  28  54  88 119 152 189 241 300 347
#
# _framework density 9.1965979999999998
#
# number of rings (size 3 to 8) (size 9 to 14) (size 15 to 20)
#    0.000    1.714    4.286    3.000    0.000    1.714 
#    0.000    7.857    0.000    1.714    0.000    2.000 
#    0.000    0.000    0.000    0.000    0.000    0.000 
#
# Total GULP energy -156097.422331 kJ/mol
# GULP energy per Si atom -5574.907940 kJ/mol
# Density = 0.917567 g / cm^3
# Si number density = 9.196598 Si / 1000 Ang^3
#
#
#
# Elastic Constant Matrix: (Units=GPa)
#
#
# Indices 1 2 3 4 5 6 
#
# 1 51.5483 26.5787 25.6235 0.0000 -9.9722 0.0000
# 2 26.5787 206.4676 50.5593 0.0000 -7.4328 0.0000
# 3 25.6235 50.5593 98.5784 0.0000 -26.6714 0.0000
# 4 0.0000 0.0000 0.0000 35.8475 0.0000 -1.4719
# 5 -9.9722 -7.4328 -26.6714 0.0000 28.5372 0.0000
# 6 0.0000 0.0000 0.0000 -1.4719 0.0000 18.5743
#
#
#
# Elastic Compliance Matrix: (Units=1/GPa)
#
#
# Indices 1 2 3 4 5 6 
#
# 1 0.023091 -0.001851 -0.004015 0.000000 0.003834 0.000000
# 2 -0.001851 0.005744 -0.002992 0.000000 -0.001947 0.000000
# 3 -0.004015 -0.002992 0.016238 0.000000 0.012994 0.000000
# 4 0.000000 0.000000 0.000000 0.027987 0.000000 0.002218
# 5 0.003834 -0.001947 0.012994 0.000000 0.048019 0.000000
# 6 0.000000 0.000000 0.000000 0.002218 0.000000 0.054014
#
#
# Mechanical properties :
#
#
# Convention : Reuss Voigt Hill
#
# Bulk Modulus (GPa) = 36.55349 62.45749 49.50549
# Shear Modulus (GPa) = 24.76121 33.51399 29.13760
#
# Velocity S-wave (km/s) = 3.67306 4.27322 3.98446
# Velocity P-wave (km/s) = 6.15671 7.64054 6.93840
#
# Compressibility (1/GPa) = 0.02735717
#
# Stress axis : x y z
#
# Youngs Moduli (GPa) = 43.30605 174.08878 61.58425
#
# Poissons Ratio (x) = 0.32229 0.24728
# Poissons Ratio (y) = 0.08017 0.18424
# Poissons Ratio (z) = 0.17389 0.52081
#
# Static dielectric constant tensor:
#      x y z
#    x 1.643110 0.000000 0.004710 
#    y 0.000000 1.646050 0.000000 
#    z 0.004710 0.000000 1.671320 
# 
# From -- ./inp_files/155950.got.cif
#   From: 2010.05.17/outbox.ucp.g08.bks.cvg/sg12_78_cif.got.tgz:155950.got - 2010.06.11 11:47:21.
