data_PCOD9223238
_publ_section_title
;
Structure prediction by ZEFSAII (Michael W. Deem and Ramdas Pophale) SiO2 
 PCOD9223238
Probable space group: C 2/M
;
_chemical_formula_sum "Si O2"
_cell_formula_units_Z 28
_cell_length_a 18.000000
_cell_length_b 9.000000
_cell_length_c 30.000000
_cell_angle_alpha 90.000000
_cell_angle_beta 40.000000
_cell_angle_gamma 90.000000
_cell_volume 3123.947783
_symmetry_space_group_name_H-M "C 2/M"
_symmetry_group_IT_number 12
_symmetry_cell_setting 'monoclinic'
loop_
_space_group_symop_operation_xyz
x,y,z
-x,y,-z
-x,-y,-z
x,-y,z
1/2+x,1/2+y,z
1/2-x,1/2+y,-z
1/2-x,1/2-y,-z
1/2+x,1/2-y,z
loop_
_atom_site_type_symbol
_atom_site_label
_atom_site_fract_x
_atom_site_fract_y
_atom_site_fract_z
Si Si1 0.591271 0.324384 0.743016
Si Si2 0.346319 0.167862 0.195849
Si Si3 0.980529 0.821098 0.443681
Si Si4 0.572740 0.332800 0.305191
Si Si5 0.872870 0.325758 0.808237
Si Si6 0.819616 0.680109 0.586517
Si Si7 0.893225 0.820759 0.082018
O O1 0.587114 0.500000 0.742361
O O2 0.631725 0.270959 0.772426
O O3 0.463397 0.260299 0.796588
O O4 0.690034 0.277012 0.661610
O O5 0.207541 0.158530 0.256219
O O6 0.398857 0.237540 0.126737
O O7 0.390025 0.000000 0.182672
O O8 0.866971 0.750297 0.518677
O O9 0.997893 0.795332 0.383041
O O10 0.089505 0.745680 0.418960
O O11 0.983017 0.000000 0.449617
O O12 0.538661 0.500000 0.305044
O O13 0.577649 0.214997 0.263469
O O14 0.880115 0.500000 0.812829
O O15 0.737414 0.282881 0.874834
O O16 0.828209 0.500000 0.581300
O O17 0.895351 0.000000 0.087639
O O18 0.000000 0.783400 0.000000
#
# Coordination Sequence:
#
# PCOD9223238 Si02
#       7
#     8   8   8   8   8   8   8
#     4  11  22  36  53  76 110 146 179 220 268 315
#     4  10  19  33  56  83 109 138 179 221 258 311
#     4  10  18  30  50  75 103 137 177 223 271 313
#     4   9  18  33  52  76 105 138 176 221 267 314
#     4  10  21  35  56  81 106 139 176 216 263 317
#     4  10  20  31  47  73 104 139 178 223 268 311
#     4   9  19  38  61  85 112 139 170 211 262 318
#
# _framework density 8.9630179999999999
#
# number of rings (size 3 to 8) (size 9 to 14) (size 15 to 20)
#    0.000    2.143    1.429    3.000    0.000    4.286 
#    0.000    1.429    0.000    0.000    0.000    0.000 
#    0.000    0.000    0.000    0.000    0.000    0.000 
#
# Total GULP energy -156044.659114 kJ/mol
# GULP energy per Si atom -5573.023540 kJ/mol
# Density = 0.894262 g / cm^3
# Si number density = 8.963018 Si / 1000 Ang^3
#
#
#
# Elastic Constant Matrix: (Units=GPa)
#
#
# Indices 1 2 3 4 5 6 
#
# 1 24.8928 13.3318 12.5881 0.0000 -4.8649 0.0002
# 2 13.3318 44.4758 28.5942 0.0000 -8.2595 0.0005
# 3 12.5881 28.5942 129.5420 0.0000 -0.8023 -0.0001
# 4 0.0000 0.0000 0.0000 24.3220 0.0000 0.9088
# 5 -4.8649 -8.2595 -0.8023 0.0000 19.3945 0.0000
# 6 0.0002 0.0005 -0.0001 0.9088 0.0000 25.1029
#
#
#
# Elastic Compliance Matrix: (Units=1/GPa)
#
#
# Indices 1 2 3 4 5 6 
#
# 1 0.049060 -0.012066 -0.002060 0.000000 0.007082 0.000000
# 2 -0.012066 0.031707 -0.005763 0.000000 0.010238 -0.000001
# 3 -0.002060 -0.005763 0.009176 0.000000 -0.002591 0.000000
# 4 0.000000 0.000000 0.000000 0.041171 0.000000 -0.001490
# 5 0.007082 0.010238 -0.002591 0.000000 0.057590 0.000000
# 6 0.000000 -0.000001 0.000000 -0.001490 0.000000 0.039890
#
#
# Mechanical properties :
#
#
# Convention : Reuss Voigt Hill
#
# Bulk Modulus (GPa) = 19.93430 34.21543 27.07487
# Shear Modulus (GPa) = 17.53799 23.39031 20.46415
#
# Velocity S-wave (km/s) = 3.13126 3.61615 3.38241
# Velocity P-wave (km/s) = 4.92113 6.04681 5.51277
#
# Compressibility (1/GPa) = 0.05016479
#
# Stress axis : x y z
#
# Youngs Moduli (GPa) = 20.38300 31.53831 108.98340
#
# Poissons Ratio (x) = 0.38055 0.22452
# Poissons Ratio (y) = 0.24595 0.62806
# Poissons Ratio (z) = 0.04199 0.18175
#
# Static dielectric constant tensor:
#      x y z
#    x 1.663670 0.000000 0.007530 
#    y 0.000000 1.608860 0.000000 
#    z 0.007530 0.000000 1.590570 
# 
# From -- ./inp_files/314434.got.cif
#   From: 2010.05.17/outbox.ucp.g08.bks.cvg/sg12_158_cif.got.tgz:314434.got - 2010.06.11 11:47:21.
