data_PCOD9223846
_publ_section_title
;
Structure prediction by ZEFSAII (Michael W. Deem and Ramdas Pophale) SiO2 
 PCOD9223846
Probable space group: C 2/M
;
_chemical_formula_sum "Si O2"
_cell_formula_units_Z 28
_cell_length_a 30.000000
_cell_length_b 9.000000
_cell_length_c 21.000000
_cell_angle_alpha 90.000000
_cell_angle_beta 30.000000
_cell_angle_gamma 90.000000
_cell_volume 2835.000000
_symmetry_space_group_name_H-M "C 2/M"
_symmetry_group_IT_number 12
_symmetry_cell_setting 'monoclinic'
loop_
_space_group_symop_operation_xyz
x,y,z
-x,y,-z
-x,-y,-z
x,-y,z
1/2+x,1/2+y,z
1/2-x,1/2+y,-z
1/2-x,1/2-y,-z
1/2+x,1/2-y,z
loop_
_atom_site_type_symbol
_atom_site_label
_atom_site_fract_x
_atom_site_fract_y
_atom_site_fract_z
Si Si1 0.179217 0.676038 0.496321
Si Si2 0.986464 0.679695 0.688783
Si Si3 0.540426 0.176584 0.020339
Si Si4 0.140541 0.323304 0.694253
Si Si5 0.409658 0.180552 0.647342
Si Si6 0.281276 0.328576 0.152294
Si Si7 0.327531 0.671666 0.945595
O O1 0.190171 0.500000 0.471164
O O2 0.155083 0.698412 0.600844
O O3 0.276143 0.752525 0.370347
O O4 0.090616 0.725597 0.566707
O O5 0.986693 0.500000 0.692040
O O6 0.932418 0.724014 0.691675
O O7 0.922391 0.746907 0.821534
O O8 0.458378 0.232055 0.165818
O O9 0.551652 0.000000 0.016865
O O10 0.500000 0.198670 0.000000
O O11 0.636377 0.249748 0.914549
O O12 0.142352 0.500000 0.704731
O O13 0.500000 0.220066 0.500000
O O14 0.320137 0.234894 0.722645
O O15 0.401148 0.000000 0.658454
O O16 0.278363 0.500000 0.178238
O O17 0.301412 0.326828 0.051860
O O18 0.334676 0.500000 0.916255
O O19 0.250000 0.750000 0.000000
#
# Coordination Sequence:
#
# PCOD9223846 Si02
#       7
#     8   8   8   8   8   8   8
#     4   9  18  31  53  80 104 137 179 222 272 322
#     4  10  19  34  54  80 111 144 185 226 270 332
#     4  10  22  39  58  80 108 147 187 225 277 332
#     4   9  18  34  52  74 106 139 175 222 274 325
#     4   9  18  34  54  76 108 146 181 222 269 322
#     4  10  21  37  57  84 111 140 184 232 276 325
#     4  11  21  34  55  84 114 144 181 227 278 330
#
# _framework density 9.8765429999999999
#
# number of rings (size 3 to 8) (size 9 to 14) (size 15 to 20)
#    0.000    2.286    1.429    1.286    0.000    4.857 
#    0.000    4.286    0.000    1.714    0.000    0.000 
#    0.000    0.000    0.000    0.000    0.000    0.000 
#
# Total GULP energy -156094.312099 kJ/mol
# GULP energy per Si atom -5574.796861 kJ/mol
# Density = 0.985406 g / cm^3
# Si number density = 9.876543 Si / 1000 Ang^3
#
#
#
# Elastic Constant Matrix: (Units=GPa)
#
#
# Indices 1 2 3 4 5 6 
#
# 1 83.2182 38.4829 45.9864 -0.0018 -60.0386 0.0006
# 2 38.4829 22.7823 17.7757 0.0023 -17.4261 0.0003
# 3 45.9864 17.7757 107.6818 0.0012 -45.7201 0.0001
# 4 -0.0018 0.0023 0.0012 21.1253 0.0005 -11.2987
# 5 -60.0386 -17.4261 -45.7201 0.0005 50.1871 -0.0005
# 6 0.0006 0.0003 0.0001 -11.2987 -0.0005 28.4763
#
#
#
# Elastic Compliance Matrix: (Units=1/GPa)
#
#
# Indices 1 2 3 4 5 6 
#
# 1 -0.111874 0.119991 -0.018208 -0.000025 -0.108758 -0.000011
# 2 0.119991 -0.068733 0.017803 0.000018 0.135897 0.000008
# 3 -0.018208 0.017803 0.012231 -0.000005 -0.004458 -0.000002
# 4 -0.000025 0.000018 -0.000005 0.060088 -0.000029 0.023842
# 5 -0.108758 0.135897 -0.004458 -0.000029 -0.067056 -0.000012
# 6 -0.000011 0.000008 -0.000002 0.023842 -0.000012 0.044577
#
#
# Mechanical properties :
#
#
# Convention : Reuss Voigt Hill
#
# Bulk Modulus (GPa) = 14.12528 46.46360 30.29444
# Shear Modulus (GPa) = -14.43665 27.38690 6.47513
#
# Velocity S-wave (km/s) = -2.70637 3.72756 1.81250
# Velocity P-wave (km/s) = 1.61228 6.48842 4.44410
#
# Compressibility (1/GPa) = 0.07079505
#
# Stress axis : x y z
#
# Youngs Moduli (GPa) = -8.93863 -14.54906 81.76192
#
# Poissons Ratio (x) = 1.74575 1.48871
# Poissons Ratio (y) = 1.07255 -1.45560
# Poissons Ratio (z) = -0.16275 0.25902
#
# Static dielectric constant tensor:
#      x y z
#    x 1.713510 0.000000 0.047360 
#    y 0.000000 1.676730 0.000000 
#    z 0.047360 0.000000 1.776810 
# 
# From -- ./inp_files/329553.got.cif
#   From: 2010.05.17/outbox.ucp.g08.bks.cvg/sg12_165_cif.got.tgz:329553.got - 2010.06.11 11:47:21.
