data_PCOD9223237
_publ_section_title
;
Structure prediction by ZEFSAII (Michael W. Deem and Ramdas Pophale) SiO2 
 PCOD9223237
Probable space group: C 2/M
;
_chemical_formula_sum "Si O2"
_cell_formula_units_Z 28
_cell_length_a 30.000000
_cell_length_b 9.000000
_cell_length_c 18.000000
_cell_angle_alpha 90.000000
_cell_angle_beta 140.000000
_cell_angle_gamma 90.000000
_cell_volume 3123.947783
_symmetry_space_group_name_H-M "C 2/M"
_symmetry_group_IT_number 12
_symmetry_cell_setting 'monoclinic'
loop_
_space_group_symop_operation_xyz
x,y,z
-x,y,-z
-x,-y,-z
x,-y,z
1/2+x,1/2+y,z
1/2-x,1/2+y,-z
1/2-x,1/2-y,-z
1/2+x,1/2-y,z
loop_
_atom_site_type_symbol
_atom_site_label
_atom_site_fract_x
_atom_site_fract_y
_atom_site_fract_z
Si Si1 0.940672 0.679397 0.674077
Si Si2 0.717699 0.818443 0.091298
Si Si3 0.410042 0.179942 0.171348
Si Si4 0.785550 0.676106 0.748584
Si Si5 0.880391 0.175991 0.449811
Si Si6 0.317168 0.180997 0.625903
Si Si7 0.869875 0.320966 0.281593
O O1 0.938309 0.500000 0.666314
O O2 0.916522 0.747365 0.565335
O O3 0.886445 0.722673 0.669065
O O4 0.020874 0.725629 0.784271
O O5 0.691803 0.772365 0.140823
O O6 0.791817 0.742676 0.173097
O O7 0.726240 0.000000 0.101484
O O8 0.660800 0.772614 0.958547
O O9 0.410666 0.222734 0.258835
O O10 0.408547 0.000000 0.168243
O O11 0.799188 0.500000 0.765111
O O12 0.702369 0.696572 0.642613
O O13 0.816582 0.733720 0.711015
O O14 0.898147 0.251238 0.393866
O O15 0.893863 0.000000 0.464330
O O16 0.250000 0.250000 0.500000
O O17 0.311055 0.000000 0.616838
O O18 0.868466 0.500000 0.285600
#
# Coordination Sequence:
#
# PCOD9223237 Si02
#       7
#     8   8   8   8   8   8   8
#     4  10  20  33  50  73 102 135 171 205 245 300
#     4   9  17  33  54  73  99 133 168 206 249 294
#     4   9  19  34  50  71 102 138 168 205 252 293
#     4   8  15  28  48  73  98 122 156 202 248 285
#     4  10  19  33  51  73 103 131 163 208 257 303
#     4  10  18  30  50  75 100 128 165 205 245 296
#     4  10  19  32  52  75  99 128 170 213 250 295
#
# _framework density 8.9630179999999999
#
# number of rings (size 3 to 8) (size 9 to 14) (size 15 to 20)
#    0.000    2.571    1.429    2.143    0.000    0.571 
#    0.000    6.429    0.000    4.286    0.000    0.000 
#    0.000    4.857    0.000    0.000    0.000    0.000 
#
# Total GULP energy -156038.309185 kJ/mol
# GULP energy per Si atom -5572.796757 kJ/mol
# Density = 0.894262 g / cm^3
# Si number density = 8.963018 Si / 1000 Ang^3
#
#
#
# Elastic Constant Matrix: (Units=GPa)
#
#
# Indices 1 2 3 4 5 6 
#
# 1 107.1431 6.3371 13.9070 0.0000 -5.9447 0.0000
# 2 6.3371 13.7966 5.2493 0.0000 5.3735 0.0000
# 3 13.9070 5.2493 3.1360 0.0000 -13.0163 0.0000
# 4 0.0000 0.0000 0.0000 20.2142 0.0000 -3.0620
# 5 -5.9447 5.3735 -13.0163 0.0000 20.3770 0.0000
# 6 0.0000 0.0000 0.0000 -3.0620 0.0000 16.3474
#
#
#
# Elastic Compliance Matrix: (Units=1/GPa)
#
#
# Indices 1 2 3 4 5 6 
#
# 1 0.009784 -0.009028 0.003965 0.000000 0.007768 0.000000
# 2 -0.009028 0.045457 0.058585 0.000000 0.022802 0.000000
# 3 0.003965 0.058585 -0.087147 0.000000 -0.069960 0.000000
# 4 0.000000 0.000000 0.000000 0.050915 0.000000 0.009537
# 5 0.007768 0.022802 -0.069960 0.000000 0.000639 0.000000
# 6 0.000000 0.000000 0.000000 0.009537 0.000000 0.062958
#
#
# Mechanical properties :
#
#
# Convention : Reuss Voigt Hill
#
# Bulk Modulus (GPa) = 13.30891 19.45138 16.38015
# Shear Modulus (GPa) = 8229.62345 17.95988 4123.79166
#
# Velocity S-wave (km/s) = 67.82952 3.16870 48.01502
# Velocity P-wave (km/s) = 78.37027 4.92564 55.52549
#
# Compressibility (1/GPa) = 0.07513762
#
# Stress axis : x y z
#
# Youngs Moduli (GPa) = 102.21189 21.99887 -11.47488
#
# Poissons Ratio (x) = 0.19860 0.04550
# Poissons Ratio (y) = 0.92273 0.67225
# Poissons Ratio (z) = -0.40525 -1.28880
#
# Static dielectric constant tensor:
#      x y z
#    x 1.632980 0.000000 -0.007430 
#    y 0.000000 1.598070 0.000000 
#    z -0.007430 0.000000 1.624190 
# 
# From -- ./inp_files/280910.got.cif
#   From: 2010.05.17/outbox.ucp.g08.bks.cvg/sg12_141_cif.got.tgz:280910.got - 2010.06.11 11:47:21.
