data_PCOD9223099
_publ_section_title
;
Structure prediction by ZEFSAII (Michael W. Deem and Ramdas Pophale) SiO2 
 PCOD9223099
Probable space group: C 2/M
;
_chemical_formula_sum "Si O2"
_cell_formula_units_Z 48
_cell_length_a 9.337047
_cell_length_b 19.682020
_cell_length_c 16.557181
_cell_angle_alpha 90.000000
_cell_angle_beta 73.622560
_cell_angle_gamma 90.000000
_cell_volume 2919.286192
_symmetry_space_group_name_H-M "C 2/M"
_symmetry_group_IT_number 12
_symmetry_cell_setting 'monoclinic'
loop_
_space_group_symop_operation_xyz
x,y,z
-x,y,-z
-x,-y,-z
x,-y,z
1/2+x,1/2+y,z
1/2-x,1/2+y,-z
1/2-x,1/2-y,-z
1/2+x,1/2-y,z
loop_
_atom_site_type_symbol
_atom_site_label
_atom_site_fract_x
_atom_site_fract_y
_atom_site_fract_z
Si Si1 0.294934 0.580007 0.752155
Si Si2 0.456528 0.582785 0.416972
Si Si3 0.452911 0.919993 0.752155
Si Si4 0.876315 0.321233 0.904116
Si Si5 0.873499 0.582785 0.583028
Si Si6 0.219569 0.678767 0.904116
O O1 0.316904 0.500000 0.766246
O O2 0.420974 0.602664 0.668899
O O3 0.293813 0.623868 0.833634
O O4 0.131144 0.586724 0.737713
O O5 0.500000 0.605553 0.500000
O O6 0.456821 0.500000 0.418354
O O7 0.290788 0.604707 0.418425
O O8 0.372554 0.876132 0.833634
O O9 0.410127 0.897336 0.668899
O O10 0.416850 0.000000 0.766246
O O11 0.805610 0.250000 0.888781
O O12 0.050055 0.311318 0.899890
O O13 0.794043 0.343204 1.000000
O O14 0.875175 0.500000 0.581646
O O15 0.000000 0.605553 0.500000
#
# Coordination Sequence:
#
# PCOD9223099 Si02
#       6
#     8   8   8   8   8   8
#     4   9  17  29  46  69  95 121 152 191 231 269
#     4   9  16  26  42  65  93 123 153 185 224 271
#     4   9  17  29  46  69  95 121 152 191 231 269
#     4   9  18  32  49  68  91 122 157 190 227 273
#     4   9  16  26  42  65  93 123 153 185 224 271
#     4   9  18  32  49  68  91 122 157 190 227 273
#
# _framework density 16.442374999999998
#
# number of rings (size 3 to 8) (size 9 to 14) (size 15 to 20)
#    0.000    3.000    0.000    1.000    0.000    6.000 
#    0.000    3.333    0.000    1.000    0.000   16.333 
#    0.000    0.000    0.000    0.000    0.000    0.000 
#
# Total GULP energy -133700.214808 kJ/mol
# GULP energy per Si atom -5570.842284 kJ/mol
# Density = 1.640495 g / cm^3
# Si number density = 16.442375 Si / 1000 Ang^3
#
#
#
# Elastic Constant Matrix: (Units=GPa)
#
#
# Indices 1 2 3 4 5 6 
#
# 1 65.9757 39.8363 87.0139 0.0000 1.7184 0.0000
# 2 39.8363 42.9118 77.9589 0.0000 0.8175 0.0000
# 3 87.0139 77.9589 195.5941 0.0000 1.0610 0.0000
# 4 0.0000 0.0000 0.0000 -5.1789 0.0000 -0.5067
# 5 1.7184 0.8175 1.0610 0.0000 29.5356 0.0000
# 6 0.0000 0.0000 0.0000 -0.5067 0.0000 18.4513
#
#
#
# Elastic Compliance Matrix: (Units=1/GPa)
#
#
# Indices 1 2 3 4 5 6 
#
# 1 0.040028 -0.017379 -0.010872 0.000000 -0.001457 0.000000
# 2 -0.017379 0.092048 -0.028954 0.000000 -0.000496 0.000000
# 3 -0.010872 -0.028954 0.021486 0.000000 0.000662 0.000000
# 4 0.000000 0.000000 0.000000 -0.192574 0.000000 -0.005288
# 5 -0.001457 -0.000496 0.000662 0.000000 0.033932 0.000000
# 6 0.000000 0.000000 0.000000 -0.005288 0.000000 0.054051
#
#
# Mechanical properties :
#
#
# Convention : Reuss Voigt Hill
#
# Bulk Modulus (GPa) = 25.54206 79.34442 52.44324
# Shear Modulus (GPa) = 28.33944 15.20645 21.77294
#
# Velocity S-wave (km/s) = 4.15608 3.04441 3.64290
# Velocity P-wave (km/s) = 6.21279 7.79222 7.04689
#
# Compressibility (1/GPa) = 0.03915111
#
# Stress axis : x y z
#
# Youngs Moduli (GPa) = 24.98241 10.86393 46.54167
#
# Poissons Ratio (x) = 0.18881 0.50602
# Poissons Ratio (y) = 0.43417 1.34756
# Poissons Ratio (z) = 0.27162 0.31455
#
# Static dielectric constant tensor:
#      x y z
#    x 1.551630 0.000000 -0.000080 
#    y 0.000000 1.521610 0.000000 
#    z -0.000080 0.000000 1.547720 
# 
# From -- ./inp_files/124762.got.cif
#   From: 2010.05.17/outbox.cif.g08.bks.cpg/sg12_63_cif.got.tgz:124762.got - 2010.06.03 13:09:07.
