data_PCOD9223922
_publ_section_title
;
Structure prediction by ZEFSAII (Michael W. Deem and Ramdas Pophale) SiO2 
 PCOD9223922
Probable space group: C 2/M
;
_chemical_formula_sum "Si O2"
_cell_formula_units_Z 28
_cell_length_a 24.000000
_cell_length_b 9.000000
_cell_length_c 15.000000
_cell_angle_alpha 90.000000
_cell_angle_beta 110.000000
_cell_angle_gamma 90.000000
_cell_volume 3044.604091
_symmetry_space_group_name_H-M "C 2/M"
_symmetry_group_IT_number 12
_symmetry_cell_setting 'monoclinic'
loop_
_space_group_symop_operation_xyz
x,y,z
-x,y,-z
-x,-y,-z
x,-y,z
1/2+x,1/2+y,z
1/2-x,1/2+y,-z
1/2-x,1/2-y,-z
1/2+x,1/2-y,z
loop_
_atom_site_type_symbol
_atom_site_label
_atom_site_fract_x
_atom_site_fract_y
_atom_site_fract_z
Si Si1 0.499278 0.320651 0.758488
Si Si2 0.174900 0.179672 0.054481
Si Si3 0.555491 0.319786 0.089032
Si Si4 0.799110 0.180823 0.453994
Si Si5 0.780296 0.321782 0.250687
Si Si6 0.055811 0.179150 0.463579
Si Si7 0.628643 0.177685 0.850791
O O1 0.507128 0.500000 0.765169
O O2 0.455674 0.276973 0.815327
O O3 0.469979 0.282396 0.648129
O O4 0.563204 0.248148 0.812043
O O5 0.116138 0.226040 0.076583
O O6 0.229174 0.216640 0.150216
O O7 0.175637 0.000000 0.042319
O O8 0.167614 0.254456 0.953462
O O9 0.555505 0.500000 0.086629
O O10 0.500000 0.267936 0.000000
O O11 0.750000 0.250000 0.500000
O O12 0.779171 0.236221 0.344120
O O13 0.872031 0.222144 0.496156
O O14 0.796438 0.000000 0.460781
O O15 0.775757 0.500000 0.265506
O O16 0.840246 0.292528 0.227478
O O17 0.000000 0.227951 0.500000
O O18 0.057967 0.000000 0.475409
O O19 0.625841 0.000000 0.861169
#
# Coordination Sequence:
#
# PCOD9223922 Si02
#       7
#     8   8   8   8   8   8   8
#     4  10  19  34  59  83 108 148 197 243 286 344
#     4  10  20  36  59  82 110 153 202 244 282 343
#     4   9  16  29  52  81 104 135 190 241 278 326
#     4  11  24  42  65  92 124 159 200 254 308 360
#     4  10  23  40  60  84 115 156 200 242 290 351
#     4   9  19  36  61  91 115 147 204 259 293 338
#     4  11  22  36  54  86 125 154 185 237 303 361
#
# _framework density 9.1965979999999998
#
# number of rings (size 3 to 8) (size 9 to 14) (size 15 to 20)
#    0.000    2.000    1.429    2.143    2.000    2.857 
#    0.000    2.857    0.000    3.857    0.000    0.000 
#    0.000    0.000    0.000    0.000    0.000    0.000 
#
# Total GULP energy -155950.166363 kJ/mol
# GULP energy per Si atom -5569.648799 kJ/mol
# Density = 0.917567 g / cm^3
# Si number density = 9.196598 Si / 1000 Ang^3
#
#
#
# Elastic Constant Matrix: (Units=GPa)
#
#
# Indices 1 2 3 4 5 6 
#
# 1 112.2345 22.4251 47.7777 0.0000 -12.4645 0.0000
# 2 22.4251 43.7733 33.6037 0.0000 -5.5677 0.0000
# 3 47.7777 33.6037 140.3473 0.0000 -17.3239 0.0000
# 4 0.0000 0.0000 0.0000 29.8987 0.0000 0.4087
# 5 -12.4645 -5.5677 -17.3239 0.0000 43.4443 0.0000
# 6 0.0000 0.0000 0.0000 0.4087 0.0000 25.8876
#
#
#
# Elastic Compliance Matrix: (Units=1/GPa)
#
#
# Indices 1 2 3 4 5 6 
#
# 1 0.010907 -0.003289 -0.002725 0.000000 0.001621 0.000000
# 2 -0.003289 0.029020 -0.005770 0.000000 0.000475 0.000000
# 3 -0.002725 -0.005770 0.009725 0.000000 0.002357 0.000000
# 4 0.000000 0.000000 0.000000 0.033454 0.000000 -0.000528
# 5 0.001621 0.000475 0.002357 0.000000 0.024484 0.000000
# 6 0.000000 0.000000 0.000000 -0.000528 0.000000 0.038637
#
#
# Mechanical properties :
#
#
# Convention : Reuss Voigt Hill
#
# Bulk Modulus (GPa) = 38.33897 55.99645 47.16771
# Shear Modulus (GPa) = 28.01267 32.68270 30.34769
#
# Velocity S-wave (km/s) = 3.90679 4.21989 4.06635
# Velocity P-wave (km/s) = 6.42184 7.36570 6.90990
#
# Compressibility (1/GPa) = 0.02608312
#
# Stress axis : x y z
#
# Youngs Moduli (GPa) = 91.68081 34.45910 102.82351
#
# Poissons Ratio (x) = 0.11335 0.28024
# Poissons Ratio (y) = 0.30158 0.59328
# Poissons Ratio (z) = 0.24987 0.19883
#
# Static dielectric constant tensor:
#      x y z
#    x 1.675730 0.000000 -0.003310 
#    y 0.000000 1.622210 0.000000 
#    z -0.003310 0.000000 1.627360 
# 
# From -- ./inp_files/237854.got.cif
#   From: 2010.05.17/outbox.ucp.g08.bks.cvg/sg12_119_cif.got.tgz:237854.got - 2010.06.11 11:47:21.
