data_PCOD9223285
_publ_section_title
;
Structure prediction by ZEFSAII (Michael W. Deem and Ramdas Pophale) SiO2 
 PCOD9223285
Probable space group: C 2/M
;
_chemical_formula_sum "Si O2"
_cell_formula_units_Z 20
_cell_length_a 21.000000
_cell_length_b 9.000000
_cell_length_c 18.000000
_cell_angle_alpha 90.000000
_cell_angle_beta 40.000000
_cell_angle_gamma 90.000000
_cell_volume 2186.763448
_symmetry_space_group_name_H-M "C 2/M"
_symmetry_group_IT_number 12
_symmetry_cell_setting 'monoclinic'
loop_
_space_group_symop_operation_xyz
x,y,z
-x,y,-z
-x,-y,-z
x,-y,z
1/2+x,1/2+y,z
1/2-x,1/2+y,-z
1/2-x,1/2-y,-z
1/2+x,1/2-y,z
loop_
_atom_site_type_symbol
_atom_site_label
_atom_site_fract_x
_atom_site_fract_y
_atom_site_fract_z
Si Si1 0.752509 0.819322 0.644537
Si Si2 0.305347 0.178996 0.020985
Si Si3 0.449706 0.680180 0.384506
Si Si4 0.469257 0.820128 0.205621
Si Si5 0.850142 0.179871 0.711220
O O1 0.837197 0.779304 0.508579
O O2 0.637712 0.771650 0.734159
O O3 0.804884 0.767145 0.673837
O O4 0.748806 0.000000 0.649773
O O5 0.422085 0.221844 0.925434
O O6 0.304185 0.000000 0.013986
O O7 0.250000 0.250000 0.000000
O O8 0.233436 0.217536 0.153520
O O9 0.453910 0.500000 0.375247
O O10 0.471666 0.754316 0.286179
O O11 0.538973 0.725286 0.361580
O O12 0.466837 0.000000 0.209232
O O13 0.855743 0.000000 0.701090
#
# Coordination Sequence:
#
# PCOD9223285 Si02
#       5
#     8   8   8   8   8
#     4   9  18  31  48  74 102 126 160 203 242 280
#     4  10  19  32  51  73  96 125 161 200 241 287
#     4  10  18  31  53  74  96 130 166 198 233 283
#     4  10  20  32  49  74 102 129 157 198 246 287
#     4   9  17  30  50  74  96 125 165 203 237 278
#
# _framework density 9.145937
#
# number of rings (size 3 to 8) (size 9 to 14) (size 15 to 20)
#    0.000    2.400    2.000    1.200    0.000    3.200 
#    0.000    4.000    0.000    6.000    0.000    2.800 
#    0.000    0.000    0.000    0.000    0.000    0.000 
#
# Total GULP energy -111347.562436 kJ/mol
# GULP energy per Si atom -5567.378122 kJ/mol
# Density = 0.912512 g / cm^3
# Si number density = 9.145937 Si / 1000 Ang^3
#
#
#
# Elastic Constant Matrix: (Units=GPa)
#
#
# Indices 1 2 3 4 5 6 
#
# 1 108.4306 0.3368 24.5869 0.0000 -36.6650 0.0000
# 2 0.3368 -5.3335 7.5596 0.0001 -2.5165 -0.0001
# 3 24.5869 7.5596 81.3836 0.0001 -34.1639 -0.0001
# 4 0.0000 0.0001 0.0001 19.9299 0.0000 -1.1252
# 5 -36.6650 -2.5165 -34.1639 0.0000 45.9057 0.0000
# 6 0.0000 -0.0001 -0.0001 -1.1252 0.0000 21.5886
#
#
#
# Elastic Compliance Matrix: (Units=1/GPa)
#
#
# Indices 1 2 3 4 5 6 
#
# 1 0.012604 -0.002914 0.000904 0.000000 0.010580 0.000000
# 2 -0.002914 -0.164632 0.016590 0.000001 0.000994 0.000000
# 3 0.000904 0.016590 0.016228 0.000000 0.013709 0.000000
# 4 0.000000 0.000001 0.000000 0.050324 0.000000 0.002623
# 5 0.010580 0.000994 0.013709 0.000000 0.040491 0.000000
# 6 0.000000 0.000000 0.000000 0.002623 0.000000 0.046457
#
#
# Mechanical properties :
#
#
# Convention : Reuss Voigt Hill
#
# Bulk Modulus (GPa) = -9.37738 27.71635 9.16948
# Shear Modulus (GPa) = -79.07165 27.61802 -25.72682
#
# Velocity S-wave (km/s) = -6.58191 3.88990 -3.75435
# Velocity P-wave (km/s) = 7.93094 5.94645 3.71076
#
# Compressibility (1/GPa) = -0.10663955
#
# Stress axis : x y z
#
# Youngs Moduli (GPa) = 79.33938 -6.07416 61.62131
#
# Poissons Ratio (x) = -0.01770 -0.05572
# Poissons Ratio (y) = 0.23122 -1.02230
# Poissons Ratio (z) = -0.07175 0.10077
#
# Static dielectric constant tensor:
#      x y z
#    x 1.644390 0.000000 0.013390 
#    y 0.000000 1.609940 0.000000 
#    z 0.013390 0.000000 1.678980 
# 
# From -- ./inp_files/140285.got.cif
#   From: 2010.05.17/outbox.ucp.g08.bks.cvg/sg12_71_cif.got.tgz:140285.got - 2010.06.11 11:47:21.
