data_PCOD9223849
_publ_section_title
;
Structure prediction by ZEFSAII (Michael W. Deem and Ramdas Pophale) SiO2 
 PCOD9223849
Probable space group: C 2/M
;
_chemical_formula_sum "Si O2"
_cell_formula_units_Z 28
_cell_length_a 15.000000
_cell_length_b 15.000000
_cell_length_c 21.000000
_cell_angle_alpha 90.000000
_cell_angle_beta 40.000000
_cell_angle_gamma 90.000000
_cell_volume 3037.171456
_symmetry_space_group_name_H-M "C 2/M"
_symmetry_group_IT_number 12
_symmetry_cell_setting 'monoclinic'
loop_
_space_group_symop_operation_xyz
x,y,z
-x,y,-z
-x,-y,-z
x,-y,z
1/2+x,1/2+y,z
1/2-x,1/2+y,-z
1/2-x,1/2-y,-z
1/2+x,1/2-y,z
loop_
_atom_site_type_symbol
_atom_site_label
_atom_site_fract_x
_atom_site_fract_y
_atom_site_fract_z
Si Si1 0.061852 0.282284 0.034079
Si Si2 0.967116 0.833466 0.589408
Si Si3 0.643616 0.824581 0.531473
Si Si4 0.617482 0.278129 0.146187
Si Si5 0.505178 0.100806 0.261818
Si Si6 0.334194 0.101888 0.226067
Si Si7 0.584734 0.600401 0.657612
O O1 0.075001 0.225798 0.094014
O O2 0.952833 0.358716 0.115237
O O3 0.222981 0.310420 0.935244
O O4 0.000000 0.246379 0.000000
O O5 0.805059 0.840270 0.694548
O O6 0.000000 0.868292 0.500000
O O7 0.026806 0.733163 0.560216
O O8 0.041031 0.885448 0.607299
O O9 0.750000 0.750000 0.500000
O O10 0.571678 0.874177 0.630249
O O11 0.749331 0.882256 0.431350
O O12 0.609882 0.178587 0.181633
O O13 0.506193 0.333865 0.248514
O O14 0.394469 0.101540 0.264758
O O15 0.562562 0.000000 0.234323
O O16 0.299693 0.000000 0.227256
O O17 0.553509 0.500000 0.693687
#
# Coordination Sequence:
#
# PCOD9223849 Si02
#       7
#     8   8   8   8   8   8   8
#     4  10  22  37  61  86 116 162 193 252 309 360
#     4  11  22  33  57  90 123 159 190 241 299 366
#     4  10  19  34  54  83 117 155 194 225 279 352
#     4  10  21  40  60  91 118 155 209 246 303 365
#     4  10  19  36  62  86 115 155 199 243 292 356
#     4  10  21  35  56  91 122 148 189 243 308 370
#     4  11  22  37  60  87 120 158 199 243 296 361
#
# _framework density 9.2191039999999997
#
# number of rings (size 3 to 8) (size 9 to 14) (size 15 to 20)
#    0.000    1.714    2.857    3.429    2.000    3.143 
#    0.000    2.143    0.000    5.143    0.000    0.000 
#    0.000    0.000    0.000    0.000    0.000    0.000 
#
# Total GULP energy -156022.846204 kJ/mol
# GULP energy per Si atom -5572.244507 kJ/mol
# Density = 0.919812 g / cm^3
# Si number density = 9.219104 Si / 1000 Ang^3
#
#
#
# Elastic Constant Matrix: (Units=GPa)
#
#
# Indices 1 2 3 4 5 6 
#
# 1 75.5736 25.0320 43.9461 0.0000 2.0957 0.0000
# 2 25.0320 88.0310 44.1270 0.0000 -2.9490 0.0000
# 3 43.9461 44.1270 138.9991 -0.0002 -6.4805 0.0001
# 4 0.0000 0.0000 -0.0002 12.1711 0.0001 0.1128
# 5 2.0957 -2.9490 -6.4805 0.0001 36.5526 0.0000
# 6 0.0000 0.0000 0.0001 0.1128 0.0000 17.0228
#
#
#
# Elastic Compliance Matrix: (Units=1/GPa)
#
#
# Indices 1 2 3 4 5 6 
#
# 1 0.016802 -0.002539 -0.004599 0.000000 -0.001983 0.000000
# 2 -0.002539 0.013897 -0.003580 0.000000 0.000632 0.000000
# 3 -0.004599 -0.003580 0.009865 0.000000 0.001724 0.000000
# 4 0.000000 0.000000 0.000000 0.082167 0.000000 -0.000544
# 5 -0.001983 0.000632 0.001724 0.000000 0.027828 0.000000
# 6 0.000000 0.000000 0.000000 -0.000544 0.000000 0.058748
#
#
# Mechanical properties :
#
#
# Convention : Reuss Voigt Hill
#
# Bulk Modulus (GPa) = 52.27463 58.75708 55.51586
# Shear Modulus (GPa) = 21.08644 25.78254 23.43449
#
# Velocity S-wave (km/s) = 3.38542 3.74347 3.56894
# Velocity P-wave (km/s) = 6.61016 7.11484 6.86714
#
# Compressibility (1/GPa) = 0.01912974
#
# Stress axis : x y z
#
# Youngs Moduli (GPa) = 59.51581 71.95721 101.36900
#
# Poissons Ratio (x) = 0.18271 0.46616
# Poissons Ratio (y) = 0.15112 0.36286
# Poissons Ratio (z) = 0.27369 0.25758
#
# Static dielectric constant tensor:
#      x y z
#    x 1.668680 0.000000 -0.001860 
#    y 0.000000 1.671920 0.000000 
#    z -0.001860 0.000000 1.636410 
# 
# From -- ./inp_files/310762.got.cif
#   From: 2010.05.17/outbox.ucp.g08.bks.cvg/sg12_156_cif.got.tgz:310762.got - 2010.06.11 11:47:21.
