data_PCOD9223626
_publ_section_title
;
Structure prediction by ZEFSAII (Michael W. Deem and Ramdas Pophale) SiO2 
 PCOD9223626
Probable space group: C 2/M
;
_chemical_formula_sum "Si O2"
_cell_formula_units_Z 32
_cell_length_a 24.000000
_cell_length_b 9.000000
_cell_length_c 30.000000
_cell_angle_alpha 90.000000
_cell_angle_beta 30.000000
_cell_angle_gamma 90.000000
_cell_volume 3240.000000
_symmetry_space_group_name_H-M "C 2/M"
_symmetry_group_IT_number 12
_symmetry_cell_setting 'monoclinic'
loop_
_space_group_symop_operation_xyz
x,y,z
-x,y,-z
-x,-y,-z
x,-y,z
1/2+x,1/2+y,z
1/2-x,1/2+y,-z
1/2-x,1/2-y,-z
1/2+x,1/2-y,z
loop_
_atom_site_type_symbol
_atom_site_label
_atom_site_fract_x
_atom_site_fract_y
_atom_site_fract_z
Si Si1 0.627963 0.678513 0.419120
Si Si2 0.704746 0.177558 0.457950
Si Si3 0.806279 0.823152 0.029058
Si Si4 0.597870 0.821611 0.620409
Si Si5 0.515333 0.177962 0.841442
Si Si6 0.558151 0.180282 0.198718
Si Si7 0.372011 0.324158 0.085874
Si Si8 0.290547 0.178736 0.228406
O O1 0.500000 0.717564 0.500000
O O2 0.638469 0.500000 0.417537
O O3 0.680471 0.751837 0.426829
O O4 0.689442 0.718818 0.330684
O O5 0.607302 0.212678 0.561725
O O6 0.809194 0.243334 0.413185
O O7 0.715729 0.000000 0.445974
O O8 0.682682 0.769886 0.103745
O O9 0.827793 0.803708 0.066752
O O10 0.817699 0.000000 0.011455
O O11 0.896034 0.729208 0.940668
O O12 0.483824 0.778652 0.723452
O O13 0.614541 0.000000 0.613003
O O14 0.523906 0.228836 0.784214
O O15 0.603746 0.234136 0.815827
O O16 0.525520 0.000000 0.834222
O O17 0.561127 0.000000 0.195552
O O18 0.374278 0.500000 0.093772
O O19 0.298065 0.247155 0.174605
O O20 0.500000 0.268335 0.000000
O O21 0.294862 0.000000 0.221535
#
# Coordination Sequence:
#
# PCOD9223626 Si02
#       8
#     8   8   8   8   8   8   8   8
#     4  10  22  40  59  80 111 150 187 227 280 336
#     4  10  20  34  57  86 110 139 181 227 278 328
#     4  10  20  34  52  74 104 140 176 215 265 319
#     4   9  18  35  57  79 108 144 181 222 272 332
#     4  10  19  32  52  76 102 133 175 219 262 312
#     4   9  18  33  53  76 103 139 178 215 260 318
#     4  10  20  35  54  78 108 142 179 221 271 320
#     4  10  21  36  57  81 103 139 185 224 268 323
#
# _framework density 9.8765429999999999
#
# number of rings (size 3 to 8) (size 9 to 14) (size 15 to 20)
#    0.000    2.250    1.250    1.500    0.000    5.000 
#    0.000    3.750    0.000    0.000    0.000    0.000 
#    0.000    0.000    0.000    0.000    0.000    0.000 
#
# Total GULP energy -178393.673036 kJ/mol
# GULP energy per Si atom -5574.802282 kJ/mol
# Density = 0.985406 g / cm^3
# Si number density = 9.876543 Si / 1000 Ang^3
#
#
#
# Elastic Constant Matrix: (Units=GPa)
#
#
# Indices 1 2 3 4 5 6 
#
# 1 40.9086 14.3744 10.4027 -0.0013 11.4903 0.0065
# 2 14.3744 2.9032 2.1868 -0.0023 6.1537 -0.0091
# 3 10.4027 2.1868 80.7609 -0.0008 16.0094 -0.0011
# 4 -0.0013 -0.0023 -0.0008 16.2795 -0.0005 -0.5223
# 5 11.4903 6.1537 16.0094 -0.0005 28.0804 0.0018
# 6 0.0065 -0.0091 -0.0011 -0.5223 0.0018 8.8030
#
#
#
# Elastic Compliance Matrix: (Units=1/GPa)
#
#
# Indices 1 2 3 4 5 6 
#
# 1 -0.017554 0.136824 0.003468 0.000023 -0.024779 0.000162
# 2 0.136824 -0.412969 -0.014977 -0.000065 0.043052 -0.000543
# 3 0.003468 -0.014977 0.013497 -0.000002 -0.005832 -0.000015
# 4 0.000023 -0.000065 -0.000002 0.061544 0.000007 0.003652
# 5 -0.024779 0.043052 -0.005832 0.000007 0.039642 0.000055
# 6 0.000162 -0.000543 -0.000015 0.003652 0.000055 0.113813
#
#
# Mechanical properties :
#
#
# Convention : Reuss Voigt Hill
#
# Bulk Modulus (GPa) = -6.00980 19.83339 6.91179
# Shear Modulus (GPa) = -9.84011 17.13985 3.64987
#
# Velocity S-wave (km/s) = -2.23436 2.94888 1.36079
# Velocity P-wave (km/s) = 3.11538 4.65370 2.44452
#
# Compressibility (1/GPa) = -0.16639479
#
# Stress axis : x y z
#
# Youngs Moduli (GPa) = -56.96603 -2.42149 74.08985
#
# Poissons Ratio (x) = 0.33132 -0.25697
# Poissons Ratio (y) = 7.79433 1.10961
# Poissons Ratio (z) = 0.19758 -0.03627
#
# Static dielectric constant tensor:
#      x y z
#    x 1.684830 0.000000 0.002240 
#    y 0.000000 1.664900 0.000000 
#    z 0.002240 0.000000 1.760970 
# 
# From -- ./inp_files/382315.got.cif
#   From: 2010.05.17/outbox.ucp.g08.bks.cvg/sg12_192_cif.got.tgz:382315.got - 2010.06.11 11:47:21.
