data_PCOD9223292
_publ_section_title
;
Structure prediction by ZEFSAII (Michael W. Deem and Ramdas Pophale) SiO2 
 PCOD9223292
Probable space group: C 2/M
;
_chemical_formula_sum "Si O2"
_cell_formula_units_Z 28
_cell_length_a 24.000000
_cell_length_b 18.000000
_cell_length_c 12.000000
_cell_angle_alpha 90.000000
_cell_angle_beta 40.000000
_cell_angle_gamma 90.000000
_cell_volume 3332.210969
_symmetry_space_group_name_H-M "C 2/M"
_symmetry_group_IT_number 12
_symmetry_cell_setting 'monoclinic'
loop_
_space_group_symop_operation_xyz
x,y,z
-x,y,-z
-x,-y,-z
x,-y,z
1/2+x,1/2+y,z
1/2-x,1/2+y,-z
1/2-x,1/2-y,-z
1/2+x,1/2-y,z
loop_
_atom_site_type_symbol
_atom_site_label
_atom_site_fract_x
_atom_site_fract_y
_atom_site_fract_z
Si Si1 0.281548 0.088777 0.531305
Si Si2 0.016934 0.584601 0.842045
Si Si3 0.698612 0.411584 0.420827
Si Si4 0.239486 0.693718 0.221692
Si Si5 0.269540 0.589964 0.966905
Si Si6 0.099710 0.821045 0.390886
Si Si7 0.154312 0.656525 0.958021
O O1 0.382190 0.098201 0.339234
O O2 0.217919 0.101755 0.522355
O O3 0.265790 0.148981 0.653356
O O4 0.272134 0.000000 0.577021
O O5 0.996486 0.500000 0.835114
O O6 0.000000 0.586525 0.000000
O O7 0.947282 0.641678 0.898706
O O8 0.684940 0.500000 0.425516
O O9 0.623184 0.364766 0.471968
O O10 0.788319 0.387210 0.222624
O O11 0.152436 0.742548 0.324626
O O12 0.313601 0.758159 0.101539
O O13 0.259770 0.630505 0.099842
O O14 0.274710 0.500000 0.962608
O O15 0.350171 0.627555 0.777024
O O16 0.187674 0.618900 0.020501
O O17 0.000000 0.813217 0.500000
#
# Coordination Sequence:
#
# PCOD9223292 Si02
#       7
#     8   8   8   8   8   8   8
#     4  10  20  34  56  82 110 144 179 217 268 326
#     4  10  18  31  53  82 109 134 173 223 266 311
#     4   9  17  32  54  79 107 137 177 225 265 311
#     4  10  22  36  53  76 116 148 176 211 268 335
#     4  10  20  36  58  77 104 143 184 223 264 317
#     4  10  21  36  58  84 104 138 180 233 273 309
#     4  10  18  32  53  78 106 140 175 223 270 313
#
# _framework density 8.4028290000000005
#
# number of rings (size 3 to 8) (size 9 to 14) (size 15 to 20)
#    0.000    2.429    1.429    4.714    0.000    5.714 
#    0.000    0.000    0.000    3.429    0.000    3.000 
#    0.000    0.000    0.000    0.000    0.000    0.000 
#
# Total GULP energy -155950.474229 kJ/mol
# GULP energy per Si atom -5569.659794 kJ/mol
# Density = 0.838370 g / cm^3
# Si number density = 8.402829 Si / 1000 Ang^3
#
#
#
# Elastic Constant Matrix: (Units=GPa)
#
#
# Indices 1 2 3 4 5 6 
#
# 1 120.4038 58.5865 48.5082 0.0000 -3.3602 0.0000
# 2 58.5865 127.6842 44.7685 0.0000 13.8438 0.0000
# 3 48.5082 44.7685 50.0730 0.0000 10.0970 0.0000
# 4 0.0000 0.0000 0.0000 21.5895 0.0000 6.5915
# 5 -3.3602 13.8438 10.0970 0.0000 35.6569 0.0000
# 6 0.0000 0.0000 0.0000 6.5915 0.0000 29.5605
#
#
#
# Elastic Compliance Matrix: (Units=1/GPa)
#
#
# Indices 1 2 3 4 5 6 
#
# 1 0.015405 -0.003029 -0.013518 0.000000 0.006456 0.000000
# 2 -0.003029 0.012094 -0.007290 0.000000 -0.002917 0.000000
# 3 -0.013518 -0.007290 0.041648 0.000000 -0.010237 0.000000
# 4 0.000000 0.000000 0.000000 0.049703 0.000000 -0.011083
# 5 0.006456 -0.002917 -0.010237 0.000000 0.032685 0.000000
# 6 0.000000 0.000000 0.000000 -0.011083 0.000000 0.036300
#
#
# Mechanical properties :
#
#
# Convention : Reuss Voigt Hill
#
# Bulk Modulus (GPa) = 46.56836 66.87638 56.72237
# Shear Modulus (GPa) = 20.60437 27.11455 23.85946
#
# Velocity S-wave (km/s) = 3.50528 4.02109 3.77202
# Velocity P-wave (km/s) = 6.64475 7.83832 7.26609
#
# Compressibility (1/GPa) = 0.02147381
#
# Stress axis : x y z
#
# Youngs Moduli (GPa) = 64.91253 82.68556 24.01056
#
# Poissons Ratio (x) = 0.25045 0.32456
# Poissons Ratio (y) = 0.19662 0.17505
# Poissons Ratio (z) = 0.87746 0.60281
#
# Static dielectric constant tensor:
#      x y z
#    x 1.598740 0.000000 0.015520 
#    y 0.000000 1.566720 0.000000 
#    z 0.015520 0.000000 1.569280 
# 
# From -- ./inp_files/177069.got.cif
#   From: 2010.05.17/outbox.ucp.g08.bks.cvg/sg12_89_cif.got.tgz:177069.got - 2010.06.11 11:47:21.
