data_PCOD9223670
_publ_section_title
;
Structure prediction by ZEFSAII (Michael W. Deem and Ramdas Pophale) SiO2 
 PCOD9223670
Probable space group: C 2/M
;
_chemical_formula_sum "Si O2"
_cell_formula_units_Z 32
_cell_length_a 18.000000
_cell_length_b 9.000000
_cell_length_c 30.000000
_cell_angle_alpha 90.000000
_cell_angle_beta 140.000000
_cell_angle_gamma 90.000000
_cell_volume 3123.947783
_symmetry_space_group_name_H-M "C 2/M"
_symmetry_group_IT_number 12
_symmetry_cell_setting 'monoclinic'
loop_
_space_group_symop_operation_xyz
x,y,z
-x,y,-z
-x,-y,-z
x,-y,z
1/2+x,1/2+y,z
1/2-x,1/2+y,-z
1/2-x,1/2-y,-z
1/2+x,1/2-y,z
loop_
_atom_site_type_symbol
_atom_site_label
_atom_site_fract_x
_atom_site_fract_y
_atom_site_fract_z
Si Si1 0.658227 0.332634 0.296738
Si Si2 0.482965 0.324709 0.542455
Si Si3 0.673782 0.663242 0.775131
Si Si4 0.279437 0.175825 0.586234
Si Si5 0.996232 0.673647 0.361220
Si Si6 0.391407 0.170711 0.815952
Si Si7 0.864703 0.331050 0.066093
Si Si8 0.893642 0.162741 0.163148
O O1 0.702138 0.500000 0.315411
O O2 0.717088 0.244026 0.363076
O O3 0.658053 0.259265 0.248483
O O4 0.520576 0.334553 0.243304
O O5 0.500000 0.268179 0.500000
O O6 0.510047 0.500000 0.554503
O O7 0.347908 0.300767 0.490837
O O8 0.545962 0.248923 0.612512
O O9 0.620182 0.500000 0.739893
O O10 0.594697 0.790807 0.718974
O O11 0.795613 0.669251 0.808467
O O12 0.691908 0.670166 0.835657
O O13 0.382394 0.234170 0.602682
O O14 0.297227 0.000000 0.599150
O O15 0.009093 0.500000 0.375703
O O16 0.510900 0.232572 0.890747
O O17 0.414158 0.000000 0.811942
O O18 0.855994 0.500000 0.048238
O O19 0.877024 0.301879 0.124309
O O20 0.750000 0.250000 0.000000
O O21 0.884670 0.000000 0.136033
#
# Coordination Sequence:
#
# PCOD9223670 Si02
#       8
#     8   8   8   8   8   8   8   8
#     4  10  19  32  54  83 110 141 180 227 275 323
#     4  10  23  41  58  76 103 144 191 233 278 338
#     4  10  20  37  59  82 112 148 185 227 275 331
#     4  10  21  37  56  78 107 144 185 226 277 336
#     4  11  23  37  56  82 111 143 182 233 285 332
#     4   9  20  36  56  81 112 148 185 224 269 322
#     4  10  20  36  59  85 113 149 187 224 267 319
#     4   9  18  34  56  83 111 143 184 224 264 318
#
# _framework density 10.243449
#
# number of rings (size 3 to 8) (size 9 to 14) (size 15 to 20)
#    0.000    2.125    1.250    1.500    1.750    3.250 
#    0.000    0.625    0.000    3.750    0.000    0.000 
#    0.000    0.000    0.000    0.000    0.000    0.000 
#
# Total GULP energy -178165.295597 kJ/mol
# GULP energy per Si atom -5567.665487 kJ/mol
# Density = 1.022013 g / cm^3
# Si number density = 10.243449 Si / 1000 Ang^3
#
#
#
# Elastic Constant Matrix: (Units=GPa)
#
#
# Indices 1 2 3 4 5 6 
#
# 1 70.4447 0.0873 4.5684 0.0000 21.2605 0.0000
# 2 0.0873 19.8490 -27.4365 -0.0001 13.0772 0.0000
# 3 4.5684 -27.4365 64.8230 0.0000 27.4630 0.0000
# 4 0.0000 -0.0001 0.0000 -80.0592 0.0000 7.3318
# 5 21.2605 13.0772 27.4630 0.0000 -12.1057 0.0000
# 6 0.0000 0.0000 0.0000 7.3318 0.0000 9.9713
#
#
#
# Elastic Compliance Matrix: (Units=1/GPa)
#
#
# Indices 1 2 3 4 5 6 
#
# 1 0.014001 -0.009129 -0.005655 0.000000 0.001899 0.000000
# 2 -0.009129 0.035419 0.003170 0.000000 0.029421 0.000000
# 3 -0.005655 0.003170 0.010159 0.000000 0.016541 0.000000
# 4 0.000000 0.000000 0.000000 -0.011703 0.000000 0.008605
# 5 0.001899 0.029421 0.016541 0.000000 -0.009966 0.000000
# 6 0.000000 0.000000 0.000000 0.008605 0.000000 0.093961
#
#
# Mechanical properties :
#
#
# Convention : Reuss Voigt Hill
#
# Bulk Modulus (GPa) = 27.50904 12.17277 19.84090
# Shear Modulus (GPa) = 29.90157 -4.57887 12.66135
#
# Velocity S-wave (km/s) = 3.82454 -1.49662 2.48870
# Velocity P-wave (km/s) = 5.74105 1.72283 4.23838
#
# Compressibility (1/GPa) = 0.03635169
#
# Stress axis : x y z
#
# Youngs Moduli (GPa) = 71.42562 28.23349 98.43253
#
# Poissons Ratio (x) = 0.25774 0.55662
# Poissons Ratio (y) = 0.65203 -0.31204
# Poissons Ratio (z) = 0.40390 -0.08950
#
# Static dielectric constant tensor:
#      x y z
#    x 1.790650 0.000000 0.020330 
#    y 0.000000 1.812650 0.000000 
#    z 0.020330 0.000000 1.792920 
# 
# From -- ./inp_files/378297.got.cif
#   From: 2010.05.17/outbox.ucp.g08.bks.cvg/sg12_190_cif.got.tgz:378297.got - 2010.06.11 11:47:21.
