data_PCOD9223773
_publ_section_title
;
Structure prediction by ZEFSAII (Michael W. Deem and Ramdas Pophale) SiO2 
 PCOD9223773
Probable space group: C 2/M
;
_chemical_formula_sum "Si O2"
_cell_formula_units_Z 20
_cell_length_a 15.000000
_cell_length_b 9.000000
_cell_length_c 30.000000
_cell_angle_alpha 90.000000
_cell_angle_beta 150.000000
_cell_angle_gamma 90.000000
_cell_volume 2025.000000
_symmetry_space_group_name_H-M "C 2/M"
_symmetry_group_IT_number 12
_symmetry_cell_setting 'monoclinic'
loop_
_space_group_symop_operation_xyz
x,y,z
-x,y,-z
-x,-y,-z
x,-y,z
1/2+x,1/2+y,z
1/2-x,1/2+y,-z
1/2-x,1/2-y,-z
1/2+x,1/2-y,z
loop_
_atom_site_type_symbol
_atom_site_label
_atom_site_fract_x
_atom_site_fract_y
_atom_site_fract_z
Si Si1 0.225053 0.327481 0.562487
Si Si2 0.397237 0.179814 0.908553
Si Si3 0.991940 0.820320 0.755612
Si Si4 0.621465 0.321232 0.195199
Si Si5 0.477333 0.328300 0.386627
O O1 0.173890 0.500000 0.547977
O O2 0.331422 0.269665 0.652772
O O3 0.370402 0.328007 0.585513
O O4 0.060071 0.239639 0.468251
O O5 0.445059 0.250056 0.880561
O O6 0.188056 0.220941 0.823325
O O7 0.412973 0.000000 0.911678
O O8 0.500000 0.220343 0.000000
O O9 0.982593 0.780118 0.803954
O O10 0.981105 0.000000 0.748935
O O11 0.619829 0.500000 0.189734
O O12 0.817796 0.264543 0.295100
O O13 0.422946 0.500000 0.370292
#
# Coordination Sequence:
#
# PCOD9223773 Si02
#       5
#     8   8   8   8   8
#     4   9  17  33  56  78 110 153 194 227 271 333
#     4  10  21  41  65  84 109 147 188 232 286 340
#     4   9  19  37  58  83 114 152 188 225 279 344
#     4  11  22  36  58  85 116 149 188 231 279 336
#     4  10  19  33  55  82 115 150 192 233 274 327
#
# _framework density 9.8765429999999999
#
# number of rings (size 3 to 8) (size 9 to 14) (size 15 to 20)
#    0.000    2.200    2.000    1.200    0.000    2.800 
#    0.000    8.000    0.000    0.000    0.000    0.000 
#    0.000    0.000    0.000    0.000    0.000    0.000 
#
# Total GULP energy -111498.446372 kJ/mol
# GULP energy per Si atom -5574.922319 kJ/mol
# Density = 0.985406 g / cm^3
# Si number density = 9.876543 Si / 1000 Ang^3
#
#
#
# Elastic Constant Matrix: (Units=GPa)
#
#
# Indices 1 2 3 4 5 6 
#
# 1 103.7834 19.5918 37.1313 0.0000 -33.8978 0.0000
# 2 19.5918 56.2833 24.5112 0.0000 -18.5513 0.0000
# 3 37.1313 24.5112 111.4800 0.0001 -50.8705 0.0000
# 4 0.0000 0.0000 0.0001 33.9854 0.0000 -14.0842
# 5 -33.8978 -18.5513 -50.8705 0.0000 52.0961 0.0000
# 6 0.0000 0.0000 0.0000 -14.0842 0.0000 22.8673
#
#
#
# Elastic Compliance Matrix: (Units=1/GPa)
#
#
# Indices 1 2 3 4 5 6 
#
# 1 0.012432 -0.001802 -0.000624 0.000000 0.006838 0.000000
# 2 -0.001802 0.020663 -0.002021 0.000000 0.004212 0.000000
# 3 -0.000624 -0.002021 0.016429 0.000000 0.014917 0.000000
# 4 0.000000 0.000000 0.000000 0.039509 0.000000 0.024334
# 5 0.006838 0.004212 0.014917 0.000000 0.039711 0.000000
# 6 0.000000 0.000000 0.000000 0.024334 0.000000 0.058718
#
#
# Mechanical properties :
#
#
# Convention : Reuss Voigt Hill
#
# Bulk Modulus (GPa) = 24.61197 48.22393 36.41795
# Shear Modulus (GPa) = 23.82085 34.47726 29.14906
#
# Velocity S-wave (km/s) = 3.47642 4.18234 3.84561
# Velocity P-wave (km/s) = 5.34798 6.91296 6.18021
#
# Compressibility (1/GPa) = 0.04063064
#
# Stress axis : x y z
#
# Youngs Moduli (GPa) = 80.43442 48.39588 60.86625
#
# Poissons Ratio (x) = 0.08720 0.03800
# Poissons Ratio (y) = 0.14493 0.12301
# Poissons Ratio (z) = 0.05022 0.09780
#
# Static dielectric constant tensor:
#      x y z
#    x 1.765150 0.000000 0.034600 
#    y 0.000000 1.680300 0.000000 
#    z 0.034600 0.000000 1.695920 
# 
# From -- ./inp_files/211168.got.cif
#   From: 2010.05.17/outbox.ucp.g08.bks.cvg/sg12_106_cif.got.tgz:211168.got - 2010.06.11 11:47:21.
