data_PCOD9223494
_publ_section_title
;
Structure prediction by ZEFSAII (Michael W. Deem and Ramdas Pophale) SiO2 
 PCOD9223494
Probable space group: C 2/M
;
_chemical_formula_sum "Si O2"
_cell_formula_units_Z 28
_cell_length_a 30.000000
_cell_length_b 9.000000
_cell_length_c 12.000000
_cell_angle_alpha 90.000000
_cell_angle_beta 120.000000
_cell_angle_gamma 90.000000
_cell_volume 2805.922308
_symmetry_space_group_name_H-M "C 2/M"
_symmetry_group_IT_number 12
_symmetry_cell_setting 'monoclinic'
loop_
_space_group_symop_operation_xyz
x,y,z
-x,y,-z
-x,-y,-z
x,-y,z
1/2+x,1/2+y,z
1/2-x,1/2+y,-z
1/2-x,1/2-y,-z
1/2+x,1/2-y,z
loop_
_atom_site_type_symbol
_atom_site_label
_atom_site_fract_x
_atom_site_fract_y
_atom_site_fract_z
Si Si1 0.670227 0.324281 0.371072
Si Si2 0.059981 0.680959 0.579403
Si Si3 0.520169 0.173630 0.909854
Si Si4 0.745821 0.677681 0.660095
Si Si5 0.919679 0.671378 0.641558
Si Si6 0.724707 0.821611 0.072255
Si Si7 0.890396 0.318013 0.125132
O O1 0.675050 0.500000 0.364109
O O2 0.701345 0.273853 0.521163
O O3 0.699663 0.239314 0.311785
O O4 0.612947 0.272225 0.317375
O O5 0.059350 0.500000 0.579492
O O6 0.083668 0.724563 0.489903
O O7 0.091165 0.729817 0.728054
O O8 0.000000 0.728051 0.500000
O O9 0.477457 0.172833 0.759715
O O10 0.569894 0.241581 0.916318
O O11 0.532609 0.000000 0.950645
O O12 0.500000 0.239502 0.000000
O O13 0.746933 0.500000 0.656812
O O14 0.742153 0.729044 0.780816
O O15 0.901607 0.500000 0.625074
O O16 0.726113 0.000000 0.072093
O O17 0.750000 0.750000 0.000000
O O18 0.665414 0.776966 0.988616
O O19 0.892908 0.500000 0.131155
#
# Coordination Sequence:
#
# PCOD9223494 Si02
#       7
#     8   8   8   8   8   8   8
#     4  10  21  36  55  78 106 139 175 222 274 322
#     4   9  15  27  46  73 105 131 166 214 255 296
#     4   9  17  28  47  78 109 136 172 219 266 311
#     4   9  20  39  57  76 103 138 182 227 268 312
#     4  10  19  30  52  81 106 135 172 217 266 318
#     4  10  22  37  56  80 109 142 178 222 268 320
#     4   9  17  30  48  74 105 137 172 215 262 305
#
# _framework density 9.9788940000000004
#
# number of rings (size 3 to 8) (size 9 to 14) (size 15 to 20)
#    0.000    2.571    1.429    0.429    4.000    1.143 
#    0.000    0.000    0.000    1.714    0.000    0.000 
#    0.000    0.000    0.000    0.000    0.000    0.000 
#
# Total GULP energy -155897.399798 kJ/mol
# GULP energy per Si atom -5567.764279 kJ/mol
# Density = 0.995618 g / cm^3
# Si number density = 9.978894 Si / 1000 Ang^3
#
#
#
# Elastic Constant Matrix: (Units=GPa)
#
#
# Indices 1 2 3 4 5 6 
#
# 1 42.7537 -7.9152 -6.5364 0.0000 -7.2297 0.0000
# 2 -7.9152 -36.8617 4.2236 0.0000 -1.6239 0.0000
# 3 -6.5364 4.2236 33.3319 0.0000 -22.2282 0.0000
# 4 0.0000 0.0000 0.0000 1.4931 0.0000 -6.0626
# 5 -7.2297 -1.6239 -22.2282 0.0000 26.4495 0.0000
# 6 0.0000 0.0000 0.0000 -6.0626 0.0000 2.6555
#
#
#
# Elastic Compliance Matrix: (Units=1/GPa)
#
#
# Indices 1 2 3 4 5 6 
#
# 1 0.032417 -0.005096 0.028900 0.000000 0.032836 0.000000
# 2 -0.005096 -0.025852 0.000658 0.000000 -0.002427 0.000000
# 3 0.028900 0.000658 0.093003 0.000000 0.086099 0.000000
# 4 0.000000 0.000000 0.000000 -0.080983 0.000000 -0.184890
# 5 0.032836 -0.002427 0.086099 0.000000 0.118992 0.000000
# 6 0.000000 0.000000 0.000000 -0.184890 0.000000 -0.045535
#
#
# Mechanical properties :
#
#
# Convention : Reuss Voigt Hill
#
# Bulk Modulus (GPa) = 6.73440 2.08529 4.40985
# Shear Modulus (GPa) = 53.98651 9.41642 31.70146
#
# Velocity S-wave (km/s) = 5.20664 2.17449 3.98983
# Velocity P-wave (km/s) = 6.28706 2.71140 4.84142
#
# Compressibility (1/GPa) = 0.14849130
#
# Stress axis : x y z
#
# Youngs Moduli (GPa) = 30.84772 -38.68192 10.75237
#
# Poissons Ratio (x) = -0.19713 -0.31074
# Poissons Ratio (y) = 0.15720 -0.00707
# Poissons Ratio (z) = -0.89150 0.02544
#
# Static dielectric constant tensor:
#      x y z
#    x 1.747620 0.000000 -0.037580 
#    y 0.000000 1.598640 0.000000 
#    z -0.037580 0.000000 1.702880 
# 
# From -- ./inp_files/187707.got.cif
#   From: 2010.05.17/outbox.ucp.g08.bks.cvg/sg12_94_cif.got.tgz:187707.got - 2010.06.11 11:47:21.
