data_PCOD9223576
_publ_section_title
;
Structure prediction by ZEFSAII (Michael W. Deem and Ramdas Pophale) SiO2 
 PCOD9223576
Probable space group: C 2/M
;
_chemical_formula_sum "Si O2"
_cell_formula_units_Z 28
_cell_length_a 21.000000
_cell_length_b 9.000000
_cell_length_c 30.000000
_cell_angle_alpha 90.000000
_cell_angle_beta 150.000000
_cell_angle_gamma 90.000000
_cell_volume 2835.000000
_symmetry_space_group_name_H-M "C 2/M"
_symmetry_group_IT_number 12
_symmetry_cell_setting 'monoclinic'
loop_
_space_group_symop_operation_xyz
x,y,z
-x,y,-z
-x,-y,-z
x,-y,z
1/2+x,1/2+y,z
1/2-x,1/2+y,-z
1/2-x,1/2-y,-z
1/2+x,1/2-y,z
loop_
_atom_site_type_symbol
_atom_site_label
_atom_site_fract_x
_atom_site_fract_y
_atom_site_fract_z
Si Si1 0.728506 0.324322 0.867244
Si Si2 0.772995 0.171390 0.395208
Si Si3 0.137124 0.678823 0.959952
Si Si4 0.450383 0.671262 0.582133
Si Si5 0.245927 0.668372 0.220560
Si Si6 0.373420 0.673378 0.773311
Si Si7 0.966846 0.669446 0.684261
O O1 0.704413 0.500000 0.858572
O O2 0.776913 0.305670 0.845750
O O3 0.590203 0.246063 0.781517
O O4 0.826034 0.280908 0.965957
O O5 0.887498 0.225783 0.497493
O O6 0.725657 0.260811 0.323198
O O7 0.649646 0.172592 0.352316
O O8 0.801916 0.000000 0.399516
O O9 0.134980 0.500000 0.955815
O O10 0.008083 0.741916 0.859721
O O11 0.250000 0.750000 0.000000
O O12 0.405865 0.500000 0.559390
O O13 0.603886 0.669706 0.676682
O O14 0.420910 0.756610 0.610105
O O15 0.198448 0.500000 0.202448
O O16 0.185136 0.793699 0.213802
O O17 0.393848 0.500000 0.776850
O O18 0.002524 0.500000 0.695926
#
# Coordination Sequence:
#
# PCOD9223576 Si02
#       7
#     8   8   8   8   8   8   8
#     4   9  20  38  61  84 110 149 190 228 277 336
#     4  10  21  37  56  81 113 153 195 235 282 337
#     4  11  23  41  64  90 118 148 185 229 278 336
#     4   9  19  36  59  83 111 150 193 233 281 340
#     4   9  19  39  61  81 108 146 191 235 279 334
#     4  12  26  40  56  82 115 151 189 235 286 336
#     4  10  19  31  54  87 119 147 181 230 284 334
#
# _framework density 9.8765429999999999
#
# number of rings (size 3 to 8) (size 9 to 14) (size 15 to 20)
#    0.000    2.000    0.000    4.286    0.000    8.571 
#    0.000    5.714    0.000    0.000    0.000    0.000 
#    0.000    0.000    0.000    0.000    0.000    0.000 
#
# Total GULP energy -156185.856624 kJ/mol
# GULP energy per Si atom -5578.066308 kJ/mol
# Density = 0.985406 g / cm^3
# Si number density = 9.876543 Si / 1000 Ang^3
#
#
#
# Elastic Constant Matrix: (Units=GPa)
#
#
# Indices 1 2 3 4 5 6 
#
# 1 39.3445 27.7580 16.9776 0.0000 -17.2847 0.0000
# 2 27.7580 68.9844 29.4790 0.0000 -18.5918 0.0002
# 3 16.9776 29.4790 73.4976 0.0002 -44.7732 0.0000
# 4 0.0000 0.0000 0.0002 25.9828 0.0000 -2.1527
# 5 -17.2847 -18.5918 -44.7732 0.0000 32.4282 0.0000
# 6 0.0000 0.0002 0.0000 -2.1527 0.0000 26.1138
#
#
#
# Elastic Compliance Matrix: (Units=1/GPa)
#
#
# Indices 1 2 3 4 5 6 
#
# 1 0.052641 -0.018531 0.037085 0.000000 0.068637 0.000000
# 2 -0.018531 0.024042 -0.018769 0.000000 -0.022007 0.000000
# 3 0.037085 -0.018769 0.113608 -0.000001 0.165864 0.000000
# 4 0.000000 0.000000 -0.000001 0.038752 -0.000002 0.003194
# 5 0.068637 -0.022007 0.165864 -0.000002 0.283810 0.000000
# 6 0.000000 0.000000 0.000000 0.003194 0.000000 0.038557
#
#
# Mechanical properties :
#
#
# Convention : Reuss Voigt Hill
#
# Bulk Modulus (GPa) = 5.26699 36.69506 20.98103
# Shear Modulus (GPa) = 8.12840 24.07909 16.10374
#
# Velocity S-wave (km/s) = 2.03075 3.49521 2.85836
# Velocity P-wave (km/s) = 2.85846 5.90812 4.64094
#
# Compressibility (1/GPa) = 0.18986167
#
# Stress axis : x y z
#
# Youngs Moduli (GPa) = 18.99648 41.59412 8.80220
#
# Poissons Ratio (x) = 0.77079 -0.32643
# Poissons Ratio (y) = 0.35203 0.16521
# Poissons Ratio (z) = -0.70449 0.78067
#
# Static dielectric constant tensor:
#      x y z
#    x 1.738470 0.000000 0.017780 
#    y 0.000000 1.692650 0.000000 
#    z 0.017780 0.000000 1.686710 
# 
# From -- ./inp_files/380561.got.cif
#   From: 2010.05.17/outbox.ucp.g08.bks.cvg/sg12_191_cif.got.tgz:380561.got - 2010.06.11 11:47:21.
