data_PCOD9223806
_publ_section_title
;
Structure prediction by ZEFSAII (Michael W. Deem and Ramdas Pophale) SiO2 
 PCOD9223806
Probable space group: C 2/M
;
_chemical_formula_sum "Si O2"
_cell_formula_units_Z 26
_cell_length_a 15.000000
_cell_length_b 15.000000
_cell_length_c 18.000000
_cell_angle_alpha 90.000000
_cell_angle_beta 140.000000
_cell_angle_gamma 90.000000
_cell_volume 2603.289819
_symmetry_space_group_name_H-M "C 2/M"
_symmetry_group_IT_number 12
_symmetry_cell_setting 'monoclinic'
loop_
_space_group_symop_operation_xyz
x,y,z
-x,y,-z
-x,-y,-z
x,-y,z
1/2+x,1/2+y,z
1/2-x,1/2+y,-z
1/2-x,1/2-y,-z
1/2+x,1/2-y,z
loop_
_atom_site_type_symbol
_atom_site_label
_atom_site_fract_x
_atom_site_fract_y
_atom_site_fract_z
Si Si1 0.881915 0.602253 0.777959
Si Si2 0.280878 0.896722 0.553989
Si Si3 0.000000 0.839846 0.000000
Si Si4 0.773805 0.693050 0.852047
Si Si5 0.051383 0.215098 0.331529
Si Si6 0.994130 0.895563 0.156010
Si Si7 0.182567 0.601768 0.974981
O O1 0.902324 0.500000 0.817546
O O2 0.785289 0.598667 0.645353
O O3 0.816380 0.662411 0.798216
O O4 0.035549 0.637728 0.853459
O O5 0.136147 0.858367 0.432801
O O6 0.387945 0.813221 0.609182
O O7 0.310220 0.000000 0.546645
O O8 0.869357 0.776465 0.932754
O O9 0.961117 0.892594 0.900894
O O10 0.611729 0.711857 0.756048
O O11 0.818672 0.615155 0.937414
O O12 0.069624 0.173557 0.259518
O O13 0.999471 0.000000 0.185742
O O14 0.833510 0.862928 0.051588
O O15 0.186676 0.500000 0.952532
#
# Coordination Sequence:
#
# PCOD9223806 Si02
#       7
#     8   8   4   8   8   8   8
#     4  10  19  33  56  86 121 154 194 247 298 352
#     4  10  22  41  63  89 116 155 204 249 293 346
#     4  12  23  34  55  88 122 158 195 240 296 352
#     4  11  21  34  55  88 124 156 193 239 295 360
#     4  10  23  40  64  87 117 160 201 244 295 352
#     4  10  22  39  59  84 119 160 204 247 292 346
#     4   9  18  33  55  82 115 156 197 242 299 355
#
# _framework density 9.9873630000000002
#
# number of rings (size 3 to 8) (size 9 to 14) (size 15 to 20)
#    0.000    1.846    1.538    2.077    2.154    4.923 
#    0.000    2.308    0.000    0.000    0.000    5.385 
#    0.000    0.000    0.000    0.000    0.000    0.000 
#
# Total GULP energy -144755.661053 kJ/mol
# GULP energy per Si atom -5567.525425 kJ/mol
# Density = 0.996463 g / cm^3
# Si number density = 9.987363 Si / 1000 Ang^3
#
#
#
# Elastic Constant Matrix: (Units=GPa)
#
#
# Indices 1 2 3 4 5 6 
#
# 1 18.6827 6.8440 22.6157 0.0000 2.3040 0.0000
# 2 6.8440 107.2686 37.7779 0.0000 4.6595 0.0000
# 3 22.6157 37.7779 105.2649 0.0000 7.5552 0.0000
# 4 0.0000 0.0000 0.0000 26.6420 0.0000 -9.8437
# 5 2.3040 4.6595 7.5552 0.0000 18.8557 0.0000
# 6 0.0000 0.0000 0.0000 -9.8437 0.0000 11.5998
#
#
#
# Elastic Compliance Matrix: (Units=1/GPa)
#
#
# Indices 1 2 3 4 5 6 
#
# 1 0.072574 0.001044 -0.015765 0.000000 -0.002809 0.000000
# 2 0.001044 0.010710 -0.003983 0.000000 -0.001178 0.000000
# 3 -0.015765 -0.003983 0.014525 0.000000 -0.002909 0.000000
# 4 0.000000 0.000000 0.000000 0.054679 0.000000 0.046401
# 5 -0.002809 -0.001178 -0.002909 0.000000 0.054835 0.000000
# 6 0.000000 0.000000 0.000000 0.046401 0.000000 0.125585
#
#
# Mechanical properties :
#
#
# Convention : Reuss Voigt Hill
#
# Bulk Modulus (GPa) = 16.55644 40.63239 28.59441
# Shear Modulus (GPa) = 12.80573 22.35139 17.57856
#
# Velocity S-wave (km/s) = 2.53474 3.34875 2.96977
# Velocity P-wave (km/s) = 4.10770 5.94460 5.10938
#
# Compressibility (1/GPa) = 0.06039947
#
# Stress axis : x y z
#
# Youngs Moduli (GPa) = 13.77910 93.37241 68.84545
#
# Poissons Ratio (x) = -0.09746 1.08536
# Poissons Ratio (y) = -0.01438 0.27423
# Poissons Ratio (z) = 0.21723 0.37193
#
# Static dielectric constant tensor:
#      x y z
#    x 1.725310 0.000000 -0.018870 
#    y 0.000000 1.776430 0.000000 
#    z -0.018870 0.000000 1.710480 
# 
# From -- ./inp_files/270739.got.cif
#   From: 2010.05.17/outbox.ucp.g08.bks.cvg/sg12_136_cif.got.tgz:270739.got - 2010.06.11 11:47:21.
