data_PCOD9223802
_publ_section_title
;
Structure prediction by ZEFSAII (Michael W. Deem and Ramdas Pophale) SiO2 
 PCOD9223802
Probable space group: C 2/M
;
_chemical_formula_sum "Si O2"
_cell_formula_units_Z 32
_cell_length_a 24.000000
_cell_length_b 9.000000
_cell_length_c 30.000000
_cell_angle_alpha 90.000000
_cell_angle_beta 30.000000
_cell_angle_gamma 90.000000
_cell_volume 3240.000000
_symmetry_space_group_name_H-M "C 2/M"
_symmetry_group_IT_number 12
_symmetry_cell_setting 'monoclinic'
loop_
_space_group_symop_operation_xyz
x,y,z
-x,y,-z
-x,-y,-z
x,-y,z
1/2+x,1/2+y,z
1/2-x,1/2+y,-z
1/2-x,1/2-y,-z
1/2+x,1/2-y,z
loop_
_atom_site_type_symbol
_atom_site_label
_atom_site_fract_x
_atom_site_fract_y
_atom_site_fract_z
Si Si1 0.998515 0.672997 0.296024
Si Si2 0.234411 0.173898 0.889104
Si Si3 0.318184 0.680532 0.594511
Si Si4 0.346158 0.181190 0.964553
Si Si5 0.474430 0.320671 0.404579
Si Si6 0.388417 0.176264 0.102359
Si Si7 0.300510 0.681084 0.705446
Si Si8 0.563219 0.180520 0.758111
O O1 0.965378 0.500000 0.322443
O O2 0.132495 0.677136 0.199136
O O3 0.952790 0.756233 0.370835
O O4 0.959177 0.736013 0.276146
O O5 0.202607 0.283203 0.871322
O O6 0.202618 0.000000 0.903917
O O7 0.173439 0.241729 0.974439
O O8 0.326038 0.500000 0.588171
O O9 0.391909 0.730657 0.501503
O O10 0.346185 0.727787 0.625386
O O11 0.188700 0.722617 0.681819
O O12 0.465475 0.221124 0.860123
O O13 0.337690 0.000000 0.973138
O O14 0.250000 0.250000 0.000000
O O15 0.469734 0.500000 0.406357
O O16 0.600709 0.275564 0.329695
O O17 0.323627 0.229841 0.192245
O O18 0.407293 0.000000 0.095493
O O19 0.500000 0.236263 0.000000
O O20 0.294921 0.500000 0.708796
O O21 0.558975 0.000000 0.759783
#
# Coordination Sequence:
#
# PCOD9223802 Si02
#       8
#     8   8   8   8   8   8   8   8
#     4  10  20  36  55  77 109 147 184 222 271 331
#     4  11  22  37  55  79 112 150 188 226 277 332
#     4   9  18  32  54  81 109 141 178 226 281 328
#     4  11  21  35  57  82 111 146 187 228 272 328
#     4  10  19  33  56  85 107 134 182 233 276 321
#     4  10  21  35  55  85 113 141 184 232 281 334
#     4   9  17  31  52  81 112 136 173 227 276 326
#     4   9  19  35  53  78 111 145 180 220 273 332
#
# _framework density 9.8765429999999999
#
# number of rings (size 3 to 8) (size 9 to 14) (size 15 to 20)
#    0.000    2.125    2.500    1.125    1.750    2.750 
#    0.000    0.000    0.000    3.750    0.000    0.000 
#    0.000    0.000    0.000    0.000    0.000    0.000 
#
# Total GULP energy -178229.602931 kJ/mol
# GULP energy per Si atom -5569.675092 kJ/mol
# Density = 0.985406 g / cm^3
# Si number density = 9.876543 Si / 1000 Ang^3
#
#
#
# Elastic Constant Matrix: (Units=GPa)
#
#
# Indices 1 2 3 4 5 6 
#
# 1 32.7663 -18.8108 15.3801 -0.0009 18.3159 0.0023
# 2 -18.8108 -7.7169 7.0894 -0.0018 -0.7824 0.0061
# 3 15.3801 7.0894 140.4910 0.0006 35.4617 0.0000
# 4 -0.0009 -0.0018 0.0006 14.5606 0.0000 0.9286
# 5 18.3159 -0.7824 35.4617 0.0000 33.7253 -0.0005
# 6 0.0023 0.0061 0.0000 0.9286 -0.0005 14.8347
#
#
#
# Elastic Compliance Matrix: (Units=1/GPa)
#
#
# Indices 1 2 3 4 5 6 
#
# 1 0.016156 -0.035033 0.003293 -0.000004 -0.013049 0.000012
# 2 -0.035033 -0.043913 0.002050 -0.000009 0.015852 0.000025
# 3 0.003293 0.002050 0.009656 0.000000 -0.011894 -0.000002
# 4 -0.000004 -0.000009 0.000000 0.068954 0.000002 -0.004316
# 5 -0.013049 0.015852 -0.011894 0.000002 0.049613 -0.000003
# 6 0.000012 0.000025 -0.000002 -0.004316 -0.000003 0.067679
#
#
# Mechanical properties :
#
#
# Convention : Reuss Voigt Hill
#
# Bulk Modulus (GPa) = -12.90639 19.20641 3.15001
# Shear Modulus (GPa) = 24.78951 23.41625 24.10288
#
# Velocity S-wave (km/s) = 3.54640 3.44677 3.49694
# Velocity P-wave (km/s) = 3.19706 5.05813 4.23118
#
# Compressibility (1/GPa) = -0.07748100
#
# Stress axis : x y z
#
# Youngs Moduli (GPa) = 61.89719 -22.77243 103.56027
#
# Poissons Ratio (x) = -0.79779 -0.34103
# Poissons Ratio (y) = 2.16845 -0.21229
# Poissons Ratio (z) = -0.20383 0.04668
#
# Static dielectric constant tensor:
#      x y z
#    x 1.764060 0.000000 -0.000790 
#    y 0.000000 1.672870 0.000000 
#    z -0.000790 0.000000 1.712450 
# 
# From -- ./inp_files/382339.got.cif
#   From: 2010.05.17/outbox.ucp.g08.bks.cvg/sg12_192_cif.got.tgz:382339.got - 2010.06.11 11:47:21.
