data_PCOD9223842
_publ_section_title
;
Structure prediction by ZEFSAII (Michael W. Deem and Ramdas Pophale) SiO2 
 PCOD9223842
Probable space group: C 2/M
;
_chemical_formula_sum "Si O2"
_cell_formula_units_Z 28
_cell_length_a 24.000000
_cell_length_b 9.000000
_cell_length_c 15.000000
_cell_angle_alpha 90.000000
_cell_angle_beta 60.000000
_cell_angle_gamma 90.000000
_cell_volume 2805.922308
_symmetry_space_group_name_H-M "C 2/M"
_symmetry_group_IT_number 12
_symmetry_cell_setting 'monoclinic'
loop_
_space_group_symop_operation_xyz
x,y,z
-x,y,-z
-x,-y,-z
x,-y,z
1/2+x,1/2+y,z
1/2-x,1/2+y,-z
1/2-x,1/2-y,-z
1/2+x,1/2-y,z
loop_
_atom_site_type_symbol
_atom_site_label
_atom_site_fract_x
_atom_site_fract_y
_atom_site_fract_z
Si Si1 0.401139 0.677245 0.305224
Si Si2 0.743351 0.327561 0.153924
Si Si3 0.726936 0.676884 0.686183
Si Si4 0.558456 0.328460 0.382695
Si Si5 0.522385 0.168129 0.229735
Si Si6 0.148598 0.820924 0.465023
Si Si7 0.836845 0.332431 0.914420
O O1 0.401744 0.500000 0.304700
O O2 0.342448 0.727416 0.291919
O O3 0.469068 0.738306 0.223105
O O4 0.390575 0.724914 0.416416
O O5 0.740674 0.500000 0.182240
O O6 0.759749 0.228256 0.224531
O O7 0.679758 0.279025 0.151844
O O8 0.796501 0.303787 0.034904
O O9 0.731686 0.500000 0.673805
O O10 0.781066 0.755033 0.584074
O O11 0.500000 0.330659 0.500000
O O12 0.569525 0.500000 0.346643
O O13 0.539193 0.233442 0.313383
O O14 0.617218 0.272183 0.396678
O O15 0.588761 0.171803 0.124165
O O16 0.500052 0.000000 0.257971
O O17 0.149731 0.000000 0.461943
O O18 0.820184 0.500000 0.896601
#
# Coordination Sequence:
#
# PCOD9223842 Si02
#       7
#     8   8   8   8   8   8   8
#     4  10  22  40  56  75 109 151 189 225 268 327
#     4  10  20  37  61  85 111 144 181 222 273 331
#     4  11  23  37  56  81 111 144 183 233 278 318
#     4  10  19  34  54  76 109 147 179 216 264 323
#     4  11  22  35  55  83 113 143 180 228 278 322
#     4  10  20  36  58  80 106 146 190 226 269 325
#     4   9  20  38  59  86 115 141 176 226 278 326
#
# _framework density 9.9788940000000004
#
# number of rings (size 3 to 8) (size 9 to 14) (size 15 to 20)
#    0.000    1.857    1.429    2.571    0.000    6.571 
#    0.000    0.714    0.000    4.286    0.000    0.000 
#    0.000    0.000    0.000    0.000    0.000    0.000 
#
# Total GULP energy -156218.344686 kJ/mol
# GULP energy per Si atom -5579.226596 kJ/mol
# Density = 0.995618 g / cm^3
# Si number density = 9.978894 Si / 1000 Ang^3
#
#
#
# Elastic Constant Matrix: (Units=GPa)
#
#
# Indices 1 2 3 4 5 6 
#
# 1 104.9269 17.8106 17.5440 0.0000 -16.7263 0.0000
# 2 17.8106 -10.4075 5.5663 0.0000 -5.4978 0.0000
# 3 17.5440 5.5663 26.2183 0.0000 -16.5011 0.0000
# 4 0.0000 0.0000 0.0000 7.5871 0.0000 -8.8634
# 5 -16.7263 -5.4978 -16.5011 0.0000 7.9515 0.0000
# 6 0.0000 0.0000 0.0000 -8.8634 0.0000 22.7927
#
#
#
# Elastic Compliance Matrix: (Units=1/GPa)
#
#
# Indices 1 2 3 4 5 6 
#
# 1 0.007054 0.013283 -0.024760 0.000000 -0.027360 0.000000
# 2 0.013283 -0.075443 0.026514 0.000000 0.030800 0.000000
# 3 -0.024760 0.026514 -0.090945 0.000000 -0.222483 0.000000
# 4 0.000000 0.000000 0.000000 0.241523 0.000000 0.093921
# 5 -0.027360 0.030800 -0.222483 0.000000 -0.372197 0.000000
# 6 0.000000 0.000000 0.000000 0.093921 0.000000 0.080397
#
#
# Mechanical properties :
#
#
# Convention : Reuss Voigt Hill
#
# Bulk Modulus (GPa) = -7.73627 22.50884 7.38629
# Shear Modulus (GPa) = -17.68218 12.98739 -2.34739
#
# Velocity S-wave (km/s) = -2.97977 2.55373 -1.08569
# Velocity P-wave (km/s) = 3.96528 4.47193 1.46197
#
# Compressibility (1/GPa) = -0.12926127
#
# Stress axis : x y z
#
# Youngs Moduli (GPa) = 141.75701 -13.25498 -10.99570
#
# Poissons Ratio (x) = 0.17606 -0.27225
# Poissons Ratio (y) = -1.88290 0.29154
# Poissons Ratio (z) = 3.50992 0.35144
#
# Static dielectric constant tensor:
#      x y z
#    x 1.716400 0.000000 -0.050280 
#    y 0.000000 1.691610 0.000000 
#    z -0.050280 0.000000 1.720640 
# 
# From -- ./inp_files/237345.got.cif
#   From: 2010.05.17/outbox.ucp.g08.bks.cvg/sg12_119_cif.got.tgz:237345.got - 2010.06.11 11:47:21.
