data_PCOD9223492
_publ_section_title
;
Structure prediction by ZEFSAII (Michael W. Deem and Ramdas Pophale) SiO2 
 PCOD9223492
Probable space group: C 2/M
;
_chemical_formula_sum "Si O2"
_cell_formula_units_Z 32
_cell_length_a 24.000000
_cell_length_b 9.000000
_cell_length_c 21.000000
_cell_angle_alpha 90.000000
_cell_angle_beta 50.000000
_cell_angle_gamma 90.000000
_cell_volume 3474.777594
_symmetry_space_group_name_H-M "C 2/M"
_symmetry_group_IT_number 12
_symmetry_cell_setting 'monoclinic'
loop_
_space_group_symop_operation_xyz
x,y,z
-x,y,-z
-x,-y,-z
x,-y,z
1/2+x,1/2+y,z
1/2-x,1/2+y,-z
1/2-x,1/2-y,-z
1/2+x,1/2-y,z
loop_
_atom_site_type_symbol
_atom_site_label
_atom_site_fract_x
_atom_site_fract_y
_atom_site_fract_z
Si Si1 0.851496 0.174235 0.455432
Si Si2 0.346924 0.827201 0.816540
Si Si3 0.729248 0.323342 0.616278
Si Si4 0.483751 0.832235 0.317475
Si Si5 0.286316 0.824233 0.119346
Si Si6 0.000258 0.670046 0.155953
Si Si7 0.644925 0.326544 0.052903
Si Si8 0.346676 0.174299 0.208927
O O1 0.808189 0.260356 0.541427
O O2 0.819001 0.221557 0.410150
O O3 0.935411 0.216164 0.390221
O O4 0.839107 0.000000 0.471610
O O5 0.430640 0.818019 0.734977
O O6 0.296764 0.723898 0.810660
O O7 0.341511 0.765800 0.892652
O O8 0.325007 0.000000 0.830704
O O9 0.729771 0.500000 0.618620
O O10 0.696640 0.259554 0.704750
O O11 0.474974 0.814499 0.247651
O O12 0.460012 0.000000 0.350914
O O13 0.329657 0.777347 0.150067
O O14 0.294334 0.000000 0.103526
O O15 0.311352 0.737465 0.038436
O O16 0.029873 0.500000 0.128156
O O17 0.931637 0.686831 0.161518
O O18 0.061111 0.791163 0.098776
O O19 0.658763 0.500000 0.053390
O O20 0.327161 0.000000 0.228041
#
# Coordination Sequence:
#
# PCOD9223492 Si02
#       8
#     8   8   8   8   8   8   8   8
#     4  10  19  30  50  80 111 141 174 213 259 311
#     4  10  21  38  58  80 106 138 177 224 272 316
#     4  10  20  32  50  78 111 144 176 214 257 310
#     4   9  17  31  54  79 106 137 172 216 265 314
#     4  11  23  38  56  78 104 141 183 221 266 319
#     4   9  18  34  54  77 107 142 176 215 265 320
#     4  11  22  36  56  80 107 137 175 227 272 314
#     4  10  21  37  56  76 107 146 180 216 262 320
#
# _framework density 9.2092220000000005
#
# number of rings (size 3 to 8) (size 9 to 14) (size 15 to 20)
#    0.000    2.000    1.250    3.750    0.000    5.500 
#    0.000    2.500    0.000    0.750    0.000    5.250 
#    0.000    0.000    0.000    0.000    0.000    0.000 
#
# Total GULP energy -178506.543586 kJ/mol
# GULP energy per Si atom -5578.329487 kJ/mol
# Density = 0.918826 g / cm^3
# Si number density = 9.209222 Si / 1000 Ang^3
#
#
#
# Elastic Constant Matrix: (Units=GPa)
#
#
# Indices 1 2 3 4 5 6 
#
# 1 25.6048 0.3850 -1.9544 0.0003 -14.8186 0.0000
# 2 0.3850 25.0572 23.2629 0.0005 -6.6137 -0.0002
# 3 -1.9544 23.2629 35.8512 0.0003 -16.2662 -0.0001
# 4 0.0003 0.0005 0.0003 31.1740 -0.0001 -5.4032
# 5 -14.8186 -6.6137 -16.2662 -0.0001 -2.1535 0.0000
# 6 0.0000 -0.0002 -0.0001 -5.4032 0.0000 20.5839
#
#
#
# Elastic Compliance Matrix: (Units=1/GPa)
#
#
# Indices 1 2 3 4 5 6 
#
# 1 0.020263 0.008459 -0.017943 0.000000 -0.029884 0.000000
# 2 0.008459 0.089801 -0.047288 -0.000001 0.023187 0.000001
# 3 -0.017943 -0.047288 0.040548 0.000000 -0.037580 0.000000
# 4 0.000000 -0.000001 0.000000 0.033607 0.000000 0.008822
# 5 -0.029884 0.023187 -0.037580 0.000000 -0.046077 0.000000
# 6 0.000000 0.000001 0.000000 0.008822 0.000000 0.050897
#
#
# Mechanical properties :
#
#
# Convention : Reuss Voigt Hill
#
# Bulk Modulus (GPa) = 26.97723 14.43337 20.70530
# Shear Modulus (GPa) = 15.87603 14.24220 15.05912
#
# Velocity S-wave (km/s) = 2.93911 2.78377 2.86249
# Velocity P-wave (km/s) = 5.11825 4.26449 4.71075
#
# Compressibility (1/GPa) = 0.03706829
#
# Stress axis : x y z
#
# Youngs Moduli (GPa) = 49.35029 11.13576 24.66190
#
# Poissons Ratio (x) = -0.09420 0.44251
# Poissons Ratio (y) = -0.41746 1.16622
# Poissons Ratio (z) = 0.88549 0.52659
#
# Static dielectric constant tensor:
#      x y z
#    x 1.677890 0.000000 -0.045940 
#    y 0.000000 1.621850 0.000000 
#    z -0.045940 0.000000 1.629400 
# 
# From -- ./inp_files/295636.got.cif
#   From: 2010.05.17/outbox.ucp.g08.bks.cvg/sg12_148_cif.got.tgz:295636.got - 2010.06.11 11:47:21.
