data_PCOD9223115
_publ_section_title
;
Structure prediction by ZEFSAII (Michael W. Deem and Ramdas Pophale) SiO2 
 PCOD9223115
Probable space group: C 2/M
;
_chemical_formula_sum "Si O2"
_cell_formula_units_Z 64
_cell_length_a 19.613386
_cell_length_b 7.362165
_cell_length_c 19.542291
_cell_angle_alpha 90.000000
_cell_angle_beta 95.150850
_cell_angle_gamma 90.000000
_cell_volume 2810.452636
_symmetry_space_group_name_H-M "C 2/M"
_symmetry_group_IT_number 12
_symmetry_cell_setting 'monoclinic'
loop_
_space_group_symop_operation_xyz
x,y,z
-x,y,-z
-x,-y,-z
x,-y,z
1/2+x,1/2+y,z
1/2-x,1/2+y,-z
1/2-x,1/2-y,-z
1/2+x,1/2-y,z
loop_
_atom_site_type_symbol
_atom_site_label
_atom_site_fract_x
_atom_site_fract_y
_atom_site_fract_z
Si Si1 0.868003 0.218821 0.657957
Si Si2 0.746429 0.221937 0.737881
Si Si3 0.509356 0.786032 0.424877
Si Si4 0.295921 0.706168 0.890854
Si Si5 0.488891 0.278575 0.075071
Si Si6 0.410765 0.780431 0.293453
Si Si7 0.340001 0.720547 0.039483
Si Si8 0.964084 0.788712 0.785631
O O1 0.792463 0.274405 0.676063
O O2 0.912558 0.267993 0.595449
O O3 0.915821 0.290719 0.723833
O O4 0.867230 0.000000 0.657029
O O5 0.781767 0.281572 0.813240
O O6 0.667627 0.280727 0.722015
O O7 0.745866 0.000000 0.741332
O O8 0.500000 0.709954 0.500000
O O9 0.454447 0.715210 0.363866
O O10 0.494953 0.000000 0.427274
O O11 0.321200 0.500000 0.882814
O O12 0.221916 0.705022 0.921570
O O13 0.338866 0.782307 0.959586
O O14 0.494133 0.500000 0.075024
O O15 0.410415 0.232316 0.081972
O O16 0.538181 0.211707 0.138869
O O17 0.500000 0.214873 0.000000
O O18 0.458695 0.724296 0.234786
O O19 0.409541 0.000000 0.295318
O O20 0.333626 0.500000 0.037044
O O21 0.945327 0.000000 0.787521
#
# Coordination Sequence:
#
# PCOD9223115 Si02
#       8
#     8   8   8   8   8   8   8   8
#     4   9  18  31  49  73  98 121 152 192 230 269
#     4   9  17  29  47  70  93 120 154 189 228 271
#     4   9  18  34  54  73  95 124 154 182 219 274
#     4   9  17  28  44  61  83 116 149 184 225 271
#     4   9  17  26  40  62  86 113 149 190 229 266
#     4   9  17  31  51  70  90 121 156 185 220 273
#     4   9  17  28  41  60  84 112 150 190 228 268
#     4   9  17  29  46  67  91 119 154 196 233 267
#
# _framework density 22.772131999999999
#
# number of rings (size 3 to 8) (size 9 to 14) (size 15 to 20)
#    0.000    3.000    0.000    0.750    1.750    0.250 
#    0.000    1.875    0.000    1.500    0.000    0.000 
#    0.000    0.000    0.000    0.000    0.000    0.000 
#
# Total GULP energy -178434.708710 kJ/mol
# GULP energy per Si atom -5576.084647 kJ/mol
# Density = 2.272030 g / cm^3
# Si number density = 22.772132 Si / 1000 Ang^3
#
#
#
# Elastic Constant Matrix: (Units=GPa)
#
#
# Indices 1 2 3 4 5 6 
#
# 1 69.5033 -7.9830 15.1549 0.0000 -20.2807 0.0000
# 2 -7.9830 83.7332 -3.1580 0.0000 4.0857 0.0000
# 3 15.1549 -3.1580 127.8664 0.0000 -16.6359 0.0000
# 4 0.0000 0.0000 0.0000 58.9150 0.0000 -24.9443
# 5 -20.2807 4.0857 -16.6359 0.0000 28.7532 0.0000
# 6 0.0000 0.0000 0.0000 -24.9443 0.0000 13.4265
#
#
#
# Elastic Compliance Matrix: (Units=1/GPa)
#
#
# Indices 1 2 3 4 5 6 
#
# 1 0.018252 0.001115 -0.000521 0.000000 0.012414 0.000000
# 2 0.001115 0.012095 0.000049 0.000000 -0.000904 0.000000
# 3 -0.000521 0.000049 0.008473 0.000000 0.004528 0.000000
# 4 0.000000 0.000000 0.000000 0.079540 0.000000 0.147773
# 5 0.012414 -0.000904 0.004528 0.000000 0.046283 0.000000
# 6 0.000000 0.000000 0.000000 0.147773 0.000000 0.349019
#
#
# Mechanical properties :
#
#
# Convention : Reuss Voigt Hill
#
# Bulk Modulus (GPa) = 24.93423 32.12564 28.52994
# Shear Modulus (GPa) = 9.51035 38.69152 24.10093
#
# Velocity S-wave (km/s) = 2.04582 4.12645 3.25676
# Velocity P-wave (km/s) = 4.06863 6.06972 5.16698
#
# Compressibility (1/GPa) = 0.04010551
#
# Stress axis : x y z
#
# Youngs Moduli (GPa) = 54.78947 82.67930 118.02646
#
# Poissons Ratio (x) = -0.09216 0.06144
# Poissons Ratio (y) = -0.06107 -0.00578
# Poissons Ratio (z) = 0.02852 -0.00405
#
# Static dielectric constant tensor:
#      x y z
#    x 1.862800 0.000000 -0.001440 
#    y 0.000000 1.908960 0.000000 
#    z -0.001440 0.000000 1.859860 
# 
# From -- ./inp_files/276483.got.cif
#   From: 2010.05.17/outbox.cif.g08.bks.cpg/sg12_139_cif.got.tgz:276483.got - 2010.06.03 13:09:07.
