data_PCOD9223405
_publ_section_title
;
Structure prediction by ZEFSAII (Michael W. Deem and Ramdas Pophale) SiO2 
 PCOD9223405
Probable space group: C 2/M
;
_chemical_formula_sum "Si O2"
_cell_formula_units_Z 28
_cell_length_a 21.000000
_cell_length_b 18.000000
_cell_length_c 15.000000
_cell_angle_alpha 90.000000
_cell_angle_beta 150.000000
_cell_angle_gamma 90.000000
_cell_volume 2835.000000
_symmetry_space_group_name_H-M "C 2/M"
_symmetry_group_IT_number 12
_symmetry_cell_setting 'monoclinic'
loop_
_space_group_symop_operation_xyz
x,y,z
-x,y,-z
-x,-y,-z
x,-y,z
1/2+x,1/2+y,z
1/2-x,1/2+y,-z
1/2-x,1/2-y,-z
1/2+x,1/2-y,z
loop_
_atom_site_type_symbol
_atom_site_label
_atom_site_fract_x
_atom_site_fract_y
_atom_site_fract_z
Si Si1 0.591128 0.411257 0.331874
Si Si2 0.204552 0.913678 0.059919
Si Si3 0.705203 0.085739 0.268081
Si Si4 0.686605 0.282187 0.333309
Si Si5 0.048541 0.585701 0.757099
Si Si6 0.519281 0.155452 0.907602
Si Si7 0.377420 0.172004 0.411436
O O1 0.605649 0.500000 0.338123
O O2 0.671430 0.393384 0.520865
O O3 0.648612 0.365221 0.318478
O O4 0.438906 0.393730 0.145875
O O5 0.307499 0.910777 0.105297
O O6 0.271647 0.863251 0.216894
O O7 0.199285 0.000000 0.084396
O O8 0.584332 0.093777 0.187486
O O9 0.721015 0.000000 0.258058
O O10 0.650713 0.136762 0.120252
O O11 0.750000 0.250000 0.500000
O O12 0.558189 0.231868 0.164825
O O13 0.789434 0.282640 0.376928
O O14 0.022951 0.500000 0.751854
O O15 0.036926 0.642521 0.824738
O O16 0.951540 0.610943 0.561710
O O17 0.500000 0.203467 0.500000
#
# Coordination Sequence:
#
# PCOD9223405 Si02
#       7
#     8   8   8   8   8   8   8
#     4  10  22  42  63  89 130 171 213 266 321 383
#     4   9  20  37  60  93 129 169 213 259 320 388
#     4  10  20  36  60  87 120 166 221 267 314 371
#     4  12  23  41  63  93 130 163 214 269 328 386
#     4  10  18  34  61  92 129 170 211 264 321 383
#     4  11  21  35  59  90 124 159 215 276 318 372
#     4  10  21  38  62  91 128 169 211 261 322 391
#
# _framework density 9.8765429999999999
#
# number of rings (size 3 to 8) (size 9 to 14) (size 15 to 20)
#    0.000    1.714    2.857    2.143    0.000    6.857 
#    0.000    2.857    6.286    3.429    0.000    0.000 
#    0.000    3.429    0.000    0.000    0.000    0.000 
#
# Total GULP energy -156025.680068 kJ/mol
# GULP energy per Si atom -5572.345717 kJ/mol
# Density = 0.985406 g / cm^3
# Si number density = 9.876543 Si / 1000 Ang^3
#
#
#
# Elastic Constant Matrix: (Units=GPa)
#
#
# Indices 1 2 3 4 5 6 
#
# 1 100.2438 32.4415 38.5698 0.0000 0.0027 0.0000
# 2 32.4415 74.6828 35.0014 0.0000 2.2193 0.0000
# 3 38.5698 35.0014 173.0337 0.0000 0.0716 0.0000
# 4 0.0000 0.0000 0.0000 32.8398 0.0000 -0.9995
# 5 0.0027 2.2193 0.0716 0.0000 31.7739 0.0000
# 6 0.0000 0.0000 0.0000 -0.9995 0.0000 29.2456
#
#
#
# Elastic Compliance Matrix: (Units=1/GPa)
#
#
# Indices 1 2 3 4 5 6 
#
# 1 0.012100 -0.004420 -0.001803 0.000000 0.000312 0.000000
# 2 -0.004420 0.016441 -0.002340 0.000000 -0.001143 0.000000
# 3 -0.001803 -0.002340 0.006654 0.000000 0.000149 0.000000
# 4 0.000000 0.000000 0.000000 0.030483 0.000000 0.001042
# 5 0.000312 -0.001143 0.000149 0.000000 0.031552 0.000000
# 6 0.000000 0.000000 0.000000 0.001042 0.000000 0.034229
#
#
# Mechanical properties :
#
#
# Convention : Reuss Voigt Hill
#
# Bulk Modulus (GPa) = 55.34504 62.22064 58.78284
# Shear Modulus (GPa) = 32.33995 34.90170 33.62082
#
# Velocity S-wave (km/s) = 4.05063 4.20801 4.13007
# Velocity P-wave (km/s) = 7.06796 7.42815 7.25029
#
# Compressibility (1/GPa) = 0.01806847
#
# Stress axis : x y z
#
# Youngs Moduli (GPa) = 82.64486 60.82480 150.27678
#
# Poissons Ratio (x) = 0.26886 0.27097
# Poissons Ratio (y) = 0.36532 0.35163
# Poissons Ratio (z) = 0.14902 0.14232
#
# Static dielectric constant tensor:
#      x y z
#    x 1.712060 0.000000 -0.016980 
#    y 0.000000 1.743330 0.000000 
#    z -0.016980 0.000000 1.713270 
# 
# From -- ./inp_files/234716.got.cif
#   From: 2010.05.17/outbox.ucp.g08.bks.cvg/sg12_118_cif.got.tgz:234716.got - 2010.06.11 11:47:21.
