data_PCOD9223784
_publ_section_title
;
Structure prediction by ZEFSAII (Michael W. Deem and Ramdas Pophale) SiO2 
 PCOD9223784
Probable space group: C 2/M
;
_chemical_formula_sum "Si O2"
_cell_formula_units_Z 28
_cell_length_a 18.000000
_cell_length_b 15.000000
_cell_length_c 12.000000
_cell_angle_alpha 90.000000
_cell_angle_beta 120.000000
_cell_angle_gamma 90.000000
_cell_volume 2805.922308
_symmetry_space_group_name_H-M "C 2/M"
_symmetry_group_IT_number 12
_symmetry_cell_setting 'monoclinic'
loop_
_space_group_symop_operation_xyz
x,y,z
-x,y,-z
-x,-y,-z
x,-y,z
1/2+x,1/2+y,z
1/2-x,1/2+y,-z
1/2-x,1/2-y,-z
1/2+x,1/2-y,z
loop_
_atom_site_type_symbol
_atom_site_label
_atom_site_fract_x
_atom_site_fract_y
_atom_site_fract_z
Si Si1 0.919002 0.892431 0.208029
Si Si2 0.418366 0.701660 0.585416
Si Si3 0.826213 0.890925 0.733808
Si Si4 0.089914 0.770240 0.010835
Si Si5 0.352221 0.896641 0.505898
Si Si6 0.771853 0.900439 0.374641
Si Si7 0.287455 0.104222 0.909991
O O1 0.815114 0.882547 0.144099
O O2 0.987159 0.843497 0.342459
O O3 0.935752 0.000000 0.217686
O O4 0.935732 0.838170 0.106857
O O5 0.372473 0.659062 0.663149
O O6 0.414212 0.810085 0.568330
O O7 0.350791 0.666487 0.442681
O O8 0.858038 0.833546 0.863308
O O9 0.722362 0.883726 0.643681
O O10 0.845068 0.000000 0.749366
O O11 0.148262 0.686113 0.010576
O O12 0.000000 0.738781 0.000000
O O13 0.291840 0.893976 0.569699
O O14 0.386485 0.000000 0.522079
O O15 0.712489 0.890814 0.223471
O O16 0.810269 0.000000 0.401619
O O17 0.308504 0.000000 0.959488
#
# Coordination Sequence:
#
# PCOD9223784 Si02
#       7
#     8   8   8   8   8   8   8
#     4  11  24  39  57  83 117 149 186 234 283 334
#     4  11  18  31  54  84 115 144 182 228 282 335
#     4  10  19  33  55  85 116 143 184 237 286 324
#     4  12  23  37  61  85 110 147 193 238 281 327
#     4   9  18  31  52  83 116 147 181 230 280 333
#     4   9  17  31  55  81 110 144 181 224 279 336
#     4  10  23  42  58  80 115 153 188 228 280 340
#
# _framework density 9.9788940000000004
#
# number of rings (size 3 to 8) (size 9 to 14) (size 15 to 20)
#    0.000    1.714    1.429    6.429    0.000    1.429 
#    0.000    2.857    0.000    1.714    0.000    3.000 
#    0.000    0.000    0.000    0.000    0.000    0.000 
#
# Total GULP energy -155992.601254 kJ/mol
# GULP energy per Si atom -5571.164331 kJ/mol
# Density = 0.995618 g / cm^3
# Si number density = 9.978894 Si / 1000 Ang^3
#
#
#
# Elastic Constant Matrix: (Units=GPa)
#
#
# Indices 1 2 3 4 5 6 
#
# 1 44.1127 35.7507 1.8484 0.0000 26.1168 0.0000
# 2 35.7507 188.5458 25.0790 0.0000 30.0517 0.0000
# 3 1.8484 25.0790 35.7452 0.0000 10.9055 0.0000
# 4 0.0000 0.0000 0.0000 30.7195 0.0000 11.3450
# 5 26.1168 30.0517 10.9055 0.0000 22.2174 0.0000
# 6 0.0000 0.0000 0.0000 11.3450 0.0000 32.5175
#
#
#
# Elastic Compliance Matrix: (Units=1/GPa)
#
#
# Indices 1 2 3 4 5 6 
#
# 1 0.107158 -0.003082 0.039730 0.000000 -0.141300 0.000000
# 2 -0.003082 0.007014 -0.003496 0.000000 -0.004149 0.000000
# 3 0.039730 -0.003496 0.048434 0.000000 -0.065748 0.000000
# 4 0.000000 0.000000 0.000000 0.037367 0.000000 -0.013037
# 5 -0.141300 -0.004149 -0.065748 0.000000 0.248994 0.000000
# 6 0.000000 0.000000 0.000000 -0.013037 0.000000 0.035301
#
#
# Mechanical properties :
#
#
# Convention : Reuss Voigt Hill
#
# Bulk Modulus (GPa) = 4.36852 43.75110 24.05981
# Shear Modulus (GPa) = 10.11596 30.80593 20.46094
#
# Velocity S-wave (km/s) = 2.25381 3.93307 3.20537
# Velocity P-wave (km/s) = 2.99442 6.52647 5.07747
#
# Compressibility (1/GPa) = 0.22891074
#
# Stress axis : x y z
#
# Youngs Moduli (GPa) = 9.33198 142.56294 20.64686
#
# Poissons Ratio (x) = 0.43937 -0.82031
# Poissons Ratio (y) = 0.02876 0.07219
# Poissons Ratio (z) = -0.37076 0.49843
#
# Static dielectric constant tensor:
#      x y z
#    x 1.745690 0.000000 -0.032430 
#    y 0.000000 1.740750 0.000000 
#    z -0.032430 0.000000 1.765040 
# 
# From -- ./inp_files/156698.got.cif
#   From: 2010.05.17/outbox.ucp.g08.bks.cvg/sg12_79_cif.got.tgz:156698.got - 2010.06.11 11:47:21.
