data_PCOD9223059
_publ_section_title
;
Structure prediction by ZEFSAII (Michael W. Deem and Ramdas Pophale) SiO2 
 PCOD9223059
Probable space group: C 2/M
;
_chemical_formula_sum "Si O2"
_cell_formula_units_Z 48
_cell_length_a 20.846949
_cell_length_b 15.743916
_cell_length_c 10.816353
_cell_angle_alpha 90.000000
_cell_angle_beta 141.086666
_cell_angle_gamma 90.000000
_cell_volume 2229.951632
_symmetry_space_group_name_H-M "C 2/M"
_symmetry_group_IT_number 12
_symmetry_cell_setting 'monoclinic'
loop_
_space_group_symop_operation_xyz
x,y,z
-x,y,-z
-x,-y,-z
x,-y,z
1/2+x,1/2+y,z
1/2-x,1/2+y,-z
1/2-x,1/2-y,-z
1/2+x,1/2-y,z
loop_
_atom_site_type_symbol
_atom_site_label
_atom_site_fract_x
_atom_site_fract_y
_atom_site_fract_z
Si Si1 0.339871 0.771068 0.850086
Si Si2 0.043428 0.092393 0.207205
Si Si3 0.318646 0.403932 0.936368
Si Si4 0.081531 0.274152 0.290459
Si Si5 0.518428 0.096661 0.387958
Si Si6 0.215832 0.404945 0.045414
O O1 0.303681 0.674455 0.820330
O O2 0.350529 0.799776 0.724788
O O3 0.459889 0.772889 0.072769
O O4 0.273584 0.833500 0.835207
O O5 0.105096 0.174446 0.341301
O O6 0.094088 0.000000 0.289032
O O7 0.000000 0.101696 0.000000
O O8 0.940878 0.091573 0.134989
O O9 0.287908 0.500000 0.851231
O O10 0.266808 0.384472 0.989930
O O11 0.085150 0.338280 0.409310
O O12 0.500000 0.126144 0.500000
O O13 0.405716 0.091469 0.160752
O O14 0.559129 0.000000 0.452561
O O15 0.250029 0.500000 0.133195
#
# Coordination Sequence:
#
# PCOD9223059 Si02
#       6
#     8   8   8   8   8   8
#     4   9  15  24  38  60  85 105 123 156 198 244
#     4   9  14  23  40  63  88 107 125 151 190 243
#     4   9  15  23  37  59  86 110 127 150 189 239
#     4   9  15  25  41  61  82 104 131 163 197 233
#     4   9  18  31  44  56  73 104 144 175 198 228
#     4   9  17  26  38  58  82 105 132 163 197 233
#
# _framework density 21.525129
#
# number of rings (size 3 to 8) (size 9 to 14) (size 15 to 20)
#    0.000    3.000    3.333    0.500    0.000    0.667 
#    0.000    3.333    0.000    1.500    0.000    0.000 
#    0.000    0.000    0.000    0.000    0.000    0.000 
#
# Total GULP energy -133733.818383 kJ/mol
# GULP energy per Si atom -5572.242433 kJ/mol
# Density = 2.147614 g / cm^3
# Si number density = 21.525129 Si / 1000 Ang^3
#
#
#
# Elastic Constant Matrix: (Units=GPa)
#
#
# Indices 1 2 3 4 5 6 
#
# 1 149.2458 98.1126 17.4171 0.0000 -25.8578 0.0000
# 2 98.1126 134.7702 11.6518 0.0000 -42.5616 0.0000
# 3 17.4171 11.6518 35.8985 0.0000 4.0435 0.0000
# 4 0.0000 0.0000 0.0000 -3.0664 0.0000 -8.1874
# 5 -25.8578 -42.5616 4.0435 0.0000 30.9769 0.0000
# 6 0.0000 0.0000 0.0000 -8.1874 0.0000 21.1038
#
#
#
# Elastic Compliance Matrix: (Units=1/GPa)
#
#
# Indices 1 2 3 4 5 6 
#
# 1 0.013350 -0.010313 -0.002831 0.000000 -0.002657 0.000000
# 2 -0.010313 0.022690 -0.004976 0.000000 0.023217 0.000000
# 3 -0.002831 -0.004976 0.032357 0.000000 -0.013423 0.000000
# 4 0.000000 0.000000 0.000000 -0.160186 0.000000 -0.062146
# 5 -0.002657 0.023217 -0.013423 0.000000 0.063716 0.000000
# 6 0.000000 0.000000 0.000000 -0.062146 0.000000 0.023275
#
#
# Mechanical properties :
#
#
# Convention : Reuss Voigt Hill
#
# Bulk Modulus (GPa) = 31.09686 63.80863 47.45274
# Shear Modulus (GPa) = 118.59469 22.65174 70.62321
#
# Velocity S-wave (km/s) = 7.43072 3.24750 5.73419
# Velocity P-wave (km/s) = 9.38610 6.61587 8.11999
#
# Compressibility (1/GPa) = 0.03215759
#
# Stress axis : x y z
#
# Youngs Moduli (GPa) = 74.90529 44.07179 30.90552
#
# Poissons Ratio (x) = 0.45452 0.08748
# Poissons Ratio (y) = 0.77251 0.15379
# Poissons Ratio (z) = 0.21202 0.21930
#
# Static dielectric constant tensor:
#      x y z
#    x 1.764160 0.000000 0.003820 
#    y 0.000000 1.833310 0.000000 
#    z 0.003820 0.000000 1.840780 
# 
# From -- ./inp_files/166873.got.cif
#   From: 2010.05.17/outbox.cif.g08.bks.cpg/sg12_84_cif.got.tgz:166873.got - 2010.06.03 13:09:07.
