data_PCOD9223974
_publ_section_title
;
Structure prediction by ZEFSAII (Michael W. Deem and Ramdas Pophale) SiO2 
 PCOD9223974
Probable space group: C 2/M
;
_chemical_formula_sum "Si O2"
_cell_formula_units_Z 28
_cell_length_a 21.000000
_cell_length_b 9.000000
_cell_length_c 18.000000
_cell_angle_alpha 90.000000
_cell_angle_beta 60.000000
_cell_angle_gamma 90.000000
_cell_volume 2946.218424
_symmetry_space_group_name_H-M "C 2/M"
_symmetry_group_IT_number 12
_symmetry_cell_setting 'monoclinic'
loop_
_space_group_symop_operation_xyz
x,y,z
-x,y,-z
-x,-y,-z
x,-y,z
1/2+x,1/2+y,z
1/2-x,1/2+y,-z
1/2-x,1/2-y,-z
1/2+x,1/2-y,z
loop_
_atom_site_type_symbol
_atom_site_label
_atom_site_fract_x
_atom_site_fract_y
_atom_site_fract_z
Si Si1 0.576470 0.678480 0.651293
Si Si2 0.074579 0.674235 0.495731
Si Si3 0.083877 0.821407 0.938870
Si Si4 0.838096 0.180079 0.255957
Si Si5 0.920174 0.321551 0.778856
Si Si6 0.317003 0.174965 0.705593
Si Si7 0.173219 0.677060 0.019540
O O1 0.574671 0.500000 0.651724
O O2 0.592463 0.739062 0.559972
O O3 0.635120 0.730251 0.679081
O O4 0.497173 0.740860 0.721846
O O5 0.063204 0.500000 0.521627
O O6 0.135509 0.683707 0.396760
O O7 0.000000 0.729027 0.500000
O O8 0.103493 0.788299 0.842285
O O9 0.089393 0.000000 0.946221
O O10 0.139775 0.746031 0.963943
O O11 0.000000 0.774961 0.000000
O O12 0.761614 0.241286 0.268884
O O13 0.830982 0.000000 0.265591
O O14 0.930688 0.500000 0.762794
O O15 0.862990 0.267305 0.748732
O O16 0.884836 0.296134 0.879865
O O17 0.305160 0.000000 0.730226
O O18 0.182900 0.500000 0.006050
O O19 0.250000 0.750000 0.000000
#
# Coordination Sequence:
#
# PCOD9223974 Si02
#       7
#     8   8   8   8   8   8   8
#     4  11  22  35  56  85 115 141 177 231 282 332
#     4  10  19  35  58  81 106 143 189 228 270 332
#     4  10  20  37  60  82 113 155 197 238 287 347
#     4   9  19  35  54  80 111 148 186 223 279 341
#     4  10  20  37  59  81 106 147 193 228 270 333
#     4   9  17  33  57  77 102 144 190 226 262 326
#     4  11  23  37  58  86 117 150 191 242 291 343
#
# _framework density 9.5037079999999996
#
# number of rings (size 3 to 8) (size 9 to 14) (size 15 to 20)
#    0.000    2.000    1.429    2.571    0.000    5.714 
#    0.000    1.429    0.000    3.429    0.000    0.000 
#    0.000    0.000    0.000    0.000    0.000    0.000 
#
# Total GULP energy -156271.365910 kJ/mol
# GULP energy per Si atom -5581.120211 kJ/mol
# Density = 0.948208 g / cm^3
# Si number density = 9.503708 Si / 1000 Ang^3
#
#
#
# Elastic Constant Matrix: (Units=GPa)
#
#
# Indices 1 2 3 4 5 6 
#
# 1 72.7638 1.0746 -1.9476 0.0000 16.8389 0.0000
# 2 1.0746 22.6516 3.3966 0.0000 11.5206 -0.0001
# 3 -1.9476 3.3966 4.0636 0.0000 25.7935 0.0000
# 4 0.0000 0.0000 0.0000 21.5818 0.0000 5.5216
# 5 16.8389 11.5206 25.7935 0.0000 35.5277 0.0000
# 6 0.0000 -0.0001 0.0000 5.5216 0.0000 27.7514
#
#
#
# Elastic Compliance Matrix: (Units=1/GPa)
#
#
# Indices 1 2 3 4 5 6 
#
# 1 0.012743 -0.000257 -0.012230 0.000000 0.002923 0.000000
# 2 -0.000257 0.048552 -0.016200 0.000000 -0.003861 0.000000
# 3 -0.012230 -0.016200 -0.050890 0.000000 0.047997 0.000000
# 4 0.000000 0.000000 0.000000 0.048820 0.000000 -0.009714
# 5 0.002923 -0.003861 0.047997 0.000000 -0.006833 0.000000
# 6 0.000000 0.000000 0.000000 -0.009714 0.000000 0.037967
#
#
# Mechanical properties :
#
#
# Convention : Reuss Voigt Hill
#
# Bulk Modulus (GPa) = -21.29015 11.61402 -4.83806
# Shear Modulus (GPa) = 37.85662 23.43588 30.64625
#
# Velocity S-wave (km/s) = 4.46766 3.51520 4.01974
# Velocity P-wave (km/s) = 3.92276 4.75384 4.35816
#
# Compressibility (1/GPa) = -0.04697008
#
# Stress axis : x y z
#
# Youngs Moduli (GPa) = 78.47365 20.59655 -19.65007
#
# Poissons Ratio (x) = 0.00530 -0.24033
# Poissons Ratio (y) = 0.02018 -0.31833
# Poissons Ratio (z) = 0.95976 0.33366
#
# Static dielectric constant tensor:
#      x y z
#    x 1.679330 0.000000 -0.036470 
#    y 0.000000 1.647080 0.000000 
#    z -0.036470 0.000000 1.672710 
# 
# From -- ./inp_files/280884.got.cif
#   From: 2010.05.17/outbox.ucp.g08.bks.cvg/sg12_141_cif.got.tgz:280884.got - 2010.06.11 11:47:21.
