data_PCOD9223198
_publ_section_title
;
Structure prediction by ZEFSAII (Michael W. Deem and Ramdas Pophale) SiO2 
 PCOD9223198
Probable space group: C 2/M
;
_chemical_formula_sum "Si O2"
_cell_formula_units_Z 24
_cell_length_a 21.000000
_cell_length_b 9.000000
_cell_length_c 15.000000
_cell_angle_alpha 90.000000
_cell_angle_beta 110.000000
_cell_angle_gamma 90.000000
_cell_volume 2664.028580
_symmetry_space_group_name_H-M "C 2/M"
_symmetry_group_IT_number 12
_symmetry_cell_setting 'monoclinic'
loop_
_space_group_symop_operation_xyz
x,y,z
-x,y,-z
-x,-y,-z
x,-y,z
1/2+x,1/2+y,z
1/2-x,1/2+y,-z
1/2-x,1/2-y,-z
1/2+x,1/2-y,z
loop_
_atom_site_type_symbol
_atom_site_label
_atom_site_fract_x
_atom_site_fract_y
_atom_site_fract_z
Si Si1 0.660581 0.172329 0.974879
Si Si2 0.478175 0.672337 0.092954
Si Si3 0.769454 0.172212 0.154888
Si Si4 0.871674 0.675533 0.324752
Si Si5 0.989245 0.321787 0.716179
Si Si6 0.928486 0.170761 0.519192
O O1 0.582964 0.211282 0.935243
O O2 0.693441 0.283728 0.919532
O O3 0.673839 0.000000 0.956191
O O4 0.691978 0.195361 0.088139
O O5 0.459741 0.500000 0.104793
O O6 0.522561 0.733655 0.197081
O O7 0.500000 0.672374 0.000000
O O8 0.802856 0.274397 0.244548
O O9 0.780879 0.000000 0.182105
O O10 0.875072 0.500000 0.339759
O O11 0.934929 0.713078 0.288049
O O12 0.879560 0.756901 0.422752
O O13 0.984897 0.500000 0.725749
O O14 0.939657 0.264841 0.614106
O O15 0.000000 0.171534 0.500000
O O16 0.911403 0.000000 0.531228
#
# Coordination Sequence:
#
# PCOD9223198 Si02
#       6
#     8   8   8   8   8   8
#     4  10  20  33  48  70  96 128 165 202 245 290
#     4  11  23  36  51  71  96 130 170 208 245 287
#     4  10  19  30  48  71  99 130 161 198 243 294
#     4  10  18  28  45  71 100 129 162 196 239 292
#     4  10  19  31  47  68  96 128 163 203 243 287
#     4   9  17  28  44  66  95 129 161 195 240 290
#
# _framework density 9.0089120000000005
#
# number of rings (size 3 to 8) (size 9 to 14) (size 15 to 20)
#    0.000    2.000    1.667    3.000    0.000    6.667 
#    0.000    0.000    0.000    0.000    0.000    1.167 
#    0.000    0.000    0.000    0.000    0.000    0.000 
#
# Total GULP energy -133660.918046 kJ/mol
# GULP energy per Si atom -5569.204919 kJ/mol
# Density = 0.898841 g / cm^3
# Si number density = 9.008912 Si / 1000 Ang^3
#
#
#
# Elastic Constant Matrix: (Units=GPa)
#
#
# Indices 1 2 3 4 5 6 
#
# 1 -3.9558 -3.3990 10.2641 0.0000 0.6645 0.0000
# 2 -3.3990 65.8999 38.5527 0.0000 -3.2268 0.0000
# 3 10.2641 38.5527 132.2290 0.0000 3.8055 0.0000
# 4 0.0000 0.0000 0.0000 35.8533 0.0000 3.0096
# 5 0.6645 -3.2268 3.8055 0.0000 18.7105 0.0000
# 6 0.0000 0.0000 0.0000 3.0096 0.0000 13.6581
#
#
#
# Elastic Compliance Matrix: (Units=1/GPa)
#
#
# Indices 1 2 3 4 5 6 
#
# 1 -0.181786 -0.021366 0.020380 0.000000 -0.001374 0.000000
# 2 -0.021366 0.016129 -0.003164 0.000000 0.004184 0.000000
# 3 0.020380 -0.003164 0.006981 0.000000 -0.002689 0.000000
# 4 0.000000 0.000000 0.000000 0.028417 0.000000 -0.006262
# 5 -0.001374 0.004184 -0.002689 0.000000 0.054763 0.000000
# 6 0.000000 0.000000 0.000000 -0.006262 0.000000 0.074597
#
#
# Mechanical properties :
#
#
# Convention : Reuss Voigt Hill
#
# Bulk Modulus (GPa) = -5.98880 31.66764 12.83942
# Shear Modulus (GPa) = -103.60832 23.56138 -40.02347
#
# Velocity S-wave (km/s) = -7.59132 3.62010 -4.71821
# Velocity P-wave (km/s) = 8.95368 5.92346 4.74769
#
# Compressibility (1/GPa) = -0.16697846
#
# Stress axis : x y z
#
# Youngs Moduli (GPa) = -5.50096 62.00187 143.25311
#
# Poissons Ratio (x) = 1.32475 -2.91950
# Poissons Ratio (y) = -0.11754 0.45330
# Poissons Ratio (z) = 0.11211 0.19619
#
# Static dielectric constant tensor:
#      x y z
#    x 1.640700 0.000000 0.031100 
#    y 0.000000 1.597220 0.000000 
#    z 0.031100 0.000000 1.644400 
# 
# From -- ./inp_files/172158.got.cif
#   From: 2010.05.17/outbox.ucp.g08.bks.cvg/sg12_87_cif.got.tgz:172158.got - 2010.06.11 11:47:21.
