data_PCOD9223592
_publ_section_title
;
Structure prediction by ZEFSAII (Michael W. Deem and Ramdas Pophale) SiO2 
 PCOD9223592
Probable space group: C 2/M
;
_chemical_formula_sum "Si O2"
_cell_formula_units_Z 32
_cell_length_a 30.000000
_cell_length_b 9.000000
_cell_length_c 24.000000
_cell_angle_alpha 90.000000
_cell_angle_beta 30.000000
_cell_angle_gamma 90.000000
_cell_volume 3240.000000
_symmetry_space_group_name_H-M "C 2/M"
_symmetry_group_IT_number 12
_symmetry_cell_setting 'monoclinic'
loop_
_space_group_symop_operation_xyz
x,y,z
-x,y,-z
-x,-y,-z
x,-y,z
1/2+x,1/2+y,z
1/2-x,1/2+y,-z
1/2-x,1/2-y,-z
1/2+x,1/2-y,z
loop_
_atom_site_type_symbol
_atom_site_label
_atom_site_fract_x
_atom_site_fract_y
_atom_site_fract_z
Si Si1 0.885050 0.664566 0.992417
Si Si2 0.963657 0.820591 0.385327
Si Si3 0.397755 0.824119 0.694127
Si Si4 0.280673 0.331063 0.911205
Si Si5 0.255458 0.680424 0.768046
Si Si6 0.006550 0.834924 0.216216
Si Si7 0.738103 0.677353 0.368240
Si Si8 0.806424 0.835924 0.393573
O O1 0.920152 0.500000 0.967933
O O2 0.953617 0.752735 0.880241
O O3 0.803719 0.651698 0.037270
O O4 0.835121 0.727257 0.101246
O O5 0.007682 0.771918 0.278340
O O6 0.859246 0.783960 0.501640
O O7 0.008516 0.750603 0.391628
O O8 0.971551 0.000000 0.378796
O O9 0.343484 0.777075 0.808200
O O10 0.341139 0.751354 0.705606
O O11 0.404512 0.000000 0.679909
O O12 0.315821 0.500000 0.881246
O O13 0.250000 0.250000 0.000000
O O14 0.261181 0.500000 0.767651
O O15 0.254157 0.719537 0.704650
O O16 0.903124 0.847003 0.315019
O O17 0.047149 0.000000 0.173723
O O18 0.747250 0.500000 0.361567
O O19 0.807889 0.753740 0.333213
O O20 0.750000 0.750000 0.500000
O O21 0.768523 0.000000 0.426299
#
# Coordination Sequence:
#
# PCOD9223592 Si02
#       8
#     8   8   8   8   8   8   8   8
#     4   9  19  34  53  79 108 144 188 231 276 329
#     4  10  20  36  56  81 114 148 190 236 288 347
#     4  11  22  34  51  79 114 152 194 234 281 334
#     4  10  19  32  50  75 108 146 191 237 286 336
#     4   9  20  40  61  80 111 153 196 237 281 338
#     4  10  21  36  56  84 116 147 183 228 282 343
#     4  10  21  40  64  86 109 147 193 238 291 343
#     4  11  22  39  61  88 118 147 184 230 285 345
#
# _framework density 9.8765429999999999
#
# number of rings (size 3 to 8) (size 9 to 14) (size 15 to 20)
#    0.000    2.000    1.250    3.375    0.000    7.500 
#    0.000    3.125    0.000    3.750    0.000    0.000 
#    0.000    0.000    0.000    0.000    0.000    0.000 
#
# Total GULP energy -178283.117783 kJ/mol
# GULP energy per Si atom -5571.347431 kJ/mol
# Density = 0.985406 g / cm^3
# Si number density = 9.876543 Si / 1000 Ang^3
#
#
#
# Elastic Constant Matrix: (Units=GPa)
#
#
# Indices 1 2 3 4 5 6 
#
# 1 110.8919 24.2357 21.2005 0.0045 24.3641 -0.0008
# 2 24.2357 26.4009 16.4013 0.0075 3.9724 -0.0035
# 3 21.2005 16.4013 40.1008 0.0159 8.3706 -0.0077
# 4 0.0045 0.0075 0.0159 19.8538 -0.0040 0.6130
# 5 24.3641 3.9724 8.3706 -0.0040 31.9280 -0.0007
# 6 -0.0008 -0.0035 -0.0077 0.6130 -0.0007 24.9080
#
#
#
# Elastic Compliance Matrix: (Units=1/GPa)
#
#
# Indices 1 2 3 4 5 6 
#
# 1 0.013374 -0.010330 -0.001041 0.000000 -0.008648 -0.000002
# 2 -0.010330 0.058784 -0.019783 -0.000003 0.005755 0.000002
# 3 -0.001041 -0.019783 0.034804 -0.000022 -0.005869 0.000008
# 4 0.000000 -0.000003 -0.000022 0.050406 0.000012 -0.001241
# 5 -0.008648 0.005755 -0.005869 0.000012 0.038742 -0.000001
# 6 -0.000002 0.000002 0.000008 -0.001241 -0.000001 0.040178
#
#
# Mechanical properties :
#
#
# Convention : Reuss Voigt Hill
#
# Bulk Modulus (GPa) = 22.39382 33.45206 27.92294
# Shear Modulus (GPa) = 15.94990 23.04169 19.49580
#
# Velocity S-wave (km/s) = 2.84467 3.41909 3.14502
# Velocity P-wave (km/s) = 4.70649 5.70603 5.23019
#
# Compressibility (1/GPa) = 0.04465517
#
# Stress axis : x y z
#
# Youngs Moduli (GPa) = 74.76975 17.01142 28.73249
#
# Poissons Ratio (x) = 0.17572 0.02990
# Poissons Ratio (y) = 0.77236 0.56842
# Poissons Ratio (z) = 0.07781 0.33654
#
# Static dielectric constant tensor:
#      x y z
#    x 1.749750 -0.000010 0.052370 
#    y -0.000010 1.702330 0.000000 
#    z 0.052370 0.000000 1.824060 
# 
# From -- ./inp_files/353395.got.cif
#   From: 2010.05.17/outbox.ucp.g08.bks.cvg/sg12_177_cif.got.tgz:353395.got - 2010.06.11 11:47:21.
