data_PCOD9223109
_publ_section_title
;
Structure prediction by ZEFSAII (Michael W. Deem and Ramdas Pophale) SiO2 
 PCOD9223109
Probable space group: C 2/M
;
_chemical_formula_sum "Si O2"
_cell_formula_units_Z 56
_cell_length_a 14.494978
_cell_length_b 19.148722
_cell_length_c 9.421996
_cell_angle_alpha 90.000000
_cell_angle_beta 95.259937
_cell_angle_gamma 90.000000
_cell_volume 2604.159698
_symmetry_space_group_name_H-M "C 2/M"
_symmetry_group_IT_number 12
_symmetry_cell_setting 'monoclinic'
loop_
_space_group_symop_operation_xyz
x,y,z
-x,y,-z
-x,-y,-z
x,-y,z
1/2+x,1/2+y,z
1/2-x,1/2+y,-z
1/2-x,1/2-y,-z
1/2+x,1/2-y,z
loop_
_atom_site_type_symbol
_atom_site_label
_atom_site_fract_x
_atom_site_fract_y
_atom_site_fract_z
Si Si1 0.798313 0.416289 0.471269
Si Si2 0.161605 0.417984 0.224275
Si Si3 0.445736 0.920206 0.280713
Si Si4 0.391246 0.821160 0.030582
Si Si5 0.601670 0.337424 0.936495
Si Si6 0.830743 0.079524 0.794922
Si Si7 0.471784 0.420025 0.334835
O O1 0.784037 0.500000 0.476740
O O2 0.782579 0.392984 0.629237
O O3 0.902539 0.405581 0.428570
O O4 0.731448 0.388781 0.339567
O O5 0.181515 0.500000 0.190711
O O6 0.163679 0.362586 0.098729
O O7 0.054519 0.416758 0.264395
O O8 0.419718 0.000000 0.243738
O O9 0.393265 0.868999 0.168356
O O10 0.500000 0.818716 0.000000
O O11 0.364380 0.742203 0.060893
O O12 0.590450 0.372423 0.779273
O O13 0.500000 0.337154 0.000000
O O14 0.663035 0.380735 0.056323
O O15 0.932426 0.076468 0.739183
O O16 0.800616 0.000000 0.818264
O O17 0.500000 0.397333 0.500000
O O18 0.434459 0.500000 0.341397
#
# Coordination Sequence:
#
# PCOD9223109 Si02
#       7
#     8   8   8   8   8   8   8
#     4   9  17  29  46  69  94 121 157 197 233 271
#     4   9  16  28  47  68  92 124 161 199 233 264
#     4   9  16  28  46  67  91 122 161 198 231 271
#     4   9  17  29  45  67  92 121 157 196 231 270
#     4   9  17  31  49  69  94 123 153 185 228 282
#     4   9  17  31  50  70  94 123 152 186 232 283
#     4   9  17  31  53  77  95 114 148 192 233 277
#
# _framework density 21.504055999999999
#
# number of rings (size 3 to 8) (size 9 to 14) (size 15 to 20)
#    0.000    3.000    0.000    1.286    0.000    5.143 
#    0.000    8.571    0.000    5.143    0.000    0.000 
#    0.000    0.000    0.000    0.000    0.000    0.000 
#
# Total GULP energy -156119.593551 kJ/mol
# GULP energy per Si atom -5575.699770 kJ/mol
# Density = 2.145511 g / cm^3
# Si number density = 21.504056 Si / 1000 Ang^3
#
#
#
# Elastic Constant Matrix: (Units=GPa)
#
#
# Indices 1 2 3 4 5 6 
#
# 1 52.4201 10.1287 18.2146 0.0000 0.0654 0.0000
# 2 10.1287 107.7998 102.5527 0.0000 11.7003 0.0000
# 3 18.2146 102.5527 197.8615 0.0000 25.6068 0.0000
# 4 0.0000 0.0000 0.0000 -34.9183 0.0000 -10.4617
# 5 0.0654 11.7003 25.6068 0.0000 33.5901 0.0000
# 6 0.0000 0.0000 0.0000 -10.4617 0.0000 1.1150
#
#
#
# Elastic Compliance Matrix: (Units=1/GPa)
#
#
# Indices 1 2 3 4 5 6 
#
# 1 0.019777 -0.000206 -0.001906 0.000000 0.001486 0.000000
# 2 -0.000206 0.018329 -0.009602 0.000000 0.000936 0.000000
# 3 -0.001906 -0.009602 0.010843 0.000000 -0.004917 0.000000
# 4 0.000000 0.000000 0.000000 -0.007515 0.000000 -0.070505
# 5 0.001486 0.000936 -0.004917 0.000000 0.033190 0.000000
# 6 0.000000 0.000000 0.000000 -0.070505 0.000000 0.235327
#
#
# Mechanical properties :
#
#
# Convention : Reuss Voigt Hill
#
# Bulk Modulus (GPa) = 39.18532 68.87481 54.03007
# Shear Modulus (GPa) = 14.62470 15.10306 14.86388
#
# Velocity S-wave (km/s) = 2.61068 2.65304 2.63194
# Velocity P-wave (km/s) = 5.22967 6.44074 5.86654
#
# Compressibility (1/GPa) = 0.02551976
#
# Stress axis : x y z
#
# Youngs Moduli (GPa) = 50.56387 54.55821 92.22734
#
# Poissons Ratio (x) = 0.01125 0.17579
# Poissons Ratio (y) = 0.01043 0.88558
# Poissons Ratio (z) = 0.09638 0.52388
#
# Static dielectric constant tensor:
#      x y z
#    x 1.871880 0.000000 0.020620 
#    y 0.000000 1.731790 0.000000 
#    z 0.020620 0.000000 1.787390 
# 
# From -- ./inp_files/76910.got.cif
#   From: 2010.05.17/outbox.cif.g08.bks.cpg/sg12_39_cif.got.tgz:76910.got - 2010.06.03 13:09:07.
