data_PCOD9223278
_publ_section_title
;
Structure prediction by ZEFSAII (Michael W. Deem and Ramdas Pophale) SiO2 
 PCOD9223278
Probable space group: C 2/M
;
_chemical_formula_sum "Si O2"
_cell_formula_units_Z 32
_cell_length_a 15.000000
_cell_length_b 9.000000
_cell_length_c 27.000000
_cell_angle_alpha 90.000000
_cell_angle_beta 80.000000
_cell_angle_gamma 90.000000
_cell_volume 3589.624260
_symmetry_space_group_name_H-M "C 2/M"
_symmetry_group_IT_number 12
_symmetry_cell_setting 'monoclinic'
loop_
_space_group_symop_operation_xyz
x,y,z
-x,y,-z
-x,-y,-z
x,-y,z
1/2+x,1/2+y,z
1/2-x,1/2+y,-z
1/2-x,1/2-y,-z
1/2+x,1/2-y,z
loop_
_atom_site_type_symbol
_atom_site_label
_atom_site_fract_x
_atom_site_fract_y
_atom_site_fract_z
Si Si1 0.350500 0.320268 0.992554
Si Si2 0.238577 0.679496 0.388265
Si Si3 0.544800 0.678871 0.260741
Si Si4 0.065489 0.820743 0.448332
Si Si5 0.468278 0.680450 0.078203
Si Si6 0.405397 0.319895 0.191362
Si Si7 0.268963 0.820578 0.727713
Si Si8 0.558711 0.320125 0.630967
O O1 0.341243 0.500000 0.990960
O O2 0.401561 0.282027 0.039191
O O3 0.250000 0.250000 0.000000
O O4 0.427514 0.274455 0.944341
O O5 0.231897 0.500000 0.391624
O O6 0.163737 0.749431 0.431362
O O7 0.229673 0.722410 0.330768
O O8 0.340301 0.728535 0.391570
O O9 0.556264 0.500000 0.263081
O O10 0.493634 0.714221 0.215260
O O11 0.640170 0.757351 0.257446
O O12 0.478481 0.725868 0.312083
O O13 0.000000 0.776916 0.500000
O O14 0.012079 0.776965 0.403826
O O15 0.074953 0.000000 0.449518
O O16 0.471348 0.500000 0.079598
O O17 0.424574 0.734014 0.133896
O O18 0.397413 0.500000 0.189868
O O19 0.317662 0.269649 0.231428
O O20 0.268048 0.000000 0.728209
O O21 0.562408 0.500000 0.631710
#
# Coordination Sequence:
#
# PCOD9223278 Si02
#       8
#     8   8   8   8   8   8   8   8
#     4   9  17  31  52  74  98 132 172 208 249 292
#     4  10  19  33  53  73  95 126 163 200 238 288
#     4  10  18  31  52  73  94 129 167 196 238 295
#     4  10  21  36  53  74 100 128 159 200 248 293
#     4   8  16  31  49  71 100 134 169 205 242 295
#     4   9  17  31  51  73  99 132 170 202 239 297
#     4  10  19  31  49  74  98 124 161 203 245 287
#     4   9  17  32  52  71  95 127 159 191 235 292
#
# _framework density 8.9145819999999993
#
# number of rings (size 3 to 8) (size 9 to 14) (size 15 to 20)
#    0.000    2.625    2.500    0.750    0.000    1.750 
#    0.000    3.125    0.000    1.500    0.000    0.000 
#    0.000    0.000    0.000    0.000    0.000    0.000 
#
# Total GULP energy -178226.521682 kJ/mol
# GULP energy per Si atom -5569.578803 kJ/mol
# Density = 0.889429 g / cm^3
# Si number density = 8.914582 Si / 1000 Ang^3
#
#
#
# Elastic Constant Matrix: (Units=GPa)
#
#
# Indices 1 2 3 4 5 6 
#
# 1 74.8340 7.0132 -25.6074 0.0000 -17.4904 0.0000
# 2 7.0132 2.7440 2.0750 0.0000 -3.0580 0.0000
# 3 -25.6074 2.0750 33.9299 0.0000 -12.9552 0.0000
# 4 0.0000 0.0000 0.0000 10.4422 0.0000 -3.0533
# 5 -17.4904 -3.0580 -12.9552 0.0000 23.2226 0.0000
# 6 0.0000 0.0000 0.0000 -3.0533 0.0000 30.4158
#
#
#
# Elastic Compliance Matrix: (Units=1/GPa)
#
#
# Indices 1 2 3 4 5 6 
#
# 1 0.307187 -0.683583 0.416284 0.000000 0.373578 0.000000
# 2 -0.683583 1.949215 -0.932271 0.000000 -0.778258 0.000000
# 3 0.416284 -0.932271 0.601657 0.000000 0.526412 0.000000
# 4 0.000000 0.000000 0.000000 0.098661 0.000000 0.009904
# 5 0.373578 -0.778258 0.526412 0.000000 0.515613 0.000000
# 6 0.000000 0.000000 0.000000 0.009904 0.000000 0.033872
#
#
# Mechanical properties :
#
#
# Convention : Reuss Voigt Hill
#
# Bulk Modulus (GPa) = 2.17903 8.71884 5.44893
# Shear Modulus (GPa) = 0.82531 21.35127 11.08829
#
# Velocity S-wave (km/s) = 0.68111 3.46431 2.49654
# Velocity P-wave (km/s) = 1.35771 4.57196 3.37240
#
# Compressibility (1/GPa) = 0.45891985
#
# Stress axis : x y z
#
# Youngs Moduli (GPa) = 3.25534 0.51303 1.66208
#
# Poissons Ratio (x) = 0.35070 -0.69190
# Poissons Ratio (y) = 2.22530 1.54951
# Poissons Ratio (z) = -1.35515 0.47828
#
# Static dielectric constant tensor:
#      x y z
#    x 1.606360 0.000000 0.005610 
#    y 0.000000 1.599090 0.000000 
#    z 0.005610 0.000000 1.629010 
# 
# From -- ./inp_files/359858.got.cif
#   From: 2010.05.17/outbox.ucp.g08.bks.cvg/sg12_180_cif.got.tgz:359858.got - 2010.06.11 11:47:21.
