data_PCOD9223347
_publ_section_title
;
Structure prediction by ZEFSAII (Michael W. Deem and Ramdas Pophale) SiO2 
 PCOD9223347
Probable space group: C 2/M
;
_chemical_formula_sum "Si O2"
_cell_formula_units_Z 32
_cell_length_a 24.000000
_cell_length_b 9.000000
_cell_length_c 21.000000
_cell_angle_alpha 90.000000
_cell_angle_beta 130.000000
_cell_angle_gamma 90.000000
_cell_volume 3474.777594
_symmetry_space_group_name_H-M "C 2/M"
_symmetry_group_IT_number 12
_symmetry_cell_setting 'monoclinic'
loop_
_space_group_symop_operation_xyz
x,y,z
-x,y,-z
-x,-y,-z
x,-y,z
1/2+x,1/2+y,z
1/2-x,1/2+y,-z
1/2-x,1/2-y,-z
1/2+x,1/2-y,z
loop_
_atom_site_type_symbol
_atom_site_label
_atom_site_fract_x
_atom_site_fract_y
_atom_site_fract_z
Si Si1 0.416621 0.321725 0.105545
Si Si2 0.422991 0.822452 0.336229
Si Si3 0.818931 0.178043 0.154577
Si Si4 0.829940 0.678701 0.391469
Si Si5 0.567679 0.178933 0.262074
Si Si6 0.411463 0.179683 0.577185
Si Si7 0.680618 0.821373 0.231330
Si Si8 0.166652 0.179245 0.082641
O O1 0.426418 0.500000 0.113653
O O2 0.353473 0.287008 0.110817
O O3 0.490189 0.246624 0.184929
O O4 0.392173 0.280390 0.015644
O O5 0.374842 0.733394 0.249929
O O6 0.393619 0.795784 0.386022
O O7 0.507348 0.784625 0.387906
O O8 0.414645 0.000000 0.317719
O O9 0.743619 0.261414 0.112600
O O10 0.808872 0.000000 0.151716
O O11 0.817425 0.500000 0.384185
O O12 0.854897 0.729517 0.480619
O O13 0.758505 0.757806 0.311201
O O14 0.592950 0.229311 0.351880
O O15 0.624558 0.213491 0.247493
O O16 0.560262 0.000000 0.259861
O O17 0.405372 0.000000 0.573666
O O18 0.657806 0.749653 0.146630
O O19 0.684552 0.000000 0.226728
O O20 0.168092 0.000000 0.089293
#
# Coordination Sequence:
#
# PCOD9223347 Si02
#       8
#     8   8   8   8   8   8   8   8
#     4  10  23  40  60  88 118 147 188 238 287 341
#     4  10  18  32  58  87 116 150 188 229 279 342
#     4  11  21  35  58  89 122 149 179 231 290 343
#     4  10  20  35  59  88 116 151 193 233 282 343
#     4  10  22  40  61  83 113 155 198 238 285 340
#     4   9  18  35  59  87 116 150 192 234 278 342
#     4  11  24  40  57  83 117 151 194 247 292 332
#     4  11  23  40  61  85 114 153 194 232 283 348
#
# _framework density 9.2092220000000005
#
# number of rings (size 3 to 8) (size 9 to 14) (size 15 to 20)
#    0.000    1.750    2.500    1.875    0.000    5.000 
#    0.000    3.750    0.000    1.500    0.000    0.000 
#    0.000    0.000    0.000    0.000    0.000    0.000 
#
# Total GULP energy -178658.664576 kJ/mol
# GULP energy per Si atom -5583.083268 kJ/mol
# Density = 0.918826 g / cm^3
# Si number density = 9.209222 Si / 1000 Ang^3
#
#
#
# Elastic Constant Matrix: (Units=GPa)
#
#
# Indices 1 2 3 4 5 6 
#
# 1 109.2100 30.3812 45.1819 0.0000 -31.2723 0.0000
# 2 30.3812 38.8281 29.3303 0.0000 -12.7347 0.0000
# 3 45.1819 29.3303 146.4561 0.0000 -40.0768 0.0000
# 4 0.0000 0.0000 0.0000 29.9161 0.0000 0.5460
# 5 -31.2723 -12.7347 -40.0768 0.0000 31.3351 0.0000
# 6 0.0000 0.0000 0.0000 0.5460 0.0000 24.8187
#
#
#
# Elastic Compliance Matrix: (Units=1/GPa)
#
#
# Indices 1 2 3 4 5 6 
#
# 1 0.014558 -0.007749 0.000269 0.000000 0.011723 0.000000
# 2 -0.007749 0.035506 -0.004443 0.000000 0.001015 0.000000
# 3 0.000269 -0.004443 0.011098 0.000000 0.012657 0.000000
# 4 0.000000 0.000000 0.000000 0.033440 0.000000 -0.000736
# 5 0.011723 0.001015 0.012657 0.000000 0.060214 0.000000
# 6 0.000000 0.000000 0.000000 -0.000736 0.000000 0.040308
#
#
# Mechanical properties :
#
#
# Convention : Reuss Voigt Hill
#
# Bulk Modulus (GPa) = 26.79731 56.03121 41.41426
# Shear Modulus (GPa) = 21.60666 29.85404 25.73035
#
# Velocity S-wave (km/s) = 3.42877 4.03038 3.74169
# Velocity P-wave (km/s) = 5.50055 7.22121 6.41880
#
# Compressibility (1/GPa) = 0.03731718
#
# Stress axis : x y z
#
# Youngs Moduli (GPa) = 68.68955 28.16394 90.10350
#
# Poissons Ratio (x) = 0.21824 -0.02421
# Poissons Ratio (y) = 0.53228 0.40029
# Poissons Ratio (z) = -0.01846 0.12512
#
# Static dielectric constant tensor:
#      x y z
#    x 1.638320 0.000000 -0.011090 
#    y 0.000000 1.617660 0.000000 
#    z -0.011090 0.000000 1.628970 
# 
# From -- ./inp_files/324323.got.cif
#   From: 2010.05.17/outbox.ucp.g08.bks.cvg/sg12_163_cif.got.tgz:324323.got - 2010.06.11 11:47:21.
