data_PCOD9223098
_publ_section_title
;
Structure prediction by ZEFSAII (Michael W. Deem and Ramdas Pophale) SiO2 
 PCOD9223098
Probable space group: C 2/M
;
_chemical_formula_sum "Si O2"
_cell_formula_units_Z 56
_cell_length_a 34.002166
_cell_length_b 7.338417
_cell_length_c 16.334782
_cell_angle_alpha 90.000000
_cell_angle_beta 143.118610
_cell_angle_gamma 90.000000
_cell_volume 2446.187182
_symmetry_space_group_name_H-M "C 2/M"
_symmetry_group_IT_number 12
_symmetry_cell_setting 'monoclinic'
loop_
_space_group_symop_operation_xyz
x,y,z
-x,y,-z
-x,-y,-z
x,-y,z
1/2+x,1/2+y,z
1/2-x,1/2+y,-z
1/2-x,1/2-y,-z
1/2+x,1/2-y,z
loop_
_atom_site_type_symbol
_atom_site_label
_atom_site_fract_x
_atom_site_fract_y
_atom_site_fract_z
Si Si1 0.408098 0.723438 0.510832
Si Si2 0.043228 0.221749 0.995479
Si Si3 0.328138 0.709058 0.533819
Si Si4 0.177095 0.779639 0.967441
Si Si5 0.539014 0.278187 0.806802
Si Si6 0.320619 0.279087 0.706362
Si Si7 0.823254 0.212458 0.219636
O O1 0.405221 0.500000 0.504842
O O2 0.368426 0.785762 0.525295
O O3 0.483362 0.776276 0.649835
O O4 0.372154 0.787917 0.369069
O O5 0.118590 0.273501 0.136399
O O6 0.040684 0.000000 0.992233
O O7 0.020643 0.279648 0.868160
O O8 0.000000 0.284131 0.000000
O O9 0.350709 0.500000 0.579327
O O10 0.333931 0.785873 0.635257
O O11 0.250743 0.713795 0.385868
O O12 0.112072 0.718859 0.905687
O O13 0.173932 0.712521 0.867943
O O14 0.177142 0.000000 0.967167
O O15 0.247427 0.725551 0.120567
O O16 0.539801 0.500000 0.808235
O O17 0.317191 0.500000 0.698971
O O18 0.839936 0.000000 0.238937
#
# Coordination Sequence:
#
# PCOD9223098 Si02
#       7
#     8   8   8   8   8   8   8
#     4   9  17  29  46  68  94 125 156 191 233 279
#     4   9  16  26  42  65  93 122 152 190 235 275
#     4   9  17  29  44  64  91 120 153 189 229 275
#     4   9  18  32  50  73  97 121 154 197 238 277
#     4   9  17  28  45  70  96 121 156 199 236 272
#     4   9  17  28  44  66  89 118 154 193 231 269
#     4   9  18  32  50  71  96 126 156 189 235 287
#
# _framework density 22.892771
#
# number of rings (size 3 to 8) (size 9 to 14) (size 15 to 20)
#    0.000    3.000    0.000    0.857    2.000    4.000 
#    0.000    2.857    0.000    2.143    0.000    4.000 
#    0.000    0.000    0.000    0.000    0.000    0.000 
#
# Total GULP energy -156365.362387 kJ/mol
# GULP energy per Si atom -5584.477228 kJ/mol
# Density = 2.284067 g / cm^3
# Si number density = 22.892771 Si / 1000 Ang^3
#
#
#
# Elastic Constant Matrix: (Units=GPa)
#
#
# Indices 1 2 3 4 5 6 
#
# 1 64.3139 -8.6559 25.2161 0.0000 1.5253 0.0000
# 2 -8.6559 85.5971 -10.5849 0.0001 -6.4403 -0.0001
# 3 25.2161 -10.5849 148.0296 0.0000 -10.2413 0.0000
# 4 0.0000 0.0001 0.0000 3.0372 0.0000 21.3495
# 5 1.5253 -6.4403 -10.2413 0.0000 15.9467 0.0000
# 6 0.0000 -0.0001 0.0000 21.3495 0.0000 -17.2262
#
#
#
# Elastic Compliance Matrix: (Units=1/GPa)
#
#
# Indices 1 2 3 4 5 6 
#
# 1 0.016958 0.001106 -0.003025 0.000000 -0.003118 0.000000
# 2 0.001106 0.012347 0.001080 0.000000 0.005575 0.000000
# 3 -0.003025 0.001080 0.007742 0.000000 0.005698 0.000000
# 4 0.000000 0.000000 0.000000 0.033902 0.000000 0.042017
# 5 -0.003118 0.005575 0.005698 0.000000 0.068918 0.000000
# 6 0.000000 0.000000 0.000000 0.042017 0.000000 -0.005977
#
#
# Mechanical properties :
#
#
# Convention : Reuss Voigt Hill
#
# Bulk Modulus (GPa) = 28.27309 34.43237 31.35273
# Shear Modulus (GPa) = 33.93104 19.81588 26.87346
#
# Velocity S-wave (km/s) = 3.85408 2.94529 3.42992
# Velocity P-wave (km/s) = 5.67294 5.16137 5.42319
#
# Compressibility (1/GPa) = 0.03536932
#
# Stress axis : x y z
#
# Youngs Moduli (GPa) = 58.97021 80.98810 129.16257
#
# Poissons Ratio (x) = -0.08958 0.39076
# Poissons Ratio (y) = -0.06523 -0.13952
# Poissons Ratio (z) = 0.17840 -0.08748
#
# Static dielectric constant tensor:
#      x y z
#    x 1.821570 0.000000 -0.010250 
#    y 0.000000 1.825650 0.000000 
#    z -0.010250 0.000000 1.825010 
# 
# From -- ./inp_files/231935.got.cif
#   From: 2010.05.17/outbox.cif.g08.bks.cpg/sg12_116_cif.got.tgz:231935.got - 2010.06.03 13:09:07.
