data_PCOD9223778
_publ_section_title
;
Structure prediction by ZEFSAII (Michael W. Deem and Ramdas Pophale) SiO2 
 PCOD9223778
Probable space group: C 2/M
;
_chemical_formula_sum "Si O2"
_cell_formula_units_Z 32
_cell_length_a 30.000000
_cell_length_b 9.000000
_cell_length_c 18.000000
_cell_angle_alpha 90.000000
_cell_angle_beta 140.000000
_cell_angle_gamma 90.000000
_cell_volume 3123.947783
_symmetry_space_group_name_H-M "C 2/M"
_symmetry_group_IT_number 12
_symmetry_cell_setting 'monoclinic'
loop_
_space_group_symop_operation_xyz
x,y,z
-x,y,-z
-x,-y,-z
x,-y,z
1/2+x,1/2+y,z
1/2-x,1/2+y,-z
1/2-x,1/2-y,-z
1/2+x,1/2-y,z
loop_
_atom_site_type_symbol
_atom_site_label
_atom_site_fract_x
_atom_site_fract_y
_atom_site_fract_z
Si Si1 0.232780 0.826621 0.789507
Si Si2 0.521735 0.174686 0.228669
Si Si3 0.864032 0.670475 0.063581
Si Si4 0.771916 0.824603 0.687773
Si Si5 0.365357 0.677764 0.521475
Si Si6 0.066291 0.826612 0.139923
Si Si7 0.627618 0.322374 0.781852
Si Si8 0.022097 0.819725 0.446453
O O1 0.247507 0.726453 0.737835
O O2 0.170902 0.774763 0.764961
O O3 0.218525 0.000000 0.749589
O O4 0.304744 0.825769 0.926494
O O5 0.440435 0.217262 0.133023
O O6 0.575665 0.267910 0.346629
O O7 0.545798 0.211396 0.176865
O O8 0.528070 0.000000 0.254237
O O9 0.870228 0.500000 0.097372
O O10 0.838928 0.768881 0.099864
O O11 0.710795 0.745648 0.561810
O O12 0.854392 0.789672 0.784461
O O13 0.765423 0.000000 0.668805
O O14 0.359679 0.500000 0.515925
O O15 0.404291 0.725121 0.493743
O O16 0.069397 0.000000 0.170005
O O17 0.000000 0.821724 0.000000
O O18 0.627275 0.500000 0.777334
O O19 0.547218 0.272712 0.685928
O O20 0.000000 0.770680 0.500000
O O21 0.024441 0.000000 0.450152
#
# Coordination Sequence:
#
# PCOD9223778 Si02
#       8
#     8   8   8   8   8   8   8   8
#     4  10  21  37  58  85 119 161 202 242 295 360
#     4  11  23  39  62  91 125 160 199 251 304 359
#     4  10  21  36  55  85 124 158 194 246 303 354
#     4  11  24  41  62  90 121 151 192 250 304 354
#     4  11  22  39  63  87 120 163 203 247 297 356
#     4  10  23  44  68  93 120 154 199 246 297 364
#     4  10  19  33  55  83 115 157 207 247 286 349
#     4   9  17  31  53  81 112 152 204 250 284 333
#
# _framework density 10.243449
#
# number of rings (size 3 to 8) (size 9 to 14) (size 15 to 20)
#    0.000    1.750    1.250    3.000    0.000    5.250 
#    0.000    0.000    0.000    1.875    0.000    0.000 
#    0.000    0.000    0.000    0.000    0.000    0.000 
#
# Total GULP energy -178366.705529 kJ/mol
# GULP energy per Si atom -5573.959548 kJ/mol
# Density = 1.022013 g / cm^3
# Si number density = 10.243449 Si / 1000 Ang^3
#
#
#
# Elastic Constant Matrix: (Units=GPa)
#
#
# Indices 1 2 3 4 5 6 
#
# 1 90.7176 23.5908 23.8217 0.0000 31.3170 0.0000
# 2 23.5908 20.4342 23.3780 0.0000 10.3274 0.0000
# 3 23.8217 23.3780 80.1117 0.0000 26.3065 0.0000
# 4 0.0000 0.0000 0.0000 26.8957 0.0000 -0.9633
# 5 31.3170 10.3274 26.3065 0.0000 37.6375 0.0000
# 6 0.0000 0.0000 0.0000 -0.9633 0.0000 25.9490
#
#
#
# Elastic Compliance Matrix: (Units=1/GPa)
#
#
# Indices 1 2 3 4 5 6 
#
# 1 0.020454 -0.022170 0.005164 0.000000 -0.014545 0.000000
# 2 -0.022170 0.098826 -0.025179 0.000000 0.008928 0.000000
# 3 0.005164 -0.025179 0.022631 0.000000 -0.013206 0.000000
# 4 0.000000 0.000000 0.000000 0.037230 0.000000 0.001382
# 5 -0.014545 0.008928 -0.013206 0.000000 0.045451 0.000000
# 6 0.000000 0.000000 0.000000 0.001382 0.000000 0.038588
#
#
# Mechanical properties :
#
#
# Convention : Reuss Voigt Hill
#
# Bulk Modulus (GPa) = 17.37899 36.98271 27.18085
# Shear Modulus (GPa) = 13.63398 26.12797 19.88098
#
# Velocity S-wave (km/s) = 2.58252 3.57508 3.11854
# Velocity P-wave (km/s) = 4.17061 5.92728 5.12477
#
# Compressibility (1/GPa) = 0.05754074
#
# Stress axis : x y z
#
# Youngs Moduli (GPa) = 48.89130 10.11880 44.18705
#
# Poissons Ratio (x) = 0.22433 -0.22817
# Poissons Ratio (y) = 1.08392 1.11257
# Poissons Ratio (z) = -0.25246 0.25478
#
# Static dielectric constant tensor:
#      x y z
#    x 1.737390 0.000000 -0.050320 
#    y 0.000000 1.688180 0.000000 
#    z -0.050320 0.000000 1.845270 
# 
# From -- ./inp_files/295872.got.cif
#   From: 2010.05.17/outbox.ucp.g08.bks.cvg/sg12_148_cif.got.tgz:295872.got - 2010.06.11 11:47:21.
