data_PCOD9223385
_publ_section_title
;
Structure prediction by ZEFSAII (Michael W. Deem and Ramdas Pophale) SiO2 
 PCOD9223385
Probable space group: C 2/M
;
_chemical_formula_sum "Si O2"
_cell_formula_units_Z 32
_cell_length_a 24.000000
_cell_length_b 9.000000
_cell_length_c 30.000000
_cell_angle_alpha 90.000000
_cell_angle_beta 30.000000
_cell_angle_gamma 90.000000
_cell_volume 3240.000000
_symmetry_space_group_name_H-M "C 2/M"
_symmetry_group_IT_number 12
_symmetry_cell_setting 'monoclinic'
loop_
_space_group_symop_operation_xyz
x,y,z
-x,y,-z
-x,-y,-z
x,-y,z
1/2+x,1/2+y,z
1/2-x,1/2+y,-z
1/2-x,1/2-y,-z
1/2+x,1/2-y,z
loop_
_atom_site_type_symbol
_atom_site_label
_atom_site_fract_x
_atom_site_fract_y
_atom_site_fract_z
Si Si1 0.898650 0.824538 0.359242
Si Si2 0.882282 0.822084 0.102472
Si Si3 0.584525 0.675975 0.167463
Si Si4 0.703083 0.171877 0.917762
Si Si5 0.383525 0.820835 0.556904
Si Si6 0.134707 0.675218 0.528579
Si Si7 0.684368 0.325923 0.755154
Si Si8 0.568671 0.327369 0.084812
O O1 0.922680 0.752625 0.390069
O O2 0.768151 0.805978 0.440307
O O3 0.974641 0.762387 0.267092
O O4 0.921285 0.000000 0.346430
O O5 0.793642 0.775578 0.127266
O O6 0.841583 0.761596 0.178085
O O7 0.894339 0.000000 0.098838
O O8 0.000000 0.767719 0.000000
O O9 0.565413 0.500000 0.171408
O O10 0.684428 0.686975 0.132431
O O11 0.616788 0.737639 0.097119
O O12 0.685919 0.000000 0.917678
O O13 0.606431 0.231285 0.017129
O O14 0.500000 0.799065 0.500000
O O15 0.393450 0.761773 0.500134
O O16 0.281162 0.761564 0.657306
O O17 0.364455 0.000000 0.565150
O O18 0.109974 0.500000 0.547960
O O19 0.715022 0.500000 0.741037
O O20 0.563898 0.324200 0.815778
O O21 0.600175 0.500000 0.053664
#
# Coordination Sequence:
#
# PCOD9223385 Si02
#       8
#     8   8   8   8   8   8   8   8
#     4   9  17  32  52  73  99 134 170 203 245 301
#     4  10  19  35  55  76  98 130 175 213 245 295
#     4   9  19  33  51  74 101 134 172 207 249 308
#     4  11  22  34  49  75 106 134 164 207 262 306
#     4   9  17  29  47  75 106 129 157 207 260 297
#     4   9  17  30  51  77 100 126 166 209 252 296
#     4   9  17  30  52  75  95 127 172 211 246 293
#     4  10  18  34  56  73  95 132 175 213 247 293
#
# _framework density 9.8765429999999999
#
# number of rings (size 3 to 8) (size 9 to 14) (size 15 to 20)
#    0.000    2.500    1.250    1.500    0.000    4.250 
#    0.000    3.750    0.000    3.375    0.000    0.000 
#    0.000    0.000    0.000    0.000    0.000    0.000 
#
# Total GULP energy -178191.644912 kJ/mol
# GULP energy per Si atom -5568.488904 kJ/mol
# Density = 0.985406 g / cm^3
# Si number density = 9.876543 Si / 1000 Ang^3
#
#
#
# Elastic Constant Matrix: (Units=GPa)
#
#
# Indices 1 2 3 4 5 6 
#
# 1 76.0707 9.9965 5.1593 -0.0021 49.7098 0.0024
# 2 9.9965 -28.2302 -4.9646 -0.0061 -12.6025 0.0299
# 3 5.1593 -4.9646 6.8569 -0.0007 14.1301 0.0128
# 4 -0.0021 -0.0061 -0.0007 10.2777 -0.0019 -3.1457
# 5 49.7098 -12.6025 14.1301 -0.0019 0.9630 0.0111
# 6 0.0024 0.0299 0.0128 -3.1457 0.0111 11.1446
#
#
#
# Elastic Compliance Matrix: (Units=1/GPa)
#
#
# Indices 1 2 3 4 5 6 
#
# 1 0.007700 0.002542 -0.025535 0.000007 0.010473 0.000012
# 2 0.002542 -0.030781 -0.036813 0.000019 0.006121 0.000123
# 3 -0.025535 -0.036813 0.054214 -0.000017 0.040852 -0.000003
# 4 0.000007 0.000019 -0.000017 0.106499 -0.000010 0.030060
# 5 0.010473 0.006121 0.040852 -0.000010 -0.021498 -0.000047
# 6 0.000012 0.000123 -0.000003 0.030060 -0.000047 0.098214
#
#
# Mechanical properties :
#
#
# Convention : Reuss Voigt Hill
#
# Bulk Modulus (GPa) = -11.30207 8.34219 -1.47994
# Shear Modulus (GPa) = 16.42221 7.44413 11.93317
#
# Velocity S-wave (km/s) = 2.88648 1.94339 2.46055
# Velocity P-wave (km/s) = 2.31840 3.04436 2.70583
#
# Compressibility (1/GPa) = -0.08847934
#
# Stress axis : x y z
#
# Youngs Moduli (GPa) = 129.87448 -32.48713 18.44548
#
# Poissons Ratio (x) = 0.08257 0.47100
# Poissons Ratio (y) = -0.33011 0.67903
# Poissons Ratio (z) = 3.31629 -1.19595
#
# Static dielectric constant tensor:
#      x y z
#    x 1.767010 -0.000010 0.001960 
#    y -0.000010 1.692170 0.000000 
#    z 0.001960 0.000000 1.698550 
# 
# From -- ./inp_files/382221.got.cif
#   From: 2010.05.17/outbox.ucp.g08.bks.cvg/sg12_192_cif.got.tgz:382221.got - 2010.06.11 11:47:21.
