data_PCOD9223217
_publ_section_title
;
Structure prediction by ZEFSAII (Michael W. Deem and Ramdas Pophale) SiO2 
 PCOD9223217
Probable space group: C 2/M
;
_chemical_formula_sum "Si O2"
_cell_formula_units_Z 28
_cell_length_a 21.000000
_cell_length_b 15.000000
_cell_length_c 15.000000
_cell_angle_alpha 90.000000
_cell_angle_beta 40.000000
_cell_angle_gamma 90.000000
_cell_volume 3037.171456
_symmetry_space_group_name_H-M "C 2/M"
_symmetry_group_IT_number 12
_symmetry_cell_setting 'monoclinic'
loop_
_space_group_symop_operation_xyz
x,y,z
-x,y,-z
-x,-y,-z
x,-y,z
1/2+x,1/2+y,z
1/2-x,1/2+y,-z
1/2-x,1/2-y,-z
1/2+x,1/2-y,z
loop_
_atom_site_type_symbol
_atom_site_label
_atom_site_fract_x
_atom_site_fract_y
_atom_site_fract_z
Si Si1 0.090609 0.713240 0.830466
Si Si2 0.421440 0.895341 0.503705
Si Si3 0.168658 0.100160 0.981082
Si Si4 0.742052 0.893885 0.919072
Si Si5 0.230551 0.748299 0.250322
Si Si6 0.986562 0.606429 0.789878
Si Si7 0.045859 0.905374 0.850933
O O1 0.193892 0.696636 0.768099
O O2 0.059481 0.651911 0.782292
O O3 0.103815 0.814655 0.782227
O O4 0.000000 0.710128 0.000000
O O5 0.500000 0.897421 0.500000
O O6 0.346409 0.814558 0.612242
O O7 0.478654 0.874483 0.349060
O O8 0.382692 0.000000 0.538384
O O9 0.207985 0.174503 0.871981
O O10 0.198870 0.000000 0.918403
O O11 0.209501 0.113567 0.035591
O O12 0.050108 0.101881 0.108271
O O13 0.796224 0.824800 0.793967
O O14 0.745694 0.000000 0.889090
O O15 0.626148 0.867693 0.060793
O O16 0.989953 0.500000 0.795306
O O17 0.097901 0.000000 0.780340
O O18 0.000000 0.907871 0.000000
#
# Coordination Sequence:
#
# PCOD9223217 Si02
#       7
#     8   8   8   8   8   8   8
#     4  11  20  34  54  87 118 150 193 242 287 349
#     4  10  23  42  62  87 117 153 195 242 298 354
#     4  10  18  29  49  79 112 145 186 236 291 344
#     4  10  21  35  56  87 117 150 197 248 294 344
#     4  12  21  34  59  85 115 152 194 245 294 342
#     4  10  21  39  59  81 119 159 194 242 293 345
#     4   9  16  28  45  71 110 144 170 219 286 341
#
# _framework density 9.2191039999999997
#
# number of rings (size 3 to 8) (size 9 to 14) (size 15 to 20)
#    0.000    1.714    4.286    1.714    0.000    5.429 
#    0.000    0.000    0.000    1.286    0.000    0.000 
#    0.000    0.000    0.000    0.000    0.000    0.000 
#
# Total GULP energy -155997.712977 kJ/mol
# GULP energy per Si atom -5571.346892 kJ/mol
# Density = 0.919812 g / cm^3
# Si number density = 9.219104 Si / 1000 Ang^3
#
#
#
# Elastic Constant Matrix: (Units=GPa)
#
#
# Indices 1 2 3 4 5 6 
#
# 1 94.1521 11.9037 7.7781 0.0000 8.6360 0.0000
# 2 11.9037 49.8073 29.7396 0.0000 14.4227 0.0000
# 3 7.7781 29.7396 55.1309 0.0000 11.1525 0.0000
# 4 0.0000 0.0000 0.0000 28.5809 0.0000 1.6114
# 5 8.6360 14.4227 11.1525 0.0000 19.3128 0.0000
# 6 0.0000 0.0000 0.0000 1.6114 0.0000 37.4204
#
#
#
# Elastic Compliance Matrix: (Units=1/GPa)
#
#
# Indices 1 2 3 4 5 6 
#
# 1 0.011170 -0.001594 0.000061 0.000000 -0.003839 0.000000
# 2 -0.001594 0.033987 -0.014854 0.000000 -0.016091 0.000000
# 3 0.000061 -0.014854 0.027066 0.000000 -0.004564 0.000000
# 4 0.000000 0.000000 0.000000 0.035074 0.000000 -0.001510
# 5 -0.003839 -0.016091 -0.004564 0.000000 0.068148 0.000000
# 6 0.000000 0.000000 0.000000 -0.001510 0.000000 0.026788
#
#
# Mechanical properties :
#
#
# Convention : Reuss Voigt Hill
#
# Bulk Modulus (GPa) = 25.34957 33.10368 29.22663
# Shear Modulus (GPa) = 20.14857 27.04075 23.59466
#
# Velocity S-wave (km/s) = 3.30928 3.83372 3.58112
# Velocity P-wave (km/s) = 5.32729 6.13102 5.74323
#
# Compressibility (1/GPa) = 0.03944840
#
# Stress axis : x y z
#
# Youngs Moduli (GPa) = 89.52717 29.42309 36.94660
#
# Poissons Ratio (x) = 0.04690 -0.00224
# Poissons Ratio (y) = 0.14270 0.54880
# Poissons Ratio (z) = -0.00543 0.43705
#
# Static dielectric constant tensor:
#      x y z
#    x 1.696310 0.000000 -0.023030 
#    y 0.000000 1.671710 0.000000 
#    z -0.023030 0.000000 1.626890 
# 
# From -- ./inp_files/233667.got.cif
#   From: 2010.05.17/outbox.ucp.g08.bks.cvg/sg12_117_cif.got.tgz:233667.got - 2010.06.11 11:47:21.
