data_PCOD9223443
_publ_section_title
;
Structure prediction by ZEFSAII (Michael W. Deem and Ramdas Pophale) SiO2 
 PCOD9223443
Probable space group: C 2/M
;
_chemical_formula_sum "Si O2"
_cell_formula_units_Z 32
_cell_length_a 24.000000
_cell_length_b 9.000000
_cell_length_c 18.000000
_cell_angle_alpha 90.000000
_cell_angle_beta 100.000000
_cell_angle_gamma 90.000000
_cell_volume 3828.932544
_symmetry_space_group_name_H-M "C 2/M"
_symmetry_group_IT_number 12
_symmetry_cell_setting 'monoclinic'
loop_
_space_group_symop_operation_xyz
x,y,z
-x,y,-z
-x,-y,-z
x,-y,z
1/2+x,1/2+y,z
1/2-x,1/2+y,-z
1/2-x,1/2-y,-z
1/2+x,1/2-y,z
loop_
_atom_site_type_symbol
_atom_site_label
_atom_site_fract_x
_atom_site_fract_y
_atom_site_fract_z
Si Si1 0.731278 0.677981 0.572953
Si Si2 0.668464 0.176056 0.306348
Si Si3 0.954404 0.826528 0.321683
Si Si4 0.590327 0.819361 0.157465
Si Si5 0.433587 0.171062 0.008563
Si Si6 0.564915 0.827539 0.393564
Si Si7 0.612584 0.826356 0.565711
Si Si8 0.031101 0.824802 0.841663
O O1 0.736812 0.500000 0.568802
O O2 0.750000 0.750000 0.500000
O O3 0.772497 0.733726 0.648477
O O4 0.667773 0.726309 0.572709
O O5 0.638437 0.234872 0.225203
O O6 0.623453 0.190504 0.362898
O O7 0.676159 0.000000 0.294703
O O8 0.920761 0.721966 0.369410
O O9 0.942103 0.797825 0.232534
O O10 0.019712 0.785372 0.350675
O O11 0.944051 0.000000 0.335526
O O12 0.598640 0.777934 0.073076
O O13 0.529338 0.758202 0.168343
O O14 0.587160 0.000000 0.159458
O O15 0.419043 0.000000 0.021388
O O16 0.500000 0.173496 0.000000
O O17 0.430928 0.267847 0.081607
O O18 0.575108 0.803842 0.483050
O O19 0.546571 0.000000 0.377971
O O20 0.628061 0.000000 0.570242
O O21 0.020592 0.000000 0.846919
#
# Coordination Sequence:
#
# PCOD9223443 Si02
#       8
#     8   8   8   8   8   8   8   8
#     4  11  21  36  55  75  99 130 167 209 251 293
#     4   9  17  31  52  74  98 130 165 200 244 290
#     4  11  23  35  48  73 102 132 169 206 247 294
#     4   9  16  29  48  69  95 127 164 198 232 286
#     4   8  15  26  43  67  93 125 162 194 230 284
#     4  10  19  34  53  72  97 132 169 202 243 297
#     4  11  23  38  53  72  96 131 173 210 251 294
#     4  10  19  29  43  67 100 131 159 193 241 293
#
# _framework density 8.3574210000000004
#
# number of rings (size 3 to 8) (size 9 to 14) (size 15 to 20)
#    0.000    2.125    2.500    2.625    0.000    6.250 
#    0.000    1.250    0.000    0.000    0.000    0.875 
#    0.000    0.000    0.000    0.000    0.000    0.000 
#
# Total GULP energy -178358.774807 kJ/mol
# GULP energy per Si atom -5573.711713 kJ/mol
# Density = 0.833840 g / cm^3
# Si number density = 8.357421 Si / 1000 Ang^3
#
#
#
# Elastic Constant Matrix: (Units=GPa)
#
#
# Indices 1 2 3 4 5 6 
#
# 1 5.9126 3.2352 10.0900 0.0000 3.8278 0.0000
# 2 3.2352 30.2225 39.3799 0.0000 -0.0921 0.0000
# 3 10.0900 39.3799 122.9071 0.0000 11.5773 0.0000
# 4 0.0000 0.0000 0.0000 24.8064 0.0000 -1.9303
# 5 3.8278 -0.0921 11.5773 0.0000 11.6313 0.0000
# 6 0.0000 0.0000 0.0000 -1.9303 0.0000 19.3321
#
#
#
# Elastic Compliance Matrix: (Units=1/GPa)
#
#
# Indices 1 2 3 4 5 6 
#
# 1 0.236284 -0.015138 -0.007958 0.000000 -0.069959 0.000000
# 2 -0.015138 0.062569 -0.021319 0.000000 0.026697 0.000000
# 3 -0.007958 -0.021319 0.016982 0.000000 -0.014453 0.000000
# 4 0.000000 0.000000 0.000000 0.040628 0.000000 0.004057
# 5 -0.069959 0.026697 -0.014453 0.000000 0.123595 0.000000
# 6 0.000000 0.000000 0.000000 0.004057 0.000000 0.052133
#
#
# Mechanical properties :
#
#
# Convention : Reuss Voigt Hill
#
# Bulk Modulus (GPa) = 4.40518 29.38361 16.89439
# Shear Modulus (GPa) = 7.17682 18.24312 12.70997
#
# Velocity S-wave (km/s) = 2.07437 3.30727 2.76053
# Velocity P-wave (km/s) = 2.89457 5.67464 4.50445
#
# Compressibility (1/GPa) = 0.22700534
#
# Stress axis : x y z
#
# Youngs Moduli (GPa) = 4.23219 15.98247 58.88703
#
# Poissons Ratio (x) = 0.24194 0.46861
# Poissons Ratio (y) = 0.06407 1.25543
# Poissons Ratio (z) = 0.03368 0.34073
#
# Static dielectric constant tensor:
#      x y z
#    x 1.586150 0.000000 -0.001270 
#    y 0.000000 1.551220 0.000000 
#    z -0.001270 0.000000 1.600510 
# 
# From -- ./inp_files/287756.got.cif
#   From: 2010.05.17/outbox.ucp.g08.bks.cvg/sg12_144_cif.got.tgz:287756.got - 2010.06.11 11:47:21.
