data_PCOD9223430
_publ_section_title
;
Structure prediction by ZEFSAII (Michael W. Deem and Ramdas Pophale) SiO2 
 PCOD9223430
Probable space group: C 2/M
;
_chemical_formula_sum "Si O2"
_cell_formula_units_Z 19
_cell_length_a 18.000000
_cell_length_b 15.000000
_cell_length_c 21.000000
_cell_angle_alpha 90.000000
_cell_angle_beta 20.000000
_cell_angle_gamma 90.000000
_cell_volume 1939.254213
_symmetry_space_group_name_H-M "C 2/M"
_symmetry_group_IT_number 12
_symmetry_cell_setting 'monoclinic'
loop_
_space_group_symop_operation_xyz
x,y,z
-x,y,-z
-x,-y,-z
x,-y,z
1/2+x,1/2+y,z
1/2-x,1/2+y,-z
1/2-x,1/2-y,-z
1/2+x,1/2-y,z
loop_
_atom_site_type_symbol
_atom_site_label
_atom_site_fract_x
_atom_site_fract_y
_atom_site_fract_z
Si Si1 0.161763 0.500000 0.535227
Si Si2 0.156905 0.000000 0.188061
Si Si3 0.000000 0.000000 0.000000
Si Si4 0.827969 0.500000 0.918553
Si Si5 0.584201 0.836137 0.500979
Si Si6 0.258954 0.803119 0.161488
Si Si7 0.057565 0.850401 0.069130
O O1 0.418536 0.500000 0.345315
O O2 0.088604 0.414148 0.551277
O O3 0.034465 0.500000 0.704973
O O4 0.183948 0.095493 0.203747
O O5 0.340958 0.000000 0.984308
O O6 0.010184 0.080314 0.048037
O O7 0.693152 0.411783 0.008010
O O8 0.500000 0.871196 0.500000
O O9 0.426760 0.753354 0.648905
O O10 0.836423 0.817054 0.281293
O O11 0.500000 0.808626 0.000000
O O12 0.307841 0.735010 0.063754
#
# Coordination Sequence:
#
# PCOD9223430 Si02
#       7
#     4   4   2   4   8   8   8
#     4  12  25  44  69 112 139 180 215 285 360 418
#     4  12  30  50  66  90 150 191 240 277 330 413
#     4  10  18  36  70 104 142 160 210 288 346 416
#     4  11  24  45  68 104 142 184 220 278 353 426
#     4  12  23  41  75 108 141 169 226 292 355 407
#     4  12  26  48  71 101 130 189 241 290 336 404
#     4  11  21  40  70 105 142 171 223 281 363 401
#
# _framework density 9.7975809999999992
#
# number of rings (size 3 to 8) (size 9 to 14) (size 15 to 20)
#    0.000    0.421    7.368    1.263    2.947    3.368 
#    0.000    0.526    0.000    0.000    0.000    0.000 
#    0.000    0.000    0.000    0.000    0.000    0.000 
#
# Total GULP energy -105835.630662 kJ/mol
# GULP energy per Si atom -5570.296351 kJ/mol
# Density = 0.977528 g / cm^3
# Si number density = 9.797581 Si / 1000 Ang^3
#
#
#
# Elastic Constant Matrix: (Units=GPa)
#
#
# Indices 1 2 3 4 5 6 
#
# 1 59.3419 40.1689 16.6367 0.0040 4.8413 0.0010
# 2 40.1689 169.7983 40.5708 0.0409 -3.0857 0.0229
# 3 16.6367 40.5708 126.7420 0.0238 15.4900 0.0233
# 4 0.0040 0.0409 0.0238 29.4025 0.0074 0.1072
# 5 4.8413 -3.0857 15.4900 0.0074 34.1698 -0.0013
# 6 0.0010 0.0229 0.0233 0.1072 -0.0013 28.3183
#
#
#
# Elastic Compliance Matrix: (Units=1/GPa)
#
#
# Indices 1 2 3 4 5 6 
#
# 1 0.020511 -0.004709 -0.000823 0.000005 -0.002958 0.000004
# 2 -0.004709 0.007541 -0.002075 -0.000009 0.002289 -0.000004
# 3 -0.000823 -0.002075 0.009180 -0.000003 -0.004232 -0.000006
# 4 0.000005 -0.000009 -0.000003 0.034011 -0.000007 -0.000129
# 5 -0.002958 0.002289 -0.004232 -0.000007 0.031810 0.000003
# 6 0.000004 -0.000004 -0.000006 -0.000129 0.000003 0.035313
#
#
# Mechanical properties :
#
#
# Convention : Reuss Voigt Hill
#
# Bulk Modulus (GPa) = 45.42227 61.18167 53.30197
# Shear Modulus (GPa) = 31.07100 35.61185 33.34143
#
# Velocity S-wave (km/s) = 3.98634 4.26770 4.12942
# Velocity P-wave (km/s) = 6.66472 7.45486 7.07084
#
# Compressibility (1/GPa) = 0.02201563
#
# Stress axis : x y z
#
# Youngs Moduli (GPa) = 48.75319 132.60955 108.93559
#
# Poissons Ratio (x) = 0.62451 0.08970
# Poissons Ratio (y) = 0.22960 0.22609
# Poissons Ratio (z) = 0.04014 0.27523
#
# Static dielectric constant tensor:
#      x y z
#    x 1.729590 0.000000 -0.003390 
#    y 0.000000 1.664120 0.000020 
#    z -0.003390 0.000020 1.748690 
# 
# From -- ./inp_files/284689.got.cif
#   From: 2010.05.17/outbox.ucp.g08.bks.cvg/sg12_143_cif.got.tgz:284689.got - 2010.06.11 11:47:21.
