data_PCOD9223641
_publ_section_title
;
Structure prediction by ZEFSAII (Michael W. Deem and Ramdas Pophale) SiO2 
 PCOD9223641
Probable space group: C 2/M
;
_chemical_formula_sum "Si O2"
_cell_formula_units_Z 28
_cell_length_a 30.000000
_cell_length_b 9.000000
_cell_length_c 12.000000
_cell_angle_alpha 90.000000
_cell_angle_beta 120.000000
_cell_angle_gamma 90.000000
_cell_volume 2805.922308
_symmetry_space_group_name_H-M "C 2/M"
_symmetry_group_IT_number 12
_symmetry_cell_setting 'monoclinic'
loop_
_space_group_symop_operation_xyz
x,y,z
-x,y,-z
-x,-y,-z
x,-y,z
1/2+x,1/2+y,z
1/2-x,1/2+y,-z
1/2-x,1/2-y,-z
1/2+x,1/2-y,z
loop_
_atom_site_type_symbol
_atom_site_label
_atom_site_fract_x
_atom_site_fract_y
_atom_site_fract_z
Si Si1 0.835466 0.320638 0.802839
Si Si2 0.224282 0.179327 0.731582
Si Si3 0.957731 0.172892 0.255200
Si Si4 0.133868 0.328809 0.745304
Si Si5 0.548502 0.173622 0.977532
Si Si6 0.439537 0.170347 0.564309
Si Si7 0.662639 0.180368 0.448917
O O1 0.835341 0.500000 0.804859
O O2 0.784727 0.274658 0.809790
O O3 0.894244 0.280536 0.908157
O O4 0.824644 0.277406 0.661205
O O5 0.186955 0.248340 0.779236
O O6 0.198513 0.239484 0.584333
O O7 0.221256 0.000000 0.730489
O O8 0.902934 0.248349 0.213605
O O9 0.008368 0.237615 0.379441
O O10 0.953954 0.000000 0.273125
O O11 0.966941 0.216261 0.139645
O O12 0.143665 0.500000 0.787507
O O13 0.096335 0.326665 0.589856
O O14 0.553036 0.000000 0.945215
O O15 0.500000 0.175645 0.000000
O O16 0.397787 0.217269 0.605071
O O17 0.455124 0.000000 0.605374
O O18 0.667067 0.000000 0.468915
#
# Coordination Sequence:
#
# PCOD9223641 Si02
#       7
#     8   8   8   8   8   8   8
#     4   9  18  33  55  81 108 143 186 227 264 311
#     4  10  19  32  52  82 116 142 173 223 278 320
#     4  12  24  36  54  82 113 141 174 223 280 325
#     4  10  21  38  58  79 106 143 186 222 259 320
#     4  10  21  40  63  81 103 143 189 223 256 310
#     4   9  18  33  55  81 109 144 184 221 258 315
#     4   9  17  32  54  81 112 146 184 218 258 320
#
# _framework density 9.9788940000000004
#
# number of rings (size 3 to 8) (size 9 to 14) (size 15 to 20)
#    0.000    2.143    0.000    4.714    0.000    7.143 
#    0.000    3.571    0.000    0.000    0.000    0.000 
#    0.000    0.000    0.000    0.000    0.000    0.000 
#
# Total GULP energy -156171.842569 kJ/mol
# GULP energy per Si atom -5577.565806 kJ/mol
# Density = 0.995618 g / cm^3
# Si number density = 9.978894 Si / 1000 Ang^3
#
#
#
# Elastic Constant Matrix: (Units=GPa)
#
#
# Indices 1 2 3 4 5 6 
#
# 1 133.2221 42.8410 14.3783 0.0000 18.3855 0.0000
# 2 42.8410 69.1058 5.8998 0.0000 8.3444 0.0000
# 3 14.3783 5.8998 17.4295 0.0000 15.2631 0.0000
# 4 0.0000 0.0000 0.0000 19.2385 0.0000 6.7056
# 5 18.3855 8.3444 15.2631 0.0000 31.5369 0.0000
# 6 0.0000 0.0000 0.0000 6.7056 0.0000 23.0162
#
#
#
# Elastic Compliance Matrix: (Units=1/GPa)
#
#
# Indices 1 2 3 4 5 6 
#
# 1 0.010102 -0.005610 -0.004473 0.000000 -0.002240 0.000000
# 2 -0.005610 0.018141 -0.000301 0.000000 -0.001384 0.000000
# 3 -0.004473 -0.000301 0.102074 0.000000 -0.046714 0.000000
# 4 0.000000 0.000000 0.000000 0.057854 0.000000 -0.016855
# 5 -0.002240 -0.001384 -0.046714 0.000000 0.055989 0.000000
# 6 0.000000 0.000000 0.000000 -0.016855 0.000000 0.048358
#
#
# Mechanical properties :
#
#
# Convention : Reuss Voigt Hill
#
# Bulk Modulus (GPa) = 9.12833 38.44397 23.78615
# Shear Modulus (GPa) = 14.29372 25.20088 19.74730
#
# Velocity S-wave (km/s) = 2.67909 3.55732 3.14897
# Velocity P-wave (km/s) = 3.76215 6.01474 5.01652
#
# Compressibility (1/GPa) = 0.10954907
#
# Stress axis : x y z
#
# Youngs Moduli (GPa) = 98.98678 55.12249 9.79685
#
# Poissons Ratio (x) = 0.30926 0.04382
# Poissons Ratio (y) = 0.55536 0.00295
# Poissons Ratio (z) = 0.44277 0.01658
#
# Static dielectric constant tensor:
#      x y z
#    x 1.755400 0.000000 -0.044830 
#    y 0.000000 1.678130 0.000000 
#    z -0.044830 0.000000 1.741780 
# 
# From -- ./inp_files/187737.got.cif
#   From: 2010.05.17/outbox.ucp.g08.bks.cvg/sg12_94_cif.got.tgz:187737.got - 2010.06.11 11:47:21.
