data_PCOD9223728
_publ_section_title
;
Structure prediction by ZEFSAII (Michael W. Deem and Ramdas Pophale) SiO2 
 PCOD9223728
Probable space group: C 2/M
;
_chemical_formula_sum "Si O2"
_cell_formula_units_Z 32
_cell_length_a 21.000000
_cell_length_b 9.000000
_cell_length_c 21.000000
_cell_angle_alpha 90.000000
_cell_angle_beta 60.000000
_cell_angle_gamma 90.000000
_cell_volume 3437.254828
_symmetry_space_group_name_H-M "C 2/M"
_symmetry_group_IT_number 12
_symmetry_cell_setting 'monoclinic'
loop_
_space_group_symop_operation_xyz
x,y,z
-x,y,-z
-x,-y,-z
x,-y,z
1/2+x,1/2+y,z
1/2-x,1/2+y,-z
1/2-x,1/2-y,-z
1/2+x,1/2-y,z
loop_
_atom_site_type_symbol
_atom_site_label
_atom_site_fract_x
_atom_site_fract_y
_atom_site_fract_z
Si Si1 0.459785 0.822916 0.835381
Si Si2 0.800827 0.179063 0.180235
Si Si3 0.796063 0.827452 0.663832
Si Si4 0.707340 0.826270 0.578426
Si Si5 0.549593 0.322353 0.676311
Si Si6 0.924498 0.670841 0.662828
Si Si7 0.527653 0.329942 0.914615
Si Si8 0.178196 0.670129 0.158338
O O1 0.513964 0.742766 0.758733
O O2 0.484751 0.784297 0.892735
O O3 0.377190 0.763270 0.864768
O O4 0.461549 0.000000 0.821654
O O5 0.763565 0.255206 0.259128
O O6 0.886378 0.205561 0.132263
O O7 0.755416 0.235071 0.141368
O O8 0.789356 0.000000 0.190855
O O9 0.760965 0.817109 0.612209
O O10 0.873204 0.743478 0.634952
O O11 0.806826 0.000000 0.675493
O O12 0.750000 0.750000 0.500000
O O13 0.630949 0.742485 0.628840
O O14 0.692106 0.000000 0.573639
O O15 0.550135 0.500000 0.677286
O O16 0.496283 0.262494 0.646806
O O17 0.942837 0.500000 0.639706
O O18 0.871640 0.670583 0.752179
O O19 0.517501 0.500000 0.895745
O O20 0.500000 0.325572 0.000000
O O21 0.192084 0.500000 0.132065
#
# Coordination Sequence:
#
# PCOD9223728 Si02
#       8
#     8   8   8   8   8   8   8   8
#     4  10  19  33  54  78 104 135 175 221 268 320
#     4   9  17  32  54  75  99 136 177 215 261 318
#     4  10  20  34  55  83 110 136 174 225 272 318
#     4  11  24  40  56  78 111 148 186 227 271 320
#     4  11  21  35  58  85 112 142 179 223 270 320
#     4   9  17  32  55  82 111 140 173 216 267 322
#     4  10  21  35  50  72 104 141 181 225 272 321
#     4   7  13  27  48  73  97 125 164 208 253 305
#
# _framework density 9.3097549999999991
#
# number of rings (size 3 to 8) (size 9 to 14) (size 15 to 20)
#    0.000    2.375    0.000    4.875    0.000    4.750 
#    0.000    1.875    0.000    3.750    0.000    0.000 
#    0.000    0.000    0.000    0.000    0.000    0.000 
#
# Total GULP energy -178376.186865 kJ/mol
# GULP energy per Si atom -5574.255840 kJ/mol
# Density = 0.928857 g / cm^3
# Si number density = 9.309755 Si / 1000 Ang^3
#
#
#
# Elastic Constant Matrix: (Units=GPa)
#
#
# Indices 1 2 3 4 5 6 
#
# 1 56.8790 37.8851 5.0767 -0.0001 35.5356 -0.0002
# 2 37.8851 91.7039 13.9966 -0.0001 21.6540 -0.0003
# 3 5.0767 13.9966 18.7687 0.0000 23.9668 0.0000
# 4 -0.0001 -0.0001 0.0000 17.9559 0.0000 2.9075
# 5 35.5356 21.6540 23.9668 0.0000 -16.9092 -0.0001
# 6 -0.0002 -0.0003 0.0000 2.9075 -0.0001 30.7870
#
#
#
# Elastic Compliance Matrix: (Units=1/GPa)
#
#
# Indices 1 2 3 4 5 6 
#
# 1 0.017539 -0.007829 -0.011804 0.000000 0.010101 0.000000
# 2 -0.007829 0.015755 -0.005119 0.000000 -0.003534 0.000000
# 3 -0.011804 -0.005119 0.035709 0.000000 0.019250 0.000000
# 4 0.000000 0.000000 0.000000 0.056557 0.000000 -0.005341
# 5 0.010101 -0.003534 0.019250 0.000000 -0.015151 0.000000
# 6 0.000000 0.000000 0.000000 -0.005341 0.000000 0.032986
#
#
# Mechanical properties :
#
#
# Convention : Reuss Voigt Hill
#
# Bulk Modulus (GPa) = 51.28929 31.25205 41.27067
# Shear Modulus (GPa) = 25.07548 13.72629 19.40088
#
# Velocity S-wave (km/s) = 3.67376 2.71809 3.23145
# Velocity P-wave (km/s) = 6.75287 5.16446 6.01136
#
# Compressibility (1/GPa) = 0.01949725
#
# Stress axis : x y z
#
# Youngs Moduli (GPa) = 57.01674 63.47269 28.00415
#
# Poissons Ratio (x) = 0.49694 0.33057
# Poissons Ratio (y) = 0.44640 0.14336
# Poissons Ratio (z) = 0.67304 0.32492
#
# Static dielectric constant tensor:
#      x y z
#    x 1.682980 0.000000 0.026000 
#    y 0.000000 1.652200 0.000000 
#    z 0.026000 0.000000 1.618550 
# 
# From -- ./inp_files/319790.got.cif
#   From: 2010.05.17/outbox.ucp.g08.bks.cvg/sg12_160_cif.got.tgz:319790.got - 2010.06.11 11:47:21.
