data_PCOD9223373
_publ_section_title
;
Structure prediction by ZEFSAII (Michael W. Deem and Ramdas Pophale) SiO2 
 PCOD9223373
Probable space group: C 2/M
;
_chemical_formula_sum "Si O2"
_cell_formula_units_Z 32
_cell_length_a 18.000000
_cell_length_b 9.000000
_cell_length_c 30.000000
_cell_angle_alpha 90.000000
_cell_angle_beta 40.000000
_cell_angle_gamma 90.000000
_cell_volume 3123.947783
_symmetry_space_group_name_H-M "C 2/M"
_symmetry_group_IT_number 12
_symmetry_cell_setting 'monoclinic'
loop_
_space_group_symop_operation_xyz
x,y,z
-x,y,-z
-x,-y,-z
x,-y,z
1/2+x,1/2+y,z
1/2-x,1/2+y,-z
1/2-x,1/2-y,-z
1/2+x,1/2-y,z
loop_
_atom_site_type_symbol
_atom_site_label
_atom_site_fract_x
_atom_site_fract_y
_atom_site_fract_z
Si Si1 0.247757 0.324236 0.058804
Si Si2 0.090410 0.178256 0.668780
Si Si3 0.927757 0.176090 0.603371
Si Si4 0.122178 0.321254 0.283448
Si Si5 0.976458 0.180219 0.911768
Si Si6 0.168695 0.823598 0.452333
Si Si7 0.501766 0.322660 0.192924
Si Si8 0.676568 0.323372 0.875707
O O1 0.223393 0.500000 0.061247
O O2 0.129439 0.241016 0.125421
O O3 0.309744 0.311887 0.078336
O O4 0.345820 0.264509 0.979411
O O5 0.215729 0.230869 0.595790
O O6 0.996051 0.253037 0.680778
O O7 0.061157 0.229763 0.733404
O O8 0.081967 0.000000 0.671037
O O9 0.866761 0.264585 0.671015
O O10 0.871153 0.197083 0.580785
O O11 0.062274 0.218805 0.533449
O O12 0.924283 0.000000 0.615076
O O13 0.118722 0.500000 0.284604
O O14 0.219029 0.268146 0.203421
O O15 0.046984 0.212010 0.833815
O O16 0.056233 0.239021 0.914116
O O17 0.963305 0.000000 0.919663
O O18 0.189667 0.000000 0.448765
O O19 0.508918 0.500000 0.193690
O O20 0.672943 0.500000 0.868098
#
# Coordination Sequence:
#
# PCOD9223373 Si02
#       8
#     8   8   8   8   8   8   8   8
#     4  10  18  33  57  79 104 141 184 228 273 329
#     4  11  23  37  56  81 115 154 191 233 281 331
#     4   9  20  40  63  88 117 147 179 223 280 334
#     4  11  22  36  58  84 114 151 191 235 277 329
#     4   9  18  32  53  79 106 140 183 229 278 328
#     4   9  20  40  64  87 115 148 182 224 274 333
#     4  10  21  35  52  77 111 146 178 225 281 329
#     4   9  18  32  52  80 109 138 181 231 274 321
#
# _framework density 10.243449
#
# number of rings (size 3 to 8) (size 9 to 14) (size 15 to 20)
#    0.000    2.250    1.250    2.250    1.750    3.500 
#    0.000    1.250    0.000    3.750    0.000    0.000 
#    0.000    0.000    0.000    0.000    0.000    0.000 
#
# Total GULP energy -178298.805208 kJ/mol
# GULP energy per Si atom -5571.837663 kJ/mol
# Density = 1.022013 g / cm^3
# Si number density = 10.243449 Si / 1000 Ang^3
#
#
#
# Elastic Constant Matrix: (Units=GPa)
#
#
# Indices 1 2 3 4 5 6 
#
# 1 7.2454 0.5485 -12.1117 0.0001 -17.8395 0.0006
# 2 0.5485 3.2409 5.4818 0.0008 4.1987 0.0025
# 3 -12.1117 5.4818 53.3595 0.0000 -5.3079 0.0001
# 4 0.0001 0.0008 0.0000 23.6188 -0.0002 3.5711
# 5 -17.8395 4.1987 -5.3079 -0.0002 25.4915 -0.0001
# 6 0.0006 0.0025 0.0001 3.5711 -0.0001 16.6679
#
#
#
# Elastic Compliance Matrix: (Units=1/GPa)
#
#
# Indices 1 2 3 4 5 6 
#
# 1 -0.037704 0.114883 -0.025394 -0.000002 -0.050596 -0.000016
# 2 0.114883 0.212967 0.008890 -0.000002 0.047171 -0.000036
# 3 -0.025394 0.008890 0.010365 0.000000 -0.017077 -0.000001
# 4 -0.000002 -0.000002 0.000000 0.043757 -0.000001 -0.009375
# 5 -0.050596 0.047171 -0.017077 -0.000001 -0.007505 -0.000005
# 6 -0.000016 -0.000036 -0.000001 -0.009375 -0.000005 0.062004
#
#
# Mechanical properties :
#
#
# Convention : Reuss Voigt Hill
#
# Bulk Modulus (GPa) = 2.61516 5.74256 4.17886
# Shear Modulus (GPa) = 23.30058 17.81745 20.55902
#
# Velocity S-wave (km/s) = 3.37611 2.95227 3.17128
# Velocity P-wave (km/s) = 4.05915 3.79872 3.93110
#
# Compressibility (1/GPa) = 0.38238572
#
# Stress axis : x y z
#
# Youngs Moduli (GPa) = -26.52207 4.69557 96.47948
#
# Poissons Ratio (x) = -0.53944 2.44995
# Poissons Ratio (y) = 3.04693 -0.85770
# Poissons Ratio (z) = -0.67349 -0.04174
#
# Static dielectric constant tensor:
#      x y z
#    x 1.884050 0.000000 0.012890 
#    y 0.000000 1.694880 0.000000 
#    z 0.012890 0.000000 1.720530 
# 
# From -- ./inp_files/378216.got.cif
#   From: 2010.05.17/outbox.ucp.g08.bks.cvg/sg12_190_cif.got.tgz:378216.got - 2010.06.11 11:47:21.
