data_PCOD9223228
_publ_section_title
;
Structure prediction by ZEFSAII (Michael W. Deem and Ramdas Pophale) SiO2 
 PCOD9223228
Probable space group: C 2/M
;
_chemical_formula_sum "Si O2"
_cell_formula_units_Z 28
_cell_length_a 15.000000
_cell_length_b 18.000000
_cell_length_c 15.000000
_cell_angle_alpha 90.000000
_cell_angle_beta 50.000000
_cell_angle_gamma 90.000000
_cell_volume 3102.479995
_symmetry_space_group_name_H-M "C 2/M"
_symmetry_group_IT_number 12
_symmetry_cell_setting 'monoclinic'
loop_
_space_group_symop_operation_xyz
x,y,z
-x,y,-z
-x,-y,-z
x,-y,z
1/2+x,1/2+y,z
1/2-x,1/2+y,-z
1/2-x,1/2-y,-z
1/2+x,1/2-y,z
loop_
_atom_site_type_symbol
_atom_site_label
_atom_site_fract_x
_atom_site_fract_y
_atom_site_fract_z
Si Si1 0.665756 0.500000 0.852087
Si Si2 0.800681 0.588220 0.272825
Si Si3 0.115011 0.160308 0.865949
Si Si4 0.921035 0.000000 0.901864
Si Si5 0.233945 0.693596 0.873820
Si Si6 0.945704 0.584826 0.934693
Si Si7 0.475836 0.652859 0.776650
Si Si8 0.415002 0.411908 0.469718
O O1 0.698006 0.586648 0.809269
O O2 0.544521 0.500000 0.874491
O O3 0.666057 0.500000 0.959228
O O4 0.788016 0.500000 0.259039
O O5 0.759847 0.637677 0.215378
O O6 0.715224 0.603220 0.410419
O O7 0.938953 0.601112 0.198053
O O8 0.175775 0.230755 0.874204
O O9 0.061637 0.177019 0.802025
O O10 0.000000 0.142136 0.000000
O O11 0.919551 0.074176 0.844878
O O12 0.363355 0.703660 0.829645
O O13 0.151020 0.649016 0.997154
O O14 0.903368 0.500000 0.944025
O O15 0.000000 0.583605 0.000000
O O16 0.545366 0.635271 0.641018
O O17 0.500000 0.399533 0.500000
O O18 0.423091 0.500000 0.441707
#
# Coordination Sequence:
#
# PCOD9223228 Si02
#       8
#     4   8   8   4   8   8   8   8
#     4   9  16  38  56  70 107 151 180 238 272 316
#     4   9  17  31  49  75 114 150 177 216 271 329
#     4  11  21  38  54  78 113 149 185 235 276 328
#     4   9  16  32  55  80 108 141 184 225 277 328
#     4  11  21  31  54  83 115 147 181 228 282 334
#     4   8  15  28  46  72 108 150 178 203 263 339
#     4  11  21  33  56  85 112 147 187 226 281 335
#     4  10  18  29  52  83 113 141 182 234 274 324
#
# _framework density 9.0250380000000003
#
# number of rings (size 3 to 8) (size 9 to 14) (size 15 to 20)
#    0.000    2.143    5.000    2.571    2.000    0.571 
#    0.000    0.714    0.000    0.000    0.000    0.000 
#    0.000    2.286    0.000   12.571    0.000    0.000 
#
# Total GULP energy -156034.747364 kJ/mol
# GULP energy per Si atom -5572.669549 kJ/mol
# Density = 0.900450 g / cm^3
# Si number density = 9.025038 Si / 1000 Ang^3
#
#
#
# Elastic Constant Matrix: (Units=GPa)
#
#
# Indices 1 2 3 4 5 6 
#
# 1 51.2602 34.6103 42.9089 0.0000 -0.8971 0.0000
# 2 34.6103 90.6394 23.3505 0.0000 -8.3943 0.0000
# 3 42.9089 23.3505 102.5015 0.0000 -8.2397 0.0000
# 4 0.0000 0.0000 0.0000 11.5235 0.0000 2.1224
# 5 -0.8971 -8.3943 -8.2397 0.0000 22.4743 0.0000
# 6 0.0000 0.0000 0.0000 2.1224 0.0000 17.8305
#
#
#
# Elastic Compliance Matrix: (Units=1/GPa)
#
#
# Indices 1 2 3 4 5 6 
#
# 1 0.039778 -0.012213 -0.014537 0.000000 -0.008303 0.000000
# 2 -0.012213 0.015744 0.002019 0.000000 0.006133 0.000000
# 3 -0.014537 0.002019 0.015863 0.000000 0.005990 0.000000
# 4 0.000000 0.000000 0.000000 0.088724 0.000000 -0.010561
# 5 -0.008303 0.006133 0.005990 0.000000 0.048650 0.000000
# 6 0.000000 0.000000 0.000000 -0.010561 0.000000 0.057341
#
#
# Mechanical properties :
#
#
# Convention : Reuss Voigt Hill
#
# Bulk Modulus (GPa) = 45.61450 49.57118 47.59284
# Shear Modulus (GPa) = 15.48614 19.93442 17.71028
#
# Velocity S-wave (km/s) = 2.93226 3.32685 3.13577
# Velocity P-wave (km/s) = 6.06549 6.50231 6.28769
#
# Compressibility (1/GPa) = 0.02192285
#
# Stress axis : x y z
#
# Youngs Moduli (GPa) = 25.13981 63.51600 63.04020
#
# Poissons Ratio (x) = 0.77572 0.91641
# Poissons Ratio (y) = 0.30703 -0.12728
# Poissons Ratio (z) = 0.36545 -0.12824
#
# Static dielectric constant tensor:
#      x y z
#    x 1.624780 0.000000 -0.020950 
#    y 0.000000 1.674450 0.000000 
#    z -0.020950 0.000000 1.644240 
# 
# From -- ./inp_files/216326.got.cif
#   From: 2010.05.17/outbox.ucp.g08.bks.cvg/sg12_109_cif.got.tgz:216326.got - 2010.06.11 11:47:21.
