data_PCOD9223609
_publ_section_title
;
Structure prediction by ZEFSAII (Michael W. Deem and Ramdas Pophale) SiO2 
 PCOD9223609
Probable space group: C 2/M
;
_chemical_formula_sum "Si O2"
_cell_formula_units_Z 28
_cell_length_a 30.000000
_cell_length_b 9.000000
_cell_length_c 18.000000
_cell_angle_alpha 90.000000
_cell_angle_beta 40.000000
_cell_angle_gamma 90.000000
_cell_volume 3123.947783
_symmetry_space_group_name_H-M "C 2/M"
_symmetry_group_IT_number 12
_symmetry_cell_setting 'monoclinic'
loop_
_space_group_symop_operation_xyz
x,y,z
-x,y,-z
-x,-y,-z
x,-y,z
1/2+x,1/2+y,z
1/2-x,1/2+y,-z
1/2-x,1/2-y,-z
1/2+x,1/2-y,z
loop_
_atom_site_type_symbol
_atom_site_label
_atom_site_fract_x
_atom_site_fract_y
_atom_site_fract_z
Si Si1 0.050344 0.176401 0.059657
Si Si2 0.703462 0.680148 0.292944
Si Si3 0.600917 0.681286 0.557267
Si Si4 0.195420 0.819541 0.128824
Si Si5 0.115158 0.823778 0.708359
Si Si6 0.151517 0.322183 0.813604
Si Si7 0.942299 0.180201 0.782592
O O1 0.074624 0.228055 0.111006
O O2 0.967225 0.195156 0.169725
O O3 0.064120 0.000000 0.034181
O O4 0.088232 0.258332 0.943873
O O5 0.698273 0.500000 0.297400
O O6 0.645171 0.729645 0.428338
O O7 0.700526 0.727685 0.209577
O O8 0.777833 0.718971 0.233376
O O9 0.602023 0.500000 0.555766
O O10 0.627932 0.724458 0.605999
O O11 0.519742 0.728184 0.659705
O O12 0.118998 0.780010 0.195094
O O13 0.202968 0.000000 0.116990
O O14 0.250000 0.750000 0.000000
O O15 0.152146 0.740499 0.728905
O O16 0.130087 0.000000 0.693441
O O17 0.146486 0.500000 0.817058
O O18 0.945293 0.000000 0.782090
#
# Coordination Sequence:
#
# PCOD9223609 Si02
#       7
#     8   8   8   8   8   8   8
#     4   9  17  31  49  70  95 121 156 199 238 278
#     4   9  19  32  46  69 101 129 153 191 239 282
#     4   8  15  31  51  71  95 121 155 200 243 275
#     4  10  19  32  51  76 102 126 155 189 231 283
#     4   9  18  32  51  70  89 121 162 200 238 279
#     4  11  21  30  43  68 100 130 158 190 234 284
#     4   8  15  28  50  75  94 119 158 200 234 273
#
# _framework density 8.9630179999999999
#
# number of rings (size 3 to 8) (size 9 to 14) (size 15 to 20)
#    0.000    2.857    0.000    3.429    0.000    3.429 
#    0.000    3.571    0.000    2.571    0.000    1.000 
#    0.000    0.000    0.000    0.000    0.000    0.000 
#
# Total GULP energy -156007.005724 kJ/mol
# GULP energy per Si atom -5571.678776 kJ/mol
# Density = 0.894262 g / cm^3
# Si number density = 8.963018 Si / 1000 Ang^3
#
#
#
# Elastic Constant Matrix: (Units=GPa)
#
#
# Indices 1 2 3 4 5 6 
#
# 1 149.1270 28.0838 51.6406 -0.0005 32.5702 0.0000
# 2 28.0838 18.3193 18.3725 -0.0004 4.8420 0.0035
# 3 51.6406 18.3725 119.5537 -0.0070 33.2990 0.0040
# 4 -0.0005 -0.0004 -0.0070 19.6143 0.0026 2.9773
# 5 32.5702 4.8420 33.2990 0.0026 28.7133 -0.0008
# 6 0.0000 0.0035 0.0040 2.9773 -0.0008 21.5205
#
#
#
# Elastic Compliance Matrix: (Units=1/GPa)
#
#
# Indices 1 2 3 4 5 6 
#
# 1 0.012059 -0.015883 0.000437 0.000001 -0.011507 0.000002
# 2 -0.015883 0.085470 -0.010750 -0.000003 0.016071 -0.000011
# 3 0.000437 -0.010750 0.013975 0.000007 -0.014890 -0.000002
# 4 0.000001 -0.000003 0.000007 0.052077 -0.000014 -0.007205
# 5 -0.011507 0.016071 -0.014890 -0.000014 0.062438 0.000004
# 6 0.000002 -0.000011 -0.000002 -0.007205 0.000004 0.047464
#
#
# Mechanical properties :
#
#
# Convention : Reuss Voigt Hill
#
# Bulk Modulus (GPa) = 16.91720 53.68821 35.30271
# Shear Modulus (GPa) = 14.46849 26.56316 20.51582
#
# Velocity S-wave (km/s) = 2.84407 3.85362 3.38667
# Velocity P-wave (km/s) = 4.49919 7.05800 5.91853
#
# Compressibility (1/GPa) = 0.05911142
#
# Stress axis : x y z
#
# Youngs Moduli (GPa) = 82.92801 11.69998 71.55693
#
# Poissons Ratio (x) = 0.18583 -0.03129
# Poissons Ratio (y) = 1.31716 0.76925
# Poissons Ratio (z) = -0.03626 0.12578
#
# Static dielectric constant tensor:
#      x y z
#    x 1.644730 0.000000 -0.006190 
#    y 0.000000 1.601270 0.000000 
#    z -0.006190 0.000000 1.609660 
# 
# From -- ./inp_files/295069.got.cif
#   From: 2010.05.17/outbox.ucp.g08.bks.cvg/sg12_148_cif.got.tgz:295069.got - 2010.06.11 11:47:21.
