data_PCOD9223711
_publ_section_title
;
Structure prediction by ZEFSAII (Michael W. Deem and Ramdas Pophale) SiO2 
 PCOD9223711
Probable space group: C 2/M
;
_chemical_formula_sum "Si O2"
_cell_formula_units_Z 32
_cell_length_a 30.000000
_cell_length_b 9.000000
_cell_length_c 15.000000
_cell_angle_alpha 90.000000
_cell_angle_beta 120.000000
_cell_angle_gamma 90.000000
_cell_volume 3507.402885
_symmetry_space_group_name_H-M "C 2/M"
_symmetry_group_IT_number 12
_symmetry_cell_setting 'monoclinic'
loop_
_space_group_symop_operation_xyz
x,y,z
-x,y,-z
-x,-y,-z
x,-y,z
1/2+x,1/2+y,z
1/2-x,1/2+y,-z
1/2-x,1/2-y,-z
1/2+x,1/2-y,z
loop_
_atom_site_type_symbol
_atom_site_label
_atom_site_fract_x
_atom_site_fract_y
_atom_site_fract_z
Si Si1 0.470363 0.180233 0.202876
Si Si2 0.115467 0.319500 0.017883
Si Si3 0.770718 0.678239 0.931971
Si Si4 0.622901 0.322093 0.553455
Si Si5 0.450936 0.821129 0.387718
Si Si6 0.914971 0.320879 0.662087
Si Si7 0.264363 0.680583 0.295244
Si Si8 0.846530 0.318613 0.754730
O O1 0.431027 0.236699 0.089170
O O2 0.458600 0.225019 0.292927
O O3 0.529330 0.217780 0.243077
O O4 0.466761 0.000000 0.198922
O O5 0.112099 0.500000 0.017081
O O6 0.169760 0.283178 0.026107
O O7 0.120703 0.271090 0.125782
O O8 0.767534 0.500000 0.935134
O O9 0.739899 0.725142 0.812521
O O10 0.750000 0.750000 0.000000
O O11 0.620310 0.500000 0.549467
O O12 0.597413 0.259687 0.617292
O O13 0.592815 0.253498 0.440556
O O14 0.682291 0.272509 0.608721
O O15 0.500000 0.786490 0.500000
O O16 0.444490 0.000000 0.383906
O O17 0.913161 0.500000 0.649147
O O18 0.871688 0.271602 0.688024
O O19 0.263427 0.500000 0.295231
O O20 0.212165 0.730794 0.290742
O O21 0.846687 0.500000 0.755560
#
# Coordination Sequence:
#
# PCOD9223711 Si02
#       8
#     8   8   8   8   8   8   8   8
#     4   9  17  29  47  74 105 129 154 198 252 294
#     4   8  15  28  47  74 101 126 157 196 245 298
#     4   9  17  30  48  69  96 127 161 198 239 288
#     4  11  22  34  50  72 100 135 172 204 239 294
#     4  10  19  34  52  70 102 136 160 203 255 289
#     4  10  19  33  53  76  99 127 165 208 251 292
#     4   8  17  33  48  69 102 133 160 201 249 287
#     4   8  15  30  52  73  98 130 163 202 249 297
#
# _framework density 9.1235599999999994
#
# number of rings (size 3 to 8) (size 9 to 14) (size 15 to 20)
#    0.000    2.875    1.250    1.875    1.750    1.250 
#    0.000    3.125    0.000    4.500    0.000    0.875 
#    0.000    0.000    0.000    0.000    0.000    0.000 
#
# Total GULP energy -178271.179464 kJ/mol
# GULP energy per Si atom -5570.974358 kJ/mol
# Density = 0.910279 g / cm^3
# Si number density = 9.123560 Si / 1000 Ang^3
#
#
#
# Elastic Constant Matrix: (Units=GPa)
#
#
# Indices 1 2 3 4 5 6 
#
# 1 63.1476 11.9225 13.1771 0.0000 -5.2216 0.0000
# 2 11.9225 1.4109 2.2306 0.0000 2.4691 0.0000
# 3 13.1771 2.2306 14.5509 0.0000 25.0739 0.0000
# 4 0.0000 0.0000 0.0000 9.0505 0.0000 -0.9459
# 5 -5.2216 2.4691 25.0739 0.0000 30.1655 0.0000
# 6 0.0000 0.0000 0.0000 -0.9459 0.0000 15.6422
#
#
#
# Elastic Compliance Matrix: (Units=1/GPa)
#
#
# Indices 1 2 3 4 5 6 
#
# 1 -0.040120 0.424578 -0.099688 0.000000 0.041165 0.000000
# 2 0.424578 -3.669402 1.078320 0.000000 -0.522469 0.000000
# 3 -0.099688 1.078320 -0.406005 0.000000 0.231957 0.000000
# 4 0.000000 0.000000 0.000000 0.111194 0.000000 0.006724
# 5 0.041165 -0.522469 0.231957 0.000000 -0.109764 0.000000
# 6 0.000000 0.000000 0.000000 0.006724 0.000000 0.064336
#
#
# Mechanical properties :
#
#
# Convention : Reuss Voigt Hill
#
# Bulk Modulus (GPa) = -0.76388 14.86329 7.04971
# Shear Modulus (GPa) = -0.68563 14.42357 6.86897
#
# Velocity S-wave (km/s) = -0.61365 2.81456 1.94231
# Velocity P-wave (km/s) = 0.96001 4.32730 2.98362
#
# Compressibility (1/GPa) = -1.30910720
#
# Stress axis : x y z
#
# Youngs Moduli (GPa) = -24.92542 -0.27252 -2.46303
#
# Poissons Ratio (x) = 0.11571 -0.24554
# Poissons Ratio (y) = 10.58278 2.65593
# Poissons Ratio (z) = -2.48478 0.29387
#
# Static dielectric constant tensor:
#      x y z
#    x 1.637190 0.000000 0.016650 
#    y 0.000000 1.606650 0.000000 
#    z 0.016650 0.000000 1.618830 
# 
# From -- ./inp_files/249239.got.cif
#   From: 2010.05.17/outbox.ucp.g08.bks.cvg/sg12_125_cif.got.tgz:249239.got - 2010.06.11 11:47:21.
