data_PCOD9223569
_publ_section_title
;
Structure prediction by ZEFSAII (Michael W. Deem and Ramdas Pophale) SiO2 
 PCOD9223569
Probable space group: C 2/M
;
_chemical_formula_sum "Si O2"
_cell_formula_units_Z 28
_cell_length_a 30.000000
_cell_length_b 9.000000
_cell_length_c 18.000000
_cell_angle_alpha 90.000000
_cell_angle_beta 40.000000
_cell_angle_gamma 90.000000
_cell_volume 3123.947783
_symmetry_space_group_name_H-M "C 2/M"
_symmetry_group_IT_number 12
_symmetry_cell_setting 'monoclinic'
loop_
_space_group_symop_operation_xyz
x,y,z
-x,y,-z
-x,-y,-z
x,-y,z
1/2+x,1/2+y,z
1/2-x,1/2+y,-z
1/2-x,1/2-y,-z
1/2+x,1/2-y,z
loop_
_atom_site_type_symbol
_atom_site_label
_atom_site_fract_x
_atom_site_fract_y
_atom_site_fract_z
Si Si1 0.704442 0.177079 0.122721
Si Si2 0.296558 0.676136 0.504729
Si Si3 0.322723 0.175864 0.232960
Si Si4 0.677819 0.321655 0.925092
Si Si5 0.055096 0.676414 0.704618
Si Si6 0.912348 0.678006 0.828323
Si Si7 0.954011 0.176969 0.131012
O O1 0.743648 0.215506 0.148151
O O2 0.626336 0.215158 0.199514
O O3 0.711270 0.000000 0.107968
O O4 0.750000 0.250000 0.000000
O O5 0.301297 0.500000 0.485102
O O6 0.250000 0.750000 0.500000
O O7 0.253827 0.699037 0.635660
O O8 0.372642 0.746105 0.406401
O O9 0.333449 0.236819 0.136857
O O10 0.376436 0.268296 0.213972
O O11 0.338247 0.000000 0.217851
O O12 0.669824 0.500000 0.925885
O O13 0.626805 0.264632 0.055289
O O14 0.066062 0.500000 0.696613
O O15 0.025748 0.738154 0.820243
O O16 0.993692 0.708429 0.725214
O O17 0.903951 0.500000 0.852947
O O18 0.957558 0.000000 0.137518
O O19 0.000000 0.214215 0.000000
#
# Coordination Sequence:
#
# PCOD9223569 Si02
#       7
#     8   8   8   8   8   8   8
#     4   8  15  29  49  75 106 139 173 209 252 306
#     4  11  23  39  58  76  98 133 179 225 264 310
#     4  11  23  37  54  75 101 136 175 215 262 314
#     4  10  19  31  52  81 110 139 173 214 261 310
#     4  11  22  35  54  78 104 138 175 214 261 311
#     4   9  18  33  53  78 110 143 174 210 256 313
#     4  11  23  36  52  76 106 138 170 210 259 309
#
# _framework density 8.9630179999999999
#
# number of rings (size 3 to 8) (size 9 to 14) (size 15 to 20)
#    0.000    1.857    1.429    3.000    0.000    6.857 
#    0.000    0.000    0.000    0.857    0.000    6.000 
#    0.000    0.000    0.000    0.000    0.000    0.000 
#
# Total GULP energy -156126.712903 kJ/mol
# GULP energy per Si atom -5575.954032 kJ/mol
# Density = 0.894262 g / cm^3
# Si number density = 8.963018 Si / 1000 Ang^3
#
#
#
# Elastic Constant Matrix: (Units=GPa)
#
#
# Indices 1 2 3 4 5 6 
#
# 1 73.5061 10.3234 3.4068 -0.0017 -30.1343 0.0013
# 2 10.3234 46.1399 23.3378 -0.0062 -15.3536 0.0061
# 3 3.4068 23.3378 55.0829 -0.0024 -24.0172 0.0022
# 4 -0.0017 -0.0062 -0.0024 25.0007 0.0009 -1.4196
# 5 -30.1343 -15.3536 -24.0172 0.0009 28.5011 -0.0012
# 6 0.0013 0.0061 0.0022 -1.4196 -0.0012 17.4194
#
#
#
# Elastic Compliance Matrix: (Units=1/GPa)
#
#
# Indices 1 2 3 4 5 6 
#
# 1 0.036024 -0.000676 0.022933 0.000002 0.057049 -0.000001
# 2 -0.000676 0.028777 -0.009015 0.000006 0.007191 -0.000008
# 3 0.022933 -0.009015 0.045861 0.000002 0.058036 0.000000
# 4 0.000002 0.000006 0.000002 0.040185 0.000006 0.003275
# 5 0.057049 0.007191 0.058036 0.000006 0.148184 -0.000003
# 6 -0.000001 -0.000008 0.000000 0.003275 -0.000003 0.057674
#
#
# Mechanical properties :
#
#
# Convention : Reuss Voigt Hill
#
# Bulk Modulus (GPa) = 7.29153 27.65165 17.47159
# Shear Modulus (GPa) = 13.30010 23.36163 18.33086
#
# Velocity S-wave (km/s) = 2.72682 3.61393 3.20125
# Velocity P-wave (km/s) = 3.74038 5.73349 4.84063
#
# Compressibility (1/GPa) = 0.13714537
#
# Stress axis : x y z
#
# Youngs Moduli (GPa) = 27.75926 34.74967 21.80515
#
# Poissons Ratio (x) = 0.02349 -0.50006
# Poissons Ratio (y) = 0.01876 0.19658
# Poissons Ratio (z) = -0.63660 0.31328
#
# Static dielectric constant tensor:
#      x y z
#    x 1.681950 0.000000 -0.028530 
#    y 0.000000 1.595660 0.000000 
#    z -0.028530 0.000000 1.590990 
# 
# From -- ./inp_files/280958.got.cif
#   From: 2010.05.17/outbox.ucp.g08.bks.cvg/sg12_141_cif.got.tgz:280958.got - 2010.06.11 11:47:21.
