data_PCOD9223370
_publ_section_title
;
Structure prediction by ZEFSAII (Michael W. Deem and Ramdas Pophale) SiO2 
 PCOD9223370
Probable space group: C 2/M
;
_chemical_formula_sum "Si O2"
_cell_formula_units_Z 32
_cell_length_a 24.000000
_cell_length_b 9.000000
_cell_length_c 30.000000
_cell_angle_alpha 90.000000
_cell_angle_beta 150.000000
_cell_angle_gamma 90.000000
_cell_volume 3240.000000
_symmetry_space_group_name_H-M "C 2/M"
_symmetry_group_IT_number 12
_symmetry_cell_setting 'monoclinic'
loop_
_space_group_symop_operation_xyz
x,y,z
-x,y,-z
-x,-y,-z
x,-y,z
1/2+x,1/2+y,z
1/2-x,1/2+y,-z
1/2-x,1/2-y,-z
1/2+x,1/2-y,z
loop_
_atom_site_type_symbol
_atom_site_label
_atom_site_fract_x
_atom_site_fract_y
_atom_site_fract_z
Si Si1 0.643513 0.829622 0.628925
Si Si2 0.802255 0.180165 0.179560
Si Si3 0.978580 0.179068 0.371931
Si Si4 0.590709 0.334000 0.180530
Si Si5 0.552488 0.824803 0.242136
Si Si6 0.600384 0.165322 0.102856
Si Si7 0.307989 0.321213 0.430616
Si Si8 0.814793 0.820831 0.087838
O O1 0.586555 0.744293 0.630341
O O2 0.775609 0.834746 0.728892
O O3 0.638798 0.751158 0.577215
O O4 0.603764 0.000000 0.599745
O O5 0.918113 0.228129 0.284055
O O6 0.706733 0.220013 0.148790
O O7 0.773517 0.226522 0.109007
O O8 0.804659 0.000000 0.179111
O O9 0.108576 0.216557 0.470966
O O10 0.969786 0.000000 0.367472
O O11 0.551861 0.500000 0.165844
O O12 0.557160 0.210918 0.192872
O O13 0.557237 0.279649 0.109260
O O14 0.677174 0.777814 0.345135
O O15 0.444188 0.731334 0.180881
O O16 0.537290 0.000000 0.240521
O O17 0.628254 0.000000 0.141444
O O18 0.500000 0.146319 0.000000
O O19 0.307760 0.500000 0.424407
O O20 0.807367 0.000000 0.078449
O O21 0.750000 0.750000 0.000000
#
# Coordination Sequence:
#
# PCOD9223370 Si02
#       8
#     8   8   8   8   8   8   8   8
#     4  10  19  30  47  77 118 156 187 227 279 335
#     4   9  20  38  59  84 116 152 192 236 287 347
#     4  10  18  33  56  80 109 150 196 235 277 340
#     4  10  20  34  53  82 116 151 188 234 287 342
#     4  10  21  39  60  83 114 151 194 243 288 337
#     4  10  20  34  56  84 113 150 190 230 283 353
#     4   9  19  33  54  82 111 149 196 238 278 333
#     4  11  24  43  65  89 114 149 194 241 292 345
#
# _framework density 9.8765429999999999
#
# number of rings (size 3 to 8) (size 9 to 14) (size 15 to 20)
#    0.000    2.125    1.250    1.875    1.750    3.750 
#    0.000    3.125    0.000    0.000    0.000    0.000 
#    0.000    0.000    0.000    0.000    0.000    0.000 
#
# Total GULP energy -178296.209123 kJ/mol
# GULP energy per Si atom -5571.756535 kJ/mol
# Density = 0.985406 g / cm^3
# Si number density = 9.876543 Si / 1000 Ang^3
#
#
#
# Elastic Constant Matrix: (Units=GPa)
#
#
# Indices 1 2 3 4 5 6 
#
# 1 18.4793 -6.6288 7.7384 -0.0001 4.1470 0.0000
# 2 -6.6288 34.3519 9.7044 -0.0003 0.7700 0.0003
# 3 7.7384 9.7044 80.4677 0.0001 -15.1789 0.0000
# 4 -0.0001 -0.0003 0.0001 36.3735 0.0000 -2.4400
# 5 4.1470 0.7700 -15.1789 0.0000 23.1656 0.0000
# 6 0.0000 0.0003 0.0000 -2.4400 0.0000 23.1195
#
#
#
# Elastic Compliance Matrix: (Units=1/GPa)
#
#
# Indices 1 2 3 4 5 6 
#
# 1 0.070924 0.017878 -0.013103 0.000000 -0.021876 0.000000
# 2 0.017878 0.034950 -0.007710 0.000000 -0.009414 0.000000
# 3 -0.013103 -0.007710 0.017239 0.000000 0.013897 0.000000
# 4 0.000000 0.000000 0.000000 0.027689 0.000000 0.002922
# 5 -0.021876 -0.009414 0.013897 0.000000 0.056502 0.000000
# 6 0.000000 0.000000 0.000000 0.002922 0.000000 0.043562
#
#
# Mechanical properties :
#
#
# Convention : Reuss Voigt Hill
#
# Bulk Modulus (GPa) = 8.52934 17.21409 12.87171
# Shear Modulus (GPa) = 16.90235 24.69740 20.79987
#
# Velocity S-wave (km/s) = 2.92838 3.53980 3.24851
# Velocity P-wave (km/s) = 3.97004 5.04386 4.53882
#
# Compressibility (1/GPa) = 0.11724243
#
# Stress axis : x y z
#
# Youngs Moduli (GPa) = 14.09952 28.61271 58.00867
#
# Poissons Ratio (x) = -0.51154 0.76011
# Poissons Ratio (y) = -0.25207 0.44725
# Poissons Ratio (z) = 0.18475 0.22060
#
# Static dielectric constant tensor:
#      x y z
#    x 1.716440 0.000000 0.007340 
#    y 0.000000 1.696490 0.000000 
#    z 0.007340 0.000000 1.753710 
# 
# From -- ./inp_files/382422.got.cif
#   From: 2010.05.17/outbox.ucp.g08.bks.cvg/sg12_192_cif.got.tgz:382422.got - 2010.06.11 11:47:21.
