data_PCOD9223919
_publ_section_title
;
Structure prediction by ZEFSAII (Michael W. Deem and Ramdas Pophale) SiO2 
 PCOD9223919
Probable space group: C 2/M
;
_chemical_formula_sum "Si O2"
_cell_formula_units_Z 32
_cell_length_a 21.000000
_cell_length_b 18.000000
_cell_length_c 27.000000
_cell_angle_alpha 90.000000
_cell_angle_beta 160.000000
_cell_angle_gamma 90.000000
_cell_volume 3490.657583
_symmetry_space_group_name_H-M "C 2/M"
_symmetry_group_IT_number 12
_symmetry_cell_setting 'monoclinic'
loop_
_space_group_symop_operation_xyz
x,y,z
-x,y,-z
-x,-y,-z
x,-y,z
1/2+x,1/2+y,z
1/2-x,1/2+y,-z
1/2-x,1/2-y,-z
1/2+x,1/2-y,z
loop_
_atom_site_type_symbol
_atom_site_label
_atom_site_fract_x
_atom_site_fract_y
_atom_site_fract_z
Si Si1 0.470395 0.587904 0.622332
Si Si2 0.862273 0.322105 0.304092
Si Si3 0.014434 0.914839 0.070238
Si Si4 0.406994 0.309533 0.480993
Si Si5 0.287263 0.704488 0.957373
Si Si6 0.046194 0.778259 0.238831
Si Si7 0.314803 0.193195 0.893073
Si Si8 0.726216 0.089063 0.541089
O O1 0.502775 0.500000 0.637767
O O2 0.417104 0.632600 0.533735
O O3 0.656382 0.630405 0.777576
O O4 0.309754 0.594728 0.546647
O O5 0.703824 0.368152 0.217074
O O6 0.766578 0.266828 0.194189
O O7 0.968308 0.263092 0.415747
O O8 0.016707 0.378186 0.394124
O O9 0.842584 0.869945 0.968202
O O10 0.024738 0.000000 0.095080
O O11 0.000000 0.915850 0.000000
O O12 0.500000 0.343043 0.500000
O O13 0.200653 0.275475 0.327623
O O14 0.395371 0.697521 0.088025
O O15 0.366458 0.774743 0.984439
O O16 0.072569 0.728211 0.808943
O O17 0.146092 0.851620 0.334619
O O18 0.500000 0.168665 0.000000
O O19 0.734293 0.000000 0.560638
#
# Coordination Sequence:
#
# PCOD9223919 Si02
#       8
#     8   8   8   8   8   8   8   8
#     4  10  23  39  60  85 112 149 190 241 293 331
#     4  10  19  34  58  89 113 150 187 225 281 340
#     4  11  21  33  54  86 121 149 178 225 283 340
#     4  10  22  37  60  84 113 144 193 239 284 340
#     4  11  20  38  57  82 115 152 193 232 275 333
#     4  10  23  36  60  84 110 155 195 232 279 336
#     4  11  20  35  64  85 111 150 192 237 281 333
#     4  10  21  38  58  85 119 150 188 235 281 337
#
# _framework density 9.1673270000000002
#
# number of rings (size 3 to 8) (size 9 to 14) (size 15 to 20)
#    0.000    1.625    3.750    1.125    3.500    2.500 
#    0.000    0.625    0.000    4.875    0.000    0.000 
#    0.000    0.000    0.000    0.000    0.000    0.000 
#
# Total GULP energy -178451.134231 kJ/mol
# GULP energy per Si atom -5576.597945 kJ/mol
# Density = 0.914646 g / cm^3
# Si number density = 9.167327 Si / 1000 Ang^3
#
#
#
# Elastic Constant Matrix: (Units=GPa)
#
#
# Indices 1 2 3 4 5 6 
#
# 1 65.1768 18.4646 6.7439 0.0055 11.5746 -0.0017
# 2 18.4646 117.8453 23.0810 0.0073 7.2563 -0.0044
# 3 6.7439 23.0810 54.8625 0.0480 13.4615 -0.0145
# 4 0.0055 0.0073 0.0480 23.9102 -0.0181 12.2665
# 5 11.5746 7.2563 13.4615 -0.0181 30.4855 -0.0042
# 6 -0.0017 -0.0044 -0.0145 12.2665 -0.0042 26.7039
#
#
#
# Elastic Compliance Matrix: (Units=1/GPa)
#
#
# Indices 1 2 3 4 5 6 
#
# 1 0.017055 -0.002375 0.000396 -0.000011 -0.006085 0.000005
# 2 -0.002375 0.009586 -0.003816 0.000008 0.000305 -0.000004
# 3 0.000396 -0.003816 0.021980 -0.000072 -0.008948 0.000043
# 4 -0.000011 0.000008 -0.000072 0.054718 0.000063 -0.025135
# 5 -0.006085 0.000305 -0.008948 0.000063 0.038991 -0.000028
# 6 0.000005 -0.000004 0.000043 -0.025135 -0.000028 0.048993
#
#
# Mechanical properties :
#
#
# Convention : Reuss Voigt Hill
#
# Bulk Modulus (GPa) = 27.00449 37.16261 32.08355
# Shear Modulus (GPa) = 23.22790 28.85960 26.04375
#
# Velocity S-wave (km/s) = 3.56319 3.97173 3.77300
# Velocity P-wave (km/s) = 5.62931 6.43008 6.04297
#
# Compressibility (1/GPa) = 0.03703088
#
# Stress axis : x y z
#
# Youngs Moduli (GPa) = 58.63235 104.31382 45.49663
#
# Poissons Ratio (x) = 0.24776 -0.01801
# Poissons Ratio (y) = 0.13926 0.17361
# Poissons Ratio (z) = -0.02321 0.39806
#
# Static dielectric constant tensor:
#      x y z
#    x 1.691170 -0.000010 -0.025550 
#    y -0.000010 1.599370 -0.000010 
#    z -0.025550 -0.000010 1.661990 
# 
# From -- ./inp_files/366848.got.cif
#   From: 2010.05.17/outbox.ucp.g08.bks.cvg/sg12_184_cif.got.tgz:366848.got - 2010.06.11 11:47:21.
