data_PCOD9223205
_publ_section_title
;
Structure prediction by ZEFSAII (Michael W. Deem and Ramdas Pophale) SiO2 
 PCOD9223205
Probable space group: C 2/M
;
_chemical_formula_sum "Si O2"
_cell_formula_units_Z 28
_cell_length_a 27.000000
_cell_length_b 9.000000
_cell_length_c 15.000000
_cell_angle_alpha 90.000000
_cell_angle_beta 70.000000
_cell_angle_gamma 90.000000
_cell_volume 3425.179603
_symmetry_space_group_name_H-M "C 2/M"
_symmetry_group_IT_number 12
_symmetry_cell_setting 'monoclinic'
loop_
_space_group_symop_operation_xyz
x,y,z
-x,y,-z
-x,-y,-z
x,-y,z
1/2+x,1/2+y,z
1/2-x,1/2+y,-z
1/2-x,1/2-y,-z
1/2+x,1/2-y,z
loop_
_atom_site_type_symbol
_atom_site_label
_atom_site_fract_x
_atom_site_fract_y
_atom_site_fract_z
Si Si1 0.801543 0.169088 0.497921
Si Si2 0.106550 0.169584 0.701333
Si Si3 0.425817 0.821210 0.115523
Si Si4 0.454452 0.819794 0.904665
Si Si5 0.541453 0.171226 0.593680
Si Si6 0.883492 0.177548 0.588764
Si Si7 0.077577 0.326522 0.269317
O O1 0.750000 0.250000 0.500000
O O2 0.841384 0.169250 0.390240
O O3 0.833733 0.233401 0.561787
O O4 0.788412 0.000000 0.528745
O O5 0.113129 0.237380 0.794737
O O6 0.067271 0.273646 0.669641
O O7 0.086765 0.000000 0.717551
O O8 0.484719 0.778969 0.113874
O O9 0.420971 0.000000 0.125705
O O10 0.423032 0.779530 0.013457
O O11 0.431016 0.766948 0.825545
O O12 0.455088 0.000000 0.899172
O O13 0.566209 0.268809 0.500122
O O14 0.479529 0.180697 0.648020
O O15 0.555087 0.000000 0.567242
O O16 0.884974 0.238441 0.687370
O O17 0.883525 0.000000 0.588084
O O18 0.092791 0.500000 0.255374
#
# Coordination Sequence:
#
# PCOD9223205 Si02
#       7
#     8   8   8   8   8   8   8
#     4   9  20  36  51  68  90 115 146 188 235 281
#     4  10  19  30  45  69  99 122 147 190 238 279
#     4   9  15  28  47  65  89 127 164 194 225 258
#     4   8  15  27  44  65  92 124 164 202 220 243
#     4  10  18  29  45  64  88 124 165 191 213 259
#     4  10  21  33  44  65  95 120 145 186 237 280
#     4  10  18  29  44  65  91 125 164 192 214 256
#
# _framework density 8.1747540000000001
#
# number of rings (size 3 to 8) (size 9 to 14) (size 15 to 20)
#    0.000    2.571    1.429    3.429    0.000    6.286 
#    0.000    2.143    0.000    0.000    0.000    1.000 
#    0.000    0.000    0.000    0.000    0.000    0.000 
#
# Total GULP energy -155896.225121 kJ/mol
# GULP energy per Si atom -5567.722326 kJ/mol
# Density = 0.815615 g / cm^3
# Si number density = 8.174754 Si / 1000 Ang^3
#
#
#
# Elastic Constant Matrix: (Units=GPa)
#
#
# Indices 1 2 3 4 5 6 
#
# 1 55.0975 35.7129 44.9750 0.0000 19.9808 0.0000
# 2 35.7129 33.0597 21.3980 0.0000 11.2999 0.0000
# 3 44.9750 21.3980 84.5322 0.0000 46.3684 0.0000
# 4 0.0000 0.0000 0.0000 56.0462 0.0000 -1.2521
# 5 19.9808 11.2999 46.3684 0.0000 19.3876 0.0000
# 6 0.0000 0.0000 0.0000 -1.2521 0.0000 17.0205
#
#
#
# Elastic Compliance Matrix: (Units=1/GPa)
#
#
# Indices 1 2 3 4 5 6 
#
# 1 0.078013 -0.069536 0.006521 0.000000 -0.055468 0.000000
# 2 -0.069536 0.098114 -0.013525 0.000000 0.046826 0.000000
# 3 0.006521 -0.013525 -0.035738 0.000000 0.086635 0.000000
# 4 0.000000 0.000000 0.000000 0.017872 0.000000 0.001315
# 5 -0.055468 0.046826 0.086635 0.000000 -0.125748 0.000000
# 6 0.000000 0.000000 0.000000 0.001315 0.000000 0.058850
#
#
# Mechanical properties :
#
#
# Convention : Reuss Voigt Hill
#
# Bulk Modulus (GPa) = -78.79919 41.87347 -18.46286
# Shear Modulus (GPa) = 20.81507 23.19776 22.00641
#
# Velocity S-wave (km/s) = 3.57197 3.77087 3.67277
# Velocity P-wave (km/s) = 5.59369 6.68029 2.58234
#
# Compressibility (1/GPa) = -0.01269049
#
# Stress axis : x y z
#
# Youngs Moduli (GPa) = 12.81836 10.19227 -27.98141
#
# Poissons Ratio (x) = 0.70873 0.18247
# Poissons Ratio (y) = 0.89133 -0.37845
# Poissons Ratio (z) = -0.08359 0.13785
#
# Static dielectric constant tensor:
#      x y z
#    x 1.550850 0.000000 0.020550 
#    y 0.000000 1.562790 0.000000 
#    z 0.020550 0.000000 1.582200 
# 
# From -- ./inp_files/243056.got.cif
#   From: 2010.05.17/outbox.ucp.g08.bks.cvg/sg12_122_cif.got.tgz:243056.got - 2010.06.11 11:47:21.
