data_PCOD9223304
_publ_section_title
;
Structure prediction by ZEFSAII (Michael W. Deem and Ramdas Pophale) SiO2 
 PCOD9223304
Probable space group: C 2/M
;
_chemical_formula_sum "Si O2"
_cell_formula_units_Z 28
_cell_length_a 21.000000
_cell_length_b 27.000000
_cell_length_c 18.000000
_cell_angle_alpha 90.000000
_cell_angle_beta 20.000000
_cell_angle_gamma 90.000000
_cell_volume 3490.657583
_symmetry_space_group_name_H-M "C 2/M"
_symmetry_group_IT_number 12
_symmetry_cell_setting 'monoclinic'
loop_
_space_group_symop_operation_xyz
x,y,z
-x,y,-z
-x,-y,-z
x,-y,z
1/2+x,1/2+y,z
1/2-x,1/2+y,-z
1/2-x,1/2-y,-z
1/2+x,1/2-y,z
loop_
_atom_site_type_symbol
_atom_site_label
_atom_site_fract_x
_atom_site_fract_y
_atom_site_fract_z
Si Si1 0.309624 0.696424 0.904235
Si Si2 0.788146 0.135876 0.070841
Si Si3 0.903108 0.680607 0.327797
Si Si4 0.460527 0.446647 0.130737
Si Si5 0.830564 0.765363 0.534616
Si Si6 0.720134 0.313735 0.768669
Si Si7 0.884071 0.392441 0.472492
O O1 0.479711 0.704783 0.663822
O O2 0.250000 0.750000 0.000000
O O3 0.366929 0.665407 0.914121
O O4 0.122934 0.675009 0.074878
O O5 0.735127 0.174967 0.194467
O O6 0.603761 0.107392 0.245656
O O7 0.932986 0.097844 0.946489
O O8 0.866727 0.722396 0.432136
O O9 0.811455 0.698836 0.352581
O O10 0.840940 0.631684 0.439564
O O11 0.526378 0.500000 0.085676
O O12 0.240122 0.440574 0.383355
O O13 0.500000 0.443435 0.000000
O O14 0.774678 0.738078 0.671156
O O15 0.810530 0.355902 0.618177
O O16 0.500000 0.317902 0.000000
#
# Coordination Sequence:
#
# PCOD9223304 Si02
#       7
#     8   8   8   8   8   8   8
#     4   9  18  29  45  65  84 109 150 190 225 276
#     4  11  20  33  49  65  89 118 156 199 235 269
#     4   8  16  27  44  60  76 106 139 182 226 269
#     4  11  22  34  46  63  87 117 157 200 242 277
#     4   9  17  28  41  58  85 109 141 187 223 263
#     4  11  20  29  43  63  86 119 152 192 229 260
#     4  10  18  32  47  62  80 111 151 190 236 271
#
# _framework density 8.0214110000000005
#
# number of rings (size 3 to 8) (size 9 to 14) (size 15 to 20)
#    0.000    2.143    2.857    2.143    6.000    0.571 
#    0.000    1.429    0.000    0.000    0.000    0.000 
#    0.000    0.000    0.000    0.000    0.000   22.857 
#
# Total GULP energy -155886.784936 kJ/mol
# GULP energy per Si atom -5567.385176 kJ/mol
# Density = 0.800315 g / cm^3
# Si number density = 8.021411 Si / 1000 Ang^3
#
#
#
# Elastic Constant Matrix: (Units=GPa)
#
#
# Indices 1 2 3 4 5 6 
#
# 1 33.6425 19.3675 12.9702 0.0286 -11.4088 0.0271
# 2 19.3675 44.3804 20.2322 0.0206 -4.6784 0.0556
# 3 12.9702 20.2322 45.0637 0.0110 -11.3041 0.0874
# 4 0.0286 0.0206 0.0110 -3.8020 0.0343 -2.8460
# 5 -11.4088 -4.6784 -11.3041 0.0343 8.7268 0.0109
# 6 0.0271 0.0556 0.0874 -2.8460 0.0109 11.0147
#
#
#
# Elastic Compliance Matrix: (Units=1/GPa)
#
#
# Indices 1 2 3 4 5 6 
#
# 1 0.076985 -0.030763 0.018904 0.001394 0.108636 0.000069
# 2 -0.030763 0.040646 -0.020763 -0.000452 -0.045321 -0.000037
# 3 0.018904 -0.020763 0.043667 0.000884 0.070144 -0.000129
# 4 0.001394 -0.000452 0.000884 -0.220349 0.003661 -0.056947
# 5 0.108636 -0.045321 0.070144 0.003661 0.323163 0.000031
# 6 0.000069 -0.000037 -0.000129 -0.056947 0.000031 0.076074
#
#
# Mechanical properties :
#
#
# Convention : Reuss Voigt Hill
#
# Bulk Modulus (GPa) = 10.41074 25.35848 17.88461
# Shear Modulus (GPa) = 11.42995 7.88902 9.65948
#
# Velocity S-wave (km/s) = 2.67210 2.21994 2.45645
# Velocity P-wave (km/s) = 4.00295 4.73412 4.38381
#
# Compressibility (1/GPa) = 0.09605462
#
# Stress axis : x y z
#
# Youngs Moduli (GPa) = 12.98949 24.60287 22.90053
#
# Poissons Ratio (x) = 0.75687 -0.43292
# Poissons Ratio (y) = 0.39960 0.47548
# Poissons Ratio (z) = -0.24556 0.51083
#
# Static dielectric constant tensor:
#      x y z
#    x 1.528600 -0.000050 -0.028100 
#    y -0.000050 1.615870 0.000020 
#    z -0.028100 0.000020 1.604910 
# 
# From -- ./inp_files/219381.got.cif
#   From: 2010.05.17/outbox.ucp.g08.bks.cvg/sg12_110_cif.got.tgz:219381.got - 2010.06.11 11:47:21.
