data_PCOD9223159
_publ_section_title
;
Structure prediction by ZEFSAII (Michael W. Deem and Ramdas Pophale) SiO2 
 PCOD9223159
Probable space group: C 2/M
;
_chemical_formula_sum "Si O2"
_cell_formula_units_Z 20
_cell_length_a 18.000000
_cell_length_b 9.000000
_cell_length_c 21.000000
_cell_angle_alpha 90.000000
_cell_angle_beta 140.000000
_cell_angle_gamma 90.000000
_cell_volume 2186.763448
_symmetry_space_group_name_H-M "C 2/M"
_symmetry_group_IT_number 12
_symmetry_cell_setting 'monoclinic'
loop_
_space_group_symop_operation_xyz
x,y,z
-x,y,-z
-x,-y,-z
x,-y,z
1/2+x,1/2+y,z
1/2-x,1/2+y,-z
1/2-x,1/2-y,-z
1/2+x,1/2-y,z
loop_
_atom_site_type_symbol
_atom_site_label
_atom_site_fract_x
_atom_site_fract_y
_atom_site_fract_z
Si Si1 0.046839 0.679183 0.123856
Si Si2 0.889865 0.679590 0.283555
Si Si3 0.851202 0.321184 0.525508
Si Si4 0.253170 0.178518 0.322507
Si Si5 0.338877 0.680206 0.929089
O O1 0.045126 0.500000 0.118757
O O2 0.131085 0.735898 0.235324
O O3 0.106764 0.753020 0.100574
O O4 0.916746 0.745438 0.035301
O O5 0.894789 0.500000 0.286039
O O6 0.832066 0.720002 0.313470
O O7 0.797162 0.719379 0.167572
O O8 0.021696 0.733185 0.369357
O O9 0.848942 0.500000 0.531085
O O10 0.750000 0.250000 0.500000
O O11 0.822060 0.289622 0.432427
O O12 0.231826 0.000000 0.305104
O O13 0.351144 0.500000 0.937907
#
# Coordination Sequence:
#
# PCOD9223159 Si02
#       5
#     8   8   8   8   8
#     4  10  17  25  41  69 102 126 149 191 242 282
#     4   8  15  29  51  74  93 121 162 200 229 269
#     4  10  20  34  51  71  96 125 158 197 241 286
#     4   9  17  31  51  71  93 126 165 197 227 275
#     4   9  15  26  45  68  95 126 159 191 228 280
#
# _framework density 9.145937
#
# number of rings (size 3 to 8) (size 9 to 14) (size 15 to 20)
#    0.000    2.800    0.000    5.400    0.000    3.200 
#    0.000    5.000    0.000    7.200    0.000    0.000 
#    0.000    0.000    0.000    0.000    0.000    0.000 
#
# Total GULP energy -111369.784102 kJ/mol
# GULP energy per Si atom -5568.489205 kJ/mol
# Density = 0.912512 g / cm^3
# Si number density = 9.145937 Si / 1000 Ang^3
#
#
#
# Elastic Constant Matrix: (Units=GPa)
#
#
# Indices 1 2 3 4 5 6 
#
# 1 40.3079 7.5170 42.0529 0.0000 27.8794 0.0000
# 2 7.5170 66.8391 39.7631 0.0000 12.9743 0.0000
# 3 42.0529 39.7631 161.2782 0.0000 58.0564 0.0000
# 4 0.0000 0.0000 0.0000 22.9883 0.0000 3.8940
# 5 27.8794 12.9743 58.0564 0.0000 24.4890 0.0000
# 6 0.0000 0.0000 0.0000 3.8940 0.0000 17.4481
#
#
#
# Elastic Compliance Matrix: (Units=1/GPa)
#
#
# Indices 1 2 3 4 5 6 
#
# 1 -0.062729 0.002111 -0.064590 0.000000 0.223420 0.000000
# 2 0.002111 0.017617 -0.004563 0.000000 -0.000921 0.000000
# 3 -0.064590 -0.004563 -0.021644 0.000000 0.127262 0.000000
# 4 0.000000 0.000000 0.000000 0.045209 0.000000 -0.010090
# 5 0.223420 -0.000921 0.127262 0.000000 -0.514731 0.000000
# 6 0.000000 0.000000 0.000000 -0.010090 0.000000 0.059564
#
#
# Mechanical properties :
#
#
# Convention : Reuss Voigt Hill
#
# Bulk Modulus (GPa) = -4.97911 49.67680 22.34885
# Shear Modulus (GPa) = -12.20769 24.92457 6.35844
#
# Velocity S-wave (km/s) = -2.58618 3.69535 1.86645
# Velocity P-wave (km/s) = 3.41258 6.73976 4.10966
#
# Compressibility (1/GPa) = -0.20083912
#
# Stress axis : x y z
#
# Youngs Moduli (GPa) = -15.94151 56.76381 -46.20144
#
# Poissons Ratio (x) = -0.11986 -2.98415
# Poissons Ratio (y) = 0.03366 -0.21080
# Poissons Ratio (z) = -1.02966 0.25899
#
# Static dielectric constant tensor:
#      x y z
#    x 1.621200 0.000000 0.019870 
#    y 0.000000 1.608320 0.000000 
#    z 0.019870 0.000000 1.706870 
# 
# From -- ./inp_files/313518.got.cif
#   From: 2010.05.17/outbox.ucp.g08.bks.cvg/sg12_157_cif.got.tgz:313518.got - 2010.06.11 11:47:21.
