data_PCOD9223284
_publ_section_title
;
Structure prediction by ZEFSAII (Michael W. Deem and Ramdas Pophale) SiO2 
 PCOD9223284
Probable space group: C 2/M
;
_chemical_formula_sum "Si O2"
_cell_formula_units_Z 32
_cell_length_a 18.000000
_cell_length_b 9.000000
_cell_length_c 30.000000
_cell_angle_alpha 90.000000
_cell_angle_beta 40.000000
_cell_angle_gamma 90.000000
_cell_volume 3123.947783
_symmetry_space_group_name_H-M "C 2/M"
_symmetry_group_IT_number 12
_symmetry_cell_setting 'monoclinic'
loop_
_space_group_symop_operation_xyz
x,y,z
-x,y,-z
-x,-y,-z
x,-y,z
1/2+x,1/2+y,z
1/2-x,1/2+y,-z
1/2-x,1/2-y,-z
1/2+x,1/2-y,z
loop_
_atom_site_type_symbol
_atom_site_label
_atom_site_fract_x
_atom_site_fract_y
_atom_site_fract_z
Si Si1 0.308142 0.673200 0.265279
Si Si2 0.911279 0.164243 0.654173
Si Si3 0.016328 0.162184 0.278625
Si Si4 0.704904 0.826930 0.635825
Si Si5 0.342550 0.320195 0.490990
Si Si6 0.606717 0.833123 0.986215
Si Si7 0.945982 0.177068 0.122732
Si Si8 0.236553 0.328275 0.148832
O O1 0.320174 0.500000 0.262134
O O2 0.188580 0.717500 0.298325
O O3 0.298535 0.746237 0.316623
O O4 0.412139 0.728680 0.187284
O O5 0.945141 0.142156 0.689031
O O6 0.025505 0.219958 0.577435
O O7 0.876598 0.000000 0.651922
O O8 0.126059 0.224011 0.202575
O O9 0.917291 0.283389 0.328182
O O10 0.976874 0.000000 0.279558
O O11 0.804450 0.774076 0.557494
O O12 0.716558 0.000000 0.635938
O O13 0.335471 0.500000 0.489632
O O14 0.250000 0.250000 0.500000
O O15 0.696563 0.715116 0.926498
O O16 0.653379 0.000000 0.967370
O O17 0.500000 0.835910 0.000000
O O18 0.549599 0.773514 0.056921
O O19 0.831603 0.199165 0.144277
O O20 0.970215 0.000000 0.109728
O O21 0.203432 0.500000 0.166327
#
# Coordination Sequence:
#
# PCOD9223284 Si02
#       8
#     8   8   8   8   8   8   8   8
#     4  11  23  39  58  83 116 152 193 235 280 337
#     4  10  21  37  59  85 113 147 187 234 287 337
#     4  11  21  35  58  85 114 147 189 237 283 335
#     4  11  24  40  59  83 114 151 190 233 286 344
#     4  10  21  38  60  85 113 147 187 234 286 340
#     4   9  17  28  46  77 112 145 184 229 278 329
#     4   9  18  32  51  76 109 149 186 227 279 331
#     4  10  18  31  52  80 114 147 186 233 280 331
#
# _framework density 10.243449
#
# number of rings (size 3 to 8) (size 9 to 14) (size 15 to 20)
#    0.000    1.875    2.500    1.875    0.000    5.000 
#    0.000    2.500    0.000    0.750    0.000    0.000 
#    0.000    0.000    0.000    0.000    0.000    0.000 
#
# Total GULP energy -178183.483059 kJ/mol
# GULP energy per Si atom -5568.233846 kJ/mol
# Density = 1.022013 g / cm^3
# Si number density = 10.243449 Si / 1000 Ang^3
#
#
#
# Elastic Constant Matrix: (Units=GPa)
#
#
# Indices 1 2 3 4 5 6 
#
# 1 20.3136 9.6154 13.8084 0.0000 14.6253 -0.0002
# 2 9.6154 0.2906 40.2141 -0.0001 21.4086 -0.0010
# 3 13.8084 40.2141 131.1121 0.0000 23.9857 0.0000
# 4 0.0000 -0.0001 0.0000 21.7122 0.0000 -0.6913
# 5 14.6253 21.4086 23.9857 0.0000 12.9645 0.0000
# 6 -0.0002 -0.0010 0.0000 -0.6913 0.0000 22.1198
#
#
#
# Elastic Compliance Matrix: (Units=1/GPa)
#
#
# Indices 1 2 3 4 5 6 
#
# 1 0.129207 -0.053218 0.020110 0.000000 -0.095084 -0.000001
# 2 -0.053218 -0.006598 -0.008084 0.000000 0.085886 -0.000001
# 3 0.020110 -0.008084 0.014658 0.000000 -0.036456 0.000000
# 4 0.000000 0.000000 0.000000 0.046103 0.000000 0.001441
# 5 -0.095084 0.085886 -0.036456 0.000000 0.110018 0.000003
# 6 -0.000001 -0.000001 0.000000 0.001441 0.000003 0.045253
#
#
# Mechanical properties :
#
#
# Convention : Reuss Voigt Hill
#
# Bulk Modulus (GPa) = 18.22056 30.99913 24.60985
# Shear Modulus (GPa) = 11.38123 17.23117 14.30620
#
# Velocity S-wave (km/s) = 2.35954 2.90329 2.64542
# Velocity P-wave (km/s) = 4.04182 5.13837 4.62272
#
# Compressibility (1/GPa) = 0.05488305
#
# Stress axis : x y z
#
# Youngs Moduli (GPa) = 7.73951 -151.56156 68.22349
#
# Poissons Ratio (x) = -8.06580 -1.37195
# Poissons Ratio (y) = 0.41188 0.55149
# Poissons Ratio (z) = -0.15564 -1.22516
#
# Static dielectric constant tensor:
#      x y z
#    x 0.145600 0.000000 -0.357090 
#    y 0.000000 1.561750 0.000000 
#    z -0.357090 0.000000 2.631880 
# 
# From -- ./inp_files/378019.got.cif
#   From: 2010.05.17/outbox.ucp.g08.bks.cvg/sg12_190_cif.got.tgz:378019.got - 2010.06.11 11:47:21.
