data_PCOD9223804
_publ_section_title
;
Structure prediction by ZEFSAII (Michael W. Deem and Ramdas Pophale) SiO2 
 PCOD9223804
Probable space group: C 2/M
;
_chemical_formula_sum "Si O2"
_cell_formula_units_Z 32
_cell_length_a 15.000000
_cell_length_b 9.000000
_cell_length_c 27.000000
_cell_angle_alpha 90.000000
_cell_angle_beta 70.000000
_cell_angle_gamma 90.000000
_cell_volume 3425.179603
_symmetry_space_group_name_H-M "C 2/M"
_symmetry_group_IT_number 12
_symmetry_cell_setting 'monoclinic'
loop_
_space_group_symop_operation_xyz
x,y,z
-x,y,-z
-x,-y,-z
x,-y,z
1/2+x,1/2+y,z
1/2-x,1/2+y,-z
1/2-x,1/2-y,-z
1/2+x,1/2-y,z
loop_
_atom_site_type_symbol
_atom_site_label
_atom_site_fract_x
_atom_site_fract_y
_atom_site_fract_z
Si Si1 0.224510 0.329143 0.242329
Si Si2 0.548015 0.321588 0.147670
Si Si3 0.501227 0.170186 0.257008
Si Si4 0.512047 0.320653 0.440683
Si Si5 0.735231 0.177176 0.865645
Si Si6 0.395353 0.323360 0.368947
Si Si7 0.698629 0.177280 0.359379
Si Si8 0.952305 0.179460 0.061397
O O1 0.259511 0.500000 0.233343
O O2 0.271489 0.234771 0.189782
O O3 0.230734 0.275199 0.297852
O O4 0.112585 0.329120 0.250507
O O5 0.539331 0.500000 0.153130
O O6 0.494072 0.251060 0.205196
O O7 0.659632 0.283890 0.133823
O O8 0.509836 0.276757 0.100644
O O9 0.449104 0.246431 0.313033
O O10 0.469839 0.000000 0.258108
O O11 0.500000 0.268873 0.500000
O O12 0.514953 0.500000 0.441607
O O13 0.430799 0.275842 0.416534
O O14 0.607316 0.260039 0.397271
O O15 0.652074 0.252710 0.912615
O O16 0.726008 0.000000 0.868469
O O17 0.413362 0.500000 0.361204
O O18 0.284764 0.298431 0.380545
O O19 0.679035 0.000000 0.359201
O O20 0.946625 0.000000 0.062607
O O21 0.000000 0.223968 0.000000
#
# Coordination Sequence:
#
# PCOD9223804 Si02
#       8
#     8   8   8   8   8   8   8   8
#     4   9  18  34  55  80 113 146 181 227 279 336
#     4   9  20  38  57  80 113 150 185 225 280 337
#     4  10  19  33  56  85 114 143 184 232 278 330
#     4  10  22  40  59  81 114 152 189 233 282 331
#     4  10  21  36  56  84 114 146 185 232 284 330
#     4  10  21  36  56  82 113 149 186 227 281 336
#     4  10  21  37  57  83 111 147 190 231 278 334
#     4  10  22  40  60  81 110 152 195 229 272 335
#
# _framework density 9.3425759999999993
#
# number of rings (size 3 to 8) (size 9 to 14) (size 15 to 20)
#    0.000    2.250    1.250    0.750    1.750    4.000 
#    0.000    0.000    0.000    0.000    0.000    0.000 
#    0.000    0.000    0.000    0.000    0.000    0.000 
#
# Total GULP energy -178589.805203 kJ/mol
# GULP energy per Si atom -5580.931413 kJ/mol
# Density = 0.932131 g / cm^3
# Si number density = 9.342576 Si / 1000 Ang^3
#
#
#
# Elastic Constant Matrix: (Units=GPa)
#
#
# Indices 1 2 3 4 5 6 
#
# 1 55.9835 20.2007 27.3947 0.0000 22.3525 0.0000
# 2 20.2007 11.8737 13.0383 0.0000 8.3036 0.0000
# 3 27.3947 13.0383 97.6297 0.0000 27.9994 0.0000
# 4 0.0000 0.0000 0.0000 29.8708 0.0000 -8.5950
# 5 22.3525 8.3036 27.9994 0.0000 31.8060 0.0000
# 6 0.0000 0.0000 0.0000 -8.5950 0.0000 18.8758
#
#
#
# Elastic Compliance Matrix: (Units=1/GPa)
#
#
# Indices 1 2 3 4 5 6 
#
# 1 0.052617 -0.078214 0.000575 0.000000 -0.017065 0.000000
# 2 -0.078214 0.224301 -0.009335 0.000000 0.004627 0.000000
# 3 0.000575 -0.009335 0.014374 0.000000 -0.010621 0.000000
# 4 0.000000 0.000000 0.000000 0.038525 0.000000 0.017542
# 5 -0.017065 0.004627 -0.010621 0.000000 0.051575 0.000000
# 6 0.000000 0.000000 0.000000 0.017542 0.000000 0.060966
#
#
# Mechanical properties :
#
#
# Convention : Reuss Voigt Hill
#
# Bulk Modulus (GPa) = 8.52204 31.86160 20.19182
# Shear Modulus (GPa) = 7.62870 23.10074 15.36472
#
# Velocity S-wave (km/s) = 2.02278 3.51994 2.87068
# Velocity P-wave (km/s) = 3.16643 5.79731 4.67093
#
# Compressibility (1/GPa) = 0.11734285
#
# Stress axis : x y z
#
# Youngs Moduli (GPa) = 19.00538 4.45830 69.56985
#
# Poissons Ratio (x) = 0.34870 -0.04002
# Poissons Ratio (y) = 1.48650 0.64943
# Poissons Ratio (z) = -0.01093 0.04162
#
# Static dielectric constant tensor:
#      x y z
#    x 1.674140 0.000000 0.015190 
#    y 0.000000 1.636710 0.000000 
#    z 0.015190 0.000000 1.618340 
# 
# From -- ./inp_files/359781.got.cif
#   From: 2010.05.17/outbox.ucp.g08.bks.cvg/sg12_180_cif.got.tgz:359781.got - 2010.06.11 11:47:21.
