data_PCOD9223224
_publ_section_title
;
Structure prediction by ZEFSAII (Michael W. Deem and Ramdas Pophale) SiO2 
 PCOD9223224
Probable space group: C 2/M
;
_chemical_formula_sum "Si O2"
_cell_formula_units_Z 32
_cell_length_a 21.000000
_cell_length_b 9.000000
_cell_length_c 24.000000
_cell_angle_alpha 90.000000
_cell_angle_beta 50.000000
_cell_angle_gamma 90.000000
_cell_volume 3474.777594
_symmetry_space_group_name_H-M "C 2/M"
_symmetry_group_IT_number 12
_symmetry_cell_setting 'monoclinic'
loop_
_space_group_symop_operation_xyz
x,y,z
-x,y,-z
-x,-y,-z
x,-y,z
1/2+x,1/2+y,z
1/2-x,1/2+y,-z
1/2-x,1/2-y,-z
1/2+x,1/2-y,z
loop_
_atom_site_type_symbol
_atom_site_label
_atom_site_fract_x
_atom_site_fract_y
_atom_site_fract_z
Si Si1 0.702444 0.176971 0.861797
Si Si2 0.538773 0.830136 0.358529
Si Si3 0.867582 0.327091 0.803448
Si Si4 0.925050 0.834465 0.496820
Si Si5 0.567984 0.323282 0.008568
Si Si6 0.150886 0.677710 0.766518
Si Si7 0.186145 0.327267 0.361159
Si Si8 0.031944 0.679465 0.146753
O O1 0.797080 0.224287 0.817058
O O2 0.665026 0.224383 0.823018
O O3 0.691843 0.000000 0.873160
O O4 0.654022 0.265993 0.936003
O O5 0.558293 0.827476 0.282845
O O6 0.467209 0.719608 0.416890
O O7 0.622455 0.790949 0.346307
O O8 0.518414 0.000000 0.387137
O O9 0.838494 0.500000 0.823764
O O10 0.903305 0.274745 0.842253
O O11 0.860686 0.716824 0.556468
O O12 0.000000 0.835909 0.500000
O O13 0.890250 0.000000 0.513698
O O14 0.565835 0.500000 0.016823
O O15 0.552868 0.242695 0.074879
O O16 0.500000 0.281425 0.000000
O O17 0.151351 0.500000 0.766500
O O18 0.230257 0.736484 0.690253
O O19 0.063454 0.727549 0.790353
O O20 0.204300 0.500000 0.346967
O O21 0.033757 0.500000 0.144674
#
# Coordination Sequence:
#
# PCOD9223224 Si02
#       8
#     8   8   8   8   8   8   8   8
#     4  11  22  36  59  84 110 144 182 226 273 325
#     4   9  17  30  49  75 107 141 177 217 267 323
#     4  10  21  38  58  82 113 147 183 224 271 327
#     4   9  17  28  45  73 108 142 177 220 268 318
#     4  11  23  38  59  84 111 142 181 230 277 323
#     4  10  20  34  54  81 109 141 181 224 270 322
#     4  10  18  29  50  78 108 141 177 224 272 317
#     4  10  22  40  60  81 110 147 183 223 274 330
#
# _framework density 9.2092220000000005
#
# number of rings (size 3 to 8) (size 9 to 14) (size 15 to 20)
#    0.000    2.000    2.500    1.500    0.000    5.000 
#    0.000    0.000    0.000    0.750    0.000    0.000 
#    0.000    0.000    0.000    0.000    0.000    0.000 
#
# Total GULP energy -178354.297328 kJ/mol
# GULP energy per Si atom -5573.571792 kJ/mol
# Density = 0.918826 g / cm^3
# Si number density = 9.209222 Si / 1000 Ang^3
#
#
#
# Elastic Constant Matrix: (Units=GPa)
#
#
# Indices 1 2 3 4 5 6 
#
# 1 21.2932 9.8241 -2.9272 0.0000 6.0861 0.0002
# 2 9.8241 -27.1164 -8.6993 0.0000 4.0144 0.0003
# 3 -2.9272 -8.6993 41.8630 0.0000 -2.8527 0.0000
# 4 0.0000 0.0000 0.0000 28.9739 0.0000 -10.6745
# 5 6.0861 4.0144 -2.8527 0.0000 10.8190 0.0000
# 6 0.0002 0.0003 0.0000 -10.6745 0.0000 31.9614
#
#
#
# Elastic Compliance Matrix: (Units=1/GPa)
#
#
# Indices 1 2 3 4 5 6 
#
# 1 0.050990 0.012431 0.003951 0.000000 -0.032255 -0.000001
# 2 0.012431 -0.030274 -0.005227 0.000000 0.002862 0.000000
# 3 0.003951 -0.005227 0.023480 0.000000 0.005908 0.000000
# 4 0.000000 0.000000 0.000000 0.039356 0.000000 0.013144
# 5 -0.032255 0.002862 0.005908 0.000000 0.111070 0.000000
# 6 -0.000001 0.000000 0.000000 0.013144 0.000000 0.035678
#
#
# Mechanical properties :
#
#
# Convention : Reuss Voigt Hill
#
# Bulk Modulus (GPa) = 15.03619 3.60387 9.32003
# Shear Modulus (GPa) = 21.72403 16.87368 19.29886
#
# Velocity S-wave (km/s) = 3.43807 3.03005 3.24049
# Velocity P-wave (km/s) = 4.89304 3.76862 4.36717
#
# Compressibility (1/GPa) = 0.06650619
#
# Stress axis : x y z
#
# Youngs Moduli (GPa) = 19.61154 -33.03172 42.58916
#
# Poissons Ratio (x) = 0.41061 -0.16826
# Poissons Ratio (y) = -0.24379 0.22260
# Poissons Ratio (z) = -0.07748 -0.17265
#
# Static dielectric constant tensor:
#      x y z
#    x 1.631800 0.000000 -0.020240 
#    y 0.000000 1.623160 0.000000 
#    z -0.020240 0.000000 1.667220 
# 
# From -- ./inp_files/346000.got.cif
#   From: 2010.05.17/outbox.ucp.g08.bks.cvg/sg12_173_cif.got.tgz:346000.got - 2010.06.11 11:47:21.
