data_PCOD9223548
_publ_section_title
;
Structure prediction by ZEFSAII (Michael W. Deem and Ramdas Pophale) SiO2 
 PCOD9223548
Probable space group: C 2/M
;
_chemical_formula_sum "Si O2"
_cell_formula_units_Z 20
_cell_length_a 27.000000
_cell_length_b 9.000000
_cell_length_c 27.000000
_cell_angle_alpha 90.000000
_cell_angle_beta 20.000000
_cell_angle_gamma 90.000000
_cell_volume 2243.994160
_symmetry_space_group_name_H-M "C 2/M"
_symmetry_group_IT_number 12
_symmetry_cell_setting 'monoclinic'
loop_
_space_group_symop_operation_xyz
x,y,z
-x,y,-z
-x,-y,-z
x,-y,z
1/2+x,1/2+y,z
1/2-x,1/2+y,-z
1/2-x,1/2-y,-z
1/2+x,1/2-y,z
loop_
_atom_site_type_symbol
_atom_site_label
_atom_site_fract_x
_atom_site_fract_y
_atom_site_fract_z
Si Si1 0.699992 0.322414 0.765963
Si Si2 0.760134 0.176796 0.158317
Si Si3 0.717872 0.178227 0.584084
Si Si4 0.994056 0.322266 0.877129
Si Si5 0.081504 0.674544 0.522729
O O1 0.670653 0.500000 0.793028
O O2 0.693913 0.274567 0.828983
O O3 0.591597 0.240409 0.830668
O O4 0.852753 0.299281 0.593972
O O5 0.588689 0.199552 0.316834
O O6 0.789568 0.000000 0.127536
O O7 0.839644 0.256766 0.038154
O O8 0.750000 0.250000 0.500000
O O9 0.569151 0.221076 0.753998
O O10 0.838545 0.229519 0.510595
O O11 0.717996 0.000000 0.578443
O O12 0.991928 0.500000 0.880472
O O13 0.110045 0.500000 0.506934
#
# Coordination Sequence:
#
# PCOD9223548 Si02
#       5
#     8   8   8   8   8
#     4   9  17  31  51  74 103 140 176 205 237 285
#     4  10  19  31  50  77 107 138 170 203 242 291
#     4  10  21  38  58  76  95 125 167 211 256 305
#     4  10  21  34  49  74 105 134 167 207 250 297
#     4   9  18  33  53  77 104 133 168 209 249 290
#
# _framework density 8.9126790000000007
#
# number of rings (size 3 to 8) (size 9 to 14) (size 15 to 20)
#    0.000    2.400    0.000    2.400    0.000    8.800 
#    0.000    1.000    0.000    6.000    0.000    0.000 
#    0.000    0.000    0.000    0.000    0.000    0.000 
#
# Total GULP energy -111461.852283 kJ/mol
# GULP energy per Si atom -5573.092614 kJ/mol
# Density = 0.889239 g / cm^3
# Si number density = 8.912679 Si / 1000 Ang^3
#
#
#
# Elastic Constant Matrix: (Units=GPa)
#
#
# Indices 1 2 3 4 5 6 
#
# 1 69.5969 21.2674 27.9466 0.0021 33.9760 -0.0005
# 2 21.2674 38.1758 36.3074 0.0031 15.6594 0.0000
# 3 27.9466 36.3074 113.5829 0.0034 33.9751 -0.0002
# 4 0.0021 0.0031 0.0034 27.0841 -0.0007 11.2103
# 5 33.9760 15.6594 33.9751 -0.0007 32.1858 -0.0003
# 6 -0.0005 0.0000 -0.0002 11.2103 -0.0003 17.0690
#
#
#
# Elastic Compliance Matrix: (Units=1/GPa)
#
#
# Indices 1 2 3 4 5 6 
#
# 1 0.032115 -0.008495 0.005434 -0.000005 -0.035504 0.000003
# 2 -0.008495 0.041426 -0.011407 -0.000003 0.000854 0.000002
# 3 0.005434 -0.011407 0.016323 -0.000002 -0.017417 0.000002
# 4 -0.000005 -0.000003 -0.000002 0.050706 0.000010 -0.033302
# 5 -0.035504 0.000854 -0.017417 0.000010 0.086517 -0.000006
# 6 0.000003 0.000002 0.000002 -0.033302 -0.000006 0.080457
#
#
# Mechanical properties :
#
#
# Convention : Reuss Voigt Hill
#
# Bulk Modulus (GPa) = 16.41331 43.59983 30.00657
# Shear Modulus (GPa) = 14.01379 24.32338 19.16859
#
# Velocity S-wave (km/s) = 2.80692 3.69797 3.28282
# Velocity P-wave (km/s) = 4.44217 6.53803 5.58922
#
# Compressibility (1/GPa) = 0.06092617
#
# Stress axis : x y z
#
# Youngs Moduli (GPa) = 31.13827 24.13952 61.26195
#
# Poissons Ratio (x) = 0.20508 -0.33289
# Poissons Ratio (y) = 0.26453 0.69883
# Poissons Ratio (z) = -0.16920 0.27537
#
# Static dielectric constant tensor:
#      x y z
#    x 1.572660 0.000000 -0.009580 
#    y 0.000000 1.602680 0.000000 
#    z -0.009580 0.000000 1.683620 
# 
# From -- ./inp_files/92751.got.cif
#   From: 2010.05.17/outbox.ucp.g08.bks.cvg/sg12_47_cif.got.tgz:92751.got - 2010.06.11 11:47:21.
