data_PCOD9223136
_publ_section_title
;
Structure prediction by ZEFSAII (Michael W. Deem and Ramdas Pophale) SiO2 
 PCOD9223136
Probable space group: C 2/M
;
_chemical_formula_sum "Si O2"
_cell_formula_units_Z 56
_cell_length_a 16.249600
_cell_length_b 14.293856
_cell_length_c 12.176671
_cell_angle_alpha 90.000000
_cell_angle_beta 93.193307
_cell_angle_gamma 90.000000
_cell_volume 2823.877070
_symmetry_space_group_name_H-M "C 2/M"
_symmetry_group_IT_number 12
_symmetry_cell_setting 'monoclinic'
loop_
_space_group_symop_operation_xyz
x,y,z
-x,y,-z
-x,-y,-z
x,-y,z
1/2+x,1/2+y,z
1/2-x,1/2+y,-z
1/2-x,1/2-y,-z
1/2+x,1/2-y,z
loop_
_atom_site_type_symbol
_atom_site_label
_atom_site_fract_x
_atom_site_fract_y
_atom_site_fract_z
Si Si1 0.091081 0.606140 0.545170
Si Si2 0.128269 0.894544 0.248606
Si Si3 0.125432 0.715418 0.943882
Si Si4 0.540974 0.214749 0.177444
Si Si5 0.288286 0.604158 0.985688
Si Si6 0.733434 0.221272 0.624582
Si Si7 0.674093 0.103439 0.313632
O O1 0.084388 0.500000 0.590437
O O2 0.142258 0.677971 0.623719
O O3 0.145513 0.599833 0.438281
O O4 0.000000 0.636545 0.500000
O O5 0.059469 0.813472 0.239059
O O6 0.165323 0.897063 0.128150
O O7 0.201195 0.857276 0.332372
O O8 0.101920 0.000000 0.275247
O O9 0.195918 0.637769 0.953532
O O10 0.054810 0.698598 0.850115
O O11 0.082192 0.718286 0.059900
O O12 0.169699 0.816147 0.937263
O O13 0.591921 0.135674 0.244216
O O14 0.291188 0.500000 0.032278
O O15 0.750000 0.250000 0.500000
O O16 0.758543 0.314303 0.694169
O O17 0.701156 0.000000 0.282192
#
# Coordination Sequence:
#
# PCOD9223136 Si02
#       7
#     8   8   8   8   8   8   8
#     4   9  17  29  47  71  94 115 144 186 234 277
#     4   9  17  30  49  72  93 115 150 193 234 272
#     4   9  18  32  47  66  93 123 157 190 226 273
#     4   9  18  31  47  67  92 122 154 192 229 266
#     4   9  18  31  47  68  94 123 153 189 231 272
#     4   9  17  30  47  67  92 121 148 179 225 276
#     4   9  18  31  46  66  91 120 154 187 223 271
#
# _framework density 19.830891999999999
#
# number of rings (size 3 to 8) (size 9 to 14) (size 15 to 20)
#    0.000    3.000    0.000    0.429    0.000    3.429 
#    0.000    7.143    0.000    0.429    0.000   12.000 
#    0.000    0.000    0.000    0.000    0.000    0.000 
#
# Total GULP energy -156071.459242 kJ/mol
# GULP energy per Si atom -5573.980687 kJ/mol
# Density = 1.978576 g / cm^3
# Si number density = 19.830892 Si / 1000 Ang^3
#
#
#
# Elastic Constant Matrix: (Units=GPa)
#
#
# Indices 1 2 3 4 5 6 
#
# 1 62.5085 18.5766 8.2807 0.0000 26.2869 0.0000
# 2 18.5766 95.8429 12.7117 0.0000 16.4725 0.0000
# 3 8.2807 12.7117 47.4316 0.0000 11.6439 0.0000
# 4 0.0000 0.0000 0.0000 8.8682 0.0000 -4.0623
# 5 26.2869 16.4725 11.6439 0.0000 36.8968 0.0000
# 6 0.0000 0.0000 0.0000 -4.0623 0.0000 10.9171
#
#
#
# Elastic Compliance Matrix: (Units=1/GPa)
#
#
# Indices 1 2 3 4 5 6 
#
# 1 0.023125 -0.001815 0.000320 0.000000 -0.015766 0.000000
# 2 -0.001815 0.011610 -0.001994 0.000000 -0.003261 0.000000
# 3 0.000320 -0.001994 0.023196 0.000000 -0.006658 0.000000
# 4 0.000000 0.000000 0.000000 0.135931 0.000000 0.050580
# 5 -0.015766 -0.003261 -0.006658 0.000000 0.041892 0.000000
# 6 0.000000 0.000000 0.000000 0.050580 0.000000 0.110420
#
#
# Mechanical properties :
#
#
# Convention : Reuss Voigt Hill
#
# Bulk Modulus (GPa) = 19.62622 31.65787 25.64205
# Shear Modulus (GPa) = 13.50852 22.41738 17.96295
#
# Velocity S-wave (km/s) = 2.61278 3.36583 3.01293
# Velocity P-wave (km/s) = 4.36125 5.57707 5.00620
#
# Compressibility (1/GPa) = 0.05095225
#
# Stress axis : x y z
#
# Youngs Moduli (GPa) = 43.24354 86.12902 43.11087
#
# Poissons Ratio (x) = 0.15631 -0.01377
# Poissons Ratio (y) = 0.07848 0.08597
# Poissons Ratio (z) = -0.01382 0.17176
#
# Static dielectric constant tensor:
#      x y z
#    x 1.698360 0.000000 -0.017250 
#    y 0.000000 1.717650 0.000000 
#    z -0.017250 0.000000 1.731170 
# 
# From -- ./inp_files/223373.got.cif
#   From: 2010.05.17/outbox.cif.g08.bks.cpg/sg12_112_cif.got.tgz:223373.got - 2010.06.03 13:09:07.
