data_PCOD9223091
_publ_section_title
;
Structure prediction by ZEFSAII (Michael W. Deem and Ramdas Pophale) SiO2 
 PCOD9223091
Probable space group: C 2/M
;
_chemical_formula_sum "Si O2"
_cell_formula_units_Z 48
_cell_length_a 25.274939
_cell_length_b 7.578429
_cell_length_c 16.014948
_cell_angle_alpha 90.000000
_cell_angle_beta 105.252945
_cell_angle_gamma 90.000000
_cell_volume 2959.513582
_symmetry_space_group_name_H-M "C 2/M"
_symmetry_group_IT_number 12
_symmetry_cell_setting 'monoclinic'
loop_
_space_group_symop_operation_xyz
x,y,z
-x,y,-z
-x,-y,-z
x,-y,z
1/2+x,1/2+y,z
1/2-x,1/2+y,-z
1/2-x,1/2-y,-z
1/2+x,1/2-y,z
loop_
_atom_site_type_symbol
_atom_site_label
_atom_site_fract_x
_atom_site_fract_y
_atom_site_fract_z
Si Si1 0.409803 0.500000 0.938650
Si Si2 0.478642 0.500000 0.125853
Si Si3 0.830745 0.712437 0.486050
Si Si4 0.026450 0.706261 0.254952
Si Si5 0.954022 0.284561 0.545646
Si Si6 0.137182 0.293094 0.191207
Si Si7 0.220499 0.710033 0.360747
O O1 0.466844 0.500000 0.909843
O O2 0.377300 0.671514 0.893148
O O3 0.427402 0.500000 0.042214
O O4 0.485021 0.328806 0.186713
O O5 0.832374 0.500000 0.491839
O O6 0.892525 0.774503 0.497518
O O7 0.808258 0.779748 0.566398
O O8 0.784899 0.757781 0.398784
O O9 0.010886 0.500000 0.246209
O O10 0.032764 0.763939 0.353424
O O11 0.085811 0.720437 0.234427
O O12 0.953725 0.500000 0.543917
O O13 0.000000 0.224230 0.500000
O O14 0.142796 0.500000 0.171547
O O15 0.189850 0.227091 0.265213
O O16 0.211328 0.500000 0.356979
#
# Coordination Sequence:
#
# PCOD9223091 Si02
#       7
#     4   4   8   8   8   8   8
#     4   9  18  28  42  64  88 114 147 182 228 269
#     4   9  18  30  41  64  88 112 151 188 216 274
#     4   9  16  26  40  60  83 114 153 181 212 257
#     4   9  16  29  45  60  85 121 151 181 220 262
#     4   9  16  28  45  63  87 121 156 187 217 258
#     4   9  16  27  43  61  88 119 147 178 219 272
#     4   9  16  26  38  59  87 115 148 180 213 261
#
# _framework density 16.218882000000001
#
# number of rings (size 3 to 8) (size 9 to 14) (size 15 to 20)
#    0.000    3.000    1.667    0.000    1.167    0.667 
#    1.500    3.750    0.000    0.000    0.000    0.000 
#    0.000    1.333    0.667    0.000    0.000    0.000 
#
# Total GULP energy -133694.363658 kJ/mol
# GULP energy per Si atom -5570.598486 kJ/mol
# Density = 1.618197 g / cm^3
# Si number density = 16.218882 Si / 1000 Ang^3
#
#
#
# Elastic Constant Matrix: (Units=GPa)
#
#
# Indices 1 2 3 4 5 6 
#
# 1 72.5402 18.9146 54.7265 0.0000 20.8739 0.0000
# 2 18.9146 63.3148 47.3862 0.0000 14.9040 0.0000
# 3 54.7265 47.3862 127.2094 0.0000 42.5184 0.0000
# 4 0.0000 0.0000 0.0000 21.2107 0.0000 6.5580
# 5 20.8739 14.9040 42.5184 0.0000 26.1706 0.0000
# 6 0.0000 0.0000 0.0000 6.5580 0.0000 8.4916
#
#
#
# Elastic Compliance Matrix: (Units=1/GPa)
#
#
# Indices 1 2 3 4 5 6 
#
# 1 0.020660 0.000575 -0.007626 0.000000 -0.004416 0.000000
# 2 0.000575 0.021951 -0.008956 0.000000 0.001591 0.000000
# 3 -0.007626 -0.008956 0.023503 0.000000 -0.027001 0.000000
# 4 0.000000 0.000000 0.000000 0.061935 0.000000 -0.047832
# 5 -0.004416 0.001591 -0.027001 0.000000 0.084695 0.000000
# 6 0.000000 0.000000 0.000000 -0.047832 0.000000 0.154703
#
#
# Mechanical properties :
#
#
# Convention : Reuss Voigt Hill
#
# Bulk Modulus (GPa) = 29.32606 56.12435 42.72520
# Shear Modulus (GPa) = 12.17056 20.64370 16.40713
#
# Velocity S-wave (km/s) = 2.74230 3.57153 3.18403
# Velocity P-wave (km/s) = 5.30544 7.18938 6.31802
#
# Compressibility (1/GPa) = 0.03409937
#
# Stress axis : x y z
#
# Youngs Moduli (GPa) = 48.40350 45.55690 42.54767
#
# Poissons Ratio (x) = -0.02621 0.32448
# Poissons Ratio (y) = -0.02785 0.38105
# Poissons Ratio (z) = 0.36914 0.40800
#
# Static dielectric constant tensor:
#      x y z
#    x 1.528740 0.000000 0.023300 
#    y 0.000000 1.594110 0.000000 
#    z 0.023300 0.000000 1.535990 
# 
# From -- ./inp_files/236881.got.cif
#   From: 2010.05.17/outbox.cif.g08.bks.cpg/sg12_119_cif.got.tgz:236881.got - 2010.06.03 13:09:07.
