data_PCOD9223554
_publ_section_title
;
Structure prediction by ZEFSAII (Michael W. Deem and Ramdas Pophale) SiO2 
 PCOD9223554
Probable space group: C 2/M
;
_chemical_formula_sum "Si O2"
_cell_formula_units_Z 28
_cell_length_a 9.000000
_cell_length_b 30.000000
_cell_length_c 12.000000
_cell_angle_alpha 90.000000
_cell_angle_beta 110.000000
_cell_angle_gamma 90.000000
_cell_volume 3044.604091
_symmetry_space_group_name_H-M "C 2/M"
_symmetry_group_IT_number 12
_symmetry_cell_setting 'monoclinic'
loop_
_space_group_symop_operation_xyz
x,y,z
-x,y,-z
-x,-y,-z
x,-y,z
1/2+x,1/2+y,z
1/2-x,1/2+y,-z
1/2-x,1/2-y,-z
1/2+x,1/2-y,z
loop_
_atom_site_type_symbol
_atom_site_label
_atom_site_fract_x
_atom_site_fract_y
_atom_site_fract_z
Si Si1 0.237411 0.550270 0.397755
Si Si2 0.989890 0.782103 0.862272
Si Si3 0.697528 0.550152 0.336180
Si Si4 0.032670 0.620918 0.632041
Si Si5 0.348794 0.806847 0.181631
Si Si6 0.847429 0.864605 0.040142
Si Si7 0.850540 0.950063 0.174506
O O1 0.171153 0.500000 0.384729
O O2 0.335639 0.554207 0.538695
O O3 0.313155 0.554841 0.295978
O O4 0.104564 0.587061 0.372328
O O5 0.807160 0.791043 0.791306
O O6 0.063036 0.737160 0.835595
O O7 0.087914 0.826717 0.858355
O O8 0.000000 0.778551 0.000000
O O9 0.766241 0.500000 0.339689
O O10 0.811149 0.590112 0.330892
O O11 0.540547 0.552209 0.222898
O O12 0.045030 0.661675 0.717189
O O13 0.000000 0.637671 0.500000
O O14 0.282846 0.838501 0.065645
O O15 0.789970 0.909265 0.084982
O O16 0.000000 0.874891 0.000000
O O17 0.799991 0.000000 0.126386
#
# Coordination Sequence:
#
# PCOD9223554 Si02
#       7
#     8   8   8   8   8   8   8
#     4   9  18  31  48  73 103 136 175 211 239 282
#     4   9  18  34  55  75  95 123 167 208 242 292
#     4   9  16  30  52  73  99 139 178 206 236 283
#     4  10  20  34  52  74 101 133 168 205 251 303
#     4  10  20  35  54  75  97 125 165 211 252 296
#     4   9  18  33  52  75 102 133 168 204 243 295
#     4  10  19  31  50  79 109 133 163 206 252 292
#
# _framework density 9.1965979999999998
#
# number of rings (size 3 to 8) (size 9 to 14) (size 15 to 20)
#    0.000    2.857    0.000    4.286    0.000    6.000 
#    0.000    2.143    0.000    3.429    0.000    0.000 
#    0.000    0.000    0.000    0.000    0.000    0.000 
#
# Total GULP energy -155901.150100 kJ/mol
# GULP energy per Si atom -5567.898218 kJ/mol
# Density = 0.917567 g / cm^3
# Si number density = 9.196598 Si / 1000 Ang^3
#
#
#
# Elastic Constant Matrix: (Units=GPa)
#
#
# Indices 1 2 3 4 5 6 
#
# 1 16.5326 28.1176 16.9903 0.0000 4.2053 0.0000
# 2 28.1176 137.1391 49.9529 0.0000 -7.7182 0.0000
# 3 16.9903 49.9529 25.0373 0.0000 4.5022 0.0000
# 4 0.0000 0.0000 0.0000 29.4303 0.0000 -14.0431
# 5 4.2053 -7.7182 4.5022 0.0000 11.3920 0.0000
# 6 0.0000 0.0000 0.0000 -14.0431 0.0000 13.2682
#
#
#
# Elastic Compliance Matrix: (Units=1/GPa)
#
#
# Indices 1 2 3 4 5 6 
#
# 1 0.288690 0.102947 -0.424870 0.000000 0.131091 0.000000
# 2 0.102947 0.126640 -0.356450 0.000000 0.188670 0.000000
# 3 -0.424870 -0.356450 1.135331 0.000000 -0.533352 0.000000
# 4 0.000000 0.000000 0.000000 0.068648 0.000000 0.072657
# 5 0.131091 0.188670 -0.533352 0.000000 0.378000 0.000000
# 6 0.000000 0.000000 0.000000 0.072657 0.000000 0.152269
#
#
# Mechanical properties :
#
#
# Convention : Reuss Voigt Hill
#
# Bulk Modulus (GPa) = 5.15693 40.98117 23.06905
# Shear Modulus (GPa) = 1.40018 16.39465 8.89742
#
# Velocity S-wave (km/s) = 0.87344 2.98878 2.20178
# Velocity P-wave (km/s) = 1.95627 5.85144 4.36270
#
# Compressibility (1/GPa) = 0.19391388
#
# Stress axis : x y z
#
# Youngs Moduli (GPa) = 3.46393 7.89641 0.88080
#
# Poissons Ratio (x) = -0.81291 0.37423
# Poissons Ratio (y) = -0.35660 0.31396
# Poissons Ratio (z) = 1.47172 2.81468
#
# Static dielectric constant tensor:
#      x y z
#    x 1.675880 0.000000 0.008780 
#    y 0.000000 1.621520 0.000000 
#    z 0.008780 0.000000 1.643060 
# 
# From -- ./inp_files/125339.got.cif
#   From: 2010.05.17/outbox.ucp.g08.bks.cvg/sg12_63_cif.got.tgz:125339.got - 2010.06.11 11:47:21.
