data_PCOD9223893
_publ_section_title
;
Structure prediction by ZEFSAII (Michael W. Deem and Ramdas Pophale) SiO2 
 PCOD9223893
Probable space group: C 2/M
;
_chemical_formula_sum "Si O2"
_cell_formula_units_Z 32
_cell_length_a 30.000000
_cell_length_b 9.000000
_cell_length_c 15.000000
_cell_angle_alpha 90.000000
_cell_angle_beta 50.000000
_cell_angle_gamma 90.000000
_cell_volume 3102.479995
_symmetry_space_group_name_H-M "C 2/M"
_symmetry_group_IT_number 12
_symmetry_cell_setting 'monoclinic'
loop_
_space_group_symop_operation_xyz
x,y,z
-x,y,-z
-x,-y,-z
x,-y,z
1/2+x,1/2+y,z
1/2-x,1/2+y,-z
1/2-x,1/2-y,-z
1/2+x,1/2-y,z
loop_
_atom_site_type_symbol
_atom_site_label
_atom_site_fract_x
_atom_site_fract_y
_atom_site_fract_z
Si Si1 0.724129 0.179755 0.446119
Si Si2 0.593844 0.664146 0.247081
Si Si3 0.977973 0.322061 0.803367
Si Si4 0.181871 0.821125 0.819947
Si Si5 0.596149 0.173511 0.605335
Si Si6 0.435151 0.828357 0.560486
Si Si7 0.063868 0.321621 0.954104
Si Si8 0.209250 0.167019 0.982872
O O1 0.750000 0.250000 0.500000
O O2 0.763022 0.216591 0.311280
O O3 0.659027 0.240919 0.526508
O O4 0.723409 0.000000 0.451517
O O5 0.569410 0.500000 0.289663
O O6 0.548665 0.766421 0.253432
O O7 0.608128 0.733155 0.324066
O O8 0.648621 0.657891 0.112590
O O9 0.981016 0.500000 0.796750
O O10 0.939684 0.281884 0.936684
O O11 0.043454 0.262427 0.730148
O O12 0.174146 0.000000 0.834462
O O13 0.123990 0.753403 0.848935
O O14 0.196279 0.767289 0.901885
O O15 0.576345 0.177848 0.528559
O O16 0.601801 0.000000 0.624614
O O17 0.500000 0.774938 0.500000
O O18 0.430967 0.000000 0.593886
O O19 0.068160 0.500000 0.936194
O O20 0.000000 0.278134 0.000000
O O21 0.232760 0.000000 0.938456
O O22 0.250000 0.250000 0.000000
#
# Coordination Sequence:
#
# PCOD9223893 Si02
#       8
#     8   8   8   8   8   8   8   8
#     4  10  23  42  64  86 114 156 201 246 294 342
#     4  11  22  36  54  82 120 153 185 235 296 344
#     4  10  19  36  59  84 114 149 193 239 288 347
#     4  10  22  42  62  87 123 159 196 239 298 364
#     4   9  19  36  59  84 111 150 197 241 282 339
#     4  10  19  34  57  83 111 149 195 231 275 343
#     4  10  22  37  61  93 116 146 193 245 295 342
#     4  10  23  40  59  84 117 157 199 241 290 351
#
# _framework density 10.314329000000001
#
# number of rings (size 3 to 8) (size 9 to 14) (size 15 to 20)
#    0.000    2.000    2.500    0.375    3.500    2.500 
#    0.000    1.250    0.000    0.000    0.000    0.000 
#    0.000    0.000    0.000    0.000    0.000    0.000 
#
# Total GULP energy -178248.127908 kJ/mol
# GULP energy per Si atom -5570.253997 kJ/mol
# Density = 1.029085 g / cm^3
# Si number density = 10.314329 Si / 1000 Ang^3
#
#
#
# Elastic Constant Matrix: (Units=GPa)
#
#
# Indices 1 2 3 4 5 6 
#
# 1 83.1255 11.9684 5.7940 0.0000 -24.8677 0.0000
# 2 11.9684 -18.7447 17.9310 0.0000 4.5729 0.0000
# 3 5.7940 17.9310 58.1134 0.0000 -11.6353 0.0000
# 4 0.0000 0.0000 0.0000 17.9276 0.0000 3.6325
# 5 -24.8677 4.5729 -11.6353 0.0000 22.1813 0.0000
# 6 0.0000 0.0000 0.0000 3.6325 0.0000 12.4122
#
#
#
# Elastic Compliance Matrix: (Units=1/GPa)
#
#
# Indices 1 2 3 4 5 6 
#
# 1 0.014576 0.010512 -0.002077 0.000000 0.013084 0.000000
# 2 0.010512 -0.028607 0.012647 0.000000 0.024316 0.000000
# 3 -0.002077 0.012647 0.013994 0.000000 0.002405 0.000000
# 4 0.000000 0.000000 0.000000 0.059296 0.000000 -0.017354
# 5 0.013084 0.024316 0.002405 0.000000 0.056000 0.000000
# 6 0.000000 0.000000 0.000000 -0.017354 0.000000 0.085645
#
#
# Mechanical properties :
#
#
# Convention : Reuss Voigt Hill
#
# Bulk Modulus (GPa) = 23.73784 21.54232 22.64008
# Shear Modulus (GPa) = 28.93809 16.29094 22.61451
#
# Velocity S-wave (km/s) = 3.74947 2.81325 3.31458
# Velocity P-wave (km/s) = 5.50245 4.58455 5.06434
#
# Compressibility (1/GPa) = 0.04212683
#
# Stress axis : x y z
#
# Youngs Moduli (GPa) = 68.60796 -34.95708 71.45920
#
# Poissons Ratio (x) = 0.36746 0.14841
# Poissons Ratio (y) = -0.72119 -0.90375
# Poissons Ratio (z) = 0.14249 0.44211
#
# Static dielectric constant tensor:
#      x y z
#    x 1.652830 0.000000 0.148760 
#    y 0.000000 1.750140 0.000000 
#    z 0.148760 0.000000 1.482200 
# 
# From -- ./inp_files/249840.got.cif
#   From: 2010.05.17/outbox.ucp.g08.bks.cvg/sg12_125_cif.got.tgz:249840.got - 2010.06.11 11:47:21.
