data_PCOD9223486
_publ_section_title
;
Structure prediction by ZEFSAII (Michael W. Deem and Ramdas Pophale) SiO2 
 PCOD9223486
Probable space group: C 2/M
;
_chemical_formula_sum "Si O2"
_cell_formula_units_Z 24
_cell_length_a 21.000000
_cell_length_b 12.000000
_cell_length_c 21.000000
_cell_angle_alpha 90.000000
_cell_angle_beta 150.000000
_cell_angle_gamma 90.000000
_cell_volume 2646.000000
_symmetry_space_group_name_H-M "C 2/M"
_symmetry_group_IT_number 12
_symmetry_cell_setting 'monoclinic'
loop_
_space_group_symop_operation_xyz
x,y,z
-x,y,-z
-x,-y,-z
x,-y,z
1/2+x,1/2+y,z
1/2-x,1/2+y,-z
1/2-x,1/2-y,-z
1/2+x,1/2-y,z
loop_
_atom_site_type_symbol
_atom_site_label
_atom_site_fract_x
_atom_site_fract_y
_atom_site_fract_z
Si Si1 0.834967 0.704042 0.666982
Si Si2 0.667666 0.297716 0.834314
Si Si3 0.900907 0.873923 0.821885
Si Si4 0.179389 0.126236 0.101221
Si Si5 0.605463 0.622415 0.394151
Si Si6 0.607955 0.120391 0.892545
O O1 0.821434 0.784800 0.714868
O O2 0.709021 0.638810 0.538988
O O3 0.866459 0.785682 0.634963
O O4 0.962026 0.632374 0.787500
O O5 0.714475 0.216427 0.819797
O O6 0.539236 0.362681 0.708651
O O7 0.635728 0.216274 0.865828
O O8 0.788444 0.368531 0.961994
O O9 0.865292 0.870559 0.864865
O O10 0.880454 0.000000 0.781472
O O11 0.053010 0.850816 0.949128
O O12 0.220134 0.000000 0.122700
O O13 0.620758 0.500000 0.379138
O O14 0.624911 0.000000 0.876378
#
# Coordination Sequence:
#
# PCOD9223486 Si02
#       6
#     8   8   8   8   8   8
#     4  10  19  34  53  75 101 132 170 206 245 298
#     4  10  19  32  49  75 103 131 164 206 254 297
#     4   9  17  31  54  79 101 129 164 207 255 298
#     4   9  17  31  53  79 104 128 161 208 256 299
#     4  10  21  34  51  74 104 138 166 202 252 299
#     4  10  19  30  49  74 100 131 167 207 248 293
#
# _framework density 9.0702949999999998
#
# number of rings (size 3 to 8) (size 9 to 14) (size 15 to 20)
#    0.000    2.333    1.667    3.000    0.000    0.000 
#    0.000    3.333    0.000    8.000    0.000    0.000 
#    0.000    0.000    0.000    0.000    0.000    0.000 
#
# Total GULP energy -133604.073488 kJ/mol
# GULP energy per Si atom -5566.836395 kJ/mol
# Density = 0.904965 g / cm^3
# Si number density = 9.070295 Si / 1000 Ang^3
#
#
#
# Elastic Constant Matrix: (Units=GPa)
#
#
# Indices 1 2 3 4 5 6 
#
# 1 33.5928 15.3271 29.9113 0.0000 3.7107 0.0000
# 2 15.3271 67.1053 46.2784 0.0000 8.7370 0.0000
# 3 29.9113 46.2784 117.3598 0.0001 18.9805 0.0000
# 4 0.0000 0.0000 0.0001 7.6060 0.0000 -4.8916
# 5 3.7107 8.7370 18.9805 0.0000 14.6154 0.0000
# 6 0.0000 0.0000 0.0000 -4.8916 0.0000 34.5780
#
#
#
# Elastic Compliance Matrix: (Units=1/GPa)
#
#
# Indices 1 2 3 4 5 6 
#
# 1 0.039085 -0.002932 -0.009474 0.000000 0.004133 0.000000
# 2 -0.002932 0.020745 -0.007023 0.000000 -0.002536 0.000000
# 3 -0.009474 -0.007023 0.015997 0.000000 -0.014171 0.000000
# 4 0.000000 0.000000 0.000000 0.144633 0.000000 0.020461
# 5 0.004133 -0.002536 -0.014171 0.000000 0.087291 0.000000
# 6 0.000000 0.000000 0.000000 0.020461 0.000000 0.031815
#
#
# Mechanical properties :
#
#
# Convention : Reuss Voigt Hill
#
# Bulk Modulus (GPa) = 27.04922 44.56574 35.80748
# Shear Modulus (GPa) = 12.79604 19.79594 16.29599
#
# Velocity S-wave (km/s) = 2.65878 3.30699 3.00044
# Velocity P-wave (km/s) = 4.93647 6.26113 5.63784
#
# Compressibility (1/GPa) = 0.03696964
#
# Stress axis : x y z
#
# Youngs Moduli (GPa) = 25.58524 48.20403 62.51336
#
# Poissons Ratio (x) = 0.14132 0.59224
# Poissons Ratio (y) = 0.07501 0.43903
# Poissons Ratio (z) = 0.24239 0.33854
#
# Static dielectric constant tensor:
#      x y z
#    x 1.612540 0.000000 0.011310 
#    y 0.000000 1.649970 0.000000 
#    z 0.011310 0.000000 1.647300 
# 
# From -- ./inp_files/94524.got.cif
#   From: 2010.05.17/outbox.ucp.g08.bks.cvg/sg12_48_cif.got.tgz:94524.got - 2010.06.11 11:47:21.
