data_PCOD9223003
_publ_section_title
;
Structure prediction by ZEFSAII (Michael W. Deem and Ramdas Pophale) SiO2 
 PCOD9223003
Probable space group: C 2/M
;
_chemical_formula_sum "Si O2"
_cell_formula_units_Z 36
_cell_length_a 11.979249
_cell_length_b 14.475136
_cell_length_c 15.509617
_cell_angle_alpha 90.000000
_cell_angle_beta 142.796883
_cell_angle_gamma 90.000000
_cell_volume 1626.117600
_symmetry_space_group_name_H-M "C 2/M"
_symmetry_group_IT_number 12
_symmetry_cell_setting 'monoclinic'
loop_
_space_group_symop_operation_xyz
x,y,z
-x,y,-z
-x,-y,-z
x,-y,z
1/2+x,1/2+y,z
1/2-x,1/2+y,-z
1/2-x,1/2-y,-z
1/2+x,1/2-y,z
loop_
_atom_site_type_symbol
_atom_site_label
_atom_site_fract_x
_atom_site_fract_y
_atom_site_fract_z
Si Si1 0.797401 0.603646 0.801856
Si Si2 0.651038 0.110444 0.911879
Si Si3 0.000000 0.178340 0.500000
Si Si4 0.447537 0.604614 0.866207
Si Si5 0.614252 0.780595 0.719027
O O1 0.776907 0.500000 0.823580
O O2 0.668888 0.616388 0.637202
O O3 0.719061 0.686542 0.809983
O O4 0.004712 0.620438 0.898084
O O5 0.575799 0.159317 0.778945
O O6 0.664863 0.000000 0.903117
O O7 0.862348 0.141895 0.056981
O O8 0.040683 0.243544 0.442115
O O9 0.411256 0.500000 0.813564
O O10 0.264816 0.665796 0.751946
O O11 0.500000 0.600891 0.000000
#
# Coordination Sequence:
#
# PCOD9223003 Si02
#       5
#     8   8   4   8   8
#     4   9  18  32  49  68  90 123 161 188 221 270
#     4   9  17  31  52  72  88 119 159 188 224 275
#     4   8  19  30  45  68  94 124 153 188 225 272
#     4   8  14  27  47  69  92 118 150 187 228 272
#     4   9  17  29  47  70  97 118 150 193 229 264
#
# _framework density 22.138621000000001
#
# number of rings (size 3 to 8) (size 9 to 14) (size 15 to 20)
#    1.333    2.000    0.000    2.333    0.000    1.778 
#    0.000    2.222    0.000    8.667    0.000    0.000 
#    0.000    0.000    0.000    0.000    0.000    0.000 
#
# Total GULP energy -100271.569474 kJ/mol
# GULP energy per Si atom -5570.642749 kJ/mol
# Density = 2.208823 g / cm^3
# Si number density = 22.138621 Si / 1000 Ang^3
#
#
#
# Elastic Constant Matrix: (Units=GPa)
#
#
# Indices 1 2 3 4 5 6 
#
# 1 63.1545 14.0853 -5.9211 0.0009 -12.6332 0.0005
# 2 14.0853 62.6193 21.0329 0.0010 -16.2439 0.0006
# 3 -5.9211 21.0329 62.6692 0.0017 -2.5322 0.0013
# 4 0.0009 0.0010 0.0017 30.7030 0.0012 -0.1809
# 5 -12.6332 -16.2439 -2.5322 0.0012 18.8972 0.0008
# 6 0.0005 0.0006 0.0013 -0.1809 0.0008 20.6060
#
#
#
# Elastic Compliance Matrix: (Units=1/GPa)
#
#
# Indices 1 2 3 4 5 6 
#
# 1 0.018844 -0.002426 0.003036 -0.000001 0.010919 -0.000001
# 2 -0.002426 0.023594 -0.007434 -0.000001 0.017664 -0.000001
# 3 0.003036 -0.007434 0.018664 -0.000001 -0.001860 -0.000001
# 4 -0.000001 -0.000001 -0.000001 0.032572 -0.000004 0.000286
# 5 0.010919 0.017664 -0.001860 -0.000004 0.075152 -0.000004
# 6 -0.000001 -0.000001 -0.000001 0.000286 -0.000004 0.048532
#
#
# Mechanical properties :
#
#
# Convention : Reuss Voigt Hill
#
# Bulk Modulus (GPa) = 21.07334 27.42638 24.24986
# Shear Modulus (GPa) = 20.25736 24.65763 22.45749
#
# Velocity S-wave (km/s) = 3.02822 3.34096 3.18843
# Velocity P-wave (km/s) = 4.66543 5.22475 4.95300
#
# Compressibility (1/GPa) = 0.04745332
#
# Stress axis : x y z
#
# Youngs Moduli (GPa) = 53.06706 42.38314 53.58047
#
# Poissons Ratio (x) = 0.10282 -0.16266
# Poissons Ratio (y) = 0.12873 0.39833
# Poissons Ratio (z) = -0.16110 0.31508
#
# Static dielectric constant tensor:
#      x y z
#    x 1.849350 0.000000 -0.010790 
#    y 0.000000 1.827700 0.000000 
#    z -0.010790 0.000000 1.845570 
# 
# From -- ./inp_files/269647.got.cif
#   From: 2010.05.17/outbox.cif.g08.bks.cpg/sg12_135_cif.got.tgz:269647.got - 2010.06.03 13:09:07.
