data_PCOD9223360
_publ_section_title
;
Structure prediction by ZEFSAII (Michael W. Deem and Ramdas Pophale) SiO2 
 PCOD9223360
Probable space group: C 2/M
;
_chemical_formula_sum "Si O2"
_cell_formula_units_Z 28
_cell_length_a 18.000000
_cell_length_b 9.000000
_cell_length_c 27.000000
_cell_angle_alpha 90.000000
_cell_angle_beta 40.000000
_cell_angle_gamma 90.000000
_cell_volume 2811.553005
_symmetry_space_group_name_H-M "C 2/M"
_symmetry_group_IT_number 12
_symmetry_cell_setting 'monoclinic'
loop_
_space_group_symop_operation_xyz
x,y,z
-x,y,-z
-x,-y,-z
x,-y,z
1/2+x,1/2+y,z
1/2-x,1/2+y,-z
1/2-x,1/2-y,-z
1/2+x,1/2-y,z
loop_
_atom_site_type_symbol
_atom_site_label
_atom_site_fract_x
_atom_site_fract_y
_atom_site_fract_z
Si Si1 0.306074 0.180536 0.521165
Si Si2 0.465655 0.178983 0.646298
Si Si3 0.899831 0.319938 0.319838
Si Si4 0.031786 0.676383 0.077124
Si Si5 0.793291 0.829367 0.203212
Si Si6 0.200520 0.829740 0.918611
Si Si7 0.922142 0.823033 0.846438
O O1 0.250000 0.250000 0.500000
O O2 0.442525 0.219269 0.443948
O O3 0.227703 0.251159 0.604718
O O4 0.295810 0.000000 0.526786
O O5 0.524561 0.217263 0.669169
O O6 0.331791 0.227022 0.713966
O O7 0.459665 0.000000 0.648992
O O8 0.894596 0.500000 0.318219
O O9 0.969254 0.247549 0.238850
O O10 0.044247 0.500000 0.065327
O O11 0.096087 0.743535 0.091678
O O12 0.900371 0.721511 0.157470
O O13 0.085941 0.760924 0.002125
O O14 0.795720 0.839128 0.142444
O O15 0.812852 0.000000 0.211780
O O16 0.306060 0.721497 0.877253
O O17 0.216781 0.000000 0.928795
O O18 0.935413 0.000000 0.844406
#
# Coordination Sequence:
#
# PCOD9223360 Si02
#       7
#     8   8   8   8   8   8   8
#     4   9  16  27  47  79 114 148 184 229 279 331
#     4   8  15  30  53  80 112 147 183 223 275 333
#     4  10  18  33  54  81 114 149 185 229 283 336
#     4  12  26  41  56  81 116 151 190 237 285 335
#     4  10  20  38  61  84 113 152 190 229 281 339
#     4  11  22  40  64  86 112 147 188 235 286 338
#     4  12  24  39  60  85 113 148 191 236 284 341
#
# _framework density 9.9589090000000002
#
# number of rings (size 3 to 8) (size 9 to 14) (size 15 to 20)
#    0.000    1.714    1.429    5.571    0.000    2.857 
#    0.000    1.429    0.000    0.857    0.000    6.000 
#    0.000    0.000    0.000    0.000    0.000    0.000 
#
# Total GULP energy -156192.611221 kJ/mol
# GULP energy per Si atom -5578.307544 kJ/mol
# Density = 0.993624 g / cm^3
# Si number density = 9.958909 Si / 1000 Ang^3
#
#
#
# Elastic Constant Matrix: (Units=GPa)
#
#
# Indices 1 2 3 4 5 6 
#
# 1 24.4700 4.7948 3.6794 0.0000 -3.7573 0.0001
# 2 4.7948 103.2932 29.9531 -0.0001 -10.5605 0.0004
# 3 3.6794 29.9531 138.4826 0.0000 -28.4665 0.0000
# 4 0.0000 -0.0001 0.0000 34.0954 0.0000 -3.9364
# 5 -3.7573 -10.5605 -28.4665 0.0000 18.5492 0.0000
# 6 0.0001 0.0004 0.0000 -3.9364 0.0000 18.8397
#
#
#
# Elastic Compliance Matrix: (Units=1/GPa)
#
#
# Indices 1 2 3 4 5 6 
#
# 1 0.042425 -0.001317 0.001125 0.000000 0.009570 0.000000
# 2 -0.001317 0.010535 -0.001557 0.000000 0.003342 0.000000
# 3 0.001125 -0.001557 0.010799 0.000000 0.015915 0.000000
# 4 0.000000 0.000000 0.000000 0.030054 0.000000 0.006280
# 5 0.009570 0.003342 0.015915 0.000000 0.082176 0.000000
# 6 0.000000 0.000000 0.000000 0.006280 0.000000 0.054391
#
#
# Mechanical properties :
#
#
# Convention : Reuss Voigt Hill
#
# Bulk Modulus (GPa) = 16.59429 38.12227 27.35828
# Shear Modulus (GPa) = 19.68763 29.48475 24.58619
#
# Velocity S-wave (km/s) = 3.14736 3.85167 3.51719
# Velocity P-wave (km/s) = 4.64299 6.24194 5.50087
#
# Compressibility (1/GPa) = 0.06026169
#
# Stress axis : x y z
#
# Youngs Moduli (GPa) = 23.57117 94.91761 92.59756
#
# Poissons Ratio (x) = 0.12502 -0.10416
# Poissons Ratio (y) = 0.03105 0.14415
# Poissons Ratio (z) = -0.02652 0.14776
#
# Static dielectric constant tensor:
#      x y z
#    x 1.774040 0.000000 -0.020010 
#    y 0.000000 1.670770 0.000000 
#    z -0.020010 0.000000 1.716180 
# 
# From -- ./inp_files/362984.got.cif
#   From: 2010.05.17/outbox.ucp.g08.bks.cvg/sg12_182_cif.got.tgz:362984.got - 2010.06.11 11:47:21.
