data_PCOD9223133
_publ_section_title
;
Structure prediction by ZEFSAII (Michael W. Deem and Ramdas Pophale) SiO2 
 PCOD9223133
Probable space group: C 2/M
;
_chemical_formula_sum "Si O2"
_cell_formula_units_Z 56
_cell_length_a 15.652453
_cell_length_b 14.633509
_cell_length_c 14.070302
_cell_angle_alpha 90.000000
_cell_angle_beta 123.794933
_cell_angle_gamma 90.000000
_cell_volume 2678.261155
_symmetry_space_group_name_H-M "C 2/M"
_symmetry_group_IT_number 12
_symmetry_cell_setting 'monoclinic'
loop_
_space_group_symop_operation_xyz
x,y,z
-x,y,-z
-x,-y,-z
x,-y,z
1/2+x,1/2+y,z
1/2-x,1/2+y,-z
1/2-x,1/2-y,-z
1/2+x,1/2-y,z
loop_
_atom_site_type_symbol
_atom_site_label
_atom_site_fract_x
_atom_site_fract_y
_atom_site_fract_z
Si Si1 0.604266 0.894895 0.499999
Si Si2 0.392140 0.641740 0.975164
Si Si3 0.221106 0.300554 0.734805
Si Si4 0.916975 0.358260 0.024835
Si Si5 0.513701 0.199446 0.734807
Si Si6 0.258802 0.402317 0.213944
Si Si7 0.544860 0.402317 0.786058
O O1 0.500000 0.894610 0.500000
O O2 0.688585 0.843429 0.615200
O O3 0.573383 0.843429 0.384798
O O4 0.632041 0.000000 0.499999
O O5 0.302034 0.636997 0.842643
O O6 0.500000 0.609140 0.000000
O O7 0.401295 0.750000 0.999999
O O8 0.385850 0.600219 0.075543
O O9 0.119657 0.296473 0.739314
O O10 0.260661 0.195539 0.748525
O O11 0.959389 0.363003 0.157356
O O12 0.810307 0.399782 0.924455
O O13 0.000000 0.390860 0.000000
O O14 0.487865 0.304461 0.748527
O O15 0.237160 0.500000 0.249582
O O16 0.377039 0.402356 0.254077
O O17 0.487580 0.500000 0.750421
#
# Coordination Sequence:
#
# PCOD9223133 Si02
#       7
#     8   8   8   8   8   8   8
#     4   9  18  32  51  74  97 125 163 203 244 291
#     4   9  17  29  47  71  99 130 162 201 249 292
#     4   9  17  31  50  73 102 131 161 201 244 287
#     4   9  17  29  47  71  99 130 162 201 249 292
#     4   9  17  31  50  73 102 131 161 201 244 287
#     4   9  17  29  46  69  97 130 166 201 241 291
#     4   9  17  29  46  69  97 130 166 201 241 291
#
# _framework density 20.909088000000001
#
# number of rings (size 3 to 8) (size 9 to 14) (size 15 to 20)
#    0.000    3.000    0.000    0.857    0.000    5.143 
#    0.000    3.571    0.000   18.000    0.000    0.000 
#    0.000    0.000    0.000    0.000    0.000    0.286 
#
# Total GULP energy -155954.080381 kJ/mol
# GULP energy per Si atom -5569.788585 kJ/mol
# Density = 2.086150 g / cm^3
# Si number density = 20.909088 Si / 1000 Ang^3
#
#
#
# Elastic Constant Matrix: (Units=GPa)
#
#
# Indices 1 2 3 4 5 6 
#
# 1 23.2678 5.8108 3.6792 0.0000 0.3005 0.0000
# 2 5.8108 152.1962 71.4156 0.0000 -1.6893 0.0000
# 3 3.6792 71.4156 160.6819 0.0000 -3.8382 0.0000
# 4 0.0000 0.0000 0.0000 4.1517 0.0000 -0.0981
# 5 0.3005 -1.6893 -3.8382 0.0000 4.0750 0.0000
# 6 0.0000 0.0000 0.0000 -0.0981 0.0000 0.3627
#
#
#
# Elastic Compliance Matrix: (Units=1/GPa)
#
#
# Indices 1 2 3 4 5 6 
#
# 1 0.043476 -0.001507 -0.000427 0.000000 -0.004233 0.000000
# 2 -0.001507 0.008354 -0.003676 0.000000 0.000112 0.000000
# 3 -0.000427 -0.003676 0.008012 0.000000 0.006054 0.000000
# 4 0.000000 0.000000 0.000000 0.242413 0.000000 0.065542
# 5 -0.004233 0.000112 0.006054 0.000000 0.251456 0.000000
# 6 0.000000 0.000000 0.000000 0.065542 0.000000 2.774893
#
#
# Mechanical properties :
#
#
# Convention : Reuss Voigt Hill
#
# Bulk Modulus (GPa) = 20.56628 55.32857 37.94742
# Shear Modulus (GPa) = 1.48986 18.73391 10.11188
#
# Velocity S-wave (km/s) = 0.84504 2.99652 2.20150
# Velocity P-wave (km/s) = 3.28778 6.20412 4.96491
#
# Compressibility (1/GPa) = 0.04862328
#
# Stress axis : x y z
#
# Youngs Moduli (GPa) = 23.00101 119.70258 124.81940
#
# Poissons Ratio (x) = 0.18033 0.05330
# Poissons Ratio (y) = 0.03465 0.45881
# Poissons Ratio (z) = 0.00982 0.44000
#
# Static dielectric constant tensor:
#      x y z
#    x 1.799100 0.000000 0.001850 
#    y 0.000000 1.810450 0.000000 
#    z 0.001850 0.000000 1.727320 
# 
# From -- ./inp_files/225365.got.cif
#   From: 2010.05.17/outbox.cif.g08.bks.cpg/sg12_113_cif.got.tgz:225365.got - 2010.06.03 13:09:07.
