data_PCOD9223981
_publ_section_title
;
Structure prediction by ZEFSAII (Michael W. Deem and Ramdas Pophale) SiO2 
 PCOD9223981
Probable space group: C 2/M
;
_chemical_formula_sum "Si O2"
_cell_formula_units_Z 32
_cell_length_a 18.000000
_cell_length_b 9.000000
_cell_length_c 30.000000
_cell_angle_alpha 90.000000
_cell_angle_beta 40.000000
_cell_angle_gamma 90.000000
_cell_volume 3123.947783
_symmetry_space_group_name_H-M "C 2/M"
_symmetry_group_IT_number 12
_symmetry_cell_setting 'monoclinic'
loop_
_space_group_symop_operation_xyz
x,y,z
-x,y,-z
-x,-y,-z
x,-y,z
1/2+x,1/2+y,z
1/2-x,1/2+y,-z
1/2-x,1/2-y,-z
1/2+x,1/2-y,z
loop_
_atom_site_type_symbol
_atom_site_label
_atom_site_fract_x
_atom_site_fract_y
_atom_site_fract_z
Si Si1 0.010753 0.319997 0.629931
Si Si2 0.455948 0.668856 0.212034
Si Si3 0.191434 0.678628 0.223467
Si Si4 0.914983 0.680523 0.501079
Si Si5 0.432262 0.329164 0.122712
Si Si6 0.830704 0.672352 0.862433
Si Si7 0.171357 0.674496 0.998395
Si Si8 0.346265 0.677143 0.356481
O O1 0.012552 0.500000 0.629174
O O2 0.880863 0.268963 0.701441
O O3 0.054987 0.265853 0.562156
O O4 0.084884 0.263038 0.637158
O O5 0.502986 0.500000 0.197233
O O6 0.397514 0.666331 0.190954
O O7 0.559356 0.784215 0.159133
O O8 0.380167 0.706558 0.289668
O O9 0.204868 0.500000 0.221825
O O10 0.317466 0.737465 0.154926
O O11 0.126072 0.705007 0.207329
O O12 0.925184 0.500000 0.494993
O O13 0.786246 0.715087 0.574485
O O14 0.000000 0.736376 0.500000
O O15 0.455096 0.500000 0.098302
O O16 0.543382 0.234824 0.061959
O O17 0.799890 0.500000 0.880106
O O18 0.726272 0.771384 0.926999
O O19 0.178316 0.500000 0.000168
O O20 0.250000 0.750000 0.000000
O O21 0.362572 0.500000 0.355887
#
# Coordination Sequence:
#
# PCOD9223981 Si02
#       8
#     8   8   8   8   8   8   8   8
#     4  10  19  35  58  82 111 152 194 232 276 334
#     4  10  20  33  55  83 112 146 190 239 284 333
#     4   9  20  36  57  85 113 148 191 235 282 334
#     4   9  19  33  54  85 117 147 188 238 282 329
#     4  10  21  38  58  82 112 148 190 236 286 338
#     4  11  21  37  60  84 114 148 189 235 280 337
#     4  12  24  39  59  85 114 148 189 233 285 340
#     4  10  20  34  54  84 115 149 190 236 285 331
#
# _framework density 10.243449
#
# number of rings (size 3 to 8) (size 9 to 14) (size 15 to 20)
#    0.000    1.875    2.500    1.875    1.750    0.500 
#    0.000    4.375    0.000    1.500    0.000    0.000 
#    0.000    0.000    0.000    0.000    0.000    0.000 
#
# Total GULP energy -178237.596901 kJ/mol
# GULP energy per Si atom -5569.924903 kJ/mol
# Density = 1.022013 g / cm^3
# Si number density = 10.243449 Si / 1000 Ang^3
#
#
#
# Elastic Constant Matrix: (Units=GPa)
#
#
# Indices 1 2 3 4 5 6 
#
# 1 46.4560 13.0107 34.0153 -0.0001 -3.7926 -0.0002
# 2 13.0107 47.8209 38.8465 -0.0002 -3.0381 -0.0008
# 3 34.0153 38.8465 124.7375 0.0000 6.6536 0.0001
# 4 -0.0001 -0.0002 0.0000 18.9433 0.0000 -0.9849
# 5 -3.7926 -3.0381 6.6536 0.0000 18.4407 0.0000
# 6 -0.0002 -0.0008 0.0001 -0.9849 0.0000 22.2211
#
#
#
# Elastic Compliance Matrix: (Units=1/GPa)
#
#
# Indices 1 2 3 4 5 6 
#
# 1 0.028231 -0.000686 -0.007941 0.000000 0.008559 0.000000
# 2 -0.000686 0.029189 -0.009332 0.000000 0.008035 0.000001
# 3 -0.007941 -0.009332 0.013518 0.000000 -0.008048 0.000000
# 4 0.000000 0.000000 0.000000 0.052911 0.000000 0.002345
# 5 0.008559 0.008035 -0.008048 0.000000 0.060216 0.000000
# 6 0.000000 0.000001 0.000000 0.002345 0.000000 0.045106
#
#
# Mechanical properties :
#
#
# Convention : Reuss Voigt Hill
#
# Bulk Modulus (GPa) = 28.55535 43.41771 35.98653
# Shear Modulus (GPa) = 18.06601 20.79713 19.43157
#
# Velocity S-wave (km/s) = 2.97279 3.18959 3.08309
# Velocity P-wave (km/s) = 5.07463 5.89945 5.50252
#
# Compressibility (1/GPa) = 0.03501971
#
# Stress axis : x y z
#
# Youngs Moduli (GPa) = 35.42158 34.25958 73.97633
#
# Poissons Ratio (x) = 0.02351 0.58748
# Poissons Ratio (y) = 0.02430 0.69032
# Poissons Ratio (z) = 0.28130 0.31970
#
# Static dielectric constant tensor:
#      x y z
#    x 1.768540 0.000000 -0.023440 
#    y 0.000000 1.709030 0.000000 
#    z -0.023440 0.000000 1.749500 
# 
# From -- ./inp_files/378256.got.cif
#   From: 2010.05.17/outbox.ucp.g08.bks.cvg/sg12_190_cif.got.tgz:378256.got - 2010.06.11 11:47:21.
