data_PCOD9223473
_publ_section_title
;
Structure prediction by ZEFSAII (Michael W. Deem and Ramdas Pophale) SiO2 
 PCOD9223473
Probable space group: C 2/M
;
_chemical_formula_sum "Si O2"
_cell_formula_units_Z 32
_cell_length_a 21.000000
_cell_length_b 9.000000
_cell_length_c 24.000000
_cell_angle_alpha 90.000000
_cell_angle_beta 50.000000
_cell_angle_gamma 90.000000
_cell_volume 3474.777594
_symmetry_space_group_name_H-M "C 2/M"
_symmetry_group_IT_number 12
_symmetry_cell_setting 'monoclinic'
loop_
_space_group_symop_operation_xyz
x,y,z
-x,y,-z
-x,-y,-z
x,-y,z
1/2+x,1/2+y,z
1/2-x,1/2+y,-z
1/2-x,1/2-y,-z
1/2+x,1/2-y,z
loop_
_atom_site_type_symbol
_atom_site_label
_atom_site_fract_x
_atom_site_fract_y
_atom_site_fract_z
Si Si1 0.186439 0.676981 0.688850
Si Si2 0.081576 0.169756 0.478382
Si Si3 0.182197 0.833656 0.307055
Si Si4 0.876431 0.168434 0.943244
Si Si5 0.008207 0.675469 0.203671
Si Si6 0.285019 0.825744 0.534565
Si Si7 0.871833 0.324224 0.766852
Si Si8 0.755591 0.668282 0.085287
O O1 0.203933 0.500000 0.669330
O O2 0.225352 0.715456 0.727298
O O3 0.228128 0.775755 0.618074
O O4 0.089081 0.695905 0.739615
O O5 0.139583 0.161951 0.391468
O O6 0.124960 0.260180 0.501992
O O7 0.000000 0.242919 0.500000
O O8 0.064063 0.000000 0.506592
O O9 0.130489 0.736489 0.293880
O O10 0.184810 0.000000 0.282409
O O11 0.954751 0.240927 0.869863
O O12 0.807756 0.167792 0.931913
O O13 0.890374 0.000000 0.952529
O O14 0.839378 0.262972 0.014250
O O15 0.027457 0.500000 0.187096
O O16 0.053534 0.728087 0.234878
O O17 0.250000 0.750000 0.500000
O O18 0.287414 0.000000 0.527096
O O19 0.873625 0.500000 0.764666
O O20 0.788182 0.266490 0.843471
O O21 0.765834 0.500000 0.098552
#
# Coordination Sequence:
#
# PCOD9223473 Si02
#       8
#     8   8   8   8   8   8   8   8
#     4   9  19  37  56  73  98 134 173 208 247 298
#     4   9  19  37  58  79 104 134 169 210 256 306
#     4   9  18  33  52  72  98 132 165 198 242 297
#     4   9  16  26  43  69  99 128 160 201 248 295
#     4   9  18  32  50  73 100 130 165 206 249 293
#     4  11  22  36  55  78 105 136 172 212 255 304
#     4  10  19  30  47  73 102 128 161 206 250 293
#     4   9  16  27  44  66  95 130 165 200 243 294
#
# _framework density 9.2092220000000005
#
# number of rings (size 3 to 8) (size 9 to 14) (size 15 to 20)
#    0.000    2.625    0.000    3.000    0.000    7.250 
#    0.000    2.500    0.000    0.750    0.000    5.250 
#    0.000    0.000    0.000    0.000    0.000    0.000 
#
# Total GULP energy -178140.017157 kJ/mol
# GULP energy per Si atom -5566.875536 kJ/mol
# Density = 0.918826 g / cm^3
# Si number density = 9.209222 Si / 1000 Ang^3
#
#
#
# Elastic Constant Matrix: (Units=GPa)
#
#
# Indices 1 2 3 4 5 6 
#
# 1 80.8112 20.9162 26.8376 0.0000 -31.7616 0.0001
# 2 20.9162 -3.7082 7.1670 -0.0001 -49.2708 0.0001
# 3 26.8376 7.1670 1.7638 0.0000 -9.9308 0.0000
# 4 0.0000 -0.0001 0.0000 21.3544 0.0000 3.6570
# 5 -31.7616 -49.2708 -9.9308 0.0000 -22.8032 0.0000
# 6 0.0001 0.0001 0.0000 3.6570 0.0000 20.4819
#
#
#
# Elastic Compliance Matrix: (Units=1/GPa)
#
#
# Indices 1 2 3 4 5 6 
#
# 1 0.005613 -0.017932 0.046811 0.000000 0.010542 0.000000
# 2 -0.017932 0.025862 -0.001802 0.000000 -0.030117 0.000000
# 3 0.046811 -0.001802 -0.139964 0.000000 -0.000352 0.000000
# 4 0.000000 0.000000 0.000000 0.048306 0.000000 -0.008625
# 5 0.010542 -0.030117 -0.000352 0.000000 0.006691 0.000000
# 6 0.000000 0.000000 0.000000 -0.008625 0.000000 0.050364
#
#
# Mechanical properties :
#
#
# Convention : Reuss Voigt Hill
#
# Bulk Modulus (GPa) = -18.40363 20.96760 1.28199
# Shear Modulus (GPa) = -66.31858 5.40301 -30.45779
#
# Velocity S-wave (km/s) = -6.00706 1.71460 -4.07093
# Velocity P-wave (km/s) = 7.62409 3.91517 4.62591
#
# Compressibility (1/GPa) = -0.05433712
#
# Stress axis : x y z
#
# Youngs Moduli (GPa) = 178.15448 38.66737 -7.14470
#
# Poissons Ratio (x) = 0.69339 0.33445
# Poissons Ratio (y) = 3.19469 -0.01288
# Poissons Ratio (z) = -8.33953 0.06970
#
# Static dielectric constant tensor:
#      x y z
#    x 1.701010 0.000000 -0.064990 
#    y 0.000000 1.881830 0.000000 
#    z -0.064990 0.000000 1.682850 
# 
# From -- ./inp_files/345991.got.cif
#   From: 2010.05.17/outbox.ucp.g08.bks.cvg/sg12_173_cif.got.tgz:345991.got - 2010.06.11 11:47:21.
