data_PCOD9223588
_publ_section_title
;
Structure prediction by ZEFSAII (Michael W. Deem and Ramdas Pophale) SiO2 
 PCOD9223588
Probable space group: C 2/M
;
_chemical_formula_sum "Si O2"
_cell_formula_units_Z 32
_cell_length_a 24.000000
_cell_length_b 9.000000
_cell_length_c 18.000000
_cell_angle_alpha 90.000000
_cell_angle_beta 100.000000
_cell_angle_gamma 90.000000
_cell_volume 3828.932544
_symmetry_space_group_name_H-M "C 2/M"
_symmetry_group_IT_number 12
_symmetry_cell_setting 'monoclinic'
loop_
_space_group_symop_operation_xyz
x,y,z
-x,y,-z
-x,-y,-z
x,-y,z
1/2+x,1/2+y,z
1/2-x,1/2+y,-z
1/2-x,1/2-y,-z
1/2+x,1/2-y,z
loop_
_atom_site_type_symbol
_atom_site_label
_atom_site_fract_x
_atom_site_fract_y
_atom_site_fract_z
Si Si1 0.168215 0.821163 0.253289
Si Si2 0.382602 0.326286 0.234867
Si Si3 0.593496 0.820152 0.363850
Si Si4 0.283912 0.674292 0.332275
Si Si5 0.700003 0.321003 0.093076
Si Si6 0.679834 0.678965 0.922475
Si Si7 0.035000 0.322078 0.632212
Si Si8 0.870938 0.320497 0.463982
O O1 0.119835 0.752381 0.295768
O O2 0.227129 0.763684 0.301990
O O3 0.171753 0.776643 0.165684
O O4 0.164629 0.000000 0.255083
O O5 0.399474 0.500000 0.239868
O O6 0.325008 0.314976 0.269945
O O7 0.368781 0.280104 0.147547
O O8 0.428093 0.230293 0.289245
O O9 0.529218 0.771736 0.368844
O O10 0.627071 0.784625 0.448149
O O11 0.594323 0.000000 0.355217
O O12 0.271497 0.500000 0.342122
O O13 0.319911 0.742357 0.408431
O O14 0.705407 0.500000 0.097117
O O15 0.762214 0.251730 0.094382
O O16 0.669820 0.282975 0.007009
O O17 0.686512 0.500000 0.919710
O O18 0.032524 0.500000 0.627595
O O19 0.070885 0.276044 0.566813
O O20 0.866141 0.500000 0.455903
#
# Coordination Sequence:
#
# PCOD9223588 Si02
#       8
#     8   8   8   8   8   8   8   8
#     4  11  22  34  49  71 102 136 168 202 240 289
#     4   9  17  29  49  76 103 128 156 197 247 294
#     4  10  21  36  53  72  95 130 169 203 247 297
#     4  10  19  32  50  74 102 132 163 197 246 298
#     4   9  18  30  47  72 101 131 163 199 238 286
#     4   9  16  29  49  74 102 129 159 197 243 290
#     4   9  18  33  54  76  97 123 161 208 250 291
#     4   9  18  34  55  76  97 122 159 209 255 294
#
# _framework density 8.3574210000000004
#
# number of rings (size 3 to 8) (size 9 to 14) (size 15 to 20)
#    0.000    2.500    1.250    1.125    0.000    4.500 
#    0.000    0.000    0.000    4.500    0.000    5.250 
#    0.000    0.000    0.000    0.000    0.000    0.000 
#
# Total GULP energy -178283.622057 kJ/mol
# GULP energy per Si atom -5571.363189 kJ/mol
# Density = 0.833840 g / cm^3
# Si number density = 8.357421 Si / 1000 Ang^3
#
#
#
# Elastic Constant Matrix: (Units=GPa)
#
#
# Indices 1 2 3 4 5 6 
#
# 1 38.7657 10.5666 24.7253 0.0000 -12.3778 0.0000
# 2 10.5666 21.4132 20.1345 0.0000 -8.1906 0.0000
# 3 24.7253 20.1345 128.2955 0.0000 -21.5195 0.0000
# 4 0.0000 0.0000 0.0000 26.0714 0.0000 -3.0933
# 5 -12.3778 -8.1906 -21.5195 0.0000 21.5348 0.0000
# 6 0.0000 0.0000 0.0000 -3.0933 0.0000 24.7601
#
#
#
# Elastic Compliance Matrix: (Units=1/GPa)
#
#
# Indices 1 2 3 4 5 6 
#
# 1 0.034435 -0.009088 -0.002967 0.000000 0.013371 0.000000
# 2 -0.009088 0.061358 -0.005814 0.000000 0.012303 0.000000
# 3 -0.002967 -0.005814 0.010358 0.000000 0.006434 0.000000
# 4 0.000000 0.000000 0.000000 0.038933 0.000000 0.004864
# 5 0.013371 0.012303 0.006434 0.000000 0.065230 0.000000
# 6 0.000000 0.000000 0.000000 0.004864 0.000000 0.040995
#
#
# Mechanical properties :
#
#
# Convention : Reuss Voigt Hill
#
# Bulk Modulus (GPa) = 14.20217 33.25857 23.73037
# Shear Modulus (GPa) = 16.10209 23.34315 19.72262
#
# Velocity S-wave (km/s) = 3.10714 3.74110 3.43876
# Velocity P-wave (km/s) = 4.62467 6.21305 5.47675
#
# Compressibility (1/GPa) = 0.07041176
#
# Stress axis : x y z
#
# Youngs Moduli (GPa) = 29.04015 16.29791 96.54361
#
# Poissons Ratio (x) = 0.14811 0.28648
# Poissons Ratio (y) = 0.26391 0.56133
# Poissons Ratio (z) = 0.08617 0.09476
#
# Static dielectric constant tensor:
#      x y z
#    x 1.556170 0.000000 0.005840 
#    y 0.000000 1.560180 0.000000 
#    z 0.005840 0.000000 1.585550 
# 
# From -- ./inp_files/287734.got.cif
#   From: 2010.05.17/outbox.ucp.g08.bks.cvg/sg12_144_cif.got.tgz:287734.got - 2010.06.11 11:47:21.
