data_PCOD9223447
_publ_section_title
;
Structure prediction by ZEFSAII (Michael W. Deem and Ramdas Pophale) SiO2 
 PCOD9223447
Probable space group: C 2/M
;
_chemical_formula_sum "Si O2"
_cell_formula_units_Z 32
_cell_length_a 30.000000
_cell_length_b 9.000000
_cell_length_c 15.000000
_cell_angle_alpha 90.000000
_cell_angle_beta 90.000000
_cell_angle_gamma 90.000000
_cell_volume 4050.000000
_symmetry_space_group_name_H-M "C 2/M"
_symmetry_group_IT_number 12
_symmetry_cell_setting 'monoclinic'
loop_
_space_group_symop_operation_xyz
x,y,z
-x,y,-z
-x,-y,-z
x,-y,z
1/2+x,1/2+y,z
1/2-x,1/2+y,-z
1/2-x,1/2-y,-z
1/2+x,1/2-y,z
loop_
_atom_site_type_symbol
_atom_site_label
_atom_site_fract_x
_atom_site_fract_y
_atom_site_fract_z
Si Si1 0.579888 0.820272 0.300444
Si Si2 0.315132 0.680266 0.225831
Si Si3 0.012986 0.679231 0.603098
Si Si4 0.799450 0.819385 0.017484
Si Si5 0.350925 0.177090 0.850518
Si Si6 0.279637 0.177459 0.690558
Si Si7 0.889072 0.179703 0.369561
Si Si8 0.151010 0.821391 0.436376
O O1 0.528697 0.782508 0.329867
O O2 0.602819 0.782047 0.203441
O O3 0.611849 0.745072 0.373944
O O4 0.583812 0.000000 0.307636
O O5 0.314426 0.500000 0.226627
O O6 0.313379 0.721417 0.120231
O O7 0.269617 0.727172 0.277616
O O8 0.358424 0.725415 0.284438
O O9 0.017627 0.500000 0.605459
O O10 0.061091 0.750720 0.626891
O O11 0.000000 0.719542 0.500000
O O12 0.796934 0.000000 0.012326
O O13 0.750000 0.750000 0.000000
O O14 0.833781 0.759905 0.940541
O O15 0.312597 0.200297 0.775318
O O16 0.352984 0.000000 0.869643
O O17 0.303226 0.256202 0.606050
O O18 0.278146 0.000000 0.673158
O O19 0.862011 0.216531 0.461281
O O20 0.893667 0.000000 0.367388
O O21 0.152097 0.000000 0.429273
#
# Coordination Sequence:
#
# PCOD9223447 Si02
#       8
#     8   8   8   8   8   8   8   8
#     4   9  18  33  52  73 101 136 164 197 251 309
#     4   9  19  36  52  69  99 141 174 200 251 311
#     4  10  19  33  55  78 100 130 171 211 248 298
#     4  11  20  33  54  76 100 131 170 211 252 296
#     4   9  17  31  51  76 101 128 165 205 251 300
#     4   9  17  32  51  68  97 141 174 197 242 306
#     4  10  21  35  51  72 103 138 170 208 253 298
#     4  10  19  29  45  74 105 130 166 212 246 283
#
# _framework density 7.9012349999999998
#
# number of rings (size 3 to 8) (size 9 to 14) (size 15 to 20)
#    0.000    2.375    2.500    1.500    0.000    3.750 
#    0.000    1.875    0.000    0.750    0.000    5.250 
#    0.000    0.000    0.000    0.000    0.000    0.000 
#
# Total GULP energy -178238.910788 kJ/mol
# GULP energy per Si atom -5569.965962 kJ/mol
# Density = 0.788325 g / cm^3
# Si number density = 7.901235 Si / 1000 Ang^3
#
#
#
# Elastic Constant Matrix: (Units=GPa)
#
#
# Indices 1 2 3 4 5 6 
#
# 1 137.1197 30.1881 76.3222 0.0000 -16.1571 0.0000
# 2 30.1881 37.5070 35.6670 0.0000 -6.2648 0.0000
# 3 76.3222 35.6670 136.1022 0.0000 -16.2448 0.0000
# 4 0.0000 0.0000 0.0000 27.4194 0.0000 -7.7465
# 5 -16.1571 -6.2648 -16.2448 0.0000 34.6638 0.0000
# 6 0.0000 0.0000 0.0000 -7.7465 0.0000 29.6876
#
#
#
# Elastic Compliance Matrix: (Units=1/GPa)
#
#
# Indices 1 2 3 4 5 6 
#
# 1 0.011185 -0.003891 -0.004993 0.000000 0.002170 0.000000
# 2 -0.003891 0.037021 -0.007349 0.000000 0.001433 0.000000
# 3 -0.004993 -0.007349 0.012326 0.000000 0.002121 0.000000
# 4 0.000000 0.000000 0.000000 0.039373 0.000000 0.010274
# 5 0.002170 0.001433 0.002121 0.000000 0.031113 0.000000
# 6 0.000000 0.000000 0.000000 0.010274 0.000000 0.036365
#
#
# Mechanical properties :
#
#
# Convention : Reuss Voigt Hill
#
# Bulk Modulus (GPa) = 35.63044 66.12038 50.87541
# Shear Modulus (GPa) = 23.90005 29.59094 26.74549
#
# Velocity S-wave (km/s) = 3.89321 4.33199 4.11845
# Velocity P-wave (km/s) = 6.54261 8.18255 7.40810
#
# Compressibility (1/GPa) = 0.02806589
#
# Stress axis : x y z
#
# Youngs Moduli (GPa) = 89.40881 27.01157 81.12668
#
# Poissons Ratio (x) = 0.10511 0.40508
# Poissons Ratio (y) = 0.34792 0.59616
# Poissons Ratio (z) = 0.44644 0.19850
#
# Static dielectric constant tensor:
#      x y z
#    x 1.537070 0.000000 -0.015120 
#    y 0.000000 1.533480 0.000000 
#    z -0.015120 0.000000 1.535060 
# 
# From -- ./inp_files/248429.got.cif
#   From: 2010.05.17/outbox.ucp.g08.bks.cvg/sg12_125_cif.got.tgz:248429.got - 2010.06.11 11:47:21.
