data_PCOD9223748
_publ_section_title
;
Structure prediction by ZEFSAII (Michael W. Deem and Ramdas Pophale) SiO2 
 PCOD9223748
Probable space group: C 2/M
;
_chemical_formula_sum "Si O2"
_cell_formula_units_Z 32
_cell_length_a 18.000000
_cell_length_b 15.000000
_cell_length_c 18.000000
_cell_angle_alpha 90.000000
_cell_angle_beta 40.000000
_cell_angle_gamma 90.000000
_cell_volume 3123.947783
_symmetry_space_group_name_H-M "C 2/M"
_symmetry_group_IT_number 12
_symmetry_cell_setting 'monoclinic'
loop_
_space_group_symop_operation_xyz
x,y,z
-x,y,-z
-x,-y,-z
x,-y,z
1/2+x,1/2+y,z
1/2-x,1/2+y,-z
1/2-x,1/2-y,-z
1/2+x,1/2-y,z
loop_
_atom_site_type_symbol
_atom_site_label
_atom_site_fract_x
_atom_site_fract_y
_atom_site_fract_z
Si Si1 0.892865 0.264367 0.050743
Si Si2 0.063827 0.100127 0.570791
Si Si3 0.718890 0.398734 0.597759
Si Si4 0.130919 0.401301 0.250636
Si Si5 0.192150 0.097593 0.169536
Si Si6 0.808856 0.163513 0.989263
Si Si7 0.055052 0.708815 0.535466
Si Si8 0.342092 0.597969 0.191408
O O1 0.780231 0.325332 0.127109
O O2 0.907793 0.208079 0.963369
O O3 0.880958 0.185940 0.119825
O O4 0.000000 0.319876 0.000000
O O5 0.140469 0.116768 0.585946
O O6 0.080530 0.186310 0.507705
O O7 0.929230 0.102320 0.695815
O O8 0.090719 0.000000 0.521921
O O9 0.763241 0.500000 0.558123
O O10 0.826848 0.335326 0.528194
O O11 0.647266 0.394028 0.728916
O O12 0.077935 0.500000 0.281340
O O13 0.220285 0.383020 0.114701
O O14 0.208926 0.405041 0.265235
O O15 0.039698 0.322008 0.330625
O O16 0.244653 0.000000 0.142515
O O17 0.163851 0.105549 0.103230
O O18 0.750000 0.250000 0.000000
O O19 0.000000 0.676861 0.500000
O O20 0.390301 0.500000 0.132485
#
# Coordination Sequence:
#
# PCOD9223748 Si02
#       8
#     8   8   8   8   8   8   8   8
#     4  10  21  34  54  87 117 144 185 239 286 341
#     4  10  23  41  59  82 113 154 200 239 276 339
#     4  10  21  37  59  85 114 148 191 235 287 347
#     4  10  19  33  54  85 120 146 184 238 290 344
#     4  10  21  39  62  81 111 157 196 230 281 339
#     4   9  18  34  55  80 113 150 186 224 275 342
#     4  12  22  35  61  87 115 154 189 239 296 341
#     4   9  18  33  52  80 116 149 181 227 285 342
#
# _framework density 10.243449
#
# number of rings (size 3 to 8) (size 9 to 14) (size 15 to 20)
#    0.000    2.000    1.250    3.375    1.750    1.750 
#    0.000    0.000    0.000    0.000    0.000    0.000 
#    0.000    0.000    0.000    0.000    0.000    0.000 
#
# Total GULP energy -178194.629005 kJ/mol
# GULP energy per Si atom -5568.582156 kJ/mol
# Density = 1.022013 g / cm^3
# Si number density = 10.243449 Si / 1000 Ang^3
#
#
#
# Elastic Constant Matrix: (Units=GPa)
#
#
# Indices 1 2 3 4 5 6 
#
# 1 90.6977 28.2050 10.6424 0.0000 -18.1158 0.0000
# 2 28.2050 86.5864 3.1945 0.0000 -16.8258 0.0000
# 3 10.6424 3.1945 19.3742 0.0000 -12.6020 0.0000
# 4 0.0000 0.0000 0.0000 12.1169 0.0000 21.4864
# 5 -18.1158 -16.8258 -12.6020 0.0000 20.6307 0.0000
# 6 0.0000 0.0000 0.0000 21.4864 0.0000 -90.7532
#
#
#
# Elastic Compliance Matrix: (Units=1/GPa)
#
#
# Indices 1 2 3 4 5 6 
#
# 1 0.013842 -0.002659 -0.001111 0.000000 0.009307 0.000000
# 2 -0.002659 0.015095 0.009061 0.000000 0.015511 0.000000
# 3 -0.001111 0.009061 0.091099 0.000000 0.062060 0.000000
# 4 0.000000 0.000000 0.000000 0.058126 0.000000 0.013762
# 5 0.009307 0.015511 0.062060 0.000000 0.107203 0.000000
# 6 0.000000 0.000000 0.000000 0.013762 0.000000 -0.007761
#
#
# Mechanical properties :
#
#
# Convention : Reuss Voigt Hill
#
# Bulk Modulus (GPa) = 7.65602 31.19358 19.42480
# Shear Modulus (GPa) = 16.09979 -1.29337 7.40321
#
# Velocity S-wave (km/s) = 2.80636 -0.79542 1.90302
# Velocity P-wave (km/s) = 3.77439 3.79679 3.78560
#
# Compressibility (1/GPa) = 0.13061613
#
# Stress axis : x y z
#
# Youngs Moduli (GPa) = 72.24401 66.24607 10.97708
#
# Poissons Ratio (x) = 0.17617 0.01220
# Poissons Ratio (y) = 0.19213 -0.09946
# Poissons Ratio (z) = 0.08029 -0.60024
#
# Static dielectric constant tensor:
#      x y z
#    x 0.758140 0.000000 1.021360 
#    y 0.000000 1.789130 0.000000 
#    z 1.021360 0.000000 0.703860 
# 
# From -- ./inp_files/278163.got.cif
#   From: 2010.05.17/outbox.ucp.g08.bks.cvg/sg12_140_cif.got.tgz:278163.got - 2010.06.11 11:47:21.
