data_PCOD9223832
_publ_section_title
;
Structure prediction by ZEFSAII (Michael W. Deem and Ramdas Pophale) SiO2 
 PCOD9223832
Probable space group: C 2/M
;
_chemical_formula_sum "Si O2"
_cell_formula_units_Z 28
_cell_length_a 9.000000
_cell_length_b 18.000000
_cell_length_c 27.000000
_cell_angle_alpha 90.000000
_cell_angle_beta 40.000000
_cell_angle_gamma 90.000000
_cell_volume 2811.553005
_symmetry_space_group_name_H-M "C 2/M"
_symmetry_group_IT_number 12
_symmetry_cell_setting 'monoclinic'
loop_
_space_group_symop_operation_xyz
x,y,z
-x,y,-z
-x,-y,-z
x,-y,z
1/2+x,1/2+y,z
1/2-x,1/2+y,-z
1/2-x,1/2-y,-z
1/2+x,1/2-y,z
loop_
_atom_site_type_symbol
_atom_site_label
_atom_site_fract_x
_atom_site_fract_y
_atom_site_fract_z
Si Si1 0.210822 0.414975 0.677885
Si Si2 0.618678 0.801599 0.407144
Si Si3 0.483985 0.309280 0.229681
Si Si4 0.707289 0.912005 0.792628
Si Si5 0.774903 0.664935 0.798728
Si Si6 0.209855 0.088919 0.915769
Si Si7 0.657257 0.343092 0.545065
O O1 0.137720 0.500000 0.696182
O O2 0.234411 0.387329 0.728860
O O3 0.465738 0.406264 0.591780
O O4 0.000813 0.365795 0.711753
O O5 0.763990 0.794937 0.320608
O O6 0.477425 0.724614 0.446947
O O7 0.406306 0.859525 0.458034
O O8 0.773735 0.820234 0.415635
O O9 0.596694 0.382028 0.223187
O O10 0.421503 0.319821 0.189673
O O11 0.653512 0.241204 0.194362
O O12 0.456219 0.884992 0.873243
O O13 0.710987 0.000000 0.790674
O O14 0.706308 0.608371 0.859009
O O15 0.206979 0.000000 0.920889
O O16 0.000000 0.121057 0.000000
#
# Coordination Sequence:
#
# PCOD9223832 Si02
#       7
#     8   8   8   8   8   8   8
#     4  10  19  35  54  76 109 146 188 235 282 335
#     4  10  20  32  53  79 106 143 189 237 283 323
#     4  12  21  36  56  84 117 147 187 236 279 331
#     4   9  19  35  57  82 112 147 184 227 280 336
#     4  11  22  34  58  85 110 147 188 229 276 336
#     4   9  19  40  65  87 114 148 183 220 273 339
#     4  10  19  34  52  79 104 142 194 238 283 332
#
# _framework density 9.9589090000000002
#
# number of rings (size 3 to 8) (size 9 to 14) (size 15 to 20)
#    0.000    1.857    2.857    3.857    0.000    1.143 
#    0.000    5.714    0.000    3.429    0.000    0.000 
#    0.000    0.000    0.000    0.000    0.000    0.000 
#
# Total GULP energy -155900.426429 kJ/mol
# GULP energy per Si atom -5567.872372 kJ/mol
# Density = 0.993624 g / cm^3
# Si number density = 9.958909 Si / 1000 Ang^3
#
#
#
# Elastic Constant Matrix: (Units=GPa)
#
#
# Indices 1 2 3 4 5 6 
#
# 1 12.4612 -4.7151 -22.4490 -0.0003 15.5768 0.0050
# 2 -4.7151 1.1568 2.4494 -0.0011 1.5358 0.0026
# 3 -22.4490 2.4494 47.3867 -0.0013 -9.4167 0.0010
# 4 -0.0003 -0.0011 -0.0013 11.3789 0.0005 -2.3339
# 5 15.5768 1.5358 -9.4167 0.0005 -2.3945 -0.0011
# 6 0.0050 0.0026 0.0010 -2.3339 -0.0011 6.8208
#
#
#
# Elastic Compliance Matrix: (Units=1/GPa)
#
#
# Indices 1 2 3 4 5 6 
#
# 1 0.034116 -0.029426 0.032577 -0.000003 0.074948 -0.000007
# 2 -0.029426 0.528108 -0.006716 0.000010 0.173719 -0.000144
# 3 0.032577 -0.006716 0.043862 -0.000001 0.035119 -0.000022
# 4 -0.000003 0.000010 -0.000001 0.094515 -0.000004 0.032341
# 5 0.074948 0.173719 0.035119 -0.000004 0.043241 -0.000120
# 6 -0.000007 -0.000144 -0.000022 0.032341 -0.000120 0.157677
#
#
# Mechanical properties :
#
#
# Convention : Reuss Voigt Hill
#
# Bulk Modulus (GPa) = 1.66957 1.28615 1.47786
# Shear Modulus (GPa) = 4.51141 8.87567 6.69354
#
# Velocity S-wave (km/s) = 1.50663 2.11325 1.83518
# Velocity P-wave (km/s) = 1.96637 2.56935 2.28781
#
# Compressibility (1/GPa) = 0.59895524
#
# Stress axis : x y z
#
# Youngs Moduli (GPa) = 29.31178 1.89355 22.79882
#
# Poissons Ratio (x) = 0.05572 -0.74271
# Poissons Ratio (y) = 0.86252 0.15312
# Poissons Ratio (z) = -0.95488 0.01272
#
# Static dielectric constant tensor:
#      x y z
#    x 1.693000 0.000000 -0.033560 
#    y 0.000000 1.753930 0.000000 
#    z -0.033560 0.000000 1.830260 
# 
# From -- ./inp_files/300467.got.cif
#   From: 2010.05.17/outbox.ucp.g08.bks.cvg/sg12_151_cif.got.tgz:300467.got - 2010.06.11 11:47:21.
