data_PCOD9223063
_publ_section_title
;
Structure prediction by ZEFSAII (Michael W. Deem and Ramdas Pophale) SiO2 
 PCOD9223063
Probable space group: C 2/M
;
_chemical_formula_sum "Si O2"
_cell_formula_units_Z 64
_cell_length_a 13.388774
_cell_length_b 23.951064
_cell_length_c 9.352034
_cell_angle_alpha 90.000000
_cell_angle_beta 132.254542
_cell_angle_gamma 90.000000
_cell_volume 2219.729946
_symmetry_space_group_name_H-M "C 2/M"
_symmetry_group_IT_number 12
_symmetry_cell_setting 'monoclinic'
loop_
_space_group_symop_operation_xyz
x,y,z
-x,y,-z
-x,-y,-z
x,-y,z
1/2+x,1/2+y,z
1/2-x,1/2+y,-z
1/2-x,1/2-y,-z
1/2+x,1/2-y,z
loop_
_atom_site_type_symbol
_atom_site_label
_atom_site_fract_x
_atom_site_fract_y
_atom_site_fract_z
Si Si1 0.312693 0.578536 0.288421
Si Si2 0.481860 0.424380 0.727063
Si Si3 0.262194 0.939872 0.304434
Si Si4 0.391131 0.692247 0.706184
Si Si5 0.231121 0.678819 0.819622
Si Si6 0.560998 0.937192 0.235804
Si Si7 0.405535 0.186940 0.735377
Si Si8 0.716419 0.700895 0.799721
O O1 0.368821 0.559820 0.187290
O O2 0.394744 0.557779 0.505217
O O3 0.159055 0.566993 0.188438
O O4 0.344877 0.644424 0.321265
O O5 0.392189 0.439738 0.780190
O O6 0.480121 0.358158 0.740579
O O7 0.305799 0.885289 0.255533
O O8 0.350380 0.939226 0.533553
O O9 0.283485 0.000000 0.252601
O O10 0.360733 0.684733 0.843425
O O11 0.452894 0.752197 0.730867
O O12 0.240494 0.683257 0.490852
O O13 0.157679 0.737845 0.707161
O O14 0.256395 0.689358 0.009037
O O15 0.515383 0.871433 0.204730
O O16 0.498034 0.000000 0.171717
O O17 0.358821 0.197668 0.852412
#
# Coordination Sequence:
#
# PCOD9223063 Si02
#       8
#     8   8   8   8   8   8   8   8
#     4   9  16  25  37  55  78 101 128 158 191 220
#     4   9  15  25  39  56  75  99 131 161 185 219
#     4   9  16  26  38  53  75 103 132 157 183 222
#     4   9  14  24  40  54  71  94 123 156 193 222
#     4   9  16  26  40  56  75  96 124 158 196 229
#     4   9  15  24  37  55  76 100 131 161 187 219
#     4   9  14  24  40  55  70  93 122 159 194 220
#     4   9  16  26  40  57  74  95 123 160 198 227
#
# _framework density 28.832335
#
# number of rings (size 3 to 8) (size 9 to 14) (size 15 to 20)
#    0.000    3.000    5.000    0.000    0.000    0.500 
#    0.000    7.500    0.000    0.750    0.000    0.000 
#    0.000    1.000    0.000    5.500    0.000   41.625 
#
# Total GULP energy -178377.892748 kJ/mol
# GULP energy per Si atom -5574.309148 kJ/mol
# Density = 2.876671 g / cm^3
# Si number density = 28.832335 Si / 1000 Ang^3
#
#
#
# Elastic Constant Matrix: (Units=GPa)
#
#
# Indices 1 2 3 4 5 6 
#
# 1 98.5883 20.7168 25.8462 0.0000 -32.2187 0.0000
# 2 20.7168 369.7256 51.4677 0.0000 -2.0803 0.0000
# 3 25.8462 51.4677 136.9663 0.0000 -20.6325 0.0000
# 4 0.0000 0.0000 0.0000 10.1646 0.0000 9.5623
# 5 -32.2187 -2.0803 -20.6325 0.0000 45.0504 0.0000
# 6 0.0000 0.0000 0.0000 9.5623 0.0000 -24.4961
#
#
#
# Elastic Compliance Matrix: (Units=1/GPa)
#
#
# Indices 1 2 3 4 5 6 
#
# 1 0.013522 -0.000574 -0.000949 0.000000 0.009210 0.000000
# 2 -0.000574 0.002885 -0.001093 0.000000 -0.000778 0.000000
# 3 -0.000949 -0.001093 0.008358 0.000000 0.003099 0.000000
# 4 0.000000 0.000000 0.000000 0.071956 0.000000 0.028089
# 5 0.009210 -0.000778 0.003099 0.000000 0.030167 0.000000
# 6 0.000000 0.000000 0.000000 0.028089 0.000000 -0.029858
#
#
# Mechanical properties :
#
#
# Convention : Reuss Voigt Hill
#
# Bulk Modulus (GPa) = 51.19381 89.03797 70.11589
# Shear Modulus (GPa) = 45.96799 39.96043 42.96421
#
# Velocity S-wave (km/s) = 3.99723 3.72689 3.86442
# Velocity P-wave (km/s) = 6.25284 7.03334 6.65454
#
# Compressibility (1/GPa) = 0.01953361
#
# Stress axis : x y z
#
# Youngs Moduli (GPa) = 73.95244 346.66731 119.65264
#
# Poissons Ratio (x) = 0.19892 0.11352
# Poissons Ratio (y) = 0.04243 0.13076
# Poissons Ratio (z) = 0.07016 0.37884
#
# Static dielectric constant tensor:
#      x y z
#    x 2.299510 0.000000 0.063160 
#    y 0.000000 2.302070 0.000000 
#    z 0.063160 0.000000 2.278950 
# 
# From -- ./inp_files/99394.got.cif
#   From: 2010.05.17/outbox.cif.g08.bks.cpg/sg12_50_cif.got.tgz:99394.got - 2010.06.03 13:09:07.
