data_PCOD9223225
_publ_section_title
;
Structure prediction by ZEFSAII (Michael W. Deem and Ramdas Pophale) SiO2 
 PCOD9223225
Probable space group: C 2/M
;
_chemical_formula_sum "Si O2"
_cell_formula_units_Z 28
_cell_length_a 18.000000
_cell_length_b 15.000000
_cell_length_c 21.000000
_cell_angle_alpha 90.000000
_cell_angle_beta 150.000000
_cell_angle_gamma 90.000000
_cell_volume 2835.000000
_symmetry_space_group_name_H-M "C 2/M"
_symmetry_group_IT_number 12
_symmetry_cell_setting 'monoclinic'
loop_
_space_group_symop_operation_xyz
x,y,z
-x,y,-z
-x,-y,-z
x,-y,z
1/2+x,1/2+y,z
1/2-x,1/2+y,-z
1/2-x,1/2-y,-z
1/2+x,1/2-y,z
loop_
_atom_site_type_symbol
_atom_site_label
_atom_site_fract_x
_atom_site_fract_y
_atom_site_fract_z
Si Si1 0.466404 0.311805 0.828534
Si Si2 0.790512 0.903014 0.921408
Si Si3 0.517753 0.840196 0.261705
Si Si4 0.848877 0.095516 0.490603
Si Si5 0.428798 0.213868 0.555859
Si Si6 0.643282 0.595317 0.359836
Si Si7 0.802075 0.603542 0.294115
O O1 0.480818 0.220827 0.799997
O O2 0.481951 0.385636 0.784277
O O3 0.312028 0.338011 0.748739
O O4 0.599307 0.325820 0.975752
O O5 0.633898 0.894353 0.841892
O O6 0.761816 0.898763 0.825033
O O7 0.859525 0.000000 0.985489
O O8 0.671146 0.894834 0.370113
O O9 0.523516 0.786416 0.333727
O O10 0.911319 0.188799 0.511941
O O11 0.911096 0.093945 0.608754
O O12 0.880178 0.000000 0.482612
O O13 0.265972 0.170893 0.440559
O O14 0.539589 0.151201 0.599006
O O15 0.717426 0.500000 0.403124
O O16 0.813410 0.500000 0.324156
#
# Coordination Sequence:
#
# PCOD9223225 Si02
#       7
#     8   8   8   8   8   8   8
#     4  12  20  33  52  80 115 138 174 221 266 311
#     4  10  21  36  54  77 107 145 184 215 259 321
#     4  10  19  35  54  78 106 142 181 222 263 314
#     4  10  18  33  56  77 104 141 179 222 266 313
#     4  10  18  36  52  75 109 144 180 212 260 327
#     4  10  18  29  51  80 109 137 170 217 272 317
#     4  10  22  36  54  78 111 149 176 209 268 329
#
# _framework density 9.8765429999999999
#
# number of rings (size 3 to 8) (size 9 to 14) (size 15 to 20)
#    0.000    1.714    2.857    3.857    0.000    5.143 
#    0.000    1.429    0.000    2.571    0.000    0.000 
#    0.000    9.143    0.000    0.000    0.000    0.000 
#
# Total GULP energy -155998.361245 kJ/mol
# GULP energy per Si atom -5571.370044 kJ/mol
# Density = 0.985406 g / cm^3
# Si number density = 9.876543 Si / 1000 Ang^3
#
#
#
# Elastic Constant Matrix: (Units=GPa)
#
#
# Indices 1 2 3 4 5 6 
#
# 1 66.2248 13.1416 -0.6212 0.0002 -3.7572 0.0002
# 2 13.1416 109.8729 -0.0330 0.0008 -10.4067 0.0005
# 3 -0.6212 -0.0330 16.1914 0.0001 -7.7106 0.0004
# 4 0.0002 0.0008 0.0001 19.6705 0.0006 2.0419
# 5 -3.7572 -10.4067 -7.7106 0.0006 18.8139 0.0005
# 6 0.0002 0.0005 0.0004 2.0419 0.0005 13.7151
#
#
#
# Elastic Compliance Matrix: (Units=1/GPa)
#
#
# Indices 1 2 3 4 5 6 
#
# 1 0.015607 -0.001573 0.002069 0.000000 0.003095 0.000000
# 2 -0.001573 0.009896 0.003003 -0.000001 0.006390 -0.000001
# 3 0.002069 0.003003 0.078072 -0.000001 0.034071 -0.000003
# 4 0.000000 -0.000001 -0.000001 0.051636 -0.000002 -0.007688
# 5 0.003095 0.006390 0.034071 -0.000002 0.071268 -0.000003
# 6 0.000000 -0.000001 -0.000003 -0.007688 -0.000003 0.074057
#
#
# Mechanical properties :
#
#
# Convention : Reuss Voigt Hill
#
# Bulk Modulus (GPa) = 9.04376 24.14044 16.59210
# Shear Modulus (GPa) = 15.13342 22.42669 18.78005
#
# Velocity S-wave (km/s) = 2.77091 3.37315 3.08675
# Velocity P-wave (km/s) = 3.85040 5.23627 4.59587
#
# Compressibility (1/GPa) = 0.11057344
#
# Stress axis : x y z
#
# Youngs Moduli (GPa) = 64.07296 101.05365 12.80873
#
# Poissons Ratio (x) = 0.15896 -0.02651
# Poissons Ratio (y) = 0.10079 -0.03846
# Poissons Ratio (z) = -0.13259 -0.30346
#
# Static dielectric constant tensor:
#      x y z
#    x 1.672980 0.000000 -0.033790 
#    y 0.000000 1.768050 0.000000 
#    z -0.033790 0.000000 1.737250 
# 
# From -- ./inp_files/189590.got.cif
#   From: 2010.05.17/outbox.ucp.g08.bks.cvg/sg12_95_cif.got.tgz:189590.got - 2010.06.11 11:47:21.
