data_PCOD9223729
_publ_section_title
;
Structure prediction by ZEFSAII (Michael W. Deem and Ramdas Pophale) SiO2 
 PCOD9223729
Probable space group: C 2/M
;
_chemical_formula_sum "Si O2"
_cell_formula_units_Z 28
_cell_length_a 21.000000
_cell_length_b 9.000000
_cell_length_c 18.000000
_cell_angle_alpha 90.000000
_cell_angle_beta 120.000000
_cell_angle_gamma 90.000000
_cell_volume 2946.218424
_symmetry_space_group_name_H-M "C 2/M"
_symmetry_group_IT_number 12
_symmetry_cell_setting 'monoclinic'
loop_
_space_group_symop_operation_xyz
x,y,z
-x,y,-z
-x,-y,-z
x,-y,z
1/2+x,1/2+y,z
1/2-x,1/2+y,-z
1/2-x,1/2-y,-z
1/2+x,1/2-y,z
loop_
_atom_site_type_symbol
_atom_site_label
_atom_site_fract_x
_atom_site_fract_y
_atom_site_fract_z
Si Si1 0.417572 0.171001 0.661368
Si Si2 0.704492 0.674042 0.907396
Si Si3 0.059253 0.663396 0.847723
Si Si4 0.680335 0.324273 0.270822
Si Si5 0.478772 0.179174 0.402466
Si Si6 0.817877 0.179768 0.274201
Si Si7 0.966769 0.835326 0.899338
O O1 0.495857 0.168034 0.749676
O O2 0.360403 0.261088 0.678990
O O3 0.448459 0.229849 0.601237
O O4 0.391391 0.000000 0.639116
O O5 0.719665 0.500000 0.919016
O O6 0.619751 0.711990 0.873485
O O7 0.712196 0.723718 0.825912
O O8 0.750000 0.750000 0.000000
O O9 0.093866 0.500000 0.868507
O O10 0.013257 0.701400 0.893227
O O11 0.694150 0.500000 0.286686
O O12 0.756097 0.241695 0.294673
O O13 0.618995 0.305188 0.168879
O O14 0.500000 0.204669 0.500000
O O15 0.400174 0.253727 0.335228
O O16 0.471137 0.000000 0.385943
O O17 0.822002 0.000000 0.279695
O O18 0.979577 0.000000 0.870667
O O19 0.000000 0.848545 0.000000
#
# Coordination Sequence:
#
# PCOD9223729 Si02
#       7
#     8   8   8   8   8   8   8
#     4   9  18  36  60  86 118 153 191 238 291 350
#     4  11  24  38  55  81 115 157 200 246 297 351
#     4  10  19  33  54  79 108 149 192 238 290 343
#     4  10  21  36  58  84 116 159 201 245 299 355
#     4  10  21  40  68  97 123 155 196 242 298 364
#     4  11  24  41  61  88 124 159 199 252 303 357
#     4   9  19  34  51  76 109 150 197 246 294 344
#
# _framework density 9.5037079999999996
#
# number of rings (size 3 to 8) (size 9 to 14) (size 15 to 20)
#    0.000    2.000    1.429    1.714    2.000    4.000 
#    0.000    0.714    0.000    0.000    0.000    0.000 
#    0.000    0.000    0.000    0.000    0.000    0.000 
#
# Total GULP energy -155905.064612 kJ/mol
# GULP energy per Si atom -5568.038022 kJ/mol
# Density = 0.948208 g / cm^3
# Si number density = 9.503708 Si / 1000 Ang^3
#
#
#
# Elastic Constant Matrix: (Units=GPa)
#
#
# Indices 1 2 3 4 5 6 
#
# 1 79.1577 35.1667 36.2633 0.0000 18.4145 0.0000
# 2 35.1667 46.1610 31.5079 0.0000 -7.1482 0.0000
# 3 36.2633 31.5079 70.9501 0.0000 -21.9791 0.0000
# 4 0.0000 0.0000 0.0000 21.3051 0.0000 3.6441
# 5 18.4145 -7.1482 -21.9791 0.0000 1.4618 0.0000
# 6 0.0000 0.0000 0.0000 3.6441 0.0000 35.2566
#
#
#
# Elastic Compliance Matrix: (Units=1/GPa)
#
#
# Indices 1 2 3 4 5 6 
#
# 1 0.005226 -0.005242 0.007840 0.000000 0.026414 0.000000
# 2 -0.005242 0.035158 -0.016616 0.000000 -0.011887 0.000000
# 3 0.007840 -0.016616 0.010470 0.000000 -0.022585 0.000000
# 4 0.000000 0.000000 0.000000 0.047782 0.000000 -0.004939
# 5 0.026414 -0.011887 -0.022585 0.000000 -0.046367 0.000000
# 6 0.000000 0.000000 0.000000 -0.004939 0.000000 0.028874
#
#
# Mechanical properties :
#
#
# Convention : Reuss Voigt Hill
#
# Bulk Modulus (GPa) = 43.82832 44.68274 44.25553
# Shear Modulus (GPa) = 42.81401 17.82676 30.32038
#
# Velocity S-wave (km/s) = 4.75119 3.06581 3.99831
# Velocity P-wave (km/s) = 7.29431 6.00761 6.68200
#
# Compressibility (1/GPa) = 0.02281630
#
# Stress axis : x y z
#
# Youngs Moduli (GPa) = 191.36707 28.44339 95.51028
#
# Poissons Ratio (x) = 0.14909 -0.74875
# Poissons Ratio (y) = 1.00308 1.58703
# Poissons Ratio (z) = -1.50023 0.47262
#
# Static dielectric constant tensor:
#      x y z
#    x 1.682360 0.000000 -0.072160 
#    y 0.000000 1.695140 0.000000 
#    z -0.072160 0.000000 1.779710 
# 
# From -- ./inp_files/281648.got.cif
#   From: 2010.05.17/outbox.ucp.g08.bks.cvg/sg12_141_cif.got.tgz:281648.got - 2010.06.11 11:47:21.
