data_PCOD9223266
_publ_section_title
;
Structure prediction by ZEFSAII (Michael W. Deem and Ramdas Pophale) SiO2 
 PCOD9223266
Probable space group: C 2/M
;
_chemical_formula_sum "Si O2"
_cell_formula_units_Z 24
_cell_length_a 12.000000
_cell_length_b 27.000000
_cell_length_c 15.000000
_cell_angle_alpha 90.000000
_cell_angle_beta 150.000000
_cell_angle_gamma 90.000000
_cell_volume 2430.000000
_symmetry_space_group_name_H-M "C 2/M"
_symmetry_group_IT_number 12
_symmetry_cell_setting 'monoclinic'
loop_
_space_group_symop_operation_xyz
x,y,z
-x,y,-z
-x,-y,-z
x,-y,z
1/2+x,1/2+y,z
1/2-x,1/2+y,-z
1/2-x,1/2-y,-z
1/2+x,1/2-y,z
loop_
_atom_site_type_symbol
_atom_site_label
_atom_site_fract_x
_atom_site_fract_y
_atom_site_fract_z
Si Si1 0.204579 0.440715 0.202357
Si Si2 0.677334 0.441677 0.450828
Si Si3 0.939959 0.596839 0.184975
Si Si4 0.060202 0.943035 0.161002
Si Si5 0.776681 0.338036 0.280282
Si Si6 0.216731 0.801963 0.032296
O O1 0.216076 0.500000 0.199784
O O2 0.453271 0.424004 0.347968
O O3 0.111993 0.427636 0.234599
O O4 0.000000 0.422102 0.000000
O O5 0.724007 0.500000 0.505556
O O6 0.611728 0.440992 0.301742
O O7 0.895547 0.407661 0.616104
O O8 0.865994 0.651582 0.101302
O O9 0.706144 0.567436 0.032902
O O10 0.199544 0.896415 0.217107
O O11 0.112915 0.000000 0.168165
O O12 0.779940 0.309899 0.184023
O O13 0.000000 0.333597 0.500000
O O14 0.546380 0.315003 0.161116
O O15 0.250000 0.750000 0.000000
#
# Coordination Sequence:
#
# PCOD9223266 Si02
#       6
#     8   8   8   8   8   8
#     4  10  18  31  50  81 128 170 201 242 294 352
#     4  10  19  31  53  87 130 172 207 242 291 363
#     4  11  20  35  57  83 118 165 213 255 305 362
#     4  10  20  35  58  91 129 167 202 243 298 368
#     4  10  22  44  69  94 126 161 202 254 315 375
#     4  10  24  46  65  90 120 154 206 270 321 363
#
# _framework density 9.8765429999999999
#
# number of rings (size 3 to 8) (size 9 to 14) (size 15 to 20)
#    0.000    1.833    1.667    3.000    0.000    2.333 
#    3.000   10.000    0.000    0.000    0.000    0.000 
#    0.000    0.000    0.000    0.000    0.000    0.500 
#
# Total GULP energy -133705.853639 kJ/mol
# GULP energy per Si atom -5571.077235 kJ/mol
# Density = 0.985406 g / cm^3
# Si number density = 9.876543 Si / 1000 Ang^3
#
#
#
# Elastic Constant Matrix: (Units=GPa)
#
#
# Indices 1 2 3 4 5 6 
#
# 1 78.7968 25.6837 48.6228 0.0000 4.4676 0.0000
# 2 25.6837 119.3686 50.9134 0.0000 9.1536 0.0000
# 3 48.6228 50.9134 188.9312 0.0001 12.8394 0.0000
# 4 0.0000 0.0000 0.0001 31.3570 0.0000 -1.8088
# 5 4.4676 9.1536 12.8394 0.0000 37.9804 0.0000
# 6 0.0000 0.0000 0.0000 -1.8088 0.0000 33.3251
#
#
#
# Elastic Compliance Matrix: (Units=1/GPa)
#
#
# Indices 1 2 3 4 5 6 
#
# 1 0.015437 -0.001827 -0.003467 0.000000 -0.000204 0.000000
# 2 -0.001827 0.009761 -0.002062 0.000000 -0.001440 0.000000
# 3 -0.003467 -0.002062 0.006836 0.000000 -0.001406 0.000000
# 4 0.000000 0.000000 0.000000 0.031991 0.000000 0.001736
# 5 -0.000204 -0.001440 -0.001406 0.000000 0.027176 0.000000
# 6 0.000000 0.000000 0.000000 0.001736 0.000000 0.030102
#
#
# Mechanical properties :
#
#
# Convention : Reuss Voigt Hill
#
# Bulk Modulus (GPa) = 57.73012 70.83740 64.28376
# Shear Modulus (GPa) = 35.26375 37.99094 36.62735
#
# Velocity S-wave (km/s) = 4.22978 4.39029 4.31078
# Velocity P-wave (km/s) = 7.28999 7.85104 7.57571
#
# Compressibility (1/GPa) = 0.01732198
#
# Stress axis : x y z
#
# Youngs Moduli (GPa) = 64.77879 102.45288 146.27659
#
# Poissons Ratio (x) = 0.18721 0.50708
# Poissons Ratio (y) = 0.11837 0.30164
# Poissons Ratio (z) = 0.22456 0.21127
#
# Static dielectric constant tensor:
#      x y z
#    x 1.839940 0.000000 -0.112360 
#    y 0.000000 1.690600 0.000000 
#    z -0.112360 0.000000 1.767530 
# 
# From -- ./inp_files/209450.got.cif
#   From: 2010.05.17/outbox.ucp.g08.bks.cvg/sg12_105_cif.got.tgz:209450.got - 2010.06.11 11:47:21.
