data_PCOD9223469
_publ_section_title
;
Structure prediction by ZEFSAII (Michael W. Deem and Ramdas Pophale) SiO2 
 PCOD9223469
Probable space group: C 2/M
;
_chemical_formula_sum "Si O2"
_cell_formula_units_Z 20
_cell_length_a 27.000000
_cell_length_b 9.000000
_cell_length_c 18.000000
_cell_angle_alpha 90.000000
_cell_angle_beta 30.000000
_cell_angle_gamma 90.000000
_cell_volume 2187.000000
_symmetry_space_group_name_H-M "C 2/M"
_symmetry_group_IT_number 12
_symmetry_cell_setting 'monoclinic'
loop_
_space_group_symop_operation_xyz
x,y,z
-x,y,-z
-x,-y,-z
x,-y,z
1/2+x,1/2+y,z
1/2-x,1/2+y,-z
1/2-x,1/2-y,-z
1/2+x,1/2-y,z
loop_
_atom_site_type_symbol
_atom_site_label
_atom_site_fract_x
_atom_site_fract_y
_atom_site_fract_z
Si Si1 0.240875 0.819311 0.171467
Si Si2 0.108850 0.823380 0.209895
Si Si3 0.547703 0.176452 0.135347
Si Si4 0.612367 0.323315 0.472070
Si Si5 0.345371 0.321055 0.414420
O O1 0.196277 0.769894 0.150101
O O2 0.174308 0.758971 0.324244
O O3 0.232075 0.000000 0.179113
O O4 0.355312 0.787510 0.038587
O O5 0.086508 0.728866 0.165839
O O6 0.004669 0.809440 0.388786
O O7 0.120910 0.000000 0.175606
O O8 0.448085 0.263359 0.245623
O O9 0.529499 0.000000 0.158441
O O10 0.632123 0.500000 0.448030
O O11 0.643774 0.270894 0.513257
O O12 0.340999 0.500000 0.417437
O O13 0.250000 0.250000 0.500000
#
# Coordination Sequence:
#
# PCOD9223469 Si02
#       5
#     8   8   8   8   8
#     4   9  16  27  46  73 101 128 161 199 233 269
#     4   9  16  28  48  71  98 133 167 197 228 268
#     4  10  19  30  47  72 101 129 158 194 235 283
#     4   8  15  28  48  73  95 121 162 203 234 269
#     4  10  20  36  57  73  89 118 157 201 244 288
#
# _framework density 9.1449470000000002
#
# number of rings (size 3 to 8) (size 9 to 14) (size 15 to 20)
#    0.000    2.800    0.000    3.600    0.000    2.400 
#    0.000    2.000    0.000   28.800    0.000    0.000 
#    0.000    0.000    0.000    0.000    0.000    0.000 
#
# Total GULP energy -111341.820916 kJ/mol
# GULP energy per Si atom -5567.091046 kJ/mol
# Density = 0.912413 g / cm^3
# Si number density = 9.144947 Si / 1000 Ang^3
#
#
#
# Elastic Constant Matrix: (Units=GPa)
#
#
# Indices 1 2 3 4 5 6 
#
# 1 60.4899 11.6191 21.3873 0.0001 -35.1290 0.0000
# 2 11.6191 35.5327 17.7166 -0.0006 -13.2768 0.0001
# 3 21.3873 17.7166 55.5819 0.0000 -18.7447 -0.0001
# 4 0.0001 -0.0006 0.0000 16.1966 0.0001 -8.1288
# 5 -35.1290 -13.2768 -18.7447 0.0001 30.6910 0.0000
# 6 0.0000 0.0001 -0.0001 -8.1288 0.0000 20.5559
#
#
#
# Elastic Compliance Matrix: (Units=1/GPa)
#
#
# Indices 1 2 3 4 5 6 
#
# 1 0.050447 0.006489 -0.001335 0.000000 0.059734 0.000000
# 2 0.006489 0.036939 -0.008031 0.000001 0.018502 0.000000
# 3 -0.001335 -0.008031 0.024405 0.000000 0.009903 0.000000
# 4 0.000000 0.000001 0.000000 0.077029 0.000000 0.030461
# 5 0.059734 0.018502 0.009903 0.000000 0.115006 0.000000
# 6 0.000000 0.000000 0.000000 0.030461 0.000000 0.060694
#
#
# Mechanical properties :
#
#
# Convention : Reuss Voigt Hill
#
# Bulk Modulus (GPa) = 9.43074 28.11670 18.77372
# Shear Modulus (GPa) = 12.32680 20.21414 16.27047
#
# Velocity S-wave (km/s) = 2.59891 3.32807 2.98583
# Velocity P-wave (km/s) = 3.76473 5.49311 4.70890
#
# Compressibility (1/GPa) = 0.10603627
#
# Stress axis : x y z
#
# Youngs Moduli (GPa) = 19.82272 27.07176 40.97543
#
# Poissons Ratio (x) = -0.17567 0.05470
# Poissons Ratio (y) = -0.12863 0.32909
# Poissons Ratio (z) = 0.02646 0.21743
#
# Static dielectric constant tensor:
#      x y z
#    x 1.605040 0.000000 0.029060 
#    y 0.000000 1.612690 0.000000 
#    z 0.029060 0.000000 1.725860 
# 
# From -- ./inp_files/152895.got.cif
#   From: 2010.05.17/outbox.ucp.g08.bks.cvg/sg12_77_cif.got.tgz:152895.got - 2010.06.11 11:47:21.
