data_PCOD9223898
_publ_section_title
;
Structure prediction by ZEFSAII (Michael W. Deem and Ramdas Pophale) SiO2 
 PCOD9223898
Probable space group: C 2/M
;
_chemical_formula_sum "Si O2"
_cell_formula_units_Z 28
_cell_length_a 27.000000
_cell_length_b 9.000000
_cell_length_c 18.000000
_cell_angle_alpha 90.000000
_cell_angle_beta 40.000000
_cell_angle_gamma 90.000000
_cell_volume 2811.553005
_symmetry_space_group_name_H-M "C 2/M"
_symmetry_group_IT_number 12
_symmetry_cell_setting 'monoclinic'
loop_
_space_group_symop_operation_xyz
x,y,z
-x,y,-z
-x,-y,-z
x,-y,z
1/2+x,1/2+y,z
1/2-x,1/2+y,-z
1/2-x,1/2-y,-z
1/2+x,1/2-y,z
loop_
_atom_site_type_symbol
_atom_site_label
_atom_site_fract_x
_atom_site_fract_y
_atom_site_fract_z
Si Si1 0.114658 0.323490 0.018382
Si Si2 0.643003 0.673937 0.145132
Si Si3 0.162772 0.323267 0.401077
Si Si4 0.267204 0.821913 0.828138
Si Si5 0.042660 0.824749 0.796050
Si Si6 0.030960 0.832584 0.631455
Si Si7 0.783185 0.819754 0.386416
O O1 0.122362 0.500000 0.004303
O O2 0.128330 0.267174 0.087378
O O3 0.029950 0.268970 0.092646
O O4 0.183524 0.236216 0.899382
O O5 0.659986 0.500000 0.108476
O O6 0.705260 0.746256 0.127467
O O7 0.559478 0.677372 0.280055
O O8 0.170395 0.500000 0.390888
O O9 0.175626 0.272373 0.302681
O O10 0.081295 0.279435 0.527462
O O11 0.229042 0.268988 0.381201
O O12 0.266919 0.000000 0.836534
O O13 0.043630 0.808559 0.705079
O O14 0.127032 0.780442 0.727100
O O15 0.029363 0.000000 0.826420
O O16 0.057538 0.000000 0.584567
O O17 0.750000 0.750000 0.500000
O O18 0.780090 0.000000 0.396235
#
# Coordination Sequence:
#
# PCOD9223898 Si02
#       7
#     8   8   8   8   8   8   8
#     4  11  22  37  59  84 108 141 185 231 276 323
#     4  10  21  38  59  83 110 143 184 227 274 327
#     4  10  22  36  54  81 114 148 184 225 271 325
#     4  11  23  39  55  77 111 150 187 226 273 324
#     4   9  18  34  56  83 113 144 180 226 275 324
#     4   9  18  33  54  81 111 143 179 224 275 324
#     4  10  19  34  57  85 113 144 183 224 271 324
#
# _framework density 9.9589090000000002
#
# number of rings (size 3 to 8) (size 9 to 14) (size 15 to 20)
#    0.000    2.000    1.429    3.429    0.000    5.143 
#    0.000    3.571    0.000    4.286    0.000    0.000 
#    0.000    0.000    0.000    0.000    0.000    0.000 
#
# Total GULP energy -156253.550053 kJ/mol
# GULP energy per Si atom -5580.483930 kJ/mol
# Density = 0.993624 g / cm^3
# Si number density = 9.958909 Si / 1000 Ang^3
#
#
#
# Elastic Constant Matrix: (Units=GPa)
#
#
# Indices 1 2 3 4 5 6 
#
# 1 24.2083 8.8443 21.7180 -0.0036 -10.5048 0.0028
# 2 8.8443 28.7159 -1.9681 -0.0005 -5.6920 0.0013
# 3 21.7180 -1.9681 22.2835 -0.0018 -16.5529 0.0019
# 4 -0.0036 -0.0005 -0.0018 28.3638 0.0014 -10.3320
# 5 -10.5048 -5.6920 -16.5529 0.0014 25.6153 -0.0014
# 6 0.0028 0.0013 0.0019 -10.3320 -0.0014 21.3985
#
#
#
# Elastic Compliance Matrix: (Units=1/GPa)
#
#
# Indices 1 2 3 4 5 6 
#
# 1 -0.142241 0.079387 0.221963 -0.000008 0.102742 -0.000003
# 2 0.079387 -0.003821 -0.104152 0.000004 -0.035596 -0.000001
# 3 0.221963 -0.104152 -0.250448 0.000015 -0.093959 0.000000
# 4 -0.000008 0.000004 0.000015 0.042780 0.000006 0.020656
# 5 0.102742 -0.035596 -0.093959 0.000006 0.012547 0.000001
# 6 -0.000003 -0.000001 0.000000 0.020656 0.000001 0.056706
#
#
# Mechanical properties :
#
#
# Convention : Reuss Voigt Hill
#
# Bulk Modulus (GPa) = -473.22673 14.71067 -229.25803
# Shear Modulus (GPa) = -7.35751 18.18309 5.41279
#
# Velocity S-wave (km/s) = -1.92405 3.02471 1.65029
# Velocity P-wave (km/s) = 15.58978 4.42721 10.56980
#
# Compressibility (1/GPa) = -0.00211315
#
# Stress axis : x y z
#
# Youngs Moduli (GPa) = -7.03031 -261.74531 -3.99285
#
# Poissons Ratio (x) = 20.77912 0.88626
# Poissons Ratio (y) = 0.55811 -0.41586
# Poissons Ratio (z) = 1.56047 -27.26119
#
# Static dielectric constant tensor:
#      x y z
#    x 1.691560 0.000000 -0.005770 
#    y 0.000000 1.665910 0.000000 
#    z -0.005770 0.000000 1.750550 
# 
# From -- ./inp_files/288469.got.cif
#   From: 2010.05.17/outbox.ucp.g08.bks.cvg/sg12_145_cif.got.tgz:288469.got - 2010.06.11 11:47:21.
