data_PCOD9223354
_publ_section_title
;
Structure prediction by ZEFSAII (Michael W. Deem and Ramdas Pophale) SiO2 
 PCOD9223354
Probable space group: C 2/M
;
_chemical_formula_sum "Si O2"
_cell_formula_units_Z 28
_cell_length_a 24.000000
_cell_length_b 9.000000
_cell_length_c 24.000000
_cell_angle_alpha 90.000000
_cell_angle_beta 40.000000
_cell_angle_gamma 90.000000
_cell_volume 3332.210969
_symmetry_space_group_name_H-M "C 2/M"
_symmetry_group_IT_number 12
_symmetry_cell_setting 'monoclinic'
loop_
_space_group_symop_operation_xyz
x,y,z
-x,y,-z
-x,-y,-z
x,-y,z
1/2+x,1/2+y,z
1/2-x,1/2+y,-z
1/2-x,1/2-y,-z
1/2+x,1/2-y,z
loop_
_atom_site_type_symbol
_atom_site_label
_atom_site_fract_x
_atom_site_fract_y
_atom_site_fract_z
Si Si1 0.110119 0.174138 0.283316
Si Si2 0.779823 0.322105 0.894800
Si Si3 0.081760 0.822553 0.734938
Si Si4 0.898168 0.173204 0.581286
Si Si5 0.916983 0.176968 0.398000
Si Si6 0.220465 0.322466 0.417727
Si Si7 0.389679 0.320189 0.911369
O O1 0.179333 0.261885 0.193505
O O2 0.129953 0.183326 0.333249
O O3 0.009800 0.224904 0.352524
O O4 0.111577 0.000000 0.264968
O O5 0.787218 0.500000 0.891705
O O6 0.840845 0.249724 0.895595
O O7 0.678560 0.284900 0.986255
O O8 0.072571 0.798302 0.675773
O O9 0.180625 0.767706 0.669857
O O10 0.991308 0.770269 0.833459
O O11 0.084058 0.000000 0.743712
O O12 0.839886 0.275268 0.587379
O O13 0.000000 0.211064 0.500000
O O14 0.890748 0.000000 0.568687
O O15 0.832656 0.254478 0.489112
O O16 0.907668 0.000000 0.414588
O O17 0.224553 0.500000 0.421991
O O18 0.390728 0.500000 0.904723
#
# Coordination Sequence:
#
# PCOD9223354 Si02
#       7
#     8   8   8   8   8   8   8
#     4  10  19  33  55  73  96 135 169 200 244 301
#     4  10  19  29  49  80 105 125 160 212 255 286
#     4   9  18  33  52  72 100 138 171 194 239 304
#     4  10  20  37  55  70  92 133 179 204 236 300
#     4  10  18  33  53  71  98 140 172 194 235 304
#     4  11  22  33  49  76 104 130 164 213 253 281
#     4   9  17  33  52  70 101 140 168 193 239 306
#
# _framework density 8.4028290000000005
#
# number of rings (size 3 to 8) (size 9 to 14) (size 15 to 20)
#    0.000    2.143    2.857    1.286    0.000    2.000 
#    0.000    2.143    0.000    0.857    0.000    6.000 
#    0.000    0.000    0.000    0.000    0.000    0.000 
#
# Total GULP energy -155966.334926 kJ/mol
# GULP energy per Si atom -5570.226247 kJ/mol
# Density = 0.838370 g / cm^3
# Si number density = 8.402829 Si / 1000 Ang^3
#
#
#
# Elastic Constant Matrix: (Units=GPa)
#
#
# Indices 1 2 3 4 5 6 
#
# 1 38.7018 10.9384 40.1808 0.0000 -12.0902 0.0000
# 2 10.9384 28.0545 35.4593 0.0002 -5.9398 -0.0001
# 3 40.1808 35.4593 158.9175 0.0000 -29.8881 0.0000
# 4 0.0000 0.0002 0.0000 33.0923 0.0000 -0.6227
# 5 -12.0902 -5.9398 -29.8881 0.0000 30.3351 0.0000
# 6 0.0000 -0.0001 0.0000 -0.6227 0.0000 17.5689
#
#
#
# Elastic Compliance Matrix: (Units=1/GPa)
#
#
# Indices 1 2 3 4 5 6 
#
# 1 0.036376 -0.003808 -0.007072 0.000000 0.006785 0.000000
# 2 -0.003808 0.050098 -0.010625 0.000000 -0.002177 0.000000
# 3 -0.007072 -0.010625 0.011698 0.000000 0.006626 0.000000
# 4 0.000000 0.000000 0.000000 0.030239 0.000000 0.001072
# 5 0.006785 -0.002177 0.006626 0.000000 0.041772 0.000000
# 6 0.000000 0.000000 0.000000 0.001072 0.000000 0.056957
#
#
# Mechanical properties :
#
#
# Convention : Reuss Voigt Hill
#
# Bulk Modulus (GPa) = 18.12831 44.31452 31.22141
# Shear Modulus (GPa) = 17.32882 25.47227 21.40055
#
# Velocity S-wave (km/s) = 3.21461 3.89742 3.57236
# Velocity P-wave (km/s) = 4.95870 6.83222 5.96942
#
# Compressibility (1/GPa) = 0.05516235
#
# Stress axis : x y z
#
# Youngs Moduli (GPa) = 27.49040 19.96077 85.48815
#
# Poissons Ratio (x) = 0.07602 0.60454
# Poissons Ratio (y) = 0.10469 0.90830
# Poissons Ratio (z) = 0.19440 0.21208
#
# Static dielectric constant tensor:
#      x y z
#    x 1.577860 0.000000 -0.003090 
#    y 0.000000 1.573460 0.000000 
#    z -0.003090 0.000000 1.590200 
# 
# From -- ./inp_files/237417.got.cif
#   From: 2010.05.17/outbox.ucp.g08.bks.cvg/sg12_119_cif.got.tgz:237417.got - 2010.06.11 11:47:21.
