data_PCOD9223299
_publ_section_title
;
Structure prediction by ZEFSAII (Michael W. Deem and Ramdas Pophale) SiO2 
 PCOD9223299
Probable space group: C 2/M
;
_chemical_formula_sum "Si O2"
_cell_formula_units_Z 32
_cell_length_a 15.000000
_cell_length_b 9.000000
_cell_length_c 30.000000
_cell_angle_alpha 90.000000
_cell_angle_beta 130.000000
_cell_angle_gamma 90.000000
_cell_volume 3102.479995
_symmetry_space_group_name_H-M "C 2/M"
_symmetry_group_IT_number 12
_symmetry_cell_setting 'monoclinic'
loop_
_space_group_symop_operation_xyz
x,y,z
-x,y,-z
-x,-y,-z
x,-y,z
1/2+x,1/2+y,z
1/2-x,1/2+y,-z
1/2-x,1/2-y,-z
1/2+x,1/2-y,z
loop_
_atom_site_type_symbol
_atom_site_label
_atom_site_fract_x
_atom_site_fract_y
_atom_site_fract_z
Si Si1 0.772294 0.178671 0.142911
Si Si2 0.826568 0.679287 0.985692
Si Si3 0.201516 0.178599 0.387285
Si Si4 0.084496 0.320019 0.487377
Si Si5 0.958759 0.680534 0.890361
Si Si6 0.499992 0.176814 0.805174
Si Si7 0.986307 0.678876 0.359028
Si Si8 0.759001 0.177469 0.313802
O O1 0.720667 0.223216 0.077783
O O2 0.673521 0.228831 0.145529
O O3 0.898784 0.245949 0.189889
O O4 0.779985 0.000000 0.146475
O O5 0.819640 0.500000 0.985426
O O6 0.750000 0.750000 0.000000
O O7 0.958455 0.720863 0.041742
O O8 0.285653 0.221268 0.455668
O O9 0.077898 0.257555 0.353234
O O10 0.261917 0.238322 0.362015
O O11 0.190907 0.000000 0.382343
O O12 0.080456 0.500000 0.486081
O O13 0.039035 0.274459 0.424476
O O14 0.000000 0.268025 0.500000
O O15 0.956848 0.500000 0.888372
O O16 0.008664 0.731182 0.859188
O O17 0.369481 0.203961 0.746936
O O18 0.519340 0.000000 0.810496
O O19 0.979411 0.500000 0.354521
O O20 0.860337 0.753696 0.316158
O O21 0.775082 0.000000 0.324083
#
# Coordination Sequence:
#
# PCOD9223299 Si02
#       8
#     8   8   8   8   8   8   8   8
#     4  10  20  34  57  87 112 143 190 233 276 341
#     4  10  18  31  55  83 113 146 183 226 278 339
#     4  11  22  39  63  89 120 156 194 240 295 351
#     4   9  17  34  60  89 119 153 191 232 287 355
#     4   9  18  35  57  80 111 149 182 222 280 339
#     4  10  22  40  59  79 110 150 189 236 287 336
#     4  11  22  39  63  90 122 155 191 240 295 350
#     4  11  24  41  59  84 116 155 206 249 291 347
#
# _framework density 10.314329000000001
#
# number of rings (size 3 to 8) (size 9 to 14) (size 15 to 20)
#    0.000    1.875    2.500    1.875    0.000    3.500 
#    0.000    5.000    0.000    1.500    0.000    0.000 
#    0.000    0.000    0.000    0.000    0.000    0.000 
#
# Total GULP energy -178690.353418 kJ/mol
# GULP energy per Si atom -5584.073544 kJ/mol
# Density = 1.029085 g / cm^3
# Si number density = 10.314329 Si / 1000 Ang^3
#
#
#
# Elastic Constant Matrix: (Units=GPa)
#
#
# Indices 1 2 3 4 5 6 
#
# 1 106.4491 17.2319 2.2117 0.0000 38.1051 0.0000
# 2 17.2319 32.8635 20.0597 0.0000 18.3640 0.0000
# 3 2.2117 20.0597 40.0265 0.0000 21.6261 0.0000
# 4 0.0000 0.0000 0.0000 21.6309 0.0000 2.9391
# 5 38.1051 18.3640 21.6261 0.0000 34.6491 0.0000
# 6 0.0000 0.0000 0.0000 2.9391 0.0000 26.6922
#
#
#
# Elastic Compliance Matrix: (Units=1/GPa)
#
#
# Indices 1 2 3 4 5 6 
#
# 1 0.021642 -0.004285 0.018987 0.000000 -0.033381 0.000000
# 2 -0.004285 0.050003 -0.019690 0.000000 -0.009500 0.000000
# 3 0.018987 -0.019690 0.059515 0.000000 -0.047591 0.000000
# 4 0.000000 0.000000 0.000000 0.046932 0.000000 -0.005168
# 5 -0.033381 -0.009500 -0.047591 0.000000 0.100310 0.000000
# 6 0.000000 0.000000 0.000000 -0.005168 0.000000 0.038033
#
#
# Mechanical properties :
#
#
# Convention : Reuss Voigt Hill
#
# Bulk Modulus (GPa) = 8.25181 28.70506 18.47844
# Shear Modulus (GPa) = 13.63121 25.91685 19.77403
#
# Velocity S-wave (km/s) = 2.57337 3.54835 3.09944
# Velocity P-wave (km/s) = 3.58309 5.54374 4.66753
#
# Compressibility (1/GPa) = 0.12118549
#
# Stress axis : x y z
#
# Youngs Moduli (GPa) = 46.20556 19.99894 16.80245
#
# Poissons Ratio (x) = 0.08569 -0.31902
# Poissons Ratio (y) = 0.19797 0.33083
# Poissons Ratio (z) = -0.87729 0.39377
#
# Static dielectric constant tensor:
#      x y z
#    x 1.750050 0.000000 0.009090 
#    y 0.000000 1.678430 0.000000 
#    z 0.009090 0.000000 1.764750 
# 
# From -- ./inp_files/375668.got.cif
#   From: 2010.05.17/outbox.ucp.g08.bks.cvg/sg12_188_cif.got.tgz:375668.got - 2010.06.11 11:47:21.
