data_PCOD9223826
_publ_section_title
;
Structure prediction by ZEFSAII (Michael W. Deem and Ramdas Pophale) SiO2 
 PCOD9223826
Probable space group: C 2/M
;
_chemical_formula_sum "Si O2"
_cell_formula_units_Z 28
_cell_length_a 21.000000
_cell_length_b 9.000000
_cell_length_c 30.000000
_cell_angle_alpha 90.000000
_cell_angle_beta 30.000000
_cell_angle_gamma 90.000000
_cell_volume 2835.000000
_symmetry_space_group_name_H-M "C 2/M"
_symmetry_group_IT_number 12
_symmetry_cell_setting 'monoclinic'
loop_
_space_group_symop_operation_xyz
x,y,z
-x,y,-z
-x,-y,-z
x,-y,z
1/2+x,1/2+y,z
1/2-x,1/2+y,-z
1/2-x,1/2-y,-z
1/2+x,1/2-y,z
loop_
_atom_site_type_symbol
_atom_site_label
_atom_site_fract_x
_atom_site_fract_y
_atom_site_fract_z
Si Si1 0.882593 0.679974 0.042456
Si Si2 0.300090 0.672588 0.772225
Si Si3 0.875278 0.680377 0.945195
Si Si4 0.842764 0.327166 0.228415
Si Si5 0.744321 0.827585 0.574001
Si Si6 0.060159 0.673189 0.609343
Si Si7 0.854349 0.323866 0.591543
O O1 0.894957 0.500000 0.033947
O O2 0.753718 0.711617 0.146954
O O3 0.877768 0.729450 0.995033
O O4 0.000000 0.739702 0.000000
O O5 0.343345 0.500000 0.744932
O O6 0.181475 0.680282 0.809933
O O7 0.415929 0.778734 0.690578
O O8 0.868954 0.500000 0.946641
O O9 0.016722 0.723867 0.842194
O O10 0.750000 0.750000 0.000000
O O11 0.831596 0.500000 0.248053
O O12 0.724182 0.240486 0.320061
O O13 0.852262 0.779497 0.473405
O O14 0.611068 0.807957 0.629001
O O15 0.771869 0.726667 0.599349
O O16 0.757654 0.000000 0.578091
O O17 0.080600 0.500000 0.584719
O O18 0.860554 0.500000 0.590534
O O19 0.000000 0.266950 0.500000
#
# Coordination Sequence:
#
# PCOD9223826 Si02
#       7
#     8   8   8   8   8   8   8
#     4   9  16  33  60  84 108 143 191 239 278 328
#     4  10  19  33  59  88 110 144 195 239 281 338
#     4  10  21  38  60  87 120 156 196 245 299 352
#     4  10  21  37  58  84 115 153 196 242 287 347
#     4  10  21  38  58  79 109 150 192 232 278 340
#     4  10  21  36  55  82 115 147 181 233 291 340
#     4  11  24  39  57  83 116 152 190 238 293 346
#
# _framework density 9.8765429999999999
#
# number of rings (size 3 to 8) (size 9 to 14) (size 15 to 20)
#    0.000    2.000    1.429    2.143    0.000    7.429 
#    0.000    3.571    0.000    0.857    0.000    0.000 
#    0.000    0.000    0.000    0.000    0.000    0.000 
#
# Total GULP energy -156108.960403 kJ/mol
# GULP energy per Si atom -5575.320014 kJ/mol
# Density = 0.985406 g / cm^3
# Si number density = 9.876543 Si / 1000 Ang^3
#
#
#
# Elastic Constant Matrix: (Units=GPa)
#
#
# Indices 1 2 3 4 5 6 
#
# 1 75.7984 17.4671 49.1646 -0.0001 -14.4926 0.0001
# 2 17.4671 25.9535 35.9916 -0.0001 -10.4228 0.0002
# 3 49.1646 35.9916 78.6066 -0.0002 -14.1433 -0.0002
# 4 -0.0001 -0.0001 -0.0002 10.4861 0.0000 -13.9690
# 5 -14.4926 -10.4228 -14.1433 0.0000 32.0789 0.0001
# 6 0.0001 0.0002 -0.0002 -13.9690 0.0001 20.2402
#
#
#
# Elastic Compliance Matrix: (Units=1/GPa)
#
#
# Indices 1 2 3 4 5 6 
#
# 1 0.024869 0.016118 -0.021692 -0.000011 0.006909 -0.000008
# 2 0.016118 0.122222 -0.062550 -0.000037 0.019415 -0.000027
# 3 -0.021692 -0.062550 0.053774 0.000027 -0.006414 0.000020
# 4 -0.000011 -0.000037 0.000027 1.183014 -0.000007 0.816468
# 5 0.006909 0.019415 -0.006414 -0.000007 0.037775 -0.000005
# 6 -0.000008 -0.000027 0.000020 0.816468 -0.000005 0.612900
#
#
# Mechanical properties :
#
#
# Convention : Reuss Voigt Hill
#
# Bulk Modulus (GPa) = 15.47522 42.84503 29.16012
# Shear Modulus (GPa) = 2.28067 17.74340 10.01204
#
# Velocity S-wave (km/s) = 1.07568 3.00035 2.25380
# Velocity P-wave (km/s) = 3.06498 5.80863 4.64405
#
# Compressibility (1/GPa) = 0.06461945
#
# Stress axis : x y z
#
# Youngs Moduli (GPa) = 40.21049 8.18185 18.59629
#
# Poissons Ratio (x) = -0.13188 0.40338
# Poissons Ratio (y) = -0.64813 1.16319
# Poissons Ratio (z) = 0.87223 0.51177
#
# Static dielectric constant tensor:
#      x y z
#    x 1.751290 0.000000 0.068750 
#    y 0.000000 1.663380 0.000000 
#    z 0.068750 0.000000 1.760060 
# 
# From -- ./inp_files/329703.got.cif
#   From: 2010.05.17/outbox.ucp.g08.bks.cvg/sg12_165_cif.got.tgz:329703.got - 2010.06.11 11:47:21.
