data_PCOD9223388
_publ_section_title
;
Structure prediction by ZEFSAII (Michael W. Deem and Ramdas Pophale) SiO2 
 PCOD9223388
Probable space group: C 2/M
;
_chemical_formula_sum "Si O2"
_cell_formula_units_Z 32
_cell_length_a 21.000000
_cell_length_b 9.000000
_cell_length_c 21.000000
_cell_angle_alpha 90.000000
_cell_angle_beta 120.000000
_cell_angle_gamma 90.000000
_cell_volume 3437.254828
_symmetry_space_group_name_H-M "C 2/M"
_symmetry_group_IT_number 12
_symmetry_cell_setting 'monoclinic'
loop_
_space_group_symop_operation_xyz
x,y,z
-x,y,-z
-x,-y,-z
x,-y,z
1/2+x,1/2+y,z
1/2-x,1/2+y,-z
1/2-x,1/2-y,-z
1/2+x,1/2-y,z
loop_
_atom_site_type_symbol
_atom_site_label
_atom_site_fract_x
_atom_site_fract_y
_atom_site_fract_z
Si Si1 0.773445 0.321968 0.758343
Si Si2 0.620736 0.820367 0.708609
Si Si3 0.546250 0.676137 0.928990
Si Si4 0.558191 0.821382 0.808307
Si Si5 0.976459 0.680434 0.558916
Si Si6 0.672020 0.172254 0.458450
Si Si7 0.391059 0.826098 0.714967
Si Si8 0.887087 0.176970 0.899624
O O1 0.767568 0.500000 0.752397
O O2 0.692895 0.251682 0.714877
O O3 0.828980 0.264350 0.730955
O O4 0.816593 0.268083 0.842708
O O5 0.610983 0.775922 0.777363
O O6 0.543497 0.775010 0.637852
O O7 0.626599 0.000000 0.706500
O O8 0.545263 0.500000 0.916022
O O9 0.580614 0.763143 0.887963
O O10 0.460952 0.722048 0.897725
O O11 0.590001 0.699781 0.016008
O O12 0.473927 0.764870 0.756755
O O13 0.556144 0.000000 0.805502
O O14 0.971809 0.500000 0.562741
O O15 0.895009 0.737432 0.533615
O O16 0.000000 0.717861 0.500000
O O17 0.750000 0.250000 0.500000
O O18 0.640463 0.178790 0.371456
O O19 0.682969 0.000000 0.481868
O O20 0.398618 0.000000 0.736976
O O21 0.875379 0.000000 0.883927
#
# Coordination Sequence:
#
# PCOD9223388 Si02
#       8
#     8   8   8   8   8   8   8   8
#     4  11  22  35  54  80 110 143 180 224 271 320
#     4  10  21  37  57  78 107 145 183 223 268 319
#     4   9  18  32  54  82 111 140 172 222 275 315
#     4  10  18  34  57  79 103 142 185 219 264 323
#     4   9  18  34  56  79 104 140 183 220 258 314
#     4  10  20  36  56  80 110 140 177 223 269 316
#     4   9  18  34  54  76 107 142 176 219 270 318
#     4   9  18  34  53  79 113 143 174 217 273 322
#
# _framework density 9.3097549999999991
#
# number of rings (size 3 to 8) (size 9 to 14) (size 15 to 20)
#    0.000    2.375    2.500    1.125    1.750    1.000 
#    0.000    3.750    0.000    0.750    0.000    0.000 
#    0.000    0.000    0.000    0.000    0.000    0.000 
#
# Total GULP energy -178316.470046 kJ/mol
# GULP energy per Si atom -5572.389689 kJ/mol
# Density = 0.928857 g / cm^3
# Si number density = 9.309755 Si / 1000 Ang^3
#
#
#
# Elastic Constant Matrix: (Units=GPa)
#
#
# Indices 1 2 3 4 5 6 
#
# 1 112.2613 19.6408 18.2727 0.0000 8.1129 0.0000
# 2 19.6408 10.2444 5.8725 0.0000 4.9878 0.0000
# 3 18.2727 5.8725 7.8822 0.0000 3.9620 0.0000
# 4 0.0000 0.0000 0.0000 7.6353 0.0000 7.3452
# 5 8.1129 4.9878 3.9620 0.0000 22.3839 0.0000
# 6 0.0000 0.0000 0.0000 7.3452 0.0000 26.2661
#
#
#
# Elastic Compliance Matrix: (Units=1/GPa)
#
#
# Indices 1 2 3 4 5 6 
#
# 1 0.015822 -0.017129 -0.025194 0.000000 0.002542 0.000000
# 2 -0.017129 0.195039 -0.095361 0.000000 -0.020373 0.000000
# 3 -0.025194 -0.095361 0.264593 0.000000 -0.016453 0.000000
# 4 0.000000 0.000000 0.000000 0.179173 0.000000 -0.050105
# 5 0.002542 -0.020373 -0.016453 0.000000 0.051206 0.000000
# 6 0.000000 0.000000 0.000000 -0.050105 0.000000 0.052084
#
#
# Mechanical properties :
#
#
# Convention : Reuss Voigt Hill
#
# Bulk Modulus (GPa) = 4.99791 24.21777 14.60784
# Shear Modulus (GPa) = 4.54554 17.03052 10.78803
#
# Velocity S-wave (km/s) = 1.56415 3.02762 2.40967
# Velocity P-wave (km/s) = 2.43971 5.02562 3.95025
#
# Compressibility (1/GPa) = 0.20008376
#
# Stress axis : x y z
#
# Youngs Moduli (GPa) = 63.20386 5.12718 3.77939
#
# Poissons Ratio (x) = 0.08782 0.09522
# Poissons Ratio (y) = 1.08263 0.36041
# Poissons Ratio (z) = 1.59239 0.48893
#
# Static dielectric constant tensor:
#      x y z
#    x 1.658280 0.000000 -0.025620 
#    y 0.000000 1.641050 0.000000 
#    z -0.025620 0.000000 1.656880 
# 
# From -- ./inp_files/319816.got.cif
#   From: 2010.05.17/outbox.ucp.g08.bks.cvg/sg12_160_cif.got.tgz:319816.got - 2010.06.11 11:47:21.
