data_PCOD9223870
_publ_section_title
;
Structure prediction by ZEFSAII (Michael W. Deem and Ramdas Pophale) SiO2 
 PCOD9223870
Probable space group: C 2/M
;
_chemical_formula_sum "Si O2"
_cell_formula_units_Z 32
_cell_length_a 15.000000
_cell_length_b 9.000000
_cell_length_c 30.000000
_cell_angle_alpha 90.000000
_cell_angle_beta 120.000000
_cell_angle_gamma 90.000000
_cell_volume 3507.402885
_symmetry_space_group_name_H-M "C 2/M"
_symmetry_group_IT_number 12
_symmetry_cell_setting 'monoclinic'
loop_
_space_group_symop_operation_xyz
x,y,z
-x,y,-z
-x,-y,-z
x,-y,z
1/2+x,1/2+y,z
1/2-x,1/2+y,-z
1/2-x,1/2-y,-z
1/2+x,1/2-y,z
loop_
_atom_site_type_symbol
_atom_site_label
_atom_site_fract_x
_atom_site_fract_y
_atom_site_fract_z
Si Si1 0.424131 0.320629 0.615272
Si Si2 0.100531 0.821012 0.996531
Si Si3 0.029497 0.177828 0.813414
Si Si4 0.253630 0.819443 0.363260
Si Si5 0.903751 0.177329 0.270150
Si Si6 0.699353 0.679198 0.249740
Si Si7 0.332734 0.822688 0.078657
Si Si8 0.015758 0.320854 0.555233
O O1 0.424256 0.500000 0.612196
O O2 0.322414 0.272604 0.616407
O O3 0.520274 0.275788 0.670917
O O4 0.436931 0.250397 0.570165
O O5 0.111550 0.747700 0.950672
O O6 0.095100 0.000000 0.989895
O O7 0.210712 0.785112 0.046990
O O8 0.000000 0.775340 0.000000
O O9 0.046107 0.206890 0.765208
O O10 0.112124 0.260201 0.864037
O O11 0.912802 0.223563 0.795619
O O12 0.038855 0.000000 0.822439
O O13 0.213929 0.772040 0.304869
O O14 0.370179 0.773040 0.401026
O O15 0.251867 0.000000 0.362628
O O16 0.794596 0.255915 0.246856
O O17 0.890521 0.000000 0.270627
O O18 0.703340 0.500000 0.250211
O O19 0.341121 0.000000 0.078513
O O20 0.009255 0.500000 0.556526
O O21 0.000000 0.278826 0.500000
#
# Coordination Sequence:
#
# PCOD9223870 Si02
#       8
#     8   8   8   8   8   8   8   8
#     4  10  19  34  56  77 101 137 178 217 263 322
#     4   9  19  38  62  83 109 149 190 222 264 324
#     4  10  21  37  55  77 111 149 183 217 266 329
#     4   9  17  33  55  75 101 138 175 211 262 326
#     4  10  20  34  53  79 106 136 178 225 268 312
#     4  10  19  34  56  77 100 142 186 214 258 325
#     4  10  21  36  56  85 116 144 181 230 274 310
#     4  10  21  36  54  78 107 137 173 222 274 321
#
# _framework density 9.1235599999999994
#
# number of rings (size 3 to 8) (size 9 to 14) (size 15 to 20)
#    0.000    2.250    2.500    0.375    0.000    3.500 
#    0.000    5.000    0.000    0.000    0.000    0.000 
#    0.000    0.000    0.000    0.000    0.000    0.000 
#
# Total GULP energy -178520.496101 kJ/mol
# GULP energy per Si atom -5578.765503 kJ/mol
# Density = 0.910279 g / cm^3
# Si number density = 9.123560 Si / 1000 Ang^3
#
#
#
# Elastic Constant Matrix: (Units=GPa)
#
#
# Indices 1 2 3 4 5 6 
#
# 1 84.4178 14.4843 -13.1947 0.0000 4.4525 0.0000
# 2 14.4843 4.4394 10.4615 0.0000 -2.2089 0.0000
# 3 -13.1947 10.4615 43.8648 0.0000 1.9958 0.0000
# 4 0.0000 0.0000 0.0000 23.3913 0.0000 -4.9382
# 5 4.4525 -2.2089 1.9958 0.0000 11.9221 0.0000
# 6 0.0000 0.0000 0.0000 -4.9382 0.0000 25.9246
#
#
#
# Elastic Compliance Matrix: (Units=1/GPa)
#
#
# Indices 1 2 3 4 5 6 
#
# 1 -0.005382 0.075693 -0.020557 0.000000 0.019475 0.000000
# 2 0.075693 -0.315587 0.102763 0.000000 -0.103943 0.000000
# 3 -0.020557 0.102763 -0.009180 0.000000 0.028254 0.000000
# 4 0.000000 0.000000 0.000000 0.044542 0.000000 0.008485
# 5 0.019475 -0.103943 0.028254 0.000000 0.052616 0.000000
# 6 0.000000 0.000000 0.000000 0.008485 0.000000 0.040190
#
#
# Mechanical properties :
#
#
# Convention : Reuss Voigt Hill
#
# Bulk Modulus (GPa) = -69.68129 17.35825 -26.16152
# Shear Modulus (GPa) = -9.73933 20.31233 5.28650
#
# Velocity S-wave (km/s) = -2.31280 3.34006 1.70395
# Velocity P-wave (km/s) = 6.73814 4.94046 3.23994
#
# Compressibility (1/GPa) = -0.01435105
#
# Stress axis : x y z
#
# Youngs Moduli (GPa) = -185.81232 -3.16870 -108.92808
#
# Poissons Ratio (x) = 0.23985 -2.23926
# Poissons Ratio (y) = 14.06461 11.19383
# Poissons Ratio (z) = -3.81978 0.32563
#
# Static dielectric constant tensor:
#      x y z
#    x 1.616270 0.000000 0.010530 
#    y 0.000000 1.610780 0.000000 
#    z 0.010530 0.000000 1.617680 
# 
# From -- ./inp_files/338794.got.cif
#   From: 2010.05.17/outbox.ucp.g08.bks.cvg/sg12_170_cif.got.tgz:338794.got - 2010.06.11 11:47:21.
