data_PCOD9223807
_publ_section_title
;
Structure prediction by ZEFSAII (Michael W. Deem and Ramdas Pophale) SiO2 
 PCOD9223807
Probable space group: C 2/M
;
_chemical_formula_sum "Si O2"
_cell_formula_units_Z 26
_cell_length_a 12.000000
_cell_length_b 15.000000
_cell_length_c 15.000000
_cell_angle_alpha 90.000000
_cell_angle_beta 110.000000
_cell_angle_gamma 90.000000
_cell_volume 2537.170076
_symmetry_space_group_name_H-M "C 2/M"
_symmetry_group_IT_number 12
_symmetry_cell_setting 'monoclinic'
loop_
_space_group_symop_operation_xyz
x,y,z
-x,y,-z
-x,-y,-z
x,-y,z
1/2+x,1/2+y,z
1/2-x,1/2+y,-z
1/2-x,1/2-y,-z
1/2+x,1/2-y,z
loop_
_atom_site_type_symbol
_atom_site_label
_atom_site_fract_x
_atom_site_fract_y
_atom_site_fract_z
Si Si1 0.000000 0.251134 0.000000
Si Si2 0.690656 0.396929 0.009343
Si Si3 0.787002 0.102760 0.192263
Si Si4 0.008376 0.158434 0.351462
Si Si5 0.048493 0.402236 0.870848
Si Si6 0.376720 0.165160 0.696782
Si Si7 0.660097 0.601245 0.544861
O O1 0.107954 0.181739 0.021063
O O2 0.005306 0.319297 0.918628
O O3 0.643767 0.500000 0.998464
O O4 0.725905 0.377948 0.915657
O O5 0.811223 0.395218 0.097501
O O6 0.710521 0.162438 0.239689
O O7 0.925408 0.111974 0.255565
O O8 0.750736 0.000000 0.197707
O O9 0.066615 0.243575 0.321444
O O10 0.114248 0.108962 0.432062
O O11 0.914990 0.165434 0.409274
O O12 0.022606 0.500000 0.903791
O O13 0.984736 0.394671 0.759317
O O14 0.295761 0.125089 0.596894
O O15 0.637721 0.500000 0.570536
#
# Coordination Sequence:
#
# PCOD9223807 Si02
#       7
#     4   8   8   8   8   8   8
#     4  12  22  38  62  86 112 154 198 242 290 340
#     4  10  23  40  59  85 120 153 190 240 294 345
#     4  10  20  37  57  81 110 147 190 234 280 335
#     4  10  19  33  56  87 112 139 184 239 280 325
#     4  11  23  38  56  84 117 153 195 238 282 342
#     4  11  21  34  56  85 113 145 187 233 281 331
#     4  10  20  37  59  86 115 147 185 231 282 341
#
# _framework density 10.247638
#
# number of rings (size 3 to 8) (size 9 to 14) (size 15 to 20)
#    0.000    1.538    0.000    7.385    0.000    3.692 
#    0.000    0.000    0.000    0.000    0.000  106.615 
#    0.000    0.000    0.000    0.000    0.000    0.000 
#
# Total GULP energy -144889.788128 kJ/mol
# GULP energy per Si atom -5572.684159 kJ/mol
# Density = 1.022431 g / cm^3
# Si number density = 10.247638 Si / 1000 Ang^3
#
#
#
# Elastic Constant Matrix: (Units=GPa)
#
#
# Indices 1 2 3 4 5 6 
#
# 1 87.6759 74.5553 56.0686 0.0000 22.0213 0.0000
# 2 74.5553 143.7622 23.2561 0.0000 -1.7394 0.0000
# 3 56.0686 23.2561 51.6328 0.0000 46.2196 0.0000
# 4 0.0000 0.0000 0.0000 25.6817 0.0000 18.7464
# 5 22.0213 -1.7394 46.2196 0.0000 39.5433 0.0000
# 6 0.0000 0.0000 0.0000 18.7464 0.0000 -14.5610
#
#
#
# Elastic Compliance Matrix: (Units=1/GPa)
#
#
# Indices 1 2 3 4 5 6 
#
# 1 0.012797 -0.012336 0.031869 0.000000 -0.044918 0.000000
# 2 -0.012336 0.014322 -0.004992 0.000000 0.013335 0.000000
# 3 0.031869 -0.004992 -0.066809 0.000000 0.060121 0.000000
# 4 0.000000 0.000000 0.000000 0.020074 0.000000 0.025844
# 5 -0.044918 0.013335 0.060121 0.000000 -0.019382 0.000000
# 6 0.000000 0.000000 0.000000 0.025844 0.000000 -0.035405
#
#
# Mechanical properties :
#
#
# Convention : Reuss Voigt Hill
#
# Bulk Modulus (GPa) = -94.27388 65.64788 -14.31300
# Shear Modulus (GPa) = -46.72047 18.74553 -13.98747
#
# Velocity S-wave (km/s) = -4.77967 3.02756 -2.61525
# Velocity P-wave (km/s) = 8.74974 6.65746 4.01474
#
# Compressibility (1/GPa) = -0.01060739
#
# Stress axis : x y z
#
# Youngs Moduli (GPa) = 78.14127 69.82232 -14.96815
#
# Poissons Ratio (x) = 0.86129 0.47701
# Poissons Ratio (y) = 0.96391 -0.07472
# Poissons Ratio (z) = -2.49025 0.34857
#
# Static dielectric constant tensor:
#      x y z
#    x 1.766440 0.000000 0.069250 
#    y 0.000000 1.747620 0.000000 
#    z 0.069250 0.000000 1.784140 
# 
# From -- ./inp_files/205065.got.cif
#   From: 2010.05.17/outbox.ucp.g08.bks.cvg/sg12_103_cif.got.tgz:205065.got - 2010.06.11 11:47:21.
