data_PCOD9223546
_publ_section_title
;
Structure prediction by ZEFSAII (Michael W. Deem and Ramdas Pophale) SiO2 
 PCOD9223546
Probable space group: C 2/M
;
_chemical_formula_sum "Si O2"
_cell_formula_units_Z 32
_cell_length_a 30.000000
_cell_length_b 9.000000
_cell_length_c 15.000000
_cell_angle_alpha 90.000000
_cell_angle_beta 130.000000
_cell_angle_gamma 90.000000
_cell_volume 3102.479995
_symmetry_space_group_name_H-M "C 2/M"
_symmetry_group_IT_number 12
_symmetry_cell_setting 'monoclinic'
loop_
_space_group_symop_operation_xyz
x,y,z
-x,y,-z
-x,-y,-z
x,-y,z
1/2+x,1/2+y,z
1/2-x,1/2+y,-z
1/2-x,1/2-y,-z
1/2+x,1/2-y,z
loop_
_atom_site_type_symbol
_atom_site_label
_atom_site_fract_x
_atom_site_fract_y
_atom_site_fract_z
Si Si1 0.587828 0.175485 0.821982
Si Si2 0.840527 0.178027 0.933391
Si Si3 0.698820 0.834327 0.384280
Si Si4 0.120770 0.324105 0.509642
Si Si5 0.067986 0.168431 0.608424
Si Si6 0.593746 0.324031 0.164915
Si Si7 0.035222 0.325314 0.237850
Si Si8 0.762995 0.835507 0.284410
O O1 0.581861 0.265235 0.722708
O O2 0.527525 0.192908 0.798372
O O3 0.596690 0.000000 0.816499
O O4 0.636585 0.242618 0.948992
O O5 0.883484 0.219225 0.904539
O O6 0.774718 0.232090 0.828890
O O7 0.842135 0.000000 0.942796
O O8 0.750000 0.750000 0.500000
O O9 0.643597 0.730493 0.298338
O O10 0.720356 0.855191 0.312273
O O11 0.687150 0.000000 0.407002
O O12 0.128745 0.500000 0.515450
O O13 0.090583 0.279038 0.562494
O O14 0.080660 0.277339 0.374436
O O15 0.181614 0.240513 0.598789
O O16 0.000000 0.159459 0.500000
O O17 0.091434 0.000000 0.630132
O O18 0.588219 0.500000 0.157527
O O19 0.539232 0.254220 0.146991
O O20 0.045710 0.500000 0.235294
O O21 0.775911 0.000000 0.263924
#
# Coordination Sequence:
#
# PCOD9223546 Si02
#       8
#     8   8   8   8   8   8   8   8
#     4  11  23  41  64  89 118 157 199 245 298 354
#     4  10  22  41  61  85 118 160 205 247 294 350
#     4  10  19  31  50  76 110 151 196 243 293 348
#     4  11  22  38  61  90 124 158 194 244 299 355
#     4  11  23  40  64  93 122 154 192 240 296 355
#     4  10  21  35  54  80 115 157 200 246 293 344
#     4  10  22  37  57  87 122 158 199 245 297 353
#     4  10  21  37  57  84 116 155 199 244 294 351
#
# _framework density 10.314329000000001
#
# number of rings (size 3 to 8) (size 9 to 14) (size 15 to 20)
#    0.000    1.625    1.250    3.375    0.000    8.000 
#    0.000    3.125    0.000    0.000    0.000    0.000 
#    0.000    0.000    0.000    0.000    0.000    0.000 
#
# Total GULP energy -178436.183873 kJ/mol
# GULP energy per Si atom -5576.130746 kJ/mol
# Density = 1.029085 g / cm^3
# Si number density = 10.314329 Si / 1000 Ang^3
#
#
#
# Elastic Constant Matrix: (Units=GPa)
#
#
# Indices 1 2 3 4 5 6 
#
# 1 35.0155 24.0631 -14.4599 0.0000 -3.1180 0.0000
# 2 24.0631 35.9949 36.9340 0.0000 0.3410 0.0000
# 3 -14.4599 36.9340 80.4471 0.0000 -2.1401 0.0000
# 4 0.0000 0.0000 0.0000 24.0972 0.0000 -10.1065
# 5 -3.1180 0.3410 -2.1401 0.0000 26.0856 0.0000
# 6 0.0000 0.0000 0.0000 -10.1065 0.0000 28.7017
#
#
#
# Elastic Compliance Matrix: (Units=1/GPa)
#
#
# Indices 1 2 3 4 5 6 
#
# 1 -0.054585 0.088852 -0.050920 0.000000 -0.011864 0.000000
# 2 0.088852 -0.091917 0.058613 0.000000 0.016631 0.000000
# 3 -0.050920 0.058613 -0.023866 0.000000 -0.008811 0.000000
# 4 0.000000 0.000000 0.000000 0.048689 0.000000 0.017145
# 5 -0.011864 0.016631 -0.008811 0.000000 0.035977 0.000000
# 6 0.000000 0.000000 0.000000 0.017145 0.000000 0.040878
#
#
# Mechanical properties :
#
#
# Convention : Reuss Voigt Hill
#
# Bulk Modulus (GPa) = 44.01064 27.17024 35.59044
# Shear Modulus (GPa) = -21.70715 22.77157 0.53221
#
# Velocity S-wave (km/s) = -3.24741 3.32607 0.50848
# Velocity P-wave (km/s) = 2.70558 5.28678 4.19942
#
# Compressibility (1/GPa) = 0.02272178
#
# Stress axis : x y z
#
# Youngs Moduli (GPa) = -18.31999 -10.87944 -41.90068
#
# Poissons Ratio (x) = 0.96666 -2.13356
# Poissons Ratio (y) = 1.62776 2.45591
# Poissons Ratio (z) = -0.93285 0.63767
#
# Static dielectric constant tensor:
#      x y z
#    x 1.809640 0.000000 0.029130 
#    y 0.000000 1.719210 0.000000 
#    z 0.029130 0.000000 1.719790 
# 
# From -- ./inp_files/249919.got.cif
#   From: 2010.05.17/outbox.ucp.g08.bks.cvg/sg12_125_cif.got.tgz:249919.got - 2010.06.11 11:47:21.
