data_PCOD9223743
_publ_section_title
;
Structure prediction by ZEFSAII (Michael W. Deem and Ramdas Pophale) SiO2 
 PCOD9223743
Probable space group: C 2/M
;
_chemical_formula_sum "Si O2"
_cell_formula_units_Z 24
_cell_length_a 24.000000
_cell_length_b 9.000000
_cell_length_c 24.000000
_cell_angle_alpha 90.000000
_cell_angle_beta 150.000000
_cell_angle_gamma 90.000000
_cell_volume 2592.000000
_symmetry_space_group_name_H-M "C 2/M"
_symmetry_group_IT_number 12
_symmetry_cell_setting 'monoclinic'
loop_
_space_group_symop_operation_xyz
x,y,z
-x,y,-z
-x,-y,-z
x,-y,z
1/2+x,1/2+y,z
1/2-x,1/2+y,-z
1/2-x,1/2-y,-z
1/2+x,1/2-y,z
loop_
_atom_site_type_symbol
_atom_site_label
_atom_site_fract_x
_atom_site_fract_y
_atom_site_fract_z
Si Si1 0.946695 0.678478 0.012582
Si Si2 0.557781 0.321908 0.214942
Si Si3 0.641609 0.676888 0.879765
Si Si4 0.187053 0.822214 0.792022
Si Si5 0.288953 0.820220 0.472409
Si Si6 0.009825 0.678012 0.442370
O O1 0.950848 0.500000 0.021795
O O2 0.016555 0.749437 0.122607
O O3 0.816786 0.721478 0.902501
O O4 0.000000 0.720354 0.000000
O O5 0.550339 0.500000 0.203505
O O6 0.470458 0.272672 0.186912
O O7 0.682256 0.286721 0.341227
O O8 0.651151 0.500000 0.895412
O O9 0.642041 0.706578 0.814952
O O10 0.750000 0.750000 0.000000
O O11 0.108220 0.731515 0.683450
O O12 0.180141 0.000000 0.774953
O O13 0.250000 0.750000 0.500000
O O14 0.395623 0.774626 0.523870
O O15 0.298185 0.000000 0.489138
O O16 0.021507 0.500000 0.453997
O O17 0.000000 0.726456 0.500000
#
# Coordination Sequence:
#
# PCOD9223743 Si02
#       6
#     8   8   8   8   8   8
#     4  10  22  38  56  83 117 151 189 233 284 341
#     4  10  21  36  58  86 114 147 189 234 283 342
#     4  10  19  33  54  82 113 144 181 225 277 336
#     4  10  21  38  59  84 116 151 188 235 286 342
#     4  10  22  41  62  87 119 155 198 245 292 345
#     4  10  23  41  61  87 118 154 197 245 293 345
#
# _framework density 9.2592590000000001
#
# number of rings (size 3 to 8) (size 9 to 14) (size 15 to 20)
#    0.000    2.000    1.667    1.000    2.333    4.667 
#    0.000    0.000    0.000    0.000    0.000    0.000 
#    0.000    0.000    0.000    0.000    0.000    0.000 
#
# Total GULP energy -133652.884440 kJ/mol
# GULP energy per Si atom -5568.870185 kJ/mol
# Density = 0.923818 g / cm^3
# Si number density = 9.259259 Si / 1000 Ang^3
#
#
#
# Elastic Constant Matrix: (Units=GPa)
#
#
# Indices 1 2 3 4 5 6 
#
# 1 140.4389 29.2548 62.7516 0.0000 -3.5711 0.0000
# 2 29.2548 -1.4769 23.1383 0.0000 -7.4457 0.0000
# 3 62.7516 23.1383 124.3438 0.0000 -6.4226 0.0000
# 4 0.0000 0.0000 0.0000 28.3681 0.0000 -3.2756
# 5 -3.5711 -7.4457 -6.4226 0.0000 21.9876 0.0000
# 6 0.0000 0.0000 0.0000 -3.2756 0.0000 7.7448
#
#
#
# Elastic Compliance Matrix: (Units=1/GPa)
#
#
# Indices 1 2 3 4 5 6 
#
# 1 0.006709 0.015460 -0.006027 0.000000 0.004565 0.000000
# 2 0.015460 -0.096184 0.008674 0.000000 -0.027526 0.000000
# 3 -0.006027 0.008674 0.009717 0.000000 0.004797 0.000000
# 4 0.000000 0.000000 0.000000 0.037061 0.000000 0.015674
# 5 0.004565 -0.027526 0.004797 0.000000 0.038301 0.000000
# 6 0.000000 0.000000 0.000000 0.015674 0.000000 0.135749
#
#
# Mechanical properties :
#
#
# Convention : Reuss Voigt Hill
#
# Bulk Modulus (GPa) = -22.96615 54.84392 15.93888
# Shear Modulus (GPa) = 62.01609 21.49750 41.75679
#
# Velocity S-wave (km/s) = 5.79322 3.41084 4.75370
# Velocity P-wave (km/s) = 5.68506 6.72249 6.22542
#
# Compressibility (1/GPa) = -0.04354233
#
# Stress axis : x y z
#
# Youngs Moduli (GPa) = 149.05174 -10.39676 102.90785
#
# Poissons Ratio (x) = 0.16074 0.62022
# Poissons Ratio (y) = -2.30437 -0.89265
# Poissons Ratio (z) = 0.89833 0.09018
#
# Static dielectric constant tensor:
#      x y z
#    x 1.667360 0.000000 0.006300 
#    y 0.000000 1.631840 0.000000 
#    z 0.006300 0.000000 1.619790 
# 
# From -- ./inp_files/172264.got.cif
#   From: 2010.05.17/outbox.ucp.g08.bks.cvg/sg12_87_cif.got.tgz:172264.got - 2010.06.11 11:47:21.
