data_PCOD9223483
_publ_section_title
;
Structure prediction by ZEFSAII (Michael W. Deem and Ramdas Pophale) SiO2 
 PCOD9223483
Probable space group: C 2/M
;
_chemical_formula_sum "Si O2"
_cell_formula_units_Z 26
_cell_length_a 9.000000
_cell_length_b 24.000000
_cell_length_c 27.000000
_cell_angle_alpha 90.000000
_cell_angle_beta 30.000000
_cell_angle_gamma 90.000000
_cell_volume 2916.000000
_symmetry_space_group_name_H-M "C 2/M"
_symmetry_group_IT_number 12
_symmetry_cell_setting 'monoclinic'
loop_
_space_group_symop_operation_xyz
x,y,z
-x,y,-z
-x,-y,-z
x,-y,z
1/2+x,1/2+y,z
1/2-x,1/2+y,-z
1/2-x,1/2-y,-z
1/2+x,1/2-y,z
loop_
_atom_site_type_symbol
_atom_site_label
_atom_site_fract_x
_atom_site_fract_y
_atom_site_fract_z
Si Si1 0.066903 0.142717 0.729627
Si Si2 0.000000 0.805313 0.000000
Si Si3 0.671710 0.361973 0.853565
Si Si4 0.822820 0.934533 0.886661
Si Si5 0.355319 0.811072 0.486623
Si Si6 0.448663 0.266924 0.191949
Si Si7 0.328219 0.655764 0.694206
O O1 0.410756 0.159785 0.618354
O O2 0.940729 0.199057 0.791765
O O3 0.961673 0.095812 0.798527
O O4 0.939197 0.129010 0.712869
O O5 0.016396 0.842061 0.044743
O O6 0.714149 0.766841 0.090231
O O7 0.543358 0.417335 0.866938
O O8 0.662278 0.313250 0.814550
O O9 0.009538 0.367058 0.772240
O O10 0.800828 0.000000 0.884512
O O11 0.500000 0.913810 0.000000
O O12 0.500000 0.806051 0.500000
O O13 0.250000 0.750000 0.500000
O O14 0.061733 0.847179 0.582428
O O15 0.215698 0.221224 0.278362
#
# Coordination Sequence:
#
# PCOD9223483 Si02
#       7
#     8   4   8   8   8   8   8
#     4  10  21  35  56  79 112 154 185 228 270 327
#     4  10  20  30  49  76 115 146 176 218 268 340
#     4  10  22  33  54  79 108 148 182 233 273 330
#     4  10  24  44  62  77 101 142 196 243 288 333
#     4  10  20  32  52  82 120 158 184 214 261 330
#     4  10  19  30  48  77 114 156 183 206 264 337
#     4  10  19  33  52  82 121 141 186 215 272 330
#
# _framework density 8.9163239999999995
#
# number of rings (size 3 to 8) (size 9 to 14) (size 15 to 20)
#    0.000    2.000    1.538    2.308   10.769    0.000 
#    0.000    1.154    0.000    6.000    0.000    0.000 
#    0.000    0.000    0.000    0.000    0.000    0.000 
#
# Total GULP energy -144864.022075 kJ/mol
# GULP energy per Si atom -5571.693157 kJ/mol
# Density = 0.889603 g / cm^3
# Si number density = 8.916324 Si / 1000 Ang^3
#
#
#
# Elastic Constant Matrix: (Units=GPa)
#
#
# Indices 1 2 3 4 5 6 
#
# 1 53.6064 12.6740 39.6157 -0.2086 4.7271 -0.0241
# 2 12.6740 42.2202 36.7146 -0.3083 6.6916 0.0744
# 3 39.6157 36.7146 147.8232 -0.4935 12.5543 -0.0409
# 4 -0.2086 -0.3083 -0.4935 20.5510 0.0459 4.4911
# 5 4.7271 6.6916 12.5543 0.0459 20.2514 -0.0660
# 6 -0.0241 0.0744 -0.0409 4.4911 -0.0660 3.5653
#
#
#
# Elastic Compliance Matrix: (Units=1/GPa)
#
#
# Indices 1 2 3 4 5 6 
#
# 1 0.023426 -0.001864 -0.005703 0.000072 -0.001317 0.000016
# 2 -0.001864 0.030987 -0.006715 0.000664 -0.005648 -0.001677
# 3 -0.005703 -0.006715 0.010197 0.000077 -0.002771 0.000070
# 4 0.000072 0.000664 0.000077 0.067170 -0.000712 -0.084639
# 5 -0.001317 -0.005648 -0.002771 -0.000712 0.053279 0.001960
# 6 0.000016 -0.001677 0.000070 -0.084639 0.001960 0.387173
#
#
# Mechanical properties :
#
#
# Convention : Reuss Voigt Hill
#
# Bulk Modulus (GPa) = 27.74230 46.85093 37.29662
# Shear Modulus (GPa) = 8.15911 19.18323 13.67117
#
# Velocity S-wave (km/s) = 2.14133 3.28340 2.77182
# Velocity P-wave (km/s) = 4.65881 6.37996 5.58607
#
# Compressibility (1/GPa) = 0.03604603
#
# Stress axis : x y z
#
# Youngs Moduli (GPa) = 42.68730 32.27112 98.07047
#
# Poissons Ratio (x) = 0.06014 0.55931
# Poissons Ratio (y) = 0.07955 0.65859
# Poissons Ratio (z) = 0.24345 0.21671
#
# Static dielectric constant tensor:
#      x y z
#    x 1.667100 0.000000 -0.010370 
#    y 0.000000 1.585720 0.000060 
#    z -0.010370 0.000060 1.647850 
# 
# From -- ./inp_files/357037.got.cif
#   From: 2010.05.17/outbox.ucp.g08.bks.cvg/sg12_179_cif.got.tgz:357037.got - 2010.06.11 11:47:21.
