data_PCOD9223200
_publ_section_title
;
Structure prediction by ZEFSAII (Michael W. Deem and Ramdas Pophale) SiO2 
 PCOD9223200
Probable space group: C 2/M
;
_chemical_formula_sum "Si O2"
_cell_formula_units_Z 32
_cell_length_a 24.000000
_cell_length_b 9.000000
_cell_length_c 18.000000
_cell_angle_alpha 90.000000
_cell_angle_beta 100.000000
_cell_angle_gamma 90.000000
_cell_volume 3828.932544
_symmetry_space_group_name_H-M "C 2/M"
_symmetry_group_IT_number 12
_symmetry_cell_setting 'monoclinic'
loop_
_space_group_symop_operation_xyz
x,y,z
-x,y,-z
-x,-y,-z
x,-y,z
1/2+x,1/2+y,z
1/2-x,1/2+y,-z
1/2-x,1/2-y,-z
1/2+x,1/2-y,z
loop_
_atom_site_type_symbol
_atom_site_label
_atom_site_fract_x
_atom_site_fract_y
_atom_site_fract_z
Si Si1 0.688054 0.320189 0.307777
Si Si2 0.651038 0.322230 0.466169
Si Si3 0.925248 0.680245 0.307793
Si Si4 0.588671 0.680633 0.169145
Si Si5 0.567367 0.669468 0.998531
Si Si6 0.469030 0.829513 0.571721
Si Si7 0.686902 0.180461 0.628317
Si Si8 0.035718 0.322077 0.843788
O O1 0.686528 0.500000 0.303477
O O2 0.672873 0.278335 0.389173
O O3 0.640143 0.271849 0.236281
O O4 0.754368 0.276584 0.316954
O O5 0.656088 0.500000 0.474493
O O6 0.585905 0.270418 0.449996
O O7 0.681500 0.245878 0.543722
O O8 0.925530 0.500000 0.313407
O O9 0.868894 0.728543 0.338335
O O10 0.929859 0.719369 0.222479
O O11 0.983668 0.728912 0.360413
O O12 0.583891 0.500000 0.171642
O O13 0.527324 0.749989 0.175110
O O14 0.596578 0.718123 0.082863
O O15 0.585172 0.500000 0.986445
O O16 0.568886 0.768052 0.924997
O O17 0.500000 0.665899 0.000000
O O18 0.500000 0.837139 0.500000
O O19 0.452644 0.000000 0.588478
O O20 0.686236 0.000000 0.622158
O O21 0.028872 0.500000 0.844651
#
# Coordination Sequence:
#
# PCOD9223200 Si02
#       8
#     8   8   8   8   8   8   8   8
#     4   9  19  33  52  72  91 121 164 204 235 275
#     4  11  21  32  47  74 101 119 152 203 250 284
#     4   9  18  31  48  70  93 121 162 199 227 271
#     4   9  17  32  50  71  97 123 154 191 231 281
#     4   8  15  28  47  69  96 126 152 183 228 282
#     4  10  18  32  51  68  90 126 163 192 227 280
#     4  10  19  36  54  65  87 130 170 198 230 275
#     4  10  18  28  46  74 101 122 150 190 234 282
#
# _framework density 8.3574210000000004
#
# number of rings (size 3 to 8) (size 9 to 14) (size 15 to 20)
#    0.000    2.500    1.250    2.625    0.000    2.500 
#    0.000    3.750    0.000    0.750    0.000    0.000 
#    0.000    0.000    0.000    0.000    0.000    1.250 
#
# Total GULP energy -178240.954464 kJ/mol
# GULP energy per Si atom -5570.029827 kJ/mol
# Density = 0.833840 g / cm^3
# Si number density = 8.357421 Si / 1000 Ang^3
#
#
#
# Elastic Constant Matrix: (Units=GPa)
#
#
# Indices 1 2 3 4 5 6 
#
# 1 68.1708 12.1507 48.6864 0.0000 19.1149 0.0000
# 2 12.1507 27.5168 26.7969 0.0000 1.6641 0.0000
# 3 48.6864 26.7969 148.0670 0.0000 16.8886 0.0000
# 4 0.0000 0.0000 0.0000 27.2702 0.0000 0.0169
# 5 19.1149 1.6641 16.8886 0.0000 23.3848 0.0000
# 6 0.0000 0.0000 0.0000 0.0169 0.0000 -3.1124
#
#
#
# Elastic Compliance Matrix: (Units=1/GPa)
#
#
# Indices 1 2 3 4 5 6 
#
# 1 0.023363 -0.004366 -0.005175 0.000000 -0.015049 0.000000
# 2 -0.004366 0.045109 -0.007377 0.000000 0.005687 0.000000
# 3 -0.005175 -0.007377 0.010078 0.000000 -0.002523 0.000000
# 4 0.000000 0.000000 0.000000 0.036670 0.000000 0.000200
# 5 -0.015049 0.005687 -0.002523 0.000000 0.056482 0.000000
# 6 0.000000 0.000000 0.000000 0.000200 0.000000 -0.321294
#
#
# Mechanical properties :
#
#
# Convention : Reuss Voigt Hill
#
# Bulk Modulus (GPa) = 22.36455 46.55808 34.46131
# Shear Modulus (GPa) = -49.57859 19.91655 -14.83102
#
# Velocity S-wave (km/s) = -5.45214 3.45563 -2.98198
# Velocity P-wave (km/s) = 5.12107 6.62092 2.96743
#
# Compressibility (1/GPa) = 0.04471363
#
# Stress axis : x y z
#
# Youngs Moduli (GPa) = 42.80237 22.16837 99.22345
#
# Poissons Ratio (x) = 0.09680 0.51352
# Poissons Ratio (y) = 0.18690 0.73194
# Poissons Ratio (z) = 0.22152 0.16353
#
# Static dielectric constant tensor:
#      x y z
#    x 1.566540 0.000000 -0.004660 
#    y 0.000000 1.570960 0.000000 
#    z -0.004660 0.000000 1.587220 
# 
# From -- ./inp_files/287755.got.cif
#   From: 2010.05.17/outbox.ucp.g08.bks.cvg/sg12_144_cif.got.tgz:287755.got - 2010.06.11 11:47:21.
