data_PCOD9223707
_publ_section_title
;
Structure prediction by ZEFSAII (Michael W. Deem and Ramdas Pophale) SiO2 
 PCOD9223707
Probable space group: C 2/M
;
_chemical_formula_sum "Si O2"
_cell_formula_units_Z 32
_cell_length_a 15.000000
_cell_length_b 9.000000
_cell_length_c 30.000000
_cell_angle_alpha 90.000000
_cell_angle_beta 120.000000
_cell_angle_gamma 90.000000
_cell_volume 3507.402885
_symmetry_space_group_name_H-M "C 2/M"
_symmetry_group_IT_number 12
_symmetry_cell_setting 'monoclinic'
loop_
_space_group_symop_operation_xyz
x,y,z
-x,y,-z
-x,-y,-z
x,-y,z
1/2+x,1/2+y,z
1/2-x,1/2+y,-z
1/2-x,1/2-y,-z
1/2+x,1/2-y,z
loop_
_atom_site_type_symbol
_atom_site_label
_atom_site_fract_x
_atom_site_fract_y
_atom_site_fract_z
Si Si1 0.050470 0.822371 0.904712
Si Si2 0.215953 0.822325 0.877096
Si Si3 0.767706 0.678775 0.288400
Si Si4 0.886027 0.324480 0.991341
Si Si5 0.796611 0.820623 0.628086
Si Si6 0.517241 0.321391 0.642419
Si Si7 0.581716 0.678422 0.557645
Si Si8 0.824527 0.821287 0.826767
O O1 0.107445 0.790679 0.872769
O O2 0.113746 0.755553 0.961355
O O3 0.933932 0.765923 0.872885
O O4 0.049158 0.000000 0.910202
O O5 0.236511 0.741526 0.836356
O O6 0.226429 0.000000 0.873902
O O7 0.302341 0.773062 0.934609
O O8 0.778309 0.500000 0.291239
O O9 0.717285 0.721217 0.323181
O O10 0.696355 0.722109 0.229192
O O11 0.880958 0.748590 0.310946
O O12 0.869697 0.500000 0.994056
O O13 0.000000 0.301873 0.000000
O O14 0.906431 0.773552 0.634550
O O15 0.693556 0.753002 0.580411
O O16 0.792283 0.000000 0.623725
O O17 0.522970 0.500000 0.649112
O O18 0.532660 0.286825 0.593782
O O19 0.500000 0.724637 0.500000
O O20 0.595065 0.500000 0.558644
O O21 0.826079 0.000000 0.829234
#
# Coordination Sequence:
#
# PCOD9223707 Si02
#       8
#     8   8   8   8   8   8   8   8
#     4  10  21  35  53  76 100 129 166 203 244 298
#     4  10  21  36  53  75 101 131 165 201 246 300
#     4   9  19  35  52  71  98 129 163 208 258 298
#     4  10  19  33  53  75 102 132 162 201 247 295
#     4   9  18  33  53  75 100 133 173 214 251 295
#     4   9  18  33  53  76 100 133 175 210 249 300
#     4   9  18  32  49  74 110 143 171 209 253 297
#     4  10  21  36  52  73 100 128 161 205 253 300
#
# _framework density 9.1235599999999994
#
# number of rings (size 3 to 8) (size 9 to 14) (size 15 to 20)
#    0.000    2.500    1.250    0.375    0.000    4.000 
#    0.000    2.500    0.000    0.000    0.000    0.000 
#    0.000    0.000    0.000    0.000    0.000    0.000 
#
# Total GULP energy -178406.998569 kJ/mol
# GULP energy per Si atom -5575.218705 kJ/mol
# Density = 0.910279 g / cm^3
# Si number density = 9.123560 Si / 1000 Ang^3
#
#
#
# Elastic Constant Matrix: (Units=GPa)
#
#
# Indices 1 2 3 4 5 6 
#
# 1 91.3087 19.1804 15.0631 0.0000 3.7595 0.0000
# 2 19.1804 -4.7437 4.9118 0.0000 -2.5397 0.0000
# 3 15.0631 4.9118 55.1068 0.0000 -3.2774 0.0000
# 4 0.0000 0.0000 0.0000 23.9374 0.0000 1.3401
# 5 3.7595 -2.5397 -3.2774 0.0000 12.0104 0.0000
# 6 0.0000 0.0000 0.0000 1.3401 0.0000 25.5760
#
#
#
# Elastic Compliance Matrix: (Units=1/GPa)
#
#
# Indices 1 2 3 4 5 6 
#
# 1 0.006763 0.022576 -0.003764 0.000000 0.001630 0.000000
# 2 0.022576 -0.102922 0.001309 0.000000 -0.028474 0.000000
# 3 -0.003764 0.001309 0.019461 0.000000 0.006766 0.000000
# 4 0.000000 0.000000 0.000000 0.041899 0.000000 -0.002195
# 5 0.001630 -0.028474 0.006766 0.000000 0.078576 0.000000
# 6 0.000000 0.000000 0.000000 -0.002195 0.000000 0.039214
#
#
# Mechanical properties :
#
#
# Convention : Reuss Voigt Hill
#
# Bulk Modulus (GPa) = -27.43132 24.44251 -1.49441
# Shear Modulus (GPa) = 163.41587 19.13918 91.27752
#
# Velocity S-wave (km/s) = 9.47373 3.24217 7.08037
# Velocity P-wave (km/s) = 10.22755 5.23831 8.12535
#
# Compressibility (1/GPa) = -0.03645468
#
# Stress axis : x y z
#
# Youngs Moduli (GPa) = 147.85698 -9.71610 51.38441
#
# Poissons Ratio (x) = 0.21935 0.19341
# Poissons Ratio (y) = -3.33806 -0.06727
# Poissons Ratio (z) = 0.55654 0.01272
#
# Static dielectric constant tensor:
#      x y z
#    x 1.622460 0.000000 -0.005650 
#    y 0.000000 1.612100 0.000000 
#    z -0.005650 0.000000 1.632920 
# 
# From -- ./inp_files/375048.got.cif
#   From: 2010.05.17/outbox.ucp.g08.bks.cvg/sg12_188_cif.got.tgz:375048.got - 2010.06.11 11:47:21.
