data_PCOD9223809
_publ_section_title
;
Structure prediction by ZEFSAII (Michael W. Deem and Ramdas Pophale) SiO2 
 PCOD9223809
Probable space group: C 2/M
;
_chemical_formula_sum "Si O2"
_cell_formula_units_Z 24
_cell_length_a 30.000000
_cell_length_b 9.000000
_cell_length_c 9.000000
_cell_angle_alpha 90.000000
_cell_angle_beta 90.000000
_cell_angle_gamma 90.000000
_cell_volume 2430.000000
_symmetry_space_group_name_H-M "C 2/M"
_symmetry_group_IT_number 12
_symmetry_cell_setting 'monoclinic'
loop_
_space_group_symop_operation_xyz
x,y,z
-x,y,-z
-x,-y,-z
x,-y,z
1/2+x,1/2+y,z
1/2-x,1/2+y,-z
1/2-x,1/2-y,-z
1/2+x,1/2-y,z
loop_
_atom_site_type_symbol
_atom_site_label
_atom_site_fract_x
_atom_site_fract_y
_atom_site_fract_z
Si Si1 0.536842 0.831431 0.112869
Si Si2 0.372847 0.830742 0.077346
Si Si3 0.263217 0.677286 0.343552
Si Si4 0.630472 0.327099 0.636574
Si Si5 0.185892 0.820626 0.158258
Si Si6 0.895888 0.679448 0.658067
O O1 0.556730 0.771030 0.268870
O O2 0.520279 0.000000 0.143394
O O3 0.500000 0.763656 0.000000
O O4 0.584195 0.839919 0.028284
O O5 0.388593 0.723690 0.207368
O O6 0.361866 0.000000 0.124226
O O7 0.331015 0.755649 0.993545
O O8 0.254036 0.500000 0.340455
O O9 0.250000 0.750000 0.500000
O O10 0.316434 0.697603 0.339477
O O11 0.232563 0.756629 0.219539
O O12 0.623900 0.500000 0.601065
O O13 0.609144 0.223970 0.512081
O O14 0.146451 0.765124 0.269055
O O15 0.186981 0.000000 0.148837
O O16 0.891203 0.500000 0.677920
#
# Coordination Sequence:
#
# PCOD9223809 Si02
#       6
#     8   8   8   8   8   8
#     4   8  16  34  60  87 109 134 177 228 273 325
#     4  10  21  37  58  82 110 145 183 227 276 329
#     4  11  22  35  54  79 108 146 192 234 272 318
#     4  11  23  37  54  79 113 149 182 227 280 324
#     4  11  21  35  55  79 110 148 186 230 275 323
#     4  10  19  33  57  83 109 144 185 226 270 327
#
# _framework density 9.8765429999999999
#
# number of rings (size 3 to 8) (size 9 to 14) (size 15 to 20)
#    0.000    1.833    1.667    4.500    0.000    2.667 
#    0.000    0.833    0.000   23.000    0.000    0.000 
#    0.000    0.000    0.000    0.000    0.000    0.000 
#
# Total GULP energy -133744.347078 kJ/mol
# GULP energy per Si atom -5572.681128 kJ/mol
# Density = 0.985406 g / cm^3
# Si number density = 9.876543 Si / 1000 Ang^3
#
#
#
# Elastic Constant Matrix: (Units=GPa)
#
#
# Indices 1 2 3 4 5 6 
#
# 1 65.8532 35.3942 28.2429 0.0000 46.6563 0.0000
# 2 35.3942 85.7913 7.9919 0.0000 19.4845 0.0000
# 3 28.2429 7.9919 78.5369 0.0000 32.4730 0.0000
# 4 0.0000 0.0000 0.0000 28.5583 0.0000 6.6389
# 5 46.6563 19.4845 32.4730 0.0000 41.3266 0.0000
# 6 0.0000 0.0000 0.0000 6.6389 0.0000 19.3286
#
#
#
# Elastic Compliance Matrix: (Units=1/GPa)
#
#
# Indices 1 2 3 4 5 6 
#
# 1 0.101386 -0.016409 0.013832 0.000000 -0.117594 0.000000
# 2 -0.016409 0.015884 -0.000413 0.000000 0.011361 0.000000
# 3 0.013832 -0.000413 0.021000 0.000000 -0.031922 0.000000
# 4 0.000000 0.000000 0.000000 0.038055 0.000000 -0.013071
# 5 -0.117594 0.011361 -0.031922 0.000000 0.176683 0.000000
# 6 0.000000 0.000000 0.000000 -0.013071 0.000000 0.056226
#
#
# Mechanical properties :
#
#
# Convention : Reuss Voigt Hill
#
# Bulk Modulus (GPa) = 7.55918 41.49329 24.52623
# Shear Modulus (GPa) = 10.88586 28.41287 19.64936
#
# Velocity S-wave (km/s) = 2.35009 3.79674 3.15739
# Velocity P-wave (km/s) = 3.34650 6.34601 5.07301
#
# Compressibility (1/GPa) = 0.13228953
#
# Stress axis : x y z
#
# Youngs Moduli (GPa) = 9.86325 62.95527 47.62009
#
# Poissons Ratio (x) = 1.03306 -0.65867
# Poissons Ratio (y) = 0.16185 0.01966
# Poissons Ratio (z) = -0.13643 0.02599
#
# Static dielectric constant tensor:
#      x y z
#    x 1.690030 0.000000 -0.012750 
#    y 0.000000 1.669450 0.000000 
#    z -0.012750 0.000000 1.792200 
# 
# From -- ./inp_files/108772.got.cif
#   From: 2010.05.17/outbox.ucp.g08.bks.cvg/sg12_55_cif.got.tgz:108772.got - 2010.06.11 11:47:21.
