data_PCOD9223121
_publ_section_title
;
Structure prediction by ZEFSAII (Michael W. Deem and Ramdas Pophale) SiO2 
 PCOD9223121
Probable space group: C 2/M
;
_chemical_formula_sum "Si O2"
_cell_formula_units_Z 48
_cell_length_a 12.308749
_cell_length_b 12.645054
_cell_length_c 13.766490
_cell_angle_alpha 90.000000
_cell_angle_beta 89.999968
_cell_angle_gamma 90.000000
_cell_volume 2142.682525
_symmetry_space_group_name_H-M "C 2/M"
_symmetry_group_IT_number 12
_symmetry_cell_setting 'monoclinic'
loop_
_space_group_symop_operation_xyz
x,y,z
-x,y,-z
-x,-y,-z
x,-y,z
1/2+x,1/2+y,z
1/2-x,1/2+y,-z
1/2-x,1/2-y,-z
1/2+x,1/2-y,z
loop_
_atom_site_type_symbol
_atom_site_label
_atom_site_fract_x
_atom_site_fract_y
_atom_site_fract_z
Si Si1 0.059652 0.616076 0.863604
Si Si2 0.440348 0.883924 0.363604
Si Si3 0.189078 0.670281 0.137937
Si Si4 0.118518 0.824621 0.512186
Si Si5 0.189078 0.670281 0.362063
Si Si6 0.118518 0.824621 0.987814
O O1 0.099334 0.500000 0.894911
O O2 0.088056 0.631707 0.750000
O O3 0.928214 0.615642 0.868284
O O4 0.096388 0.714927 0.927748
O O5 0.403612 0.785073 0.427748
O O6 0.571786 0.884358 0.368284
O O7 0.400666 0.000000 0.394911
O O8 0.220886 0.674313 0.250000
O O9 0.286051 0.622709 0.073693
O O10 0.164472 0.785948 0.091232
O O11 0.164472 0.785948 0.408768
O O12 0.213949 0.877291 0.573693
O O13 0.000000 0.875078 0.500000
O O14 0.000000 0.875078 0.000000
#
# Coordination Sequence:
#
# PCOD9223121 Si02
#       6
#     8   8   8   8   8   8
#     4   9  17  29  47  71  95 118 146 182 222 262
#     4   9  17  29  47  71  95 118 146 182 222 262
#     4   9  17  28  42  63  90 118 148 182 221 265
#     4   9  17  28  44  64  89 119 150 182 222 265
#     4   9  17  28  42  63  90 118 148 182 221 265
#     4   9  17  28  44  64  89 119 150 182 222 265
#
# _framework density 22.401826
#
# number of rings (size 3 to 8) (size 9 to 14) (size 15 to 20)
#    0.000    3.000    0.000    1.000    0.000    7.333 
#    0.000    0.000    0.000    1.000    0.000    7.000 
#    0.000   50.667    0.000    0.000    0.000    0.000 
#
# Total GULP energy -133872.162086 kJ/mol
# GULP energy per Si atom -5578.006754 kJ/mol
# Density = 2.235084 g / cm^3
# Si number density = 22.401826 Si / 1000 Ang^3
#
#
#
# Elastic Constant Matrix: (Units=GPa)
#
#
# Indices 1 2 3 4 5 6 
#
# 1 104.0776 -5.1729 -11.9226 0.0000 0.0000 0.0000
# 2 -5.1729 80.5498 12.8029 0.0000 -0.0001 0.0000
# 3 -11.9226 12.8029 84.4144 0.0000 0.0001 0.0000
# 4 0.0000 0.0000 0.0000 4.9628 0.0000 0.0000
# 5 0.0000 -0.0001 0.0001 0.0000 43.1975 0.0000
# 6 0.0000 0.0000 0.0000 0.0000 0.0000 -2.7298
#
#
#
# Elastic Compliance Matrix: (Units=1/GPa)
#
#
# Indices 1 2 3 4 5 6 
#
# 1 0.009780 0.000419 0.001318 0.000000 0.000000 0.000000
# 2 0.000419 0.012739 -0.001873 0.000000 0.000000 0.000000
# 3 0.001318 -0.001873 0.012317 0.000000 0.000000 0.000000
# 4 0.000000 0.000000 0.000000 0.201500 0.000000 0.000000
# 5 0.000000 0.000000 0.000000 0.000000 0.023150 0.000000
# 6 0.000000 0.000000 0.000000 0.000000 0.000000 -0.366331
#
#
# Mechanical properties :
#
#
# Convention : Reuss Voigt Hill
#
# Bulk Modulus (GPa) = 28.93299 28.93963 28.93631
# Shear Modulus (GPa) = -52.60280 27.30839 -12.64721
#
# Velocity S-wave (km/s) = -4.85103 3.49524 -2.37863
# Velocity P-wave (km/s) = 4.29338 5.40698 2.32404
#
# Compressibility (1/GPa) = 0.03456262
#
# Stress axis : x y z
#
# Youngs Moduli (GPa) = 102.24966 78.49741 81.19175
#
# Poissons Ratio (x) = -0.03286 -0.10700
# Poissons Ratio (y) = -0.04280 0.15207
# Poissons Ratio (z) = -0.13475 0.14703
#
# Static dielectric constant tensor:
#      x y z
#    x 1.897790 0.000000 0.000000 
#    y 0.000000 1.847900 0.000000 
#    z 0.000000 0.000000 1.845050 
# 
# From -- ./inp_files/213797.got.cif
#   From: 2010.05.17/outbox.cif.g08.bks.cpg/sg12_107_cif.got.tgz:213797.got - 2010.06.03 13:09:07.
