data_PCOD9223470
_publ_section_title
;
Structure prediction by ZEFSAII (Michael W. Deem and Ramdas Pophale) SiO2 
 PCOD9223470
Probable space group: C 2/M
;
_chemical_formula_sum "Si O2"
_cell_formula_units_Z 32
_cell_length_a 24.000000
_cell_length_b 9.000000
_cell_length_c 21.000000
_cell_angle_alpha 90.000000
_cell_angle_beta 50.000000
_cell_angle_gamma 90.000000
_cell_volume 3474.777594
_symmetry_space_group_name_H-M "C 2/M"
_symmetry_group_IT_number 12
_symmetry_cell_setting 'monoclinic'
loop_
_space_group_symop_operation_xyz
x,y,z
-x,y,-z
-x,-y,-z
x,-y,z
1/2+x,1/2+y,z
1/2-x,1/2+y,-z
1/2-x,1/2-y,-z
1/2+x,1/2-y,z
loop_
_atom_site_type_symbol
_atom_site_label
_atom_site_fract_x
_atom_site_fract_y
_atom_site_fract_z
Si Si1 0.916774 0.825665 0.432539
Si Si2 0.554464 0.672961 0.401122
Si Si3 0.796718 0.330052 0.731280
Si Si4 0.669274 0.169701 0.881925
Si Si5 0.044137 0.833537 0.034685
Si Si6 0.796060 0.328069 0.588249
Si Si7 0.151652 0.821033 0.644721
Si Si8 0.580810 0.831501 0.813794
O O1 0.869976 0.757007 0.523424
O O2 0.888224 0.761820 0.387799
O O3 0.001571 0.808958 0.379868
O O4 0.901582 0.000000 0.445390
O O5 0.500000 0.703284 0.500000
O O6 0.577796 0.500000 0.390381
O O7 0.621471 0.778666 0.339947
O O8 0.791306 0.500000 0.756064
O O9 0.750476 0.224390 0.810016
O O10 0.766305 0.319608 0.681557
O O11 0.627758 0.177750 0.844178
O O12 0.665735 0.000000 0.906067
O O13 0.624406 0.277575 0.960443
O O14 0.000303 0.717677 0.109156
O O15 0.042320 0.000000 0.062265
O O16 0.000000 0.836985 0.000000
O O17 0.809711 0.500000 0.564215
O O18 0.733875 0.263892 0.589036
O O19 0.110733 0.775300 0.738140
O O20 0.155284 0.000000 0.639858
O O21 0.584776 0.000000 0.788131
#
# Coordination Sequence:
#
# PCOD9223470 Si02
#       8
#     8   8   8   8   8   8   8   8
#     4  10  21  35  52  70  93 130 173 211 251 297
#     4  10  20  35  52  70  94 127 168 213 256 296
#     4  11  21  32  50  74  98 130 167 204 251 300
#     4  10  19  31  48  72 102 132 165 204 243 292
#     4   9  17  29  47  70 100 135 165 198 241 291
#     4  10  20  32  48  70  99 129 163 207 252 297
#     4  10  20  34  49  70 100 133 168 206 247 297
#     4  10  19  30  47  72 101 134 167 199 242 294
#
# _framework density 9.2092220000000005
#
# number of rings (size 3 to 8) (size 9 to 14) (size 15 to 20)
#    0.000    2.000    2.500    1.875    0.000    4.750 
#    0.000    0.000    0.000    0.000    0.000    0.875 
#    0.000    0.000    0.000    0.000    0.000    0.000 
#
# Total GULP energy -178189.592326 kJ/mol
# GULP energy per Si atom -5568.424760 kJ/mol
# Density = 0.918826 g / cm^3
# Si number density = 9.209222 Si / 1000 Ang^3
#
#
#
# Elastic Constant Matrix: (Units=GPa)
#
#
# Indices 1 2 3 4 5 6 
#
# 1 20.5853 34.5592 10.7841 -0.0002 -1.0090 0.0002
# 2 34.5592 11.6126 3.5515 -0.0014 -13.5639 0.0009
# 3 10.7841 3.5515 31.8034 -0.0003 -15.6180 0.0003
# 4 -0.0002 -0.0014 -0.0003 9.6257 0.0003 0.7902
# 5 -1.0090 -13.5639 -15.6180 0.0003 5.6362 -0.0001
# 6 0.0002 0.0009 0.0003 0.7902 -0.0001 9.1483
#
#
#
# Elastic Compliance Matrix: (Units=1/GPa)
#
#
# Indices 1 2 3 4 5 6 
#
# 1 0.039880 -0.004210 0.040252 -0.000002 0.108545 0.000000
# 2 -0.004210 0.012957 -0.041363 0.000003 -0.084189 -0.000001
# 3 0.040252 -0.041363 0.063559 -0.000006 0.083785 0.000003
# 4 -0.000002 0.000003 -0.000006 0.104630 -0.000014 -0.009037
# 5 0.108545 -0.084189 0.083785 -0.000014 0.226418 0.000008
# 6 0.000000 -0.000001 0.000003 -0.009037 0.000008 0.110090
#
#
# Mechanical properties :
#
#
# Convention : Reuss Voigt Hill
#
# Bulk Modulus (GPa) = 9.45603 17.97676 13.71640
# Shear Modulus (GPa) = 8.28597 5.88915 7.08756
#
# Velocity S-wave (km/s) = 2.12332 1.79007 1.96378
# Velocity P-wave (km/s) = 3.34013 3.74885 3.55038
#
# Compressibility (1/GPa) = 0.10575261
#
# Stress axis : x y z
#
# Youngs Moduli (GPa) = 25.07511 77.17787 15.73342
#
# Poissons Ratio (x) = 0.32493 -0.63329
# Poissons Ratio (y) = 0.10557 0.65078
# Poissons Ratio (z) = -1.00931 3.19232
#
# Static dielectric constant tensor:
#      x y z
#    x 1.705500 0.000000 0.009860 
#    y 0.000000 1.611110 0.000000 
#    z 0.009860 0.000000 1.622510 
# 
# From -- ./inp_files/324152.got.cif
#   From: 2010.05.17/outbox.ucp.g08.bks.cvg/sg12_163_cif.got.tgz:324152.got - 2010.06.11 11:47:21.
