data_PCOD9223369
_publ_section_title
;
Structure prediction by ZEFSAII (Michael W. Deem and Ramdas Pophale) SiO2 
 PCOD9223369
Probable space group: C 2/M
;
_chemical_formula_sum "Si O2"
_cell_formula_units_Z 32
_cell_length_a 30.000000
_cell_length_b 9.000000
_cell_length_c 24.000000
_cell_angle_alpha 90.000000
_cell_angle_beta 30.000000
_cell_angle_gamma 90.000000
_cell_volume 3240.000000
_symmetry_space_group_name_H-M "C 2/M"
_symmetry_group_IT_number 12
_symmetry_cell_setting 'monoclinic'
loop_
_space_group_symop_operation_xyz
x,y,z
-x,y,-z
-x,-y,-z
x,-y,z
1/2+x,1/2+y,z
1/2-x,1/2+y,-z
1/2-x,1/2-y,-z
1/2+x,1/2-y,z
loop_
_atom_site_type_symbol
_atom_site_label
_atom_site_fract_x
_atom_site_fract_y
_atom_site_fract_z
Si Si1 0.274723 0.318790 0.715416
Si Si2 0.283053 0.322201 0.521499
Si Si3 0.962935 0.676053 0.304868
Si Si4 0.966512 0.171986 0.472465
Si Si5 0.270150 0.179445 0.111281
Si Si6 0.024441 0.681123 0.116400
Si Si7 0.893486 0.674729 0.760978
Si Si8 0.640346 0.819678 0.771647
O O1 0.278334 0.500000 0.710530
O O2 0.364844 0.270392 0.586483
O O3 0.268993 0.275892 0.785896
O O4 0.185576 0.270611 0.779988
O O5 0.283632 0.500000 0.516760
O O6 0.250000 0.250000 0.500000
O O7 0.383281 0.263222 0.420947
O O8 0.212862 0.281923 0.645594
O O9 0.941201 0.500000 0.329628
O O10 0.976522 0.721820 0.226226
O O11 0.056313 0.697122 0.234971
O O12 0.000000 0.171033 0.500000
O O13 0.035755 0.262425 0.360555
O O14 0.965708 0.000000 0.453686
O O15 0.200888 0.244576 0.142230
O O16 0.269038 0.000000 0.109191
O O17 0.372904 0.229585 0.996172
O O18 0.027115 0.500000 0.111996
O O19 0.957977 0.731832 0.139316
O O20 0.881081 0.500000 0.765420
O O21 0.635947 0.000000 0.778315
#
# Coordination Sequence:
#
# PCOD9223369 Si02
#       8
#     8   8   8   8   8   8   8   8
#     4   9  17  30  51  82 110 134 170 220 269 313
#     4  11  20  33  57  84 112 146 178 218 270 327
#     4  10  21  38  55  78 112 146 181 223 272 323
#     4  10  18  33  56  79 109 142 174 218 267 321
#     4  10  20  36  57  78 104 140 184 229 271 318
#     4   9  18  34  55  77 105 142 180 226 274 314
#     4  11  23  36  54  79 111 145 179 224 274 327
#     4   9  17  30  52  81 110 137 170 214 268 323
#
# _framework density 9.8765429999999999
#
# number of rings (size 3 to 8) (size 9 to 14) (size 15 to 20)
#    0.000    2.125    2.500    1.500    0.000    3.250 
#    0.000    3.125    0.000    0.750    0.000    0.875 
#    0.000    0.000    0.000    0.000    0.000    0.000 
#
# Total GULP energy -178565.841052 kJ/mol
# GULP energy per Si atom -5580.182533 kJ/mol
# Density = 0.985406 g / cm^3
# Si number density = 9.876543 Si / 1000 Ang^3
#
#
#
# Elastic Constant Matrix: (Units=GPa)
#
#
# Indices 1 2 3 4 5 6 
#
# 1 68.0940 19.6509 11.5850 0.0050 -27.9492 0.0005
# 2 19.6509 15.1442 10.1297 0.0030 -10.4718 -0.0002
# 3 11.5850 10.1297 65.9032 0.0041 -39.6623 -0.0005
# 4 0.0050 0.0030 0.0041 18.4373 -0.0025 -5.5356
# 5 -27.9492 -10.4718 -39.6623 -0.0025 35.5451 -0.0002
# 6 0.0005 -0.0002 -0.0005 -5.5356 -0.0002 18.5720
#
#
#
# Elastic Compliance Matrix: (Units=1/GPa)
#
#
# Indices 1 2 3 4 5 6 
#
# 1 0.050042 -0.041922 0.042302 -0.000007 0.074200 -0.000002
# 2 -0.041922 0.118819 -0.029425 -0.000006 -0.030792 -0.000001
# 3 0.042302 -0.029425 0.082388 -0.000010 0.116525 -0.000001
# 4 -0.000007 -0.000006 -0.000010 0.059569 -0.000013 0.017755
# 5 0.074200 -0.030792 0.116525 -0.000013 0.207427 0.000000
# 6 -0.000002 -0.000001 -0.000001 0.017755 0.000000 0.059137
#
#
# Mechanical properties :
#
#
# Convention : Reuss Voigt Hill
#
# Bulk Modulus (GPa) = 5.17707 25.76363 15.47035
# Shear Modulus (GPa) = 7.14431 21.69592 14.42012
#
# Velocity S-wave (km/s) = 1.90385 3.31774 2.70482
# Velocity P-wave (km/s) = 2.73120 5.26761 4.19566
#
# Compressibility (1/GPa) = 0.19315951
#
# Stress axis : x y z
#
# Youngs Moduli (GPa) = 19.98322 8.41615 12.13768
#
# Poissons Ratio (x) = 0.35282 -0.51345
# Poissons Ratio (y) = 0.83773 0.35716
# Poissons Ratio (z) = -0.84534 0.24765
#
# Static dielectric constant tensor:
#      x y z
#    x 1.745790 0.000000 -0.020810 
#    y 0.000000 1.663050 0.000000 
#    z -0.020810 0.000000 1.680880 
# 
# From -- ./inp_files/353303.got.cif
#   From: 2010.05.17/outbox.ucp.g08.bks.cvg/sg12_177_cif.got.tgz:353303.got - 2010.06.11 11:47:21.
