data_PCOD9223954
_publ_section_title
;
Structure prediction by ZEFSAII (Michael W. Deem and Ramdas Pophale) SiO2 
 PCOD9223954
Probable space group: C 2/M
;
_chemical_formula_sum "Si O2"
_cell_formula_units_Z 32
_cell_length_a 9.000000
_cell_length_b 21.000000
_cell_length_c 21.000000
_cell_angle_alpha 90.000000
_cell_angle_beta 60.000000
_cell_angle_gamma 90.000000
_cell_volume 3437.254828
_symmetry_space_group_name_H-M "C 2/M"
_symmetry_group_IT_number 12
_symmetry_cell_setting 'monoclinic'
loop_
_space_group_symop_operation_xyz
x,y,z
-x,y,-z
-x,-y,-z
x,-y,z
1/2+x,1/2+y,z
1/2-x,1/2+y,-z
1/2-x,1/2-y,-z
1/2+x,1/2-y,z
loop_
_atom_site_type_symbol
_atom_site_label
_atom_site_fract_x
_atom_site_fract_y
_atom_site_fract_z
Si Si1 0.157743 0.423854 0.920728
Si Si2 0.700408 0.310989 0.468767
Si Si3 0.204726 0.426832 0.461874
Si Si4 0.910252 0.319987 0.294504
Si Si5 0.754501 0.751593 0.204984
Si Si6 0.543358 0.661743 0.156387
Si Si7 0.831350 0.426733 0.228200
Si Si8 0.568731 0.425729 0.708482
O O1 0.186203 0.500000 0.915504
O O2 0.329952 0.387529 0.904460
O O3 0.122830 0.406218 0.853994
O O4 0.000000 0.408401 0.000000
O O5 0.500000 0.308000 0.500000
O O6 0.750000 0.250000 0.500000
O O7 0.741392 0.375615 0.497754
O O8 0.798894 0.310662 0.380776
O O9 0.256045 0.500000 0.465986
O O10 0.295183 0.410273 0.375324
O O11 0.000000 0.424975 0.500000
O O12 0.826742 0.286278 0.250303
O O13 0.918580 0.391502 0.267628
O O14 0.097607 0.292868 0.264477
O O15 0.669279 0.707971 0.169487
O O16 0.909601 0.795371 0.146938
O O17 0.433219 0.621276 0.231403
O O18 0.873894 0.500000 0.222392
O O19 0.624838 0.419260 0.277703
O O20 0.589230 0.500000 0.722768
#
# Coordination Sequence:
#
# PCOD9223954 Si02
#       8
#     8   8   8   8   8   8   8   8
#     4   9  17  33  61  91 115 142 180 225 269 324
#     4  12  26  37  56  81 110 146 196 245 298 349
#     4  10  23  40  55  76 111 147 185 238 298 349
#     4  11  21  37  53  78 105 147 184 236 276 334
#     4  10  22  33  56  76 111 143 186 222 276 319
#     4  10  19  35  56  81 111 143 185 225 267 335
#     4   9  17  33  56  82 107 139 183 225 273 332
#     4   9  17  32  57  75  97 140 184 227 274 328
#
# _framework density 9.3097549999999991
#
# number of rings (size 3 to 8) (size 9 to 14) (size 15 to 20)
#    0.000    2.000    2.500    3.000    5.250    0.750 
#    0.000    1.875    0.000    0.000    0.000    2.625 
#    0.000    0.000    0.000    0.000    0.000    0.000 
#
# Total GULP energy -178426.580222 kJ/mol
# GULP energy per Si atom -5575.830632 kJ/mol
# Density = 0.928857 g / cm^3
# Si number density = 9.309755 Si / 1000 Ang^3
#
#
#
# Elastic Constant Matrix: (Units=GPa)
#
#
# Indices 1 2 3 4 5 6 
#
# 1 64.6806 32.7650 25.9464 0.0000 -16.1583 0.0000
# 2 32.7650 54.3245 22.0328 0.0000 -10.3285 0.0000
# 3 25.9464 22.0328 96.0652 0.0000 -31.6378 0.0000
# 4 0.0000 0.0000 0.0000 13.4122 0.0000 -8.3825
# 5 -16.1583 -10.3285 -31.6378 0.0000 18.1638 0.0000
# 6 0.0000 0.0000 0.0000 -8.3825 0.0000 15.2096
#
#
#
# Elastic Compliance Matrix: (Units=1/GPa)
#
#
# Indices 1 2 3 4 5 6 
#
# 1 0.026037 -0.012893 0.002670 0.000000 0.020482 0.000000
# 2 -0.012893 0.027195 -0.003376 0.000000 -0.001886 0.000000
# 3 0.002670 -0.003376 0.024892 0.000000 0.043812 0.000000
# 4 0.000000 0.000000 0.000000 0.113736 0.000000 0.062684
# 5 0.020482 -0.001886 0.043812 0.000000 0.148515 0.000000
# 6 0.000000 0.000000 0.000000 0.062684 0.000000 0.100296
#
#
# Mechanical properties :
#
#
# Convention : Reuss Voigt Hill
#
# Bulk Modulus (GPa) = 19.63640 41.83984 30.73812
# Shear Modulus (GPa) = 10.31261 18.31218 14.31240
#
# Velocity S-wave (km/s) = 2.35598 3.13947 2.77551
# Velocity P-wave (km/s) = 4.23909 5.97172 5.17839
#
# Compressibility (1/GPa) = 0.05092583
#
# Stress axis : x y z
#
# Youngs Moduli (GPa) = 38.40654 36.77197 40.17404
#
# Poissons Ratio (x) = 0.47409 -0.10726
# Poissons Ratio (y) = 0.49516 0.13563
# Poissons Ratio (z) = -0.10254 0.12415
#
# Static dielectric constant tensor:
#      x y z
#    x 1.630050 0.000000 -0.008500 
#    y 0.000000 1.728890 0.000000 
#    z -0.008500 0.000000 1.610290 
# 
# From -- ./inp_files/301703.got.cif
#   From: 2010.05.17/outbox.ucp.g08.bks.cvg/sg12_151_cif.got.tgz:301703.got - 2010.06.11 11:47:21.
