data_PCOD9223218
_publ_section_title
;
Structure prediction by ZEFSAII (Michael W. Deem and Ramdas Pophale) SiO2 
 PCOD9223218
Probable space group: C 2/M
;
_chemical_formula_sum "Si O2"
_cell_formula_units_Z 32
_cell_length_a 30.000000
_cell_length_b 9.000000
_cell_length_c 18.000000
_cell_angle_alpha 90.000000
_cell_angle_beta 140.000000
_cell_angle_gamma 90.000000
_cell_volume 3123.947783
_symmetry_space_group_name_H-M "C 2/M"
_symmetry_group_IT_number 12
_symmetry_cell_setting 'monoclinic'
loop_
_space_group_symop_operation_xyz
x,y,z
-x,y,-z
-x,-y,-z
x,-y,z
1/2+x,1/2+y,z
1/2-x,1/2+y,-z
1/2-x,1/2-y,-z
1/2+x,1/2-y,z
loop_
_atom_site_type_symbol
_atom_site_label
_atom_site_fract_x
_atom_site_fract_y
_atom_site_fract_z
Si Si1 0.414787 0.172327 0.991450
Si Si2 0.147528 0.174443 0.391517
Si Si3 0.696566 0.324575 0.042925
Si Si4 0.402836 0.322467 0.216910
Si Si5 0.216188 0.819126 0.629585
Si Si6 0.335775 0.678311 0.279431
Si Si7 0.640873 0.678972 0.212272
Si Si8 0.513007 0.830159 0.252943
O O1 0.361527 0.263199 0.975130
O O2 0.417652 0.248503 0.914668
O O3 0.392927 0.000000 0.955078
O O4 0.481909 0.172922 0.129787
O O5 0.195838 0.231974 0.520042
O O6 0.145622 0.231840 0.304328
O O7 0.072902 0.209694 0.329631
O O8 0.161666 0.000000 0.403280
O O9 0.705850 0.500000 0.065481
O O10 0.765932 0.240723 0.153623
O O11 0.667240 0.301929 0.921949
O O12 0.419626 0.500000 0.233200
O O13 0.393625 0.280698 0.291752
O O14 0.457634 0.221620 0.243296
O O15 0.165535 0.779920 0.634452
O O16 0.288948 0.739298 0.736216
O O17 0.222635 0.000000 0.637094
O O18 0.333452 0.500000 0.275342
O O19 0.635998 0.500000 0.204514
O O20 0.536059 0.000000 0.296453
#
# Coordination Sequence:
#
# PCOD9223218 Si02
#       8
#     8   8   8   8   8   8   8   8
#     4  10  20  35  55  81 114 147 180 226 280 337
#     4  10  23  41  59  80 109 149 190 230 278 333
#     4  10  18  29  49  79 114 147 180 222 275 328
#     4   9  19  34  53  79 112 149 184 223 272 332
#     4  10  21  38  59  83 114 149 185 227 275 328
#     4  10  19  32  53  81 112 147 185 222 272 333
#     4  11  22  36  58  87 114 142 182 229 283 336
#     4  10  22  39  59  82 109 146 191 234 276 326
#
# _framework density 10.243449
#
# number of rings (size 3 to 8) (size 9 to 14) (size 15 to 20)
#    0.000    2.000    1.250    2.250    0.000    4.500 
#    0.000    3.125    0.000    3.750    0.000    0.000 
#    0.000    0.000    0.000    0.000    0.000    0.000 
#
# Total GULP energy -178334.207783 kJ/mol
# GULP energy per Si atom -5572.943993 kJ/mol
# Density = 1.022013 g / cm^3
# Si number density = 10.243449 Si / 1000 Ang^3
#
#
#
# Elastic Constant Matrix: (Units=GPa)
#
#
# Indices 1 2 3 4 5 6 
#
# 1 80.7593 12.2859 18.4958 0.0000 -20.2282 0.0000
# 2 12.2859 -48.7854 -14.9210 0.0000 -14.6578 0.0000
# 3 18.4958 -14.9210 -5.4179 0.0000 2.4513 0.0000
# 4 0.0000 0.0000 0.0000 18.2156 0.0000 -4.7249
# 5 -20.2282 -14.6578 2.4513 0.0000 18.7195 0.0000
# 6 0.0000 0.0000 0.0000 -4.7249 0.0000 21.4689
#
#
#
# Elastic Compliance Matrix: (Units=1/GPa)
#
#
# Indices 1 2 3 4 5 6 
#
# 1 0.004489 -0.007498 0.033528 0.000000 -0.005411 0.000000
# 2 -0.007498 -0.019935 0.017537 0.000000 -0.026009 0.000000
# 3 0.033528 0.017537 -0.090449 0.000000 0.061806 0.000000
# 4 0.000000 0.000000 0.000000 0.058222 0.000000 0.012813
# 5 -0.005411 -0.026009 0.061806 0.000000 0.019115 0.000000
# 6 0.000000 0.000000 0.000000 0.012813 0.000000 0.049399
#
#
# Mechanical properties :
#
#
# Convention : Reuss Voigt Hill
#
# Bulk Modulus (GPa) = -53.30130 6.47529 -23.41300
# Shear Modulus (GPa) = -68.92005 12.39382 -28.26311
#
# Velocity S-wave (km/s) = -5.80638 2.46227 -3.71829
# Velocity P-wave (km/s) = 8.42768 3.35429 5.46693
#
# Compressibility (1/GPa) = -0.01876127
#
# Stress axis : x y z
#
# Youngs Moduli (GPa) = 222.75487 -50.16178 -11.05596
#
# Poissons Ratio (x) = -0.37613 0.37068
# Poissons Ratio (y) = 1.67028 0.19389
# Poissons Ratio (z) = -7.46852 0.87970
#
# Static dielectric constant tensor:
#      x y z
#    x 1.765000 0.000000 0.011990 
#    y 0.000000 1.679480 0.000000 
#    z 0.011990 0.000000 1.794970 
# 
# From -- ./inp_files/250051.got.cif
#   From: 2010.05.17/outbox.ucp.g08.bks.cvg/sg12_126_cif.got.tgz:250051.got - 2010.06.11 11:47:21.
