data_PCOD9223822
_publ_section_title
;
Structure prediction by ZEFSAII (Michael W. Deem and Ramdas Pophale) SiO2 
 PCOD9223822
Probable space group: C 2/M
;
_chemical_formula_sum "Si O2"
_cell_formula_units_Z 32
_cell_length_a 15.000000
_cell_length_b 9.000000
_cell_length_c 30.000000
_cell_angle_alpha 90.000000
_cell_angle_beta 50.000000
_cell_angle_gamma 90.000000
_cell_volume 3102.479995
_symmetry_space_group_name_H-M "C 2/M"
_symmetry_group_IT_number 12
_symmetry_cell_setting 'monoclinic'
loop_
_space_group_symop_operation_xyz
x,y,z
-x,y,-z
-x,-y,-z
x,-y,z
1/2+x,1/2+y,z
1/2-x,1/2+y,-z
1/2-x,1/2-y,-z
1/2+x,1/2-y,z
loop_
_atom_site_type_symbol
_atom_site_label
_atom_site_fract_x
_atom_site_fract_y
_atom_site_fract_z
Si Si1 0.245037 0.321689 0.637905
Si Si2 0.039696 0.325553 0.396389
Si Si3 0.785552 0.321256 0.889040
Si Si4 0.742100 0.677295 0.195295
Si Si5 0.833805 0.822848 0.509668
Si Si6 0.082043 0.175382 0.016760
Si Si7 0.007723 0.324118 0.303936
Si Si8 0.489961 0.178586 0.136110
O O1 0.253052 0.500000 0.641748
O O2 0.330251 0.237269 0.643551
O O3 0.291231 0.287547 0.573087
O O4 0.110169 0.277975 0.682919
O O5 0.036944 0.500000 0.407414
O O6 0.990256 0.304118 0.362554
O O7 0.961152 0.237328 0.456789
O O8 0.776231 0.500000 0.885432
O O9 0.740674 0.238794 0.860081
O O10 0.918355 0.277440 0.855686
O O11 0.709341 0.284344 0.957126
O O12 0.737142 0.500000 0.196540
O O13 0.622661 0.741274 0.252047
O O14 0.857015 0.725739 0.185380
O O15 0.750000 0.750000 0.500000
O O16 0.830786 0.000000 0.505934
O O17 0.037087 0.262979 0.073717
O O18 0.080278 0.000000 0.028074
O O19 0.000000 0.197723 0.000000
O O20 0.024067 0.500000 0.290870
O O21 0.492328 0.000000 0.133783
#
# Coordination Sequence:
#
# PCOD9223822 Si02
#       8
#     8   8   8   8   8   8   8   8
#     4  10  22  41  62  88 121 158 196 239 297 357
#     4  11  23  40  62  93 124 156 199 243 296 358
#     4  10  21  39  60  84 117 156 191 232 293 353
#     4  11  24  40  59  86 114 147 199 248 287 341
#     4  11  21  37  62  91 125 161 199 243 297 358
#     4  10  19  33  58  89 117 149 192 234 283 350
#     4  10  23  44  63  81 116 159 197 242 297 351
#     4  10  22  38  58  85 118 153 189 235 292 349
#
# _framework density 10.314329000000001
#
# number of rings (size 3 to 8) (size 9 to 14) (size 15 to 20)
#    0.000    1.625    2.500    1.875    0.000    6.750 
#    0.000    3.750    0.000    0.000    0.000    0.000 
#    0.000    0.000    0.000    0.000    0.000    0.000 
#
# Total GULP energy -178831.314924 kJ/mol
# GULP energy per Si atom -5588.478591 kJ/mol
# Density = 1.029085 g / cm^3
# Si number density = 10.314329 Si / 1000 Ang^3
#
#
#
# Elastic Constant Matrix: (Units=GPa)
#
#
# Indices 1 2 3 4 5 6 
#
# 1 97.0267 18.4190 2.4512 0.0000 -36.9205 0.0000
# 2 18.4190 6.3325 11.2042 0.0000 -8.9150 0.0000
# 3 2.4512 11.2042 41.4145 0.0000 -29.8559 0.0000
# 4 0.0000 0.0000 0.0000 31.6504 0.0000 -3.1796
# 5 -36.9205 -8.9150 -29.8559 0.0000 31.3754 0.0000
# 6 0.0000 0.0000 0.0000 -3.1796 0.0000 26.4987
#
#
#
# Elastic Compliance Matrix: (Units=1/GPa)
#
#
# Indices 1 2 3 4 5 6 
#
# 1 -0.010411 0.047593 -0.036121 0.000000 -0.033100 0.000000
# 2 0.047593 0.092018 0.100351 0.000000 0.177641 0.000000
# 3 -0.036121 0.100351 -0.034876 0.000000 -0.047178 0.000000
# 4 0.000000 0.000000 0.000000 0.031981 0.000000 0.003837
# 5 -0.033100 0.177641 -0.047178 0.000000 -0.001496 0.000000
# 6 0.000000 0.000000 0.000000 0.003837 0.000000 0.038198
#
#
# Mechanical properties :
#
#
# Convention : Reuss Voigt Hill
#
# Bulk Modulus (GPa) = 3.69854 23.21360 13.45607
# Shear Modulus (GPa) = -276.15027 25.41819 -125.36604
#
# Velocity S-wave (km/s) = -11.58266 3.51405 -7.80415
# Velocity P-wave (km/s) = 13.30716 5.26709 8.64113
#
# Compressibility (1/GPa) = 0.27037661
#
# Stress axis : x y z
#
# Youngs Moduli (GPa) = -96.05319 10.86742 -28.67299
#
# Poissons Ratio (x) = -0.51721 -1.03571
# Poissons Ratio (y) = 4.57142 2.87737
# Poissons Ratio (z) = -3.46957 -1.09056
#
# Static dielectric constant tensor:
#      x y z
#    x 1.780500 0.000000 -0.043150 
#    y 0.000000 1.681590 0.000000 
#    z -0.043150 0.000000 1.732610 
# 
# From -- ./inp_files/375393.got.cif
#   From: 2010.05.17/outbox.ucp.g08.bks.cvg/sg12_188_cif.got.tgz:375393.got - 2010.06.11 11:47:21.
