data_PCOD9223294
_publ_section_title
;
Structure prediction by ZEFSAII (Michael W. Deem and Ramdas Pophale) SiO2 
 PCOD9223294
Probable space group: C 2/M
;
_chemical_formula_sum "Si O2"
_cell_formula_units_Z 32
_cell_length_a 15.000000
_cell_length_b 9.000000
_cell_length_c 30.000000
_cell_angle_alpha 90.000000
_cell_angle_beta 130.000000
_cell_angle_gamma 90.000000
_cell_volume 3102.479995
_symmetry_space_group_name_H-M "C 2/M"
_symmetry_group_IT_number 12
_symmetry_cell_setting 'monoclinic'
loop_
_space_group_symop_operation_xyz
x,y,z
-x,y,-z
-x,-y,-z
x,-y,z
1/2+x,1/2+y,z
1/2-x,1/2+y,-z
1/2-x,1/2-y,-z
1/2+x,1/2-y,z
loop_
_atom_site_type_symbol
_atom_site_label
_atom_site_fract_x
_atom_site_fract_y
_atom_site_fract_z
Si Si1 0.769656 0.178779 0.142972
Si Si2 0.825841 0.679195 0.985201
Si Si3 0.219165 0.321584 0.395116
Si Si4 0.088948 0.322922 0.488187
Si Si5 0.961842 0.680233 0.891259
Si Si6 0.502216 0.178686 0.805734
Si Si7 0.983165 0.678001 0.358587
Si Si8 0.755452 0.178578 0.307518
O O1 0.718883 0.221923 0.077855
O O2 0.670626 0.228519 0.145475
O O3 0.894625 0.250442 0.189007
O O4 0.779208 0.000000 0.147381
O O5 0.818380 0.500000 0.985073
O O6 0.750000 0.750000 0.000000
O O7 0.957516 0.721392 0.041111
O O8 0.227225 0.500000 0.399909
O O9 0.292562 0.255328 0.459105
O O10 0.083616 0.282407 0.356009
O O11 0.267453 0.271988 0.362899
O O12 0.107413 0.500000 0.492128
O O13 0.034936 0.276730 0.423698
O O14 0.000000 0.291012 0.500000
O O15 0.959402 0.500000 0.889496
O O16 0.014712 0.728343 0.861287
O O17 0.373104 0.220680 0.749348
O O18 0.511167 0.000000 0.806405
O O19 0.969057 0.500000 0.354267
O O20 0.859596 0.753564 0.312863
O O21 0.762723 0.000000 0.308339
#
# Coordination Sequence:
#
# PCOD9223294 Si02
#       8
#     8   8   8   8   8   8   8   8
#     4  10  20  34  55  82 106 134 179 221 257 312
#     4  10  18  31  54  80 107 139 172 211 262 316
#     4  10  21  36  55  80 109 140 174 214 264 316
#     4  10  19  33  55  82 109 137 172 215 263 314
#     4   9  18  34  55  77 106 142 173 210 264 317
#     4  10  21  38  56  75 105 142 178 218 266 311
#     4  10  21  37  56  79 108 140 174 216 265 314
#     4  10  22  38  55  77 105 140 181 219 258 313
#
# _framework density 10.314329000000001
#
# number of rings (size 3 to 8) (size 9 to 14) (size 15 to 20)
#    0.000    2.125    2.500    0.750    0.000    4.250 
#    0.000    1.250    0.000    1.500    0.000    0.000 
#    0.000    0.000    0.000    0.000    0.000    0.000 
#
# Total GULP energy -178604.487233 kJ/mol
# GULP energy per Si atom -5581.390226 kJ/mol
# Density = 1.029085 g / cm^3
# Si number density = 10.314329 Si / 1000 Ang^3
#
#
#
# Elastic Constant Matrix: (Units=GPa)
#
#
# Indices 1 2 3 4 5 6 
#
# 1 97.6430 18.0009 7.5499 0.0000 36.3367 0.0000
# 2 18.0009 -8.0966 10.2094 0.0000 10.5274 0.0000
# 3 7.5499 10.2094 46.9984 0.0000 29.2173 0.0000
# 4 0.0000 0.0000 0.0000 20.4308 0.0000 7.2463
# 5 36.3367 10.5274 29.2173 0.0000 36.5676 0.0000
# 6 0.0000 0.0000 0.0000 7.2463 0.0000 23.1913
#
#
#
# Elastic Compliance Matrix: (Units=1/GPa)
#
#
# Indices 1 2 3 4 5 6 
#
# 1 0.020204 0.016454 0.017099 0.000000 -0.038476 0.000000
# 2 0.016454 -0.075379 0.020674 0.000000 -0.011167 0.000000
# 3 0.017099 0.020674 0.056235 0.000000 -0.067874 0.000000
# 4 0.000000 0.000000 0.000000 0.055046 0.000000 -0.017199
# 5 -0.038476 -0.011167 -0.067874 0.000000 0.123025 0.000000
# 6 0.000000 0.000000 0.000000 -0.017199 0.000000 0.048494
#
#
# Mechanical properties :
#
#
# Convention : Reuss Voigt Hill
#
# Bulk Modulus (GPa) = 9.13136 23.11836 16.12486
# Shear Modulus (GPa) = 32.11792 22.75691 27.43741
#
# Velocity S-wave (km/s) = 3.95011 3.32500 3.65096
# Velocity P-wave (km/s) = 5.02401 5.09628 5.06027
#
# Compressibility (1/GPa) = 0.10951268
#
# Stress axis : x y z
#
# Youngs Moduli (GPa) = 49.49478 -13.26632 17.78263
#
# Poissons Ratio (x) = 0.21828 -0.30407
# Poissons Ratio (y) = -0.81437 -0.36763
# Poissons Ratio (z) = -0.84632 0.27426
#
# Static dielectric constant tensor:
#      x y z
#    x 1.753420 0.000000 0.007100 
#    y 0.000000 1.686470 0.000000 
#    z 0.007100 0.000000 1.752420 
# 
# From -- ./inp_files/359900.got.cif
#   From: 2010.05.17/outbox.ucp.g08.bks.cvg/sg12_180_cif.got.tgz:359900.got - 2010.06.11 11:47:21.
