data_PCOD9223111
_publ_section_title
;
Structure prediction by ZEFSAII (Michael W. Deem and Ramdas Pophale) SiO2 
 PCOD9223111
Probable space group: C 2/M
;
_chemical_formula_sum "Si O2"
_cell_formula_units_Z 56
_cell_length_a 14.823741
_cell_length_b 16.191684
_cell_length_c 12.835923
_cell_angle_alpha 90.000000
_cell_angle_beta 56.100667
_cell_angle_gamma 90.000000
_cell_volume 2557.200960
_symmetry_space_group_name_H-M "C 2/M"
_symmetry_group_IT_number 12
_symmetry_cell_setting 'monoclinic'
loop_
_space_group_symop_operation_xyz
x,y,z
-x,y,-z
-x,-y,-z
x,-y,z
1/2+x,1/2+y,z
1/2-x,1/2+y,-z
1/2-x,1/2-y,-z
1/2+x,1/2-y,z
loop_
_atom_site_type_symbol
_atom_site_label
_atom_site_fract_x
_atom_site_fract_y
_atom_site_fract_z
Si Si1 0.402717 0.138386 0.626686
Si Si2 0.908747 0.907291 0.640923
Si Si3 0.960703 0.403641 0.260549
Si Si4 0.069488 0.248679 0.086732
Si Si5 0.732341 0.272931 0.180154
Si Si6 0.230759 0.591565 0.475989
Si Si7 0.049146 0.904282 0.759630
O O1 0.500000 0.183032 0.500000
O O2 0.456502 0.097690 0.693294
O O3 0.307402 0.196498 0.726780
O O4 0.348142 0.084513 0.572774
O O5 0.803619 0.851836 0.729413
O O6 0.000000 0.877129 0.500000
O O7 0.967600 0.910675 0.714829
O O8 0.879391 0.000000 0.628006
O O9 0.954660 0.500000 0.228667
O O10 0.004205 0.332331 0.156698
O O11 0.844982 0.375245 0.383610
O O12 0.153687 0.232670 0.128861
O O13 0.998564 0.164681 0.132006
O O14 0.145514 0.265677 0.938578
O O15 0.264789 0.500000 0.487191
O O16 0.340688 0.631128 0.363758
O O17 0.065207 0.000000 0.788819
#
# Coordination Sequence:
#
# PCOD9223111 Si02
#       7
#     8   8   8   8   8   8   8
#     4   9  16  28  48  71  95 123 155 194 239 284
#     4   9  17  30  50  74  96 122 160 203 244 281
#     4   9  17  29  47  72 100 127 157 195 236 284
#     4   9  18  31  46  67  94 126 163 195 233 286
#     4   9  17  30  46  66  93 123 159 199 235 278
#     4   9  17  30  49  73  97 122 154 193 243 295
#     4   9  18  33  51  71  97 125 156 200 244 284
#
# _framework density 21.898945000000001
#
# number of rings (size 3 to 8) (size 9 to 14) (size 15 to 20)
#    0.000    3.000    0.000    0.857    0.000    4.000 
#    0.000    8.571    0.000    1.714    0.000    0.000 
#    0.000    8.000    0.000    0.143    0.000    0.000 
#
# Total GULP energy -155983.461523 kJ/mol
# GULP energy per Si atom -5570.837912 kJ/mol
# Density = 2.184910 g / cm^3
# Si number density = 21.898945 Si / 1000 Ang^3
#
#
#
# Elastic Constant Matrix: (Units=GPa)
#
#
# Indices 1 2 3 4 5 6 
#
# 1 57.3614 14.3427 14.7389 0.0000 4.7003 0.0000
# 2 14.3427 136.9899 107.6875 0.0000 -18.8838 0.0000
# 3 14.7389 107.6875 214.4750 0.0000 -38.9907 0.0000
# 4 0.0000 0.0000 0.0000 30.7051 0.0000 -15.9277
# 5 4.7003 -18.8838 -38.9907 0.0000 32.7127 0.0000
# 6 0.0000 0.0000 0.0000 -15.9277 0.0000 10.5304
#
#
#
# Elastic Compliance Matrix: (Units=1/GPa)
#
#
# Indices 1 2 3 4 5 6 
#
# 1 0.018631 -0.001515 -0.001487 0.000000 -0.005325 0.000000
# 2 -0.001515 0.012186 -0.005995 0.000000 0.000107 0.000000
# 3 -0.001487 -0.005995 0.009172 0.000000 0.007685 0.000000
# 4 0.000000 0.000000 0.000000 0.151198 0.000000 0.228693
# 5 -0.005325 0.000107 0.007685 0.000000 0.040556 0.000000
# 6 0.000000 0.000000 0.000000 0.228693 0.000000 0.440871
#
#
# Mechanical properties :
#
#
# Convention : Reuss Voigt Hill
#
# Bulk Modulus (GPa) = 45.46893 75.81827 60.64360
# Shear Modulus (GPa) = 7.16394 32.92681 20.04538
#
# Velocity S-wave (km/s) = 1.81065 3.88181 3.02877
# Velocity P-wave (km/s) = 5.01791 7.40191 6.32328
#
# Compressibility (1/GPa) = 0.02199304
#
# Stress axis : x y z
#
# Youngs Moduli (GPa) = 53.67483 82.06307 109.02818
#
# Poissons Ratio (x) = 0.12435 0.16218
# Poissons Ratio (y) = 0.08133 0.65361
# Poissons Ratio (z) = 0.07984 0.49196
#
# Static dielectric constant tensor:
#      x y z
#    x 1.849460 0.000000 -0.013850 
#    y 0.000000 1.803130 0.000000 
#    z -0.013850 0.000000 1.799500 
# 
# From -- ./inp_files/226550.got.cif
#   From: 2010.05.17/outbox.cif.g08.bks.cpg/sg12_114_cif.got.tgz:226550.got - 2010.06.03 13:09:07.
