data_PCOD9223782
_publ_section_title
;
Structure prediction by ZEFSAII (Michael W. Deem and Ramdas Pophale) SiO2 
 PCOD9223782
Probable space group: C 2/M
;
_chemical_formula_sum "Si O2"
_cell_formula_units_Z 32
_cell_length_a 27.000000
_cell_length_b 12.000000
_cell_length_c 15.000000
_cell_angle_alpha 90.000000
_cell_angle_beta 140.000000
_cell_angle_gamma 90.000000
_cell_volume 3123.947783
_symmetry_space_group_name_H-M "C 2/M"
_symmetry_group_IT_number 12
_symmetry_cell_setting 'monoclinic'
loop_
_space_group_symop_operation_xyz
x,y,z
-x,y,-z
-x,-y,-z
x,-y,z
1/2+x,1/2+y,z
1/2-x,1/2+y,-z
1/2-x,1/2-y,-z
1/2+x,1/2-y,z
loop_
_atom_site_type_symbol
_atom_site_label
_atom_site_fract_x
_atom_site_fract_y
_atom_site_fract_z
Si Si1 0.515333 0.628655 0.838701
Si Si2 0.752175 0.871520 0.834283
Si Si3 0.858759 0.872190 0.142764
Si Si4 0.744282 0.252287 0.344819
Si Si5 0.608865 0.374635 0.475183
Si Si6 0.841288 0.374687 0.626556
Si Si7 0.913189 0.278993 0.385732
Si Si8 0.513597 0.126710 0.912376
O O1 0.518684 0.500000 0.883464
O O2 0.570955 0.625057 0.829874
O O3 0.431367 0.642652 0.676419
O O4 0.538715 0.744041 0.922568
O O5 0.777649 0.803379 0.781085
O O6 0.659440 0.861593 0.707332
O O7 0.776137 0.000000 0.856851
O O8 0.789143 0.833479 0.980038
O O9 0.886421 0.798963 0.265065
O O10 0.841800 0.000000 0.148632
O O11 0.800429 0.147516 0.406895
O O12 0.797428 0.336239 0.476675
O O13 0.678442 0.209997 0.320243
O O14 0.590698 0.500000 0.477389
O O15 0.583230 0.292625 0.518265
O O16 0.814907 0.500000 0.612405
O O17 0.933131 0.379432 0.747980
O O18 0.000000 0.326225 0.500000
O O19 0.551194 0.000000 0.947023
O O20 0.500000 0.127115 0.000000
#
# Coordination Sequence:
#
# PCOD9223782 Si02
#       8
#     8   8   8   8   8   8   8   8
#     4  10  20  36  59  87 117 150 195 246 292 343
#     4  10  23  40  57  82 116 154 191 237 296 354
#     4  10  21  38  60  84 117 152 191 245 296 349
#     4  10  20  35  55  80 107 150 186 240 285 346
#     4  10  19  33  55  85 114 142 188 244 291 336
#     4  10  20  35  55  79 109 146 191 235 285 347
#     4  11  21  36  60  86 114 149 191 236 291 354
#     4  10  22  39  58  82 117 156 193 239 295 355
#
# _framework density 10.243449
#
# number of rings (size 3 to 8) (size 9 to 14) (size 15 to 20)
#    0.000    1.875    2.500    1.500    1.750    1.000 
#    0.000    1.250    0.000    1.500    0.000    0.000 
#    0.000    0.000    0.000    0.000    0.000    0.000 
#
# Total GULP energy -178170.971411 kJ/mol
# GULP energy per Si atom -5567.842857 kJ/mol
# Density = 1.022013 g / cm^3
# Si number density = 10.243449 Si / 1000 Ang^3
#
#
#
# Elastic Constant Matrix: (Units=GPa)
#
#
# Indices 1 2 3 4 5 6 
#
# 1 38.8081 11.1264 3.5457 0.0000 -6.6483 0.0000
# 2 11.1264 107.7917 17.3002 0.0000 -15.3332 0.0000
# 3 3.5457 17.3002 83.6222 0.0000 -4.9190 0.0000
# 4 0.0000 0.0000 0.0000 22.3146 0.0000 -4.8969
# 5 -6.6483 -15.3332 -4.9190 0.0000 30.9868 0.0000
# 6 0.0000 0.0000 0.0000 -4.8969 0.0000 17.5943
#
#
#
# Elastic Compliance Matrix: (Units=1/GPa)
#
#
# Indices 1 2 3 4 5 6 
#
# 1 0.027213 -0.002062 -0.000448 0.000000 0.004747 0.000000
# 2 -0.002062 0.010409 -0.001806 0.000000 0.004422 0.000000
# 3 -0.000448 -0.001806 0.012409 0.000000 0.000980 0.000000
# 4 0.000000 0.000000 0.000000 0.047729 0.000000 0.013284
# 5 0.004747 0.004422 0.000980 0.000000 0.035634 0.000000
# 6 0.000000 0.000000 0.000000 0.013284 0.000000 0.060534
#
#
# Mechanical properties :
#
#
# Convention : Reuss Voigt Hill
#
# Bulk Modulus (GPa) = 24.15500 32.68516 28.42008
# Shear Modulus (GPa) = 23.10979 27.39578 25.25278
#
# Velocity S-wave (km/s) = 3.36226 3.66079 3.51469
# Velocity P-wave (km/s) = 5.18547 5.81870 5.51119
#
# Compressibility (1/GPa) = 0.04139930
#
# Stress axis : x y z
#
# Youngs Moduli (GPa) = 36.74694 96.07286 80.58786
#
# Poissons Ratio (x) = 0.19808 0.03611
# Poissons Ratio (y) = 0.07576 0.14553
# Poissons Ratio (z) = 0.01647 0.17350
#
# Static dielectric constant tensor:
#      x y z
#    x 1.763590 0.000000 0.052370 
#    y 0.000000 1.769760 0.000000 
#    z 0.052370 0.000000 1.754750 
# 
# From -- ./inp_files/245957.got.cif
#   From: 2010.05.17/outbox.ucp.g08.bks.cvg/sg12_123_cif.got.tgz:245957.got - 2010.06.11 11:47:21.
