data_PCOD9223048
_publ_section_title
;
Structure prediction by ZEFSAII (Michael W. Deem and Ramdas Pophale) SiO2 
 PCOD9223048
Probable space group: C 2/M
;
_chemical_formula_sum "Si O2"
_cell_formula_units_Z 64
_cell_length_a 25.232381
_cell_length_b 7.309476
_cell_length_c 19.074957
_cell_angle_alpha 90.000000
_cell_angle_beta 60.877611
_cell_angle_gamma 90.000000
_cell_volume 3073.348290
_symmetry_space_group_name_H-M "C 2/M"
_symmetry_group_IT_number 12
_symmetry_cell_setting 'monoclinic'
loop_
_space_group_symop_operation_xyz
x,y,z
-x,y,-z
-x,-y,-z
x,-y,z
1/2+x,1/2+y,z
1/2-x,1/2+y,-z
1/2-x,1/2-y,-z
1/2+x,1/2-y,z
loop_
_atom_site_type_symbol
_atom_site_label
_atom_site_fract_x
_atom_site_fract_y
_atom_site_fract_z
Si Si1 0.589514 0.778848 0.272630
Si Si2 0.830236 0.787491 0.213083
Si Si3 0.999735 0.282284 0.777874
Si Si4 0.038850 0.218911 0.909821
Si Si5 0.634947 0.221462 0.651107
Si Si6 0.302059 0.775401 0.694543
Si Si7 0.162356 0.721441 0.484876
Si Si8 0.476992 0.221682 0.440535
O O1 0.565156 0.718710 0.211675
O O2 0.645996 0.715818 0.283812
O O3 0.528629 0.728385 0.353567
O O4 0.596817 0.000000 0.266293
O O5 0.892275 0.708526 0.141635
O O6 0.836768 0.777526 0.293245
O O7 0.764153 0.713422 0.237847
O O8 0.828883 0.000000 0.193811
O O9 0.000993 0.500000 0.764724
O O10 0.006933 0.250544 0.855706
O O11 0.063891 0.216504 0.701716
O O12 0.043721 0.000000 0.914653
O O13 0.000000 0.289071 0.000000
O O14 0.674349 0.281101 0.557886
O O15 0.633279 0.000000 0.649949
O O16 0.310782 0.716961 0.607248
O O17 0.303980 0.000000 0.691521
O O18 0.168361 0.500000 0.480370
O O19 0.091545 0.774982 0.526659
O O20 0.500000 0.285790 0.500000
O O21 0.475693 0.000000 0.441637
#
# Coordination Sequence:
#
# PCOD9223048 Si02
#       8
#     8   8   8   8   8   8   8   8
#     4   9  14  21  36  60  89 115 137 167 209 248
#     4   9  18  31  44  61  84 109 141 178 213 250
#     4   9  16  26  44  71  94 107 129 171 216 250
#     4   9  18  33  51  66  81 107 141 173 208 254
#     4   9  16  26  41  61  86 115 144 175 208 242
#     4   9  16  24  37  58  86 118 146 173 206 243
#     4   9  14  20  33  56  85 115 145 174 205 239
#     4   9  12  16  29  52  83 114 142 172 201 233
#
# _framework density 20.824193999999999
#
# number of rings (size 3 to 8) (size 9 to 14) (size 15 to 20)
#    0.000    3.000    2.500    0.000    0.000    0.750 
#    0.000    0.000    0.000    1.500    0.000    0.000 
#    0.000    5.000    0.000    0.000    0.000    0.000 
#
# Total GULP energy -178202.201772 kJ/mol
# GULP energy per Si atom -5568.818805 kJ/mol
# Density = 2.077680 g / cm^3
# Si number density = 20.824194 Si / 1000 Ang^3
#
#
#
# Elastic Constant Matrix: (Units=GPa)
#
#
# Indices 1 2 3 4 5 6 
#
# 1 103.3102 -3.7856 56.9095 -0.0002 -18.2181 -0.0009
# 2 -3.7856 82.2895 -2.0202 0.0115 -3.4450 0.0584
# 3 56.9095 -2.0202 116.0983 0.0002 -7.3163 -0.0017
# 4 -0.0002 0.0115 0.0002 21.6361 0.0005 16.0719
# 5 -18.2181 -3.4450 -7.3163 0.0005 13.8877 0.0020
# 6 -0.0009 0.0584 -0.0017 16.0719 0.0020 55.3704
#
#
#
# Elastic Compliance Matrix: (Units=1/GPa)
#
#
# Indices 1 2 3 4 5 6 
#
# 1 0.016973 0.001396 -0.007106 0.000001 0.018867 -0.000002
# 2 0.001396 0.012414 -0.000164 0.000004 0.004825 -0.000014
# 3 -0.007106 -0.000164 0.011899 0.000000 -0.003095 0.000001
# 4 0.000001 0.000004 0.000000 0.058924 0.000002 -0.017103
# 5 0.018867 0.004825 -0.003095 0.000002 0.096323 -0.000009
# 6 -0.000002 -0.000014 0.000001 -0.017103 -0.000009 0.023025
#
#
# Mechanical properties :
#
#
# Convention : Reuss Voigt Hill
#
# Bulk Modulus (GPa) = 33.85600 44.87837 39.36719
# Shear Modulus (GPa) = 20.73377 34.88511 27.80944
#
# Velocity S-wave (km/s) = 3.15883 4.09739 3.65833
# Velocity P-wave (km/s) = 5.44036 6.63194 6.06548
#
# Compressibility (1/GPa) = 0.02953686
#
# Stress axis : x y z
#
# Youngs Moduli (GPa) = 58.91865 80.55158 84.04094
#
# Poissons Ratio (x) = -0.11247 0.59723
# Poissons Ratio (y) = -0.08226 0.01381
# Poissons Ratio (z) = 0.41870 0.01324
#
# Static dielectric constant tensor:
#      x y z
#    x 1.786780 0.000000 0.037580 
#    y 0.000000 1.856690 0.000000 
#    z 0.037580 0.000000 1.770170 
# 
# From -- ./inp_files/239662.got.cif
#   From: 2010.05.17/outbox.cif.g08.bks.cpg/sg12_120_cif.got.tgz:239662.got - 2010.06.03 13:09:07.
