data_PCOD9223645
_publ_section_title
;
Structure prediction by ZEFSAII (Michael W. Deem and Ramdas Pophale) SiO2 
 PCOD9223645
Probable space group: C 2/M
;
_chemical_formula_sum "Si O2"
_cell_formula_units_Z 20
_cell_length_a 27.000000
_cell_length_b 9.000000
_cell_length_c 12.000000
_cell_angle_alpha 90.000000
_cell_angle_beta 50.000000
_cell_angle_gamma 90.000000
_cell_volume 2233.785596
_symmetry_space_group_name_H-M "C 2/M"
_symmetry_group_IT_number 12
_symmetry_cell_setting 'monoclinic'
loop_
_space_group_symop_operation_xyz
x,y,z
-x,y,-z
-x,-y,-z
x,-y,z
1/2+x,1/2+y,z
1/2-x,1/2+y,-z
1/2-x,1/2-y,-z
1/2+x,1/2-y,z
loop_
_atom_site_type_symbol
_atom_site_label
_atom_site_fract_x
_atom_site_fract_y
_atom_site_fract_z
Si Si1 0.588035 0.674406 0.776603
Si Si2 0.436785 0.673464 0.941299
Si Si3 0.199130 0.323368 0.490771
Si Si4 0.224039 0.321238 0.203107
Si Si5 0.847658 0.323554 0.908225
O O1 0.606609 0.500000 0.742895
O O2 0.512959 0.684684 0.853066
O O3 0.629990 0.772594 0.634864
O O4 0.595884 0.721326 0.894489
O O5 0.420903 0.500000 0.948653
O O6 0.411897 0.762629 0.872002
O O7 0.205835 0.500000 0.484812
O O8 0.250000 0.250000 0.500000
O O9 0.210297 0.273589 0.348153
O O10 0.232369 0.500000 0.189361
O O11 0.166653 0.284171 0.199500
O O12 0.288589 0.247314 0.062638
O O13 0.845429 0.500000 0.921363
#
# Coordination Sequence:
#
# PCOD9223645 Si02
#       5
#     8   8   8   8   8
#     4   9  19  35  53  74 101 132 166 201 243 297
#     4   9  18  34  54  74 100 133 163 200 251 295
#     4  11  22  35  52  74 102 133 163 201 249 295
#     4   9  20  36  50  70 103 136 163 198 249 299
#     4  10  19  32  53  77  98 127 169 209 242 286
#
# _framework density 8.9534109999999991
#
# number of rings (size 3 to 8) (size 9 to 14) (size 15 to 20)
#    0.000    2.400    0.000    3.600    0.000    8.800 
#    0.000    3.000    0.000    6.000    0.000    0.000 
#    0.000    0.000    0.000    0.000    0.000    0.000 
#
# Total GULP energy -111543.178886 kJ/mol
# GULP energy per Si atom -5577.158944 kJ/mol
# Density = 0.893303 g / cm^3
# Si number density = 8.953411 Si / 1000 Ang^3
#
#
#
# Elastic Constant Matrix: (Units=GPa)
#
#
# Indices 1 2 3 4 5 6 
#
# 1 99.7964 38.7909 39.9830 0.0000 33.0349 0.0000
# 2 38.7909 22.2384 33.9752 0.0000 16.4466 0.0000
# 3 39.9830 33.9752 89.9255 0.0000 30.7914 0.0000
# 4 0.0000 0.0000 0.0000 24.9750 0.0000 -1.5384
# 5 33.0349 16.4466 30.7914 0.0000 23.5141 0.0000
# 6 0.0000 0.0000 0.0000 -1.5384 0.0000 33.7444
#
#
#
# Elastic Compliance Matrix: (Units=1/GPa)
#
#
# Indices 1 2 3 4 5 6 
#
# 1 0.057491 -0.124603 0.035041 0.000000 -0.039502 0.000000
# 2 -0.124603 0.401362 -0.108871 0.000000 0.036892 0.000000
# 3 0.035041 -0.108871 0.049773 0.000000 -0.038258 0.000000
# 4 0.000000 0.000000 0.000000 0.040153 0.000000 0.001831
# 5 -0.039502 0.036892 -0.038258 0.000000 0.122319 0.000000
# 6 0.000000 0.000000 0.000000 0.001831 0.000000 0.029718
#
#
# Mechanical properties :
#
#
# Convention : Reuss Voigt Hill
#
# Bulk Modulus (GPa) = 8.94777 48.60650 28.77714
# Shear Modulus (GPa) = 4.40554 23.06078 13.73316
#
# Velocity S-wave (km/s) = 1.57022 3.59252 2.77234
# Velocity P-wave (km/s) = 2.88013 6.66418 5.13354
#
# Compressibility (1/GPa) = 0.11175965
#
# Stress axis : x y z
#
# Youngs Moduli (GPa) = 17.39406 2.49152 20.09111
#
# Poissons Ratio (x) = 0.31045 -0.70402
# Poissons Ratio (y) = 2.16736 2.18735
# Poissons Ratio (z) = -0.60951 0.27125
#
# Static dielectric constant tensor:
#      x y z
#    x 1.645740 0.000000 -0.012640 
#    y 0.000000 1.598450 0.000000 
#    z -0.012640 0.000000 1.611280 
# 
# From -- ./inp_files/151969.got.cif
#   From: 2010.05.17/outbox.ucp.g08.bks.cvg/sg12_76_cif.got.tgz:151969.got - 2010.06.11 11:47:21.
