data_PCOD9223183
_publ_section_title
;
Structure prediction by ZEFSAII (Michael W. Deem and Ramdas Pophale) SiO2 
 PCOD9223183
Probable space group: C 2/M
;
_chemical_formula_sum "Si O2"
_cell_formula_units_Z 28
_cell_length_a 27.000000
_cell_length_b 9.000000
_cell_length_c 12.000000
_cell_angle_alpha 90.000000
_cell_angle_beta 70.000000
_cell_angle_gamma 90.000000
_cell_volume 2740.143682
_symmetry_space_group_name_H-M "C 2/M"
_symmetry_group_IT_number 12
_symmetry_cell_setting 'monoclinic'
loop_
_space_group_symop_operation_xyz
x,y,z
-x,y,-z
-x,-y,-z
x,-y,z
1/2+x,1/2+y,z
1/2-x,1/2+y,-z
1/2-x,1/2-y,-z
1/2+x,1/2-y,z
loop_
_atom_site_type_symbol
_atom_site_label
_atom_site_fract_x
_atom_site_fract_y
_atom_site_fract_z
Si Si1 0.848565 0.820597 0.399812
Si Si2 0.626598 0.320071 0.011102
Si Si3 0.288188 0.319983 0.212821
Si Si4 0.828767 0.679150 0.640937
Si Si5 0.046947 0.833197 0.881366
Si Si6 0.423143 0.318887 0.711918
Si Si7 0.965673 0.323790 0.325544
O O1 0.821024 0.779711 0.301773
O O2 0.819817 0.738012 0.522678
O O3 0.908694 0.760194 0.375816
O O4 0.846655 0.000000 0.412723
O O5 0.625815 0.500000 0.017955
O O6 0.683715 0.270081 0.923762
O O7 0.592659 0.281173 0.927841
O O8 0.601101 0.273573 0.147769
O O9 0.289863 0.500000 0.213162
O O10 0.226703 0.278802 0.258891
O O11 0.835624 0.500000 0.637549
O O12 0.880359 0.755846 0.656615
O O13 0.026665 0.712301 0.810623
O O14 0.060110 0.000000 0.822646
O O15 0.000000 0.858387 0.000000
O O16 0.426740 0.500000 0.702751
O O17 0.482412 0.249341 0.656407
O O18 0.961636 0.500000 0.353581
#
# Coordination Sequence:
#
# PCOD9223183 Si02
#       7
#     8   8   8   8   8   8   8
#     4  11  22  41  68  92 116 158 210 250 297 369
#     4   9  17  33  61  92 120 156 203 246 288 351
#     4   9  19  37  65  94 121 156 199 251 307 355
#     4  11  24  42  61  88 126 161 199 256 312 351
#     4  10  17  32  58  87 120 162 203 244 294 359
#     4  11  23  41  63  88 121 168 213 242 286 369
#     4  12  24  37  58  93 129 157 193 254 317 360
#
# _framework density 10.218442
#
# number of rings (size 3 to 8) (size 9 to 14) (size 15 to 20)
#    0.000    1.571    2.857    3.000    0.000    1.429 
#    0.000    5.000    0.000    0.000    0.000    0.000 
#    0.000    0.000    0.000    0.000    0.000    0.000 
#
# Total GULP energy -155934.218278 kJ/mol
# GULP energy per Si atom -5569.079224 kJ/mol
# Density = 1.019518 g / cm^3
# Si number density = 10.218442 Si / 1000 Ang^3
#
#
#
# Elastic Constant Matrix: (Units=GPa)
#
#
# Indices 1 2 3 4 5 6 
#
# 1 63.0882 15.5082 -9.5572 0.0000 -0.6109 0.0000
# 2 15.5082 76.0316 -1.5746 0.0000 4.4542 0.0000
# 3 -9.5572 -1.5746 20.2938 0.0000 1.5528 0.0000
# 4 0.0000 0.0000 0.0000 25.9925 0.0000 4.4092
# 5 -0.6109 4.4542 1.5528 0.0000 32.7042 0.0000
# 6 0.0000 0.0000 0.0000 4.4092 0.0000 26.0745
#
#
#
# Elastic Compliance Matrix: (Units=1/GPa)
#
#
# Indices 1 2 3 4 5 6 
#
# 1 0.017954 -0.003518 0.008150 0.000000 0.000428 0.000000
# 2 -0.003518 0.013975 -0.000424 0.000000 -0.001949 0.000000
# 3 0.008150 -0.000424 0.053259 0.000000 -0.002319 0.000000
# 4 0.000000 0.000000 0.000000 0.039609 0.000000 -0.006698
# 5 0.000428 -0.001949 -0.002319 0.000000 0.030961 0.000000
# 6 0.000000 0.000000 0.000000 -0.006698 0.000000 0.039484
#
#
# Mechanical properties :
#
#
# Convention : Reuss Voigt Hill
#
# Bulk Modulus (GPa) = 10.68327 18.68517 14.68422
# Shear Modulus (GPa) = 22.93282 27.29006 25.11144
#
# Velocity S-wave (km/s) = 3.35345 3.65819 3.50913
# Velocity P-wave (km/s) = 4.49811 5.19671 4.85998
#
# Compressibility (1/GPa) = 0.09360431
#
# Stress axis : x y z
#
# Youngs Moduli (GPa) = 55.69642 71.55379 18.77626
#
# Poissons Ratio (x) = 0.25176 -0.15302
# Poissons Ratio (y) = 0.19597 0.00795
# Poissons Ratio (z) = -0.45391 0.03030
#
# Static dielectric constant tensor:
#      x y z
#    x 1.758500 0.000000 -0.077480 
#    y 0.000000 1.707090 0.000000 
#    z -0.077480 0.000000 1.868640 
# 
# From -- ./inp_files/180783.got.cif
#   From: 2010.05.17/outbox.ucp.g08.bks.cvg/sg12_91_cif.got.tgz:180783.got - 2010.06.11 11:47:21.
