data_PCOD9223209
_publ_section_title
;
Structure prediction by ZEFSAII (Michael W. Deem and Ramdas Pophale) SiO2 
 PCOD9223209
Probable space group: C 2/M
;
_chemical_formula_sum "Si O2"
_cell_formula_units_Z 24
_cell_length_a 30.000000
_cell_length_b 9.000000
_cell_length_c 12.000000
_cell_angle_alpha 90.000000
_cell_angle_beta 70.000000
_cell_angle_gamma 90.000000
_cell_volume 3044.604091
_symmetry_space_group_name_H-M "C 2/M"
_symmetry_group_IT_number 12
_symmetry_cell_setting 'monoclinic'
loop_
_space_group_symop_operation_xyz
x,y,z
-x,y,-z
-x,-y,-z
x,-y,z
1/2+x,1/2+y,z
1/2-x,1/2+y,-z
1/2-x,1/2-y,-z
1/2+x,1/2-y,z
loop_
_atom_site_type_symbol
_atom_site_label
_atom_site_fract_x
_atom_site_fract_y
_atom_site_fract_z
Si Si1 0.074015 0.319711 0.441625
Si Si2 0.002443 0.179704 0.663800
Si Si3 0.134487 0.822877 0.021287
Si Si4 0.967058 0.323260 0.919251
Si Si5 0.740299 0.320539 0.887055
Si Si6 0.335797 0.678800 0.744572
O O1 0.072289 0.500000 0.442906
O O2 0.039401 0.251255 0.376035
O O3 0.126226 0.258286 0.368229
O O4 0.050807 0.251237 0.573587
O O5 0.990935 0.232195 0.797975
O O6 0.002476 0.000000 0.653237
O O7 0.087345 0.735476 0.024590
O O8 0.145733 0.794554 0.143403
O O9 0.125767 0.000000 0.018189
O O10 0.184212 0.788489 0.914507
O O11 0.965815 0.500000 0.894655
O O12 0.000000 0.302966 0.000000
O O13 0.745339 0.500000 0.885921
O O14 0.782864 0.247966 0.779125
O O15 0.750000 0.250000 0.000000
O O16 0.334806 0.500000 0.729749
#
# Coordination Sequence:
#
# PCOD9223209 Si02
#       6
#     8   8   8   8   8   8
#     4  11  20  31  50  73 100 132 163 200 248 296
#     4  11  21  34  50  70  98 130 166 205 247 296
#     4   9  18  31  47  67  96 130 165 204 245 291
#     4  11  23  36  51  72  98 131 172 211 247 290
#     4   9  17  28  43  66  96 128 162 199 243 295
#     4  10  18  29  46  72 101 130 163 197 242 298
#
# _framework density 7.8827980000000002
#
# number of rings (size 3 to 8) (size 9 to 14) (size 15 to 20)
#    0.000    1.833    1.667    6.500    0.000    4.667 
#    0.000    0.000    0.000    0.000    0.000    1.167 
#    0.000    0.000    0.000    0.000    0.000    0.000 
#
# Total GULP energy -133804.285700 kJ/mol
# GULP energy per Si atom -5575.178571 kJ/mol
# Density = 0.786486 g / cm^3
# Si number density = 7.882798 Si / 1000 Ang^3
#
#
#
# Elastic Constant Matrix: (Units=GPa)
#
#
# Indices 1 2 3 4 5 6 
#
# 1 106.1371 59.1246 52.6128 0.0000 -34.3599 0.0000
# 2 59.1246 141.5796 48.3967 0.0000 -21.1412 0.0000
# 3 52.6128 48.3967 76.6623 0.0000 -32.3081 0.0000
# 4 0.0000 0.0000 0.0000 25.9364 0.0000 -9.7451
# 5 -34.3599 -21.1412 -32.3081 0.0000 38.1484 0.0000
# 6 0.0000 0.0000 0.0000 -9.7451 0.0000 29.3013
#
#
#
# Elastic Compliance Matrix: (Units=1/GPa)
#
#
# Indices 1 2 3 4 5 6 
#
# 1 0.017212 -0.003960 -0.005760 0.000000 0.008430 0.000000
# 2 -0.003960 0.009920 -0.004247 0.000000 -0.001666 0.000000
# 3 -0.005760 -0.004247 0.025657 0.000000 0.014188 0.000000
# 4 0.000000 0.000000 0.000000 0.044062 0.000000 0.014654
# 5 0.008430 -0.001666 0.014188 0.000000 0.044899 0.000000
# 6 0.000000 0.000000 0.000000 0.014654 0.000000 0.039002
#
#
# Mechanical properties :
#
#
# Convention : Reuss Voigt Hill
#
# Bulk Modulus (GPa) = 40.23141 71.62746 55.92944
# Shear Modulus (GPa) = 23.04460 29.62688 26.33574
#
# Velocity S-wave (km/s) = 3.82737 4.33969 4.09156
# Velocity P-wave (km/s) = 6.71607 8.40488 7.60748
#
# Compressibility (1/GPa) = 0.02485620
#
# Stress axis : x y z
#
# Youngs Moduli (GPa) = 58.09876 100.80811 38.97522
#
# Poissons Ratio (x) = 0.39922 0.22449
# Poissons Ratio (y) = 0.23008 0.16551
# Poissons Ratio (z) = 0.33463 0.42809
#
# Static dielectric constant tensor:
#      x y z
#    x 1.529280 0.000000 -0.036340 
#    y 0.000000 1.522250 0.000000 
#    z -0.036340 0.000000 1.548210 
# 
# From -- ./inp_files/185745.got.cif
#   From: 2010.05.17/outbox.ucp.g08.bks.cvg/sg12_93_cif.got.tgz:185745.got - 2010.06.11 11:47:21.
