data_PCOD9223828
_publ_section_title
;
Structure prediction by ZEFSAII (Michael W. Deem and Ramdas Pophale) SiO2 
 PCOD9223828
Probable space group: C 2/M
;
_chemical_formula_sum "Si O2"
_cell_formula_units_Z 28
_cell_length_a 9.000000
_cell_length_b 24.000000
_cell_length_c 18.000000
_cell_angle_alpha 90.000000
_cell_angle_beta 130.000000
_cell_angle_gamma 90.000000
_cell_volume 2978.380795
_symmetry_space_group_name_H-M "C 2/M"
_symmetry_group_IT_number 12
_symmetry_cell_setting 'monoclinic'
loop_
_space_group_symop_operation_xyz
x,y,z
-x,y,-z
-x,-y,-z
x,-y,z
1/2+x,1/2+y,z
1/2-x,1/2+y,-z
1/2-x,1/2-y,-z
1/2+x,1/2-y,z
loop_
_atom_site_type_symbol
_atom_site_label
_atom_site_fract_x
_atom_site_fract_y
_atom_site_fract_z
Si Si1 0.950974 0.741129 0.401527
Si Si2 0.521885 0.563354 0.596589
Si Si3 0.136477 0.807668 0.942151
Si Si4 0.295927 0.161996 0.139024
Si Si5 0.138591 0.624534 0.475016
Si Si6 0.000660 0.774330 0.254911
Si Si7 0.042846 0.566699 0.289464
O O1 0.732168 0.716750 0.328712
O O2 0.000000 0.765270 0.500000
O O3 0.102078 0.689460 0.442452
O O4 0.952610 0.777659 0.327100
O O5 0.500000 0.561532 0.500000
O O6 0.482889 0.500000 0.611163
O O7 0.356220 0.606500 0.566766
O O8 0.747370 0.577357 0.682666
O O9 0.911177 0.815009 0.895498
O O10 0.115844 0.810010 0.845442
O O11 0.250000 0.750000 0.000000
O O12 0.256437 0.846781 0.037899
O O13 0.447801 0.211097 0.210173
O O14 0.376595 0.105369 0.200730
O O15 0.073958 0.587555 0.383973
O O16 0.000000 0.614012 0.500000
O O17 0.008169 0.500000 0.276069
#
# Coordination Sequence:
#
# PCOD9223828 Si02
#       7
#     8   8   8   8   8   8   8
#     4  11  23  37  52  83 121 160 194 235 291 353
#     4   8  16  31  51  75 103 148 203 239 281 344
#     4   9  19  34  62  82 107 151 193 239 284 342
#     4  10  19  37  57  88 113 146 202 251 287 343
#     4  10  19  34  51  79 114 156 206 243 280 347
#     4  11  19  39  56  77 117 157 192 237 288 346
#     4  10  19  35  58  83 116 154 193 247 298 343
#
# _framework density 9.4010809999999996
#
# number of rings (size 3 to 8) (size 9 to 14) (size 15 to 20)
#    0.000    2.143    2.857    1.714    0.000    1.143 
#    7.714    1.429    0.000    0.000    0.000    0.000 
#    0.000    2.286    0.000    0.714    0.000    0.714 
#
# Total GULP energy -155996.182554 kJ/mol
# GULP energy per Si atom -5571.292234 kJ/mol
# Density = 0.937968 g / cm^3
# Si number density = 9.401081 Si / 1000 Ang^3
#
#
#
# Elastic Constant Matrix: (Units=GPa)
#
#
# Indices 1 2 3 4 5 6 
#
# 1 78.1748 34.9967 39.4224 0.0000 1.0648 0.0000
# 2 34.9967 72.7130 34.8779 0.0000 7.5036 0.0000
# 3 39.4224 34.8779 147.0301 0.0000 -14.3901 0.0000
# 4 0.0000 0.0000 0.0000 29.3081 0.0000 3.8906
# 5 1.0648 7.5036 -14.3901 0.0000 43.2340 0.0000
# 6 0.0000 0.0000 0.0000 3.8906 0.0000 24.2061
#
#
#
# Elastic Compliance Matrix: (Units=1/GPa)
#
#
# Indices 1 2 3 4 5 6 
#
# 1 0.017425 -0.006892 -0.003062 0.000000 -0.000252 0.000000
# 2 -0.006892 0.018962 -0.003055 0.000000 -0.004138 0.000000
# 3 -0.003062 -0.003055 0.008689 0.000000 0.003498 0.000000
# 4 0.000000 0.000000 0.000000 0.034864 0.000000 -0.005604
# 5 -0.000252 -0.004138 0.003498 0.000000 0.025019 0.000000
# 6 0.000000 0.000000 0.000000 -0.005604 0.000000 0.042213
#
#
# Mechanical properties :
#
#
# Convention : Reuss Voigt Hill
#
# Bulk Modulus (GPa) = 52.47014 57.39021 54.93017
# Shear Modulus (GPa) = 27.84862 31.92437 29.88650
#
# Velocity S-wave (km/s) = 3.85273 4.12504 3.99121
# Velocity P-wave (km/s) = 6.91075 7.29914 7.10760
#
# Compressibility (1/GPa) = 0.01905846
#
# Stress axis : x y z
#
# Youngs Moduli (GPa) = 57.39028 52.73631 115.08288
#
# Poissons Ratio (x) = 0.36345 0.35236
# Poissons Ratio (y) = 0.39552 0.35162
# Poissons Ratio (z) = 0.17572 0.16113
#
# Static dielectric constant tensor:
#      x y z
#    x 1.722130 0.000000 -0.016480 
#    y 0.000000 1.668630 0.000000 
#    z -0.016480 0.000000 1.664190 
# 
# From -- ./inp_files/259249.got.cif
#   From: 2010.05.17/outbox.ucp.g08.bks.cvg/sg12_130_cif.got.tgz:259249.got - 2010.06.11 11:47:21.
