data_PCOD9223322
_publ_section_title
;
Structure prediction by ZEFSAII (Michael W. Deem and Ramdas Pophale) SiO2 
 PCOD9223322
Probable space group: C 2/M
;
_chemical_formula_sum "Si O2"
_cell_formula_units_Z 32
_cell_length_a 15.000000
_cell_length_b 18.000000
_cell_length_c 24.000000
_cell_angle_alpha 90.000000
_cell_angle_beta 150.000000
_cell_angle_gamma 90.000000
_cell_volume 3240.000000
_symmetry_space_group_name_H-M "C 2/M"
_symmetry_group_IT_number 12
_symmetry_cell_setting 'monoclinic'
loop_
_space_group_symop_operation_xyz
x,y,z
-x,y,-z
-x,-y,-z
x,-y,z
1/2+x,1/2+y,z
1/2-x,1/2+y,-z
1/2-x,1/2-y,-z
1/2+x,1/2-y,z
loop_
_atom_site_type_symbol
_atom_site_label
_atom_site_fract_x
_atom_site_fract_y
_atom_site_fract_z
Si Si1 0.176924 0.415289 0.291590
Si Si2 0.958854 0.083064 0.836502
Si Si3 0.667414 0.317034 0.420794
Si Si4 0.316342 0.824949 0.382754
Si Si5 0.807485 0.210925 0.281114
Si Si6 0.870857 0.587818 0.611041
Si Si7 0.249045 0.586857 0.933262
Si Si8 0.763931 0.153073 0.826638
O O1 0.237643 0.500000 0.313946
O O2 0.228818 0.358756 0.271427
O O3 0.228078 0.395060 0.383517
O O4 0.962657 0.413630 0.177617
O O5 0.830675 0.126806 0.727217
O O6 0.863601 0.090511 0.844969
O O7 0.971276 0.000000 0.822839
O O8 0.156261 0.110516 0.958239
O O9 0.750000 0.250000 0.500000
O O10 0.717857 0.300404 0.385145
O O11 0.461025 0.317294 0.323571
O O12 0.756331 0.390285 0.495409
O O13 0.500000 0.864018 0.500000
O O14 0.371478 0.762369 0.367861
O O15 0.696404 0.268682 0.182296
O O16 0.913473 0.500000 0.635698
O O17 0.052813 0.635138 0.706405
O O18 0.298777 0.500000 0.949079
O O19 0.302980 0.641253 0.912416
#
# Coordination Sequence:
#
# PCOD9223322 Si02
#       8
#     8   8   8   8   8   8   8   8
#     4   9  20  38  60  85 115 153 202 253 299 345
#     4  10  20  35  57  87 121 154 194 240 292 360
#     4  12  21  37  57  80 115 162 200 242 295 352
#     4  11  23  37  57  85 118 160 197 234 298 357
#     4  11  23  36  59  85 119 159 197 246 300 352
#     4  10  20  34  56  86 115 152 202 251 294 348
#     4   9  18  35  63  88 116 156 194 248 304 342
#     4  10  18  32  54  88 119 150 189 240 301 360
#
# _framework density 9.8765429999999999
#
# number of rings (size 3 to 8) (size 9 to 14) (size 15 to 20)
#    0.000    1.750    2.500    3.750    1.750    2.250 
#    0.000    3.750    5.500    0.000    0.000    2.625 
#    0.000    0.000    0.000    0.000    0.000    0.000 
#
# Total GULP energy -178248.625842 kJ/mol
# GULP energy per Si atom -5570.269558 kJ/mol
# Density = 0.985406 g / cm^3
# Si number density = 9.876543 Si / 1000 Ang^3
#
#
#
# Elastic Constant Matrix: (Units=GPa)
#
#
# Indices 1 2 3 4 5 6 
#
# 1 74.8216 17.3856 7.7076 -0.0002 -8.1156 0.0003
# 2 17.3856 60.2104 10.8965 0.0006 -11.3832 0.0009
# 3 7.7076 10.8965 61.6364 0.0010 -21.6092 0.0036
# 4 -0.0002 0.0006 0.0010 14.4592 -0.0003 0.6508
# 5 -8.1156 -11.3832 -21.6092 -0.0003 17.6242 0.0006
# 6 0.0003 0.0009 0.0036 0.6508 0.0006 19.0242
#
#
#
# Elastic Compliance Matrix: (Units=1/GPa)
#
#
# Indices 1 2 3 4 5 6 
#
# 1 0.014657 -0.003330 0.000646 0.000000 0.005390 0.000000
# 2 -0.003330 0.019771 0.001509 -0.000001 0.013087 -0.000002
# 3 0.000646 0.001509 0.028629 -0.000001 0.036375 -0.000007
# 4 0.000000 -0.000001 -0.000001 0.069267 -0.000001 -0.002369
# 5 0.005390 0.013087 0.036375 -0.000001 0.112274 -0.000011
# 6 0.000000 -0.000002 -0.000007 -0.002369 -0.000011 0.052646
#
#
# Mechanical properties :
#
#
# Convention : Reuss Voigt Hill
#
# Bulk Modulus (GPa) = 16.47255 29.84974 23.16115
# Shear Modulus (GPa) = 15.63332 20.93344 18.28338
#
# Velocity S-wave (km/s) = 2.81630 3.25892 3.04566
# Velocity P-wave (km/s) = 4.35118 5.41341 4.91110
#
# Compressibility (1/GPa) = 0.06070705
#
# Stress axis : x y z
#
# Youngs Moduli (GPa) = 68.22668 50.57924 34.92923
#
# Poissons Ratio (x) = 0.16843 -0.02255
# Poissons Ratio (y) = 0.22719 -0.05272
# Poissons Ratio (z) = -0.04404 -0.07634
#
# Static dielectric constant tensor:
#      x y z
#    x 1.702820 0.000000 -0.001070 
#    y 0.000000 1.738000 0.000000 
#    z -0.001070 0.000000 1.798580 
# 
# From -- ./inp_files/216856.got.cif
#   From: 2010.05.17/outbox.ucp.g08.bks.cvg/sg12_109_cif.got.tgz:216856.got - 2010.06.11 11:47:21.
