data_PCOD9223171
_publ_section_title
;
Structure prediction by ZEFSAII (Michael W. Deem and Ramdas Pophale) SiO2 
 PCOD9223171
Probable space group: C 2/M
;
_chemical_formula_sum "Si O2"
_cell_formula_units_Z 28
_cell_length_a 21.000000
_cell_length_b 21.000000
_cell_length_c 9.000000
_cell_angle_alpha 90.000000
_cell_angle_beta 130.000000
_cell_angle_gamma 90.000000
_cell_volume 3040.430395
_symmetry_space_group_name_H-M "C 2/M"
_symmetry_group_IT_number 12
_symmetry_cell_setting 'monoclinic'
loop_
_space_group_symop_operation_xyz
x,y,z
-x,y,-z
-x,-y,-z
x,-y,z
1/2+x,1/2+y,z
1/2-x,1/2+y,-z
1/2-x,1/2-y,-z
1/2+x,1/2-y,z
loop_
_atom_site_type_symbol
_atom_site_label
_atom_site_fract_x
_atom_site_fract_y
_atom_site_fract_z
Si Si1 0.782577 0.663778 0.455246
Si Si2 0.444738 0.714848 0.118685
Si Si3 0.825952 0.428034 0.066345
Si Si4 0.400791 0.071801 0.507675
Si Si5 0.539010 0.137814 0.893681
Si Si6 0.879104 0.789786 0.685673
Si Si7 0.721083 0.683843 0.024589
O O1 0.823183 0.595542 0.489924
O O2 0.846526 0.717603 0.609963
O O3 0.703118 0.667610 0.443103
O O4 0.754367 0.682843 0.245313
O O5 0.435255 0.790955 0.108837
O O6 0.540273 0.698357 0.292330
O O7 0.415641 0.701289 0.905966
O O8 0.378042 0.682082 0.121619
O O9 0.795747 0.500000 0.008645
O O10 0.878726 0.424239 0.300760
O O11 0.883482 0.408499 0.014902
O O12 0.757102 0.375030 0.988706
O O13 0.472692 0.117270 0.670987
O O14 0.425107 0.000000 0.577729
O O15 0.500000 0.135579 0.000000
O O16 0.750000 0.750000 0.000000
#
# Coordination Sequence:
#
# PCOD9223171 Si02
#       7
#     8   8   8   8   8   8   8
#     4   9  17  29  50  69  93 135 164 196 249 305
#     4  10  17  29  49  74 103 127 160 213 254 291
#     4  10  22  37  51  69 103 141 172 206 249 305
#     4  10  20  34  48  70 102 138 169 199 240 302
#     4  12  20  31  51  76 107 135 166 203 255 306
#     4   9  16  30  47  72 100 128 156 204 261 292
#     4  10  19  32  50  72  94 131 172 212 247 293
#
# _framework density 9.2092229999999997
#
# number of rings (size 3 to 8) (size 9 to 14) (size 15 to 20)
#    0.000    2.000    4.286    0.857    0.000    2.286 
#    0.000    0.714    0.000    0.857    0.000    6.000 
#    0.000    1.143    0.000    0.000    0.000    0.000 
#
# Total GULP energy -155945.781791 kJ/mol
# GULP energy per Si atom -5569.492207 kJ/mol
# Density = 0.918826 g / cm^3
# Si number density = 9.209223 Si / 1000 Ang^3
#
#
#
# Elastic Constant Matrix: (Units=GPa)
#
#
# Indices 1 2 3 4 5 6 
#
# 1 102.0033 53.3405 20.3403 0.0000 27.2443 0.0000
# 2 53.3405 70.8134 1.1544 0.0000 1.0241 0.0000
# 3 20.3403 1.1544 10.4447 0.0000 13.7717 0.0000
# 4 0.0000 0.0000 0.0000 10.9210 0.0000 -5.3255
# 5 27.2443 1.0241 13.7717 0.0000 20.4419 0.0000
# 6 0.0000 0.0000 0.0000 -5.3255 0.0000 -2.5440
#
#
#
# Elastic Compliance Matrix: (Units=1/GPa)
#
#
# Indices 1 2 3 4 5 6 
#
# 1 0.039695 -0.028789 -0.056101 0.000000 -0.013668 0.000000
# 2 -0.028789 0.035047 0.035045 0.000000 0.013003 0.000000
# 3 -0.056101 0.035045 0.938609 0.000000 -0.559327 0.000000
# 4 0.000000 0.000000 0.000000 0.045312 0.000000 -0.094854
# 5 -0.013668 0.013003 -0.559327 0.000000 0.443302 0.000000
# 6 0.000000 0.000000 0.000000 -0.094854 0.000000 -0.194515
#
#
# Mechanical properties :
#
#
# Convention : Reuss Voigt Hill
#
# Bulk Modulus (GPa) = 1.09450 36.99244 19.04347
# Shear Modulus (GPa) = 2.92108 12.99217 7.95663
#
# Velocity S-wave (km/s) = 1.26071 2.65880 2.08070
# Velocity P-wave (km/s) = 1.64764 5.43633 4.01674
#
# Compressibility (1/GPa) = 0.91366252
#
# Stress axis : x y z
#
# Youngs Moduli (GPa) = 25.19180 28.53287 1.06541
#
# Poissons Ratio (x) = 0.82142 0.05977
# Poissons Ratio (y) = 0.72523 -0.03734
# Poissons Ratio (z) = 1.41328 -0.99993
#
# Static dielectric constant tensor:
#      x y z
#    x 1.723240 0.000000 0.046150 
#    y 0.000000 1.602210 0.000000 
#    z 0.046150 0.000000 1.662550 
# 
# From -- ./inp_files/89692.got.cif
#   From: 2010.05.17/outbox.ucp.g08.bks.cvg/sg12_45_cif.got.tgz:89692.got - 2010.06.11 11:47:21.
