data_PCOD9223231
_publ_section_title
;
Structure prediction by ZEFSAII (Michael W. Deem and Ramdas Pophale) SiO2 
 PCOD9223231
Probable space group: C 2/M
;
_chemical_formula_sum "Si O2"
_cell_formula_units_Z 32
_cell_length_a 24.000000
_cell_length_b 9.000000
_cell_length_c 18.000000
_cell_angle_alpha 90.000000
_cell_angle_beta 100.000000
_cell_angle_gamma 90.000000
_cell_volume 3828.932544
_symmetry_space_group_name_H-M "C 2/M"
_symmetry_group_IT_number 12
_symmetry_cell_setting 'monoclinic'
loop_
_space_group_symop_operation_xyz
x,y,z
-x,y,-z
-x,-y,-z
x,-y,z
1/2+x,1/2+y,z
1/2-x,1/2+y,-z
1/2-x,1/2-y,-z
1/2+x,1/2-y,z
loop_
_atom_site_type_symbol
_atom_site_label
_atom_site_fract_x
_atom_site_fract_y
_atom_site_fract_z
Si Si1 0.567594 0.174067 0.895206
Si Si2 0.231952 0.821610 0.073316
Si Si3 0.599519 0.323649 0.052763
Si Si4 0.668795 0.823407 0.806528
Si Si5 0.041484 0.676710 0.344181
Si Si6 0.040448 0.823883 0.193589
Si Si7 0.909587 0.679406 0.345159
Si Si8 0.432393 0.671390 0.501056
O O1 0.627214 0.193608 0.867392
O O2 0.522145 0.266221 0.838726
O O3 0.552987 0.000000 0.889387
O O4 0.571516 0.233078 0.979569
O O5 0.166082 0.793435 0.069429
O O6 0.271059 0.765968 0.150473
O O7 0.240020 0.000000 0.069778
O O8 0.250000 0.750000 0.000000
O O9 0.590347 0.500000 0.036612
O O10 0.574590 0.287686 0.127044
O O11 0.635739 0.765688 0.726350
O O12 0.674975 0.000000 0.794261
O O13 0.045848 0.500000 0.346231
O O14 0.073022 0.745165 0.422226
O O15 0.062387 0.743497 0.271910
O O16 0.974120 0.714463 0.334938
O O17 0.040950 0.000000 0.205129
O O18 0.906595 0.500000 0.349223
O O19 0.902681 0.749678 0.424710
O O20 0.500000 0.676342 0.500000
O O21 0.415617 0.500000 0.502801
#
# Coordination Sequence:
#
# PCOD9223231 Si02
#       8
#     8   8   8   8   8   8   8   8
#     4  11  20  33  51  72  95 127 168 206 244 289
#     4  10  19  34  53  71  93 125 164 207 249 291
#     4  10  22  36  49  69  97 131 167 203 249 295
#     4   9  17  30  49  72  96 123 159 202 245 285
#     4  10  18  30  48  70  96 129 164 195 235 286
#     4  11  22  34  47  68 101 134 164 201 244 293
#     4   9  16  29  46  67  96 125 156 195 238 286
#     4   9  17  28  43  68  99 129 158 188 231 288
#
# _framework density 8.3574210000000004
#
# number of rings (size 3 to 8) (size 9 to 14) (size 15 to 20)
#    0.000    2.125    2.500    1.875    0.000    4.500 
#    0.000    0.625    0.000    0.000    0.000    0.875 
#    0.000    0.000    0.000    0.000    0.000    0.000 
#
# Total GULP energy -178399.956780 kJ/mol
# GULP energy per Si atom -5574.998649 kJ/mol
# Density = 0.833840 g / cm^3
# Si number density = 8.357421 Si / 1000 Ang^3
#
#
#
# Elastic Constant Matrix: (Units=GPa)
#
#
# Indices 1 2 3 4 5 6 
#
# 1 2.5832 0.0093 10.5131 0.0000 12.3835 0.0000
# 2 0.0093 15.6785 41.4939 0.0000 0.9818 0.0000
# 3 10.5131 41.4939 140.9019 0.0000 9.0748 0.0000
# 4 0.0000 0.0000 0.0000 31.5085 0.0000 -1.7353
# 5 12.3835 0.9818 9.0748 0.0000 9.0869 0.0000
# 6 0.0000 0.0000 0.0000 -1.7353 0.0000 10.1538
#
#
#
# Elastic Compliance Matrix: (Units=1/GPa)
#
#
# Indices 1 2 3 4 5 6 
#
# 1 -0.068950 -0.016757 0.004180 0.000000 0.091600 0.000000
# 2 -0.016757 0.316147 -0.097386 0.000000 0.085936 0.000000
# 3 0.004180 -0.097386 0.037570 0.000000 -0.032695 0.000000
# 4 0.000000 0.000000 0.000000 0.032039 0.000000 0.005476
# 5 0.091600 0.085936 -0.032695 0.000000 0.008584 0.000000
# 6 0.000000 0.000000 0.000000 0.005476 0.000000 0.099421
#
#
# Mechanical properties :
#
#
# Convention : Reuss Voigt Hill
#
# Bulk Modulus (GPa) = 15.42250 29.24404 22.33327
# Shear Modulus (GPa) = 7.50355 17.29301 12.39828
#
# Velocity S-wave (km/s) = 2.12106 3.21999 2.72647
# Velocity P-wave (km/s) = 3.90453 5.59985 4.82720
#
# Compressibility (1/GPa) = 0.06484032
#
# Stress axis : x y z
#
# Youngs Moduli (GPa) = -14.50332 3.16309 26.61701
#
# Poissons Ratio (x) = 0.05300 -0.11126
# Poissons Ratio (y) = -0.24304 2.59212
# Poissons Ratio (z) = 0.06062 0.30804
#
# Static dielectric constant tensor:
#      x y z
#    x 1.568390 0.000000 0.004790 
#    y 0.000000 1.560320 0.000000 
#    z 0.004790 0.000000 1.572120 
# 
# From -- ./inp_files/287744.got.cif
#   From: 2010.05.17/outbox.ucp.g08.bks.cvg/sg12_144_cif.got.tgz:287744.got - 2010.06.11 11:47:21.
