data_PCOD9223488
_publ_section_title
;
Structure prediction by ZEFSAII (Michael W. Deem and Ramdas Pophale) SiO2 
 PCOD9223488
Probable space group: C 2/M
;
_chemical_formula_sum "Si O2"
_cell_formula_units_Z 20
_cell_length_a 27.000000
_cell_length_b 9.000000
_cell_length_c 18.000000
_cell_angle_alpha 90.000000
_cell_angle_beta 150.000000
_cell_angle_gamma 90.000000
_cell_volume 2187.000000
_symmetry_space_group_name_H-M "C 2/M"
_symmetry_group_IT_number 12
_symmetry_cell_setting 'monoclinic'
loop_
_space_group_symop_operation_xyz
x,y,z
-x,y,-z
-x,-y,-z
x,-y,z
1/2+x,1/2+y,z
1/2-x,1/2+y,-z
1/2-x,1/2-y,-z
1/2+x,1/2-y,z
loop_
_atom_site_type_symbol
_atom_site_label
_atom_site_fract_x
_atom_site_fract_y
_atom_site_fract_z
Si Si1 0.722566 0.820125 0.217973
Si Si2 0.142363 0.823167 0.855202
Si Si3 0.050281 0.821374 0.892231
Si Si4 0.614319 0.833285 0.665255
Si Si5 0.088468 0.326185 0.176202
O O1 0.822953 0.746166 0.318281
O O2 0.685048 0.781632 0.253016
O O3 0.726124 0.000000 0.217888
O O4 0.638883 0.757272 0.053116
O O5 0.071782 0.783215 0.833668
O O6 0.111064 0.765820 0.734540
O O7 0.151207 0.000000 0.867448
O O8 0.250000 0.750000 0.000000
O O9 0.949737 0.764329 0.801877
O O10 0.055890 0.000000 0.907426
O O11 0.500000 0.850511 0.500000
O O12 0.657522 0.000000 0.734614
O O13 0.097572 0.500000 0.208035
O O14 0.000000 0.314940 0.000000
#
# Coordination Sequence:
#
# PCOD9223488 Si02
#       5
#     8   8   8   8   8
#     4  10  19  32  52  76 105 141 178 218 265 319
#     4  11  22  35  55  81 110 143 179 221 269 319
#     4  10  19  30  49  79 109 137 173 218 266 315
#     4  11  24  39  55  78 108 143 183 225 271 323
#     4   8  16  29  46  73 105 137 173 213 264 317
#
# _framework density 9.1449470000000002
#
# number of rings (size 3 to 8) (size 9 to 14) (size 15 to 20)
#    0.000    2.000    2.000    3.600    0.000    8.400 
#    0.000    0.000    0.000    1.200    0.000    0.000 
#    0.000    0.000    0.000    0.000    0.000    0.000 
#
# Total GULP energy -111406.044338 kJ/mol
# GULP energy per Si atom -5570.302217 kJ/mol
# Density = 0.912413 g / cm^3
# Si number density = 9.144947 Si / 1000 Ang^3
#
#
#
# Elastic Constant Matrix: (Units=GPa)
#
#
# Indices 1 2 3 4 5 6 
#
# 1 213.8447 79.0364 30.4789 0.0000 28.0312 0.0000
# 2 79.0364 91.7224 14.0297 0.0000 9.4613 0.0000
# 3 30.4789 14.0297 31.8161 0.0000 9.8542 0.0000
# 4 0.0000 0.0000 0.0000 13.7076 0.0000 7.5079
# 5 28.0312 9.4613 9.8542 0.0000 18.9611 0.0000
# 6 0.0000 0.0000 0.0000 7.5079 0.0000 34.8259
#
#
#
# Elastic Compliance Matrix: (Units=1/GPa)
#
#
# Indices 1 2 3 4 5 6 
#
# 1 0.008295 -0.005895 -0.002932 0.000000 -0.007798 0.000000
# 2 -0.005895 0.016110 -0.001986 0.000000 0.001708 0.000000
# 3 -0.002932 -0.001986 0.039886 0.000000 -0.015404 0.000000
# 4 0.000000 0.000000 0.000000 0.082720 0.000000 -0.017833
# 5 -0.007798 0.001708 -0.015404 0.000000 0.071421 0.000000
# 6 0.000000 0.000000 0.000000 -0.017833 0.000000 0.032559
#
#
# Mechanical properties :
#
#
# Convention : Reuss Voigt Hill
#
# Bulk Modulus (GPa) = 23.43805 64.94147 44.18976
# Shear Modulus (GPa) = 17.43151 27.75479 22.59315
#
# Velocity S-wave (km/s) = 3.09053 3.89973 3.51847
# Velocity P-wave (km/s) = 5.05744 7.47402 6.38117
#
# Compressibility (1/GPa) = 0.04266567
#
# Stress axis : x y z
#
# Youngs Moduli (GPa) = 120.55326 62.07466 25.07157
#
# Poissons Ratio (x) = 0.36593 0.07350
# Poissons Ratio (y) = 0.71066 0.04978
# Poissons Ratio (z) = 0.35344 0.12326
#
# Static dielectric constant tensor:
#      x y z
#    x 1.670340 0.000000 -0.026980 
#    y 0.000000 1.659730 0.000000 
#    z -0.026980 0.000000 1.687090 
# 
# From -- ./inp_files/220601.got.cif
#   From: 2010.05.17/outbox.ucp.g08.bks.cvg/sg12_111_cif.got.tgz:220601.got - 2010.06.11 11:47:21.
