data_PCOD9223779
_publ_section_title
;
Structure prediction by ZEFSAII (Michael W. Deem and Ramdas Pophale) SiO2 
 PCOD9223779
Probable space group: C 2/M
;
_chemical_formula_sum "Si O2"
_cell_formula_units_Z 28
_cell_length_a 30.000000
_cell_length_b 9.000000
_cell_length_c 15.000000
_cell_angle_alpha 90.000000
_cell_angle_beta 130.000000
_cell_angle_gamma 90.000000
_cell_volume 3102.479995
_symmetry_space_group_name_H-M "C 2/M"
_symmetry_group_IT_number 12
_symmetry_cell_setting 'monoclinic'
loop_
_space_group_symop_operation_xyz
x,y,z
-x,y,-z
-x,-y,-z
x,-y,z
1/2+x,1/2+y,z
1/2-x,1/2+y,-z
1/2-x,1/2-y,-z
1/2+x,1/2-y,z
loop_
_atom_site_type_symbol
_atom_site_label
_atom_site_fract_x
_atom_site_fract_y
_atom_site_fract_z
Si Si1 0.918931 0.177747 0.142584
Si Si2 0.557152 0.822827 0.016336
Si Si3 0.502985 0.180330 0.396986
Si Si4 0.376554 0.820312 0.548992
Si Si5 0.842893 0.679259 0.709979
Si Si6 0.756691 0.320493 0.298997
Si Si7 0.780697 0.178358 0.952506
O O1 0.951607 0.252167 0.268998
O O2 0.927037 0.000000 0.157105
O O3 0.941619 0.239545 0.076503
O O4 0.849635 0.209015 0.050902
O O5 0.609361 0.787929 0.151900
O O6 0.558596 0.000000 0.999530
O O7 0.500000 0.789740 0.000000
O O8 0.500000 0.220998 0.500000
O O9 0.563242 0.225636 0.422969
O O10 0.499376 0.000000 0.389542
O O11 0.363373 0.772606 0.635759
O O12 0.322036 0.781533 0.415005
O O13 0.379340 0.000000 0.557284
O O14 0.835393 0.500000 0.696188
O O15 0.785483 0.753192 0.678848
O O16 0.750865 0.500000 0.293535
O O17 0.740875 0.274205 0.175807
O O18 0.771929 0.000000 0.945065
O O19 0.750000 0.250000 0.000000
#
# Coordination Sequence:
#
# PCOD9223779 Si02
#       7
#     8   8   8   8   8   8   8
#     4  11  23  40  59  86 122 154 188 239 298 351
#     4  10  20  35  58  85 116 156 199 242 283 337
#     4  10  22  40  64  88 111 150 201 244 285 343
#     4   9  19  36  58  85 115 148 191 240 283 335
#     4  10  19  33  55  84 116 148 188 235 285 339
#     4  10  20  37  59  83 117 151 185 234 288 342
#     4  10  23  39  59  86 116 153 194 239 288 344
#
# _framework density 9.0250380000000003
#
# number of rings (size 3 to 8) (size 9 to 14) (size 15 to 20)
#    0.000    2.000    1.429    1.714    2.000    4.571 
#    0.000    2.857    0.000    0.000    0.000    0.000 
#    0.000    0.000    0.000    0.000    0.000    0.000 
#
# Total GULP energy -156129.321970 kJ/mol
# GULP energy per Si atom -5576.047213 kJ/mol
# Density = 0.900450 g / cm^3
# Si number density = 9.025038 Si / 1000 Ang^3
#
#
#
# Elastic Constant Matrix: (Units=GPa)
#
#
# Indices 1 2 3 4 5 6 
#
# 1 124.4906 27.8143 80.2600 0.0000 -21.3788 0.0000
# 2 27.8143 25.0461 39.5571 0.0000 -3.9183 0.0000
# 3 80.2600 39.5571 162.4165 0.0000 -26.1841 0.0000
# 4 0.0000 0.0000 0.0000 28.9022 0.0000 -3.6981
# 5 -21.3788 -3.9183 -26.1841 0.0000 42.3561 0.0000
# 6 0.0000 0.0000 0.0000 -3.6981 0.0000 29.9883
#
#
#
# Elastic Compliance Matrix: (Units=1/GPa)
#
#
# Indices 1 2 3 4 5 6 
#
# 1 0.012842 -0.007418 -0.004004 0.000000 0.003320 0.000000
# 2 -0.007418 0.069844 -0.014336 0.000000 -0.006145 0.000000
# 3 -0.004004 -0.014336 0.012315 0.000000 0.004266 0.000000
# 4 0.000000 0.000000 0.000000 0.035154 0.000000 0.004335
# 5 0.003320 -0.006145 0.004266 0.000000 0.027354 0.000000
# 6 0.000000 0.000000 0.000000 0.004335 0.000000 0.033881
#
#
# Mechanical properties :
#
#
# Convention : Reuss Voigt Hill
#
# Bulk Modulus (GPa) = 22.99617 67.46844 45.23231
# Shear Modulus (GPa) = 19.42501 31.20412 25.31457
#
# Velocity S-wave (km/s) = 3.28407 4.16234 3.74901
# Velocity P-wave (km/s) = 5.21037 7.78201 6.62222
#
# Compressibility (1/GPa) = 0.04348550
#
# Stress axis : x y z
#
# Youngs Moduli (GPa) = 77.87191 14.31755 81.20256
#
# Poissons Ratio (x) = 0.10620 0.32513
# Poissons Ratio (y) = 0.57764 1.16412
# Poissons Ratio (z) = 0.31179 0.20526
#
# Static dielectric constant tensor:
#      x y z
#    x 1.629900 0.000000 0.032650 
#    y 0.000000 1.612860 0.000000 
#    z 0.032650 0.000000 1.634350 
# 
# From -- ./inp_files/180811.got.cif
#   From: 2010.05.17/outbox.ucp.g08.bks.cvg/sg12_91_cif.got.tgz:180811.got - 2010.06.11 11:47:21.
