data_PCOD9223859
_publ_section_title
;
Structure prediction by ZEFSAII (Michael W. Deem and Ramdas Pophale) SiO2 
 PCOD9223859
Probable space group: C 2/M
;
_chemical_formula_sum "Si O2"
_cell_formula_units_Z 32
_cell_length_a 18.000000
_cell_length_b 9.000000
_cell_length_c 30.000000
_cell_angle_alpha 90.000000
_cell_angle_beta 40.000000
_cell_angle_gamma 90.000000
_cell_volume 3123.947783
_symmetry_space_group_name_H-M "C 2/M"
_symmetry_group_IT_number 12
_symmetry_cell_setting 'monoclinic'
loop_
_space_group_symop_operation_xyz
x,y,z
-x,y,-z
-x,-y,-z
x,-y,z
1/2+x,1/2+y,z
1/2-x,1/2+y,-z
1/2-x,1/2-y,-z
1/2+x,1/2-y,z
loop_
_atom_site_type_symbol
_atom_site_label
_atom_site_fract_x
_atom_site_fract_y
_atom_site_fract_z
Si Si1 0.415453 0.676587 0.631561
Si Si2 0.668065 0.324769 0.501606
Si Si3 0.575664 0.676533 0.005067
Si Si4 0.341281 0.827304 0.856637
Si Si5 0.917209 0.830110 0.733332
Si Si6 0.366154 0.167786 0.348402
Si Si7 0.515040 0.322950 0.130903
Si Si8 0.176111 0.673832 0.731766
O O1 0.422463 0.500000 0.618017
O O2 0.539546 0.739884 0.562590
O O3 0.381012 0.692748 0.699246
O O4 0.301493 0.735785 0.661153
O O5 0.660903 0.500000 0.515561
O O6 0.750000 0.250000 0.500000
O O7 0.734951 0.312411 0.424202
O O8 0.546844 0.500000 0.021204
O O9 0.553346 0.735640 0.064932
O O10 0.500000 0.742984 0.000000
O O11 0.707290 0.688417 0.930207
O O12 0.363522 0.770467 0.796409
O O13 0.407762 0.738622 0.864414
O O14 0.373385 0.000000 0.845025
O O15 0.052931 0.791687 0.668166
O O16 0.898227 0.000000 0.754681
O O17 0.387896 0.176350 0.286000
O O18 0.399345 0.000000 0.348056
O O19 0.521016 0.500000 0.128637
O O20 0.387828 0.266707 0.201635
O O21 0.182786 0.500000 0.742069
#
# Coordination Sequence:
#
# PCOD9223859 Si02
#       8
#     8   8   8   8   8   8   8   8
#     4   9  20  36  55  81 115 152 188 236 290 336
#     4  10  19  34  55  81 110 148 194 238 287 338
#     4   9  21  40  60  86 118 150 187 232 281 332
#     4  11  22  38  62  86 114 152 191 234 279 333
#     4  11  21  35  57  84 116 150 189 236 284 336
#     4  10  20  34  57  84 111 147 194 238 280 340
#     4  11  22  38  62  87 114 151 192 233 280 336
#     4  10  21  38  57  82 117 152 189 234 286 339
#
# _framework density 10.243449
#
# number of rings (size 3 to 8) (size 9 to 14) (size 15 to 20)
#    0.000    1.875    2.500    1.500    1.750    0.500 
#    0.000    5.625    0.000    3.000    0.000    2.625 
#    0.000    0.000    0.000    0.000    0.000    0.000 
#
# Total GULP energy -178267.733916 kJ/mol
# GULP energy per Si atom -5570.866685 kJ/mol
# Density = 1.022013 g / cm^3
# Si number density = 10.243449 Si / 1000 Ang^3
#
#
#
# Elastic Constant Matrix: (Units=GPa)
#
#
# Indices 1 2 3 4 5 6 
#
# 1 -12.5020 32.3663 -14.2617 -0.0001 -46.3544 0.0003
# 2 32.3663 34.9787 39.4869 -0.0004 9.0605 0.0000
# 3 -14.2617 39.4869 41.5788 -0.0002 4.0987 0.0000
# 4 -0.0001 -0.0004 -0.0002 6.1657 0.0001 -5.8344
# 5 -46.3544 9.0605 4.0987 0.0001 -18.6000 0.0000
# 6 0.0003 0.0000 0.0000 -5.8344 0.0000 7.6782
#
#
#
# Elastic Compliance Matrix: (Units=1/GPa)
#
#
# Indices 1 2 3 4 5 6 
#
# 1 0.000904 0.027298 -0.026135 0.000004 0.005285 0.000003
# 2 0.027298 -0.072056 0.086090 -0.000005 -0.084161 -0.000004
# 3 -0.026135 0.086090 -0.075585 0.000009 0.090415 0.000007
# 4 0.000004 -0.000005 0.000009 0.577245 -0.000006 0.438626
# 5 0.005285 -0.084161 0.090415 -0.000006 -0.088007 -0.000004
# 6 0.000003 -0.000004 0.000007 0.438626 -0.000004 0.463534
#
#
# Mechanical properties :
#
#
# Convention : Reuss Voigt Hill
#
# Bulk Modulus (GPa) = 36.01152 19.91537 27.96345
# Shear Modulus (GPa) = 7.80292 -0.52029 3.64132
#
# Velocity S-wave (km/s) = 1.95372 -0.50449 1.33463
# Velocity P-wave (km/s) = 4.76501 3.06640 4.00675
#
# Compressibility (1/GPa) = 0.02776889
#
# Stress axis : x y z
#
# Youngs Moduli (GPa) = 1105.79062 -13.87816 -13.23011
#
# Poissons Ratio (x) = 0.37885 -0.34577
# Poissons Ratio (y) = -30.18604 1.13898
# Poissons Ratio (z) = 28.90034 1.19477
#
# Static dielectric constant tensor:
#      x y z
#    x 1.855440 0.000000 0.014280 
#    y 0.000000 1.702030 0.000000 
#    z 0.014280 0.000000 1.792260 
# 
# From -- ./inp_files/378097.got.cif
#   From: 2010.05.17/outbox.ucp.g08.bks.cvg/sg12_190_cif.got.tgz:378097.got - 2010.06.11 11:47:21.
