data_PCOD9223655
_publ_section_title
;
Structure prediction by ZEFSAII (Michael W. Deem and Ramdas Pophale) SiO2 
 PCOD9223655
Probable space group: C 2/M
;
_chemical_formula_sum "Si O2"
_cell_formula_units_Z 32
_cell_length_a 24.000000
_cell_length_b 9.000000
_cell_length_c 21.000000
_cell_angle_alpha 90.000000
_cell_angle_beta 50.000000
_cell_angle_gamma 90.000000
_cell_volume 3474.777594
_symmetry_space_group_name_H-M "C 2/M"
_symmetry_group_IT_number 12
_symmetry_cell_setting 'monoclinic'
loop_
_space_group_symop_operation_xyz
x,y,z
-x,y,-z
-x,-y,-z
x,-y,z
1/2+x,1/2+y,z
1/2-x,1/2+y,-z
1/2-x,1/2-y,-z
1/2+x,1/2-y,z
loop_
_atom_site_type_symbol
_atom_site_label
_atom_site_fract_x
_atom_site_fract_y
_atom_site_fract_z
Si Si1 0.344742 0.833642 0.457691
Si Si2 0.007745 0.823911 0.190973
Si Si3 0.983611 0.331876 0.679261
Si Si4 0.142105 0.676667 0.694306
Si Si5 0.357078 0.174480 0.957483
Si Si6 0.362466 0.678153 0.702404
Si Si7 0.724873 0.175005 0.118086
Si Si8 0.203474 0.174807 0.379961
O O1 0.431784 0.841460 0.397617
O O2 0.332880 0.772797 0.395084
O O3 0.319370 0.745219 0.537032
O O4 0.313500 0.000000 0.482294
O O5 0.023741 0.748752 0.247667
O O6 0.067246 0.760249 0.099479
O O7 0.927333 0.768062 0.233819
O O8 0.012036 0.000000 0.193051
O O9 0.953679 0.500000 0.705552
O O10 0.942867 0.236018 0.657027
O O11 0.123527 0.500000 0.701630
O O12 0.210102 0.693113 0.690163
O O13 0.321534 0.192562 0.913061
O O14 0.366867 0.000000 0.961385
O O15 0.300897 0.245643 0.047776
O O16 0.358062 0.500000 0.708247
O O17 0.315209 0.747524 0.793979
O O18 0.336152 0.733022 0.653200
O O19 0.734120 0.000000 0.122396
O O20 0.188579 0.000000 0.395649
#
# Coordination Sequence:
#
# PCOD9223655 Si02
#       8
#     8   8   8   8   8   8   8   8
#     4   9  19  34  55  78 101 132 176 228 272 313
#     4  11  20  31  53  83 110 136 172 219 265 311
#     4  10  20  35  52  75 106 142 177 213 266 319
#     4   9  19  37  56  76 105 139 177 221 268 316
#     4  10  19  32  53  80 111 141 172 210 259 312
#     4  11  22  35  52  76 108 144 179 216 260 314
#     4  10  20  33  52  78 109 143 175 211 257 309
#     4  10  22  37  54  76 104 141 181 220 265 316
#
# _framework density 9.2092220000000005
#
# number of rings (size 3 to 8) (size 9 to 14) (size 15 to 20)
#    0.000    2.000    1.250    3.750    0.000    5.500 
#    0.000    2.500    0.000    0.750    0.000    5.250 
#    0.000    0.000    0.000    0.000    0.000    0.000 
#
# Total GULP energy -178484.307948 kJ/mol
# GULP energy per Si atom -5577.634623 kJ/mol
# Density = 0.918826 g / cm^3
# Si number density = 9.209222 Si / 1000 Ang^3
#
#
#
# Elastic Constant Matrix: (Units=GPa)
#
#
# Indices 1 2 3 4 5 6 
#
# 1 19.8242 5.8738 33.6058 0.0000 -19.0257 0.0001
# 2 5.8738 55.3489 23.5918 0.0006 -14.0467 -0.0003
# 3 33.6058 23.5918 26.7968 0.0002 -6.7499 -0.0002
# 4 0.0000 0.0006 0.0002 29.2194 -0.0001 -6.7622
# 5 -19.0257 -14.0467 -6.7499 -0.0001 -5.8320 0.0001
# 6 0.0001 -0.0003 -0.0002 -6.7622 0.0001 18.0129
#
#
#
# Elastic Compliance Matrix: (Units=1/GPa)
#
#
# Indices 1 2 3 4 5 6 
#
# 1 -0.090606 -0.025844 0.175385 0.000001 0.154841 0.000001
# 2 -0.025844 0.015724 0.023433 0.000000 0.019317 0.000000
# 3 0.175385 0.023433 -0.279978 -0.000001 -0.304555 -0.000003
# 4 0.000001 0.000000 -0.000001 0.037480 -0.000001 0.014070
# 5 0.154841 0.019317 -0.304555 -0.000001 -0.370643 -0.000003
# 6 0.000001 0.000000 -0.000003 0.014070 -0.000003 0.060798
#
#
# Mechanical properties :
#
#
# Convention : Reuss Voigt Hill
#
# Bulk Modulus (GPa) = -112.22022 25.34586 -43.43718
# Shear Modulus (GPa) = -5.12219 10.87329 2.87555
#
# Velocity S-wave (km/s) = -1.66945 2.43234 1.25085
# Velocity P-wave (km/s) = 8.04839 4.65611 4.64204
#
# Compressibility (1/GPa) = -0.00891105
#
# Stress axis : x y z
#
# Youngs Moduli (GPa) = -11.03681 63.59700 -3.57171
#
# Poissons Ratio (x) = 1.64360 0.62642
# Poissons Ratio (y) = -0.28524 0.08370
# Poissons Ratio (z) = 1.93569 -1.49030
#
# Static dielectric constant tensor:
#      x y z
#    x 1.663840 0.000000 -0.041910 
#    y 0.000000 1.629670 0.000000 
#    z -0.041910 0.000000 1.635730 
# 
# From -- ./inp_files/324196.got.cif
#   From: 2010.05.17/outbox.ucp.g08.bks.cvg/sg12_163_cif.got.tgz:324196.got - 2010.06.11 11:47:21.
