data_PCOD9223688
_publ_section_title
;
Structure prediction by ZEFSAII (Michael W. Deem and Ramdas Pophale) SiO2 
 PCOD9223688
Probable space group: C 2/M
;
_chemical_formula_sum "Si O2"
_cell_formula_units_Z 28
_cell_length_a 18.000000
_cell_length_b 9.000000
_cell_length_c 27.000000
_cell_angle_alpha 90.000000
_cell_angle_beta 40.000000
_cell_angle_gamma 90.000000
_cell_volume 2811.553005
_symmetry_space_group_name_H-M "C 2/M"
_symmetry_group_IT_number 12
_symmetry_cell_setting 'monoclinic'
loop_
_space_group_symop_operation_xyz
x,y,z
-x,y,-z
-x,-y,-z
x,-y,z
1/2+x,1/2+y,z
1/2-x,1/2+y,-z
1/2-x,1/2-y,-z
1/2+x,1/2-y,z
loop_
_atom_site_type_symbol
_atom_site_label
_atom_site_fract_x
_atom_site_fract_y
_atom_site_fract_z
Si Si1 0.553824 0.325951 0.744298
Si Si2 0.328703 0.677855 0.003064
Si Si3 0.337019 0.829147 0.820099
Si Si4 0.695201 0.327382 0.259263
Si Si5 0.066109 0.177154 0.581919
Si Si6 0.962233 0.672122 0.146723
Si Si7 0.780695 0.676627 0.409460
O O1 0.568990 0.500000 0.738208
O O2 0.447734 0.277890 0.764014
O O3 0.509592 0.261290 0.818338
O O4 0.670503 0.250822 0.664927
O O5 0.337642 0.500000 0.991383
O O6 0.456398 0.751248 0.936046
O O7 0.250000 0.750000 0.000000
O O8 0.258494 0.704823 0.089687
O O9 0.288798 0.796078 0.790928
O O10 0.374214 0.000000 0.807689
O O11 0.683142 0.500000 0.247637
O O12 0.572250 0.294410 0.349592
O O13 0.822718 0.324492 0.217815
O O14 0.133085 0.263580 0.591520
O O15 0.148175 0.210756 0.492559
O O16 0.079366 0.000000 0.584636
O O17 0.997354 0.500000 0.131819
O O18 0.792384 0.500000 0.399721
#
# Coordination Sequence:
#
# PCOD9223688 Si02
#       7
#     8   8   8   8   8   8   8
#     4  12  23  37  59  86 117 155 199 244 294 350
#     4  11  23  39  61  88 119 154 195 246 294 344
#     4  11  23  38  61  89 117 151 195 244 291 346
#     4  10  22  40  61  87 120 158 195 239 294 353
#     4   9  18  34  56  85 119 154 193 239 293 348
#     4  11  24  41  61  86 119 156 198 243 295 353
#     4  10  19  32  56  88 118 150 194 246 293 343
#
# _framework density 9.9589090000000002
#
# number of rings (size 3 to 8) (size 9 to 14) (size 15 to 20)
#    0.000    1.429    2.857    3.000    0.000    4.000 
#    0.000    3.571    0.000    4.286    0.000    0.000 
#    0.000    0.000    0.000    0.000    0.000    0.000 
#
# Total GULP energy -156053.903616 kJ/mol
# GULP energy per Si atom -5573.353701 kJ/mol
# Density = 0.993624 g / cm^3
# Si number density = 9.958909 Si / 1000 Ang^3
#
#
#
# Elastic Constant Matrix: (Units=GPa)
#
#
# Indices 1 2 3 4 5 6 
#
# 1 16.6266 13.3269 16.2389 0.0000 -14.8461 0.0000
# 2 13.3269 80.5771 59.1350 0.0001 -4.2403 0.0001
# 3 16.2389 59.1350 144.6378 0.0000 -19.8776 0.0000
# 4 0.0000 0.0001 0.0000 33.2748 0.0000 -3.8047
# 5 -14.8461 -4.2403 -19.8776 0.0000 27.2922 0.0000
# 6 0.0000 0.0001 0.0000 -3.8047 0.0000 18.1924
#
#
#
# Elastic Compliance Matrix: (Units=1/GPa)
#
#
# Indices 1 2 3 4 5 6 
#
# 1 0.143415 -0.022325 0.003634 0.000000 0.077192 0.000000
# 2 -0.022325 0.021401 -0.008285 0.000000 -0.014853 0.000000
# 3 0.003634 -0.008285 0.011099 0.000000 0.008773 0.000000
# 4 0.000000 0.000000 0.000000 0.030789 0.000000 0.006439
# 5 0.077192 -0.014853 0.008773 0.000000 0.082713 0.000000
# 6 0.000000 0.000000 0.000000 0.006439 0.000000 0.056315
#
#
# Mechanical properties :
#
#
# Convention : Reuss Voigt Hill
#
# Bulk Modulus (GPa) = 8.19909 46.58256 27.39083
# Shear Modulus (GPa) = 11.35494 25.96124 18.65809
#
# Velocity S-wave (km/s) = 2.39024 3.61420 3.06396
# Velocity P-wave (km/s) = 3.42682 6.39178 5.12825
#
# Compressibility (1/GPa) = 0.12196471
#
# Stress axis : x y z
#
# Youngs Moduli (GPa) = 6.97276 46.72612 90.10087
#
# Poissons Ratio (x) = 1.04316 -0.32746
# Poissons Ratio (y) = 0.15567 0.74646
# Poissons Ratio (z) = -0.02534 0.38711
#
# Static dielectric constant tensor:
#      x y z
#    x 1.976620 0.000000 0.006280 
#    y 0.000000 1.677590 0.000000 
#    z 0.006280 0.000000 1.714650 
# 
# From -- ./inp_files/362946.got.cif
#   From: 2010.05.17/outbox.ucp.g08.bks.cvg/sg12_182_cif.got.tgz:362946.got - 2010.06.11 11:47:21.
