data_PCOD9223312
_publ_section_title
;
Structure prediction by ZEFSAII (Michael W. Deem and Ramdas Pophale) SiO2 
 PCOD9223312
Probable space group: C 2/M
;
_chemical_formula_sum "Si O2"
_cell_formula_units_Z 18
_cell_length_a 15.000000
_cell_length_b 12.000000
_cell_length_c 12.000000
_cell_angle_alpha 90.000000
_cell_angle_beta 70.000000
_cell_angle_gamma 90.000000
_cell_volume 2029.736061
_symmetry_space_group_name_H-M "C 2/M"
_symmetry_group_IT_number 12
_symmetry_cell_setting 'monoclinic'
loop_
_space_group_symop_operation_xyz
x,y,z
-x,y,-z
-x,-y,-z
x,-y,z
1/2+x,1/2+y,z
1/2-x,1/2+y,-z
1/2-x,1/2-y,-z
1/2+x,1/2-y,z
loop_
_atom_site_type_symbol
_atom_site_label
_atom_site_fract_x
_atom_site_fract_y
_atom_site_fract_z
Si Si1 0.474641 0.132824 0.637097
Si Si2 0.651248 0.373908 0.025991
Si Si3 0.500000 0.204918 0.000000
Si Si4 0.631023 0.873122 0.750346
Si Si5 0.217597 0.258724 0.200286
O O1 0.500000 0.159396 0.500000
O O2 0.562974 0.158999 0.678450
O O3 0.381478 0.195824 0.716147
O O4 0.457745 0.000000 0.653698
O O5 0.617461 0.500000 0.039646
O O6 0.567644 0.285520 0.042650
O O7 0.701650 0.341767 0.119560
O O8 0.725726 0.351299 0.894868
O O9 0.433843 0.135581 0.110691
O O10 0.716312 0.788095 0.731113
O O11 0.663516 0.000000 0.721705
#
# Coordination Sequence:
#
# PCOD9223312 Si02
#       5
#     8   8   4   8   8
#     4  10  21  38  58  78 105 143 183 221 260 312
#     4  10  19  31  50  79 113 141 171 217 269 320
#     4  10  18  32  52  80 108 144 172 216 266 320
#     4  10  20  34  55  81 108 140 179 218 264 318
#     4  10  20  34  53  80 108 142 177 219 267 314
#
# _framework density 8.8681479999999997
#
# number of rings (size 3 to 8) (size 9 to 14) (size 15 to 20)
#    0.000    2.000    2.222    2.000    0.000    0.889 
#    0.000    0.000    0.000    2.667    0.000    0.000 
#    0.000    0.000    0.000    0.000    0.000    0.000 
#
# Total GULP energy -100414.753009 kJ/mol
# GULP energy per Si atom -5578.597389 kJ/mol
# Density = 0.884796 g / cm^3
# Si number density = 8.868148 Si / 1000 Ang^3
#
#
#
# Elastic Constant Matrix: (Units=GPa)
#
#
# Indices 1 2 3 4 5 6 
#
# 1 62.0463 27.7003 50.0651 0.0000 -4.5617 0.0000
# 2 27.7003 48.0195 28.4436 0.0000 -0.9315 0.0000
# 3 50.0651 28.4436 51.4450 0.0000 10.9482 0.0000
# 4 0.0000 0.0000 0.0000 -0.5839 0.0000 14.1726
# 5 -4.5617 -0.9315 10.9482 0.0000 8.9182 0.0000
# 6 0.0000 0.0000 0.0000 14.1726 0.0000 -6.4491
#
#
#
# Elastic Compliance Matrix: (Units=1/GPa)
#
#
# Indices 1 2 3 4 5 6 
#
# 1 -0.031008 -0.020074 0.061044 0.000000 -0.092897 0.000000
# 2 -0.020074 0.027184 0.008238 0.000000 -0.017542 0.000000
# 3 0.061044 0.008238 -0.069512 0.000000 0.117420 0.000000
# 4 0.000000 0.000000 0.000000 0.032720 0.000000 0.071907
# 5 -0.092897 -0.017542 0.117420 0.000000 -0.081367 0.000000
# 6 0.000000 0.000000 0.000000 0.071907 0.000000 0.002963
#
#
# Mechanical properties :
#
#
# Convention : Reuss Voigt Hill
#
# Bulk Modulus (GPa) = 39.86849 41.54766 40.70808
# Shear Modulus (GPa) = -23.91469 4.06383 -9.92543
#
# Velocity S-wave (km/s) = -3.67597 1.51533 -2.36818
# Velocity P-wave (km/s) = 2.12374 5.15148 3.94005
#
# Compressibility (1/GPa) = 0.02508246
#
# Stress axis : x y z
#
# Youngs Moduli (GPa) = -32.25016 36.78604 -14.38597
#
# Poissons Ratio (x) = 0.73843 0.87818
# Poissons Ratio (y) = -0.64738 0.11852
# Poissons Ratio (z) = 1.96868 -0.30306
#
# Static dielectric constant tensor:
#      x y z
#    x 1.634000 0.000000 0.026010 
#    y 0.000000 1.571570 0.000000 
#    z 0.026010 0.000000 1.580550 
# 
# From -- ./inp_files/139513.got.cif
#   From: 2010.05.17/outbox.ucp.g08.bks.cvg/sg12_70_cif.got.tgz:139513.got - 2010.06.11 11:47:21.
