data_PCOD9223701
_publ_section_title
;
Structure prediction by ZEFSAII (Michael W. Deem and Ramdas Pophale) SiO2 
 PCOD9223701
Probable space group: C 2/M
;
_chemical_formula_sum "Si O2"
_cell_formula_units_Z 32
_cell_length_a 27.000000
_cell_length_b 9.000000
_cell_length_c 21.000000
_cell_angle_alpha 90.000000
_cell_angle_beta 50.000000
_cell_angle_gamma 90.000000
_cell_volume 3909.124793
_symmetry_space_group_name_H-M "C 2/M"
_symmetry_group_IT_number 12
_symmetry_cell_setting 'monoclinic'
loop_
_space_group_symop_operation_xyz
x,y,z
-x,y,-z
-x,-y,-z
x,-y,z
1/2+x,1/2+y,z
1/2-x,1/2+y,-z
1/2-x,1/2-y,-z
1/2+x,1/2-y,z
loop_
_atom_site_type_symbol
_atom_site_label
_atom_site_fract_x
_atom_site_fract_y
_atom_site_fract_z
Si Si1 0.107420 0.670518 0.901891
Si Si2 0.008349 0.329398 0.099380
Si Si3 0.939438 0.170983 0.500606
Si Si4 0.306587 0.177653 0.994022
Si Si5 0.477391 0.826050 0.669750
Si Si6 0.858086 0.674745 0.670287
Si Si7 0.063068 0.825590 0.166573
Si Si8 0.724561 0.324719 0.845627
O O1 0.131516 0.500000 0.885523
O O2 0.164916 0.786204 0.849372
O O3 0.057492 0.680031 0.885441
O O4 0.065144 0.697028 0.000727
O O5 0.016212 0.500000 0.115955
O O6 0.012741 0.214764 0.152688
O O7 0.880136 0.237859 0.589437
O O8 0.000000 0.176365 0.500000
O O9 0.962567 0.263849 0.420565
O O10 0.928518 0.000000 0.492553
O O11 0.293007 0.234561 0.076427
O O12 0.306087 0.000000 0.991993
O O13 0.250000 0.250000 0.000000
O O14 0.372958 0.238816 0.909460
O O15 0.414822 0.810256 0.675658
O O16 0.462587 0.735505 0.745518
O O17 0.485701 0.000000 0.677143
O O18 0.852874 0.500000 0.658976
O O19 0.791504 0.722833 0.758069
O O20 0.076429 0.000000 0.159053
O O21 0.728563 0.500000 0.856948
#
# Coordination Sequence:
#
# PCOD9223701 Si02
#       8
#     8   8   8   8   8   8   8   8
#     4   9  18  33  53  73  96 129 168 210 255 301
#     4   9  18  34  53  72  96 129 168 210 255 301
#     4   9  17  30  49  73  99 126 163 211 253 289
#     4  12  24  37  50  67  98 137 174 207 245 293
#     4  10  19  33  52  71  99 138 172 205 247 295
#     4   9  19  33  49  71 100 134 169 202 243 297
#     4  12  23  34  50  75 102 131 169 209 251 299
#     4  11  21  33  50  75 103 132 169 209 249 296
#
# _framework density 8.1859760000000001
#
# number of rings (size 3 to 8) (size 9 to 14) (size 15 to 20)
#    0.000    1.875    1.250    4.875    0.000    4.500 
#    0.000    1.250    0.000    0.000    0.000    0.875 
#    0.000    0.000    0.000    0.000    0.000    0.000 
#
# Total GULP energy -178518.230083 kJ/mol
# GULP energy per Si atom -5578.694690 kJ/mol
# Density = 0.816734 g / cm^3
# Si number density = 8.185976 Si / 1000 Ang^3
#
#
#
# Elastic Constant Matrix: (Units=GPa)
#
#
# Indices 1 2 3 4 5 6 
#
# 1 41.0788 32.1335 29.0362 0.0000 -0.2511 0.0007
# 2 32.1335 110.6123 66.6536 -0.0048 5.7255 0.0084
# 3 29.0362 66.6536 105.9791 0.0012 11.0949 0.0013
# 4 0.0000 -0.0048 0.0012 29.1696 -0.0013 1.5551
# 5 -0.2511 5.7255 11.0949 -0.0013 1.5996 -0.0024
# 6 0.0007 0.0084 0.0013 1.5551 -0.0024 22.9892
#
#
#
# Elastic Compliance Matrix: (Units=1/GPa)
#
#
# Indices 1 2 3 4 5 6 
#
# 1 0.123508 -0.008466 -0.123110 0.000037 0.903588 0.000099
# 2 -0.008466 0.015939 -0.005817 0.000002 -0.018032 -0.000007
# 3 -0.123110 -0.005817 0.170400 -0.000052 -1.180405 -0.000124
# 4 0.000037 0.000002 -0.000052 0.034406 0.000384 -0.002327
# 5 0.903588 -0.018032 -1.180405 0.000384 9.018885 0.000968
# 6 0.000099 -0.000007 -0.000124 -0.002327 0.000968 0.043656
#
#
# Mechanical properties :
#
#
# Convention : Reuss Voigt Hill
#
# Bulk Modulus (GPa) = 28.52260 57.03521 42.77891
# Shear Modulus (GPa) = 0.51582 19.40813 9.96197
#
# Velocity S-wave (km/s) = 0.56191 3.44677 2.46941
# Velocity P-wave (km/s) = 4.22853 7.12412 5.85805
#
# Compressibility (1/GPa) = 0.03505992
#
# Stress axis : x y z
#
# Youngs Moduli (GPa) = 8.09662 62.74017 5.86855
#
# Poissons Ratio (x) = 0.53119 0.72248
# Poissons Ratio (y) = 0.06855 0.03414
# Poissons Ratio (z) = 0.99678 0.36496
#
# Static dielectric constant tensor:
#      x y z
#    x 1.599080 0.000000 -0.000730 
#    y 0.000000 1.556830 0.000000 
#    z -0.000730 0.000000 1.527630 
# 
# From -- ./inp_files/326791.got.cif
#   From: 2010.05.17/outbox.ucp.g08.bks.cvg/sg12_164_cif.got.tgz:326791.got - 2010.06.11 11:47:21.
