data_PCOD9223448
_publ_section_title
;
Structure prediction by ZEFSAII (Michael W. Deem and Ramdas Pophale) SiO2 
 PCOD9223448
Probable space group: C 2/M
;
_chemical_formula_sum "Si O2"
_cell_formula_units_Z 32
_cell_length_a 21.000000
_cell_length_b 9.000000
_cell_length_c 21.000000
_cell_angle_alpha 90.000000
_cell_angle_beta 120.000000
_cell_angle_gamma 90.000000
_cell_volume 3437.254828
_symmetry_space_group_name_H-M "C 2/M"
_symmetry_group_IT_number 12
_symmetry_cell_setting 'monoclinic'
loop_
_space_group_symop_operation_xyz
x,y,z
-x,y,-z
-x,-y,-z
x,-y,z
1/2+x,1/2+y,z
1/2-x,1/2+y,-z
1/2-x,1/2-y,-z
1/2+x,1/2-y,z
loop_
_atom_site_type_symbol
_atom_site_label
_atom_site_fract_x
_atom_site_fract_y
_atom_site_fract_z
Si Si1 0.910652 0.674215 0.888273
Si Si2 0.588787 0.165544 0.363015
Si Si3 0.418609 0.320025 0.430605
Si Si4 0.910549 0.673143 0.029272
Si Si5 0.682559 0.673670 0.504359
Si Si6 0.409786 0.329517 0.158895
Si Si7 0.413324 0.831282 0.290523
Si Si8 0.089352 0.830352 0.239587
O O1 0.890960 0.500000 0.870458
O O2 0.885812 0.774019 0.817021
O O3 0.000043 0.679860 0.929336
O O4 0.886554 0.724911 0.946761
O O5 0.614868 0.291755 0.423791
O O6 0.501164 0.160182 0.322717
O O7 0.614591 0.215979 0.306246
O O8 0.616337 0.000000 0.393191
O O9 0.500000 0.275580 0.500000
O O10 0.419329 0.500000 0.427972
O O11 0.351622 0.274605 0.444843
O O12 0.405312 0.253964 0.353585
O O13 0.891131 0.500000 0.025571
O O14 0.885170 0.757424 0.079751
O O15 0.698286 0.500000 0.517750
O O16 0.750000 0.750000 0.500000
O O17 0.386860 0.500000 0.150795
O O18 0.385910 0.247199 0.211843
O O19 0.499727 0.327274 0.199383
O O20 0.385194 0.000000 0.281621
O O21 0.112192 0.000000 0.263299
#
# Coordination Sequence:
#
# PCOD9223448 Si02
#       8
#     8   8   8   8   8   8   8   8
#     4   8  13  21  32  47  70 104 144 186 228 273
#     4  10  19  31  47  67  91 120 155 195 239 285
#     4  10  20  35  54  74  97 125 157 197 243 287
#     4   8  13  21  32  46  70 105 145 185 227 274
#     4  11  23  38  55  74  99 128 158 196 242 293
#     4   9  16  24  35  53  80 112 147 187 232 280
#     4  10  19  29  46  69  92 118 154 199 238 280
#     4   9  16  24  36  55  79 109 147 190 232 276
#
# _framework density 9.3097549999999991
#
# number of rings (size 3 to 8) (size 9 to 14) (size 15 to 20)
#    0.000    2.625    1.250    2.625    0.000    5.750 
#    0.000    2.500    0.000    0.000    0.000    0.000 
#    0.000    0.000    0.000    1.125    0.000   15.500 
#
# Total GULP energy -178144.308732 kJ/mol
# GULP energy per Si atom -5567.009648 kJ/mol
# Density = 0.928857 g / cm^3
# Si number density = 9.309755 Si / 1000 Ang^3
#
#
#
# Elastic Constant Matrix: (Units=GPa)
#
#
# Indices 1 2 3 4 5 6 
#
# 1 64.6083 37.9168 35.5701 0.0000 -38.4802 0.0000
# 2 37.9168 56.8882 29.3578 0.0000 -28.0582 0.0000
# 3 35.5701 29.3578 72.6447 0.0000 -54.7953 0.0000
# 4 0.0000 0.0000 0.0000 27.3400 0.0000 -10.0102
# 5 -38.4802 -28.0582 -54.7953 0.0000 38.9077 0.0000
# 6 0.0000 0.0000 0.0000 -10.0102 0.0000 18.6849
#
#
#
# Elastic Compliance Matrix: (Units=1/GPa)
#
#
# Indices 1 2 3 4 5 6 
#
# 1 0.017312 -0.015132 -0.037276 0.000000 -0.046287 0.000000
# 2 -0.015132 0.030046 -0.005170 0.000000 -0.000579 0.000000
# 3 -0.037276 -0.005170 -0.055966 0.000000 -0.119413 0.000000
# 4 0.000000 0.000000 0.000000 0.045502 0.000000 0.024377
# 5 -0.046287 -0.000579 -0.119413 0.000000 -0.188669 0.000000
# 6 0.000000 0.000000 0.000000 0.024377 0.000000 0.066579
#
#
# Mechanical properties :
#
#
# Convention : Reuss Voigt Hill
#
# Bulk Modulus (GPa) = -8.08000 44.42561 18.17281
# Shear Modulus (GPa) = -442.71730 23.07296 -209.82217
#
# Velocity S-wave (km/s) = -15.43654 3.52402 -10.62704
# Velocity P-wave (km/s) = 17.94616 6.36159 11.86581
#
# Compressibility (1/GPa) = -0.12376235
#
# Stress axis : x y z
#
# Youngs Moduli (GPa) = 57.76261 33.28179 -17.86812
#
# Poissons Ratio (x) = 0.50362 -0.66604
# Poissons Ratio (y) = 0.87406 -0.09238
# Poissons Ratio (z) = 2.15313 0.17208
#
# Static dielectric constant tensor:
#      x y z
#    x 1.654840 0.000000 0.007840 
#    y 0.000000 1.648600 0.000000 
#    z 0.007840 0.000000 1.683330 
# 
# From -- ./inp_files/314199.got.cif
#   From: 2010.05.17/outbox.ucp.g08.bks.cvg/sg12_158_cif.got.tgz:314199.got - 2010.06.11 11:47:21.
