data_PCOD9223463
_publ_section_title
;
Structure prediction by ZEFSAII (Michael W. Deem and Ramdas Pophale) SiO2 
 PCOD9223463
Probable space group: C 2/M
;
_chemical_formula_sum "Si O2"
_cell_formula_units_Z 32
_cell_length_a 30.000000
_cell_length_b 9.000000
_cell_length_c 15.000000
_cell_angle_alpha 90.000000
_cell_angle_beta 90.000000
_cell_angle_gamma 90.000000
_cell_volume 4050.000000
_symmetry_space_group_name_H-M "C 2/M"
_symmetry_group_IT_number 12
_symmetry_cell_setting 'monoclinic'
loop_
_space_group_symop_operation_xyz
x,y,z
-x,y,-z
-x,-y,-z
x,-y,z
1/2+x,1/2+y,z
1/2-x,1/2+y,-z
1/2-x,1/2-y,-z
1/2+x,1/2-y,z
loop_
_atom_site_type_symbol
_atom_site_label
_atom_site_fract_x
_atom_site_fract_y
_atom_site_fract_z
Si Si1 0.904890 0.179110 0.086325
Si Si2 0.004610 0.667294 0.892730
Si Si3 0.259184 0.820617 0.904468
Si Si4 0.914992 0.175155 0.879455
Si Si5 0.804915 0.822236 0.408672
Si Si6 0.661262 0.821308 0.219874
Si Si7 0.824563 0.819722 0.214199
Si Si8 0.698993 0.177711 0.408201
O O1 0.947836 0.261164 0.124575
O O2 0.863264 0.224000 0.146431
O O3 0.910310 0.000000 0.090166
O O4 0.901183 0.217609 0.981300
O O5 0.999793 0.500000 0.857541
O O6 0.965638 0.777024 0.864894
O O7 0.000000 0.658606 0.000000
O O8 0.305088 0.773347 0.858575
O O9 0.221395 0.777693 0.833227
O O10 0.258550 0.000000 0.913491
O O11 0.250000 0.750000 0.000000
O O12 0.885963 0.261781 0.808619
O O13 0.908977 0.000000 0.871354
O O14 0.827020 0.768251 0.316457
O O15 0.751886 0.791655 0.400327
O O16 0.819211 0.749137 0.501272
O O17 0.810397 0.000000 0.415034
O O18 0.676552 0.769053 0.317026
O O19 0.662497 0.000000 0.221512
O O20 0.824764 0.000000 0.218417
O O21 0.694180 0.000000 0.414054
#
# Coordination Sequence:
#
# PCOD9223463 Si02
#       8
#     8   8   8   8   8   8   8   8
#     4   9  17  29  46  67  92 122 154 190 226 265
#     4   9  17  30  47  66  90 120 152 188 230 273
#     4  10  19  31  44  61  90 127 161 188 217 261
#     4  10  19  30  46  69  94 120 155 194 226 263
#     4   9  16  29  48  66  85 116 155 193 230 270
#     4  10  19  31  46  64  91 126 157 186 228 276
#     4   9  16  29  47  65  89 123 157 185 224 273
#     4   9  17  30  46  65  88 117 152 193 235 270
#
# _framework density 7.9012349999999998
#
# number of rings (size 3 to 8) (size 9 to 14) (size 15 to 20)
#    0.000    2.625    1.250    1.500    0.000    4.000 
#    0.000    1.875    0.000    0.000    0.000    0.875 
#    0.000    7.000    0.000    0.000    0.000    0.000 
#
# Total GULP energy -178192.888036 kJ/mol
# GULP energy per Si atom -5568.527751 kJ/mol
# Density = 0.788325 g / cm^3
# Si number density = 7.901235 Si / 1000 Ang^3
#
#
#
# Elastic Constant Matrix: (Units=GPa)
#
#
# Indices 1 2 3 4 5 6 
#
# 1 29.6365 -1.8897 1.2942 0.0000 9.8169 0.0000
# 2 -1.8897 -4.3493 13.2073 0.0000 0.3956 0.0000
# 3 1.2942 13.2073 69.0753 0.0000 22.5521 0.0000
# 4 0.0000 0.0000 0.0000 23.0638 0.0000 1.4852
# 5 9.8169 0.3956 22.5521 0.0000 3.2150 0.0000
# 6 0.0000 0.0000 0.0000 1.4852 0.0000 17.8925
#
#
#
# Elastic Compliance Matrix: (Units=1/GPa)
#
#
# Indices 1 2 3 4 5 6 
#
# 1 0.011233 -0.038919 -0.013072 0.000000 0.062186 0.000000
# 2 -0.038919 -0.179933 0.008445 0.000000 0.081743 0.000000
# 3 -0.013072 0.008445 -0.000322 0.000000 0.041131 0.000000
# 4 0.000000 0.000000 0.000000 0.043591 0.000000 -0.003618
# 5 0.062186 0.081743 0.041131 0.000000 -0.177423 0.000000
# 6 0.000000 0.000000 0.000000 -0.003618 0.000000 0.056190
#
#
# Mechanical properties :
#
#
# Convention : Reuss Voigt Hill
#
# Bulk Modulus (GPa) = -3.90451 13.28735 4.69142
# Shear Modulus (GPa) = -20.41293 14.28431 -3.06431
#
# Velocity S-wave (km/s) = -3.59800 3.00980 -1.39404
# Velocity P-wave (km/s) = 4.44263 4.52827 0.61976
#
# Compressibility (1/GPa) = -0.25611377
#
# Stress axis : x y z
#
# Youngs Moduli (GPa) = 89.02539 -5.55763 -3109.29177
#
# Poissons Ratio (x) = -0.21630 -40.64463
# Poissons Ratio (y) = 3.46475 26.25676
# Poissons Ratio (z) = 1.16374 0.04693
#
# Static dielectric constant tensor:
#      x y z
#    x 1.522390 0.000000 0.003630 
#    y 0.000000 1.532350 0.000000 
#    z 0.003630 0.000000 1.518260 
# 
# From -- ./inp_files/248282.got.cif
#   From: 2010.05.17/outbox.ucp.g08.bks.cvg/sg12_125_cif.got.tgz:248282.got - 2010.06.11 11:47:21.
