data_PCOD9223426
_publ_section_title
;
Structure prediction by ZEFSAII (Michael W. Deem and Ramdas Pophale) SiO2 
 PCOD9223426
Probable space group: C 2/M
;
_chemical_formula_sum "Si O2"
_cell_formula_units_Z 28
_cell_length_a 15.000000
_cell_length_b 18.000000
_cell_length_c 21.000000
_cell_angle_alpha 90.000000
_cell_angle_beta 30.000000
_cell_angle_gamma 90.000000
_cell_volume 2835.000000
_symmetry_space_group_name_H-M "C 2/M"
_symmetry_group_IT_number 12
_symmetry_cell_setting 'monoclinic'
loop_
_space_group_symop_operation_xyz
x,y,z
-x,y,-z
-x,-y,-z
x,-y,z
1/2+x,1/2+y,z
1/2-x,1/2+y,-z
1/2-x,1/2-y,-z
1/2+x,1/2-y,z
loop_
_atom_site_type_symbol
_atom_site_label
_atom_site_fract_x
_atom_site_fract_y
_atom_site_fract_z
Si Si1 0.335503 0.587773 0.249809
Si Si2 0.970213 0.412218 0.794031
Si Si3 0.421237 0.669891 0.727005
Si Si4 0.733054 0.587403 0.058149
Si Si5 0.700847 0.806679 0.442721
Si Si6 0.859424 0.668541 0.737874
Si Si7 0.122515 0.867302 0.480708
O O1 0.292609 0.500000 0.280632
O O2 0.544983 0.596053 0.136563
O O3 0.225100 0.637113 0.369104
O O4 0.280840 0.621938 0.216211
O O5 0.929603 0.500000 0.812057
O O6 0.873398 0.364115 0.799759
O O7 0.180296 0.400187 0.650392
O O8 0.893628 0.389590 0.911186
O O9 0.300916 0.629368 0.854128
O O10 0.602733 0.698929 0.648475
O O11 0.323410 0.743124 0.761091
O O12 0.509297 0.621318 0.615805
O O13 0.756029 0.500000 0.057721
O O14 0.553345 0.837758 0.582956
O O15 0.645776 0.722583 0.460478
O O16 0.000000 0.895302 0.500000
#
# Coordination Sequence:
#
# PCOD9223426 Si02
#       7
#     8   8   8   8   8   8   8
#     4  10  21  35  57  91 125 159 191 231 292 360
#     4  11  23  39  59  84 117 156 194 245 299 341
#     4  10  19  38  63  86 116 159 198 235 290 352
#     4   9  22  42  61  84 120 158 194 239 293 351
#     4  10  18  36  58  86 123 155 192 239 291 346
#     4  11  19  34  57  88 123 155 192 239 290 345
#     4  11  21  38  62  87 115 147 196 252 294 338
#
# _framework density 9.8765429999999999
#
# number of rings (size 3 to 8) (size 9 to 14) (size 15 to 20)
#    0.000    1.714    2.857    3.429    0.000    3.714 
#    0.000    2.857    6.286    1.714    0.000    0.000 
#    0.000    0.000    0.000    0.000    0.000    0.000 
#
# Total GULP energy -156295.355543 kJ/mol
# GULP energy per Si atom -5581.976984 kJ/mol
# Density = 0.985406 g / cm^3
# Si number density = 9.876543 Si / 1000 Ang^3
#
#
#
# Elastic Constant Matrix: (Units=GPa)
#
#
# Indices 1 2 3 4 5 6 
#
# 1 59.0678 10.3533 21.2391 0.0007 22.3933 0.0009
# 2 10.3533 52.4347 29.6418 -0.0014 12.7147 0.0028
# 3 21.2391 29.6418 102.1815 0.0009 42.4278 0.0037
# 4 0.0007 -0.0014 0.0009 32.9936 0.0029 8.5926
# 5 22.3933 12.7147 42.4278 0.0029 28.2135 -0.0020
# 6 0.0009 0.0028 0.0037 8.5926 -0.0020 29.0767
#
#
#
# Elastic Compliance Matrix: (Units=1/GPa)
#
#
# Indices 1 2 3 4 5 6 
#
# 1 0.027059 -0.002267 0.009390 0.000003 -0.034576 -0.000005
# 2 -0.002267 0.023010 -0.007043 0.000001 0.002020 -0.000002
# 3 0.009390 -0.007043 0.031030 0.000005 -0.050942 -0.000009
# 4 0.000003 0.000001 0.000005 0.032836 -0.000016 -0.009704
# 5 -0.034576 0.002020 -0.050942 -0.000016 0.138585 0.000022
# 6 -0.000005 -0.000002 -0.000009 -0.009704 0.000022 0.037259
#
#
# Mechanical properties :
#
#
# Convention : Reuss Voigt Hill
#
# Bulk Modulus (GPa) = 12.30623 37.35028 24.82826
# Shear Modulus (GPa) = 15.78753 28.22007 22.00380
#
# Velocity S-wave (km/s) = 2.83016 3.78384 3.34120
# Velocity P-wave (km/s) = 4.11379 6.16762 5.24227
#
# Compressibility (1/GPa) = 0.08125967
#
# Stress axis : x y z
#
# Youngs Moduli (GPa) = 36.95655 43.45866 32.22667
#
# Poissons Ratio (x) = 0.09851 -0.30260
# Poissons Ratio (y) = 0.08377 0.22697
# Poissons Ratio (z) = -0.34701 0.30607
#
# Static dielectric constant tensor:
#      x y z
#    x 1.745300 0.000000 0.010060 
#    y 0.000000 1.683500 0.000000 
#    z 0.010060 0.000000 1.682130 
# 
# From -- ./inp_files/311672.got.cif
#   From: 2010.05.17/outbox.ucp.g08.bks.cvg/sg12_156_cif.got.tgz:311672.got - 2010.06.11 11:47:21.
