data_PCOD9223744
_publ_section_title
;
Structure prediction by ZEFSAII (Michael W. Deem and Ramdas Pophale) SiO2 
 PCOD9223744
Probable space group: C 2/M
;
_chemical_formula_sum "Si O2"
_cell_formula_units_Z 32
_cell_length_a 24.000000
_cell_length_b 9.000000
_cell_length_c 30.000000
_cell_angle_alpha 90.000000
_cell_angle_beta 30.000000
_cell_angle_gamma 90.000000
_cell_volume 3240.000000
_symmetry_space_group_name_H-M "C 2/M"
_symmetry_group_IT_number 12
_symmetry_cell_setting 'monoclinic'
loop_
_space_group_symop_operation_xyz
x,y,z
-x,y,-z
-x,-y,-z
x,-y,z
1/2+x,1/2+y,z
1/2-x,1/2+y,-z
1/2-x,1/2-y,-z
1/2+x,1/2-y,z
loop_
_atom_site_type_symbol
_atom_site_label
_atom_site_fract_x
_atom_site_fract_y
_atom_site_fract_z
Si Si1 0.347979 0.666614 0.719311
Si Si2 0.997337 0.677601 0.120232
Si Si3 0.329578 0.321381 0.406029
Si Si4 0.183074 0.177744 0.939090
Si Si5 0.672422 0.324401 0.696325
Si Si6 0.622344 0.325618 0.881309
Si Si7 0.882110 0.168655 0.592889
Si Si8 0.061811 0.678669 0.264769
O O1 0.310765 0.500000 0.760200
O O2 0.252595 0.790375 0.786430
O O3 0.383498 0.653346 0.644576
O O4 0.440290 0.733004 0.687261
O O5 0.997214 0.500000 0.123101
O O6 0.936107 0.744564 0.206327
O O7 0.928885 0.730625 0.123562
O O8 0.120264 0.740003 0.022824
O O9 0.338130 0.500000 0.408237
O O10 0.250000 0.250000 0.500000
O O11 0.294620 0.300948 0.378411
O O12 0.450830 0.242182 0.319657
O O13 0.113736 0.209881 0.940662
O O14 0.314767 0.214971 0.841487
O O15 0.176617 0.000000 0.949509
O O16 0.656515 0.500000 0.713976
O O17 0.776335 0.261290 0.651662
O O18 0.596872 0.500000 0.892704
O O19 0.000000 0.239466 0.500000
O O20 0.875339 0.000000 0.578255
O O21 0.056986 0.500000 0.272286
#
# Coordination Sequence:
#
# PCOD9223744 Si02
#       8
#     8   8   8   8   8   8   8   8
#     4  10  19  33  56  88 124 163 203 251 308 364
#     4  12  23  35  57  89 124 165 208 254 313 373
#     4  11  26  47  71  97 122 159 209 262 317 371
#     4   9  20  37  58  87 123 165 210 254 305 366
#     4  11  25  44  65  91 124 164 210 258 311 374
#     4  10  19  33  54  82 122 168 208 251 302 360
#     4  10  22  38  58  89 126 162 201 248 311 372
#     4  10  22  41  65  92 125 165 209 258 313 367
#
# _framework density 9.8765429999999999
#
# number of rings (size 3 to 8) (size 9 to 14) (size 15 to 20)
#    0.000    1.625    1.250    4.125    1.750    7.250 
#    0.000    0.625    0.000    0.000    0.000    0.000 
#    0.000    0.000    0.000    0.000    0.000    0.000 
#
# Total GULP energy -178286.540091 kJ/mol
# GULP energy per Si atom -5571.454378 kJ/mol
# Density = 0.985406 g / cm^3
# Si number density = 9.876543 Si / 1000 Ang^3
#
#
#
# Elastic Constant Matrix: (Units=GPa)
#
#
# Indices 1 2 3 4 5 6 
#
# 1 20.7825 17.6638 24.3887 0.0334 8.2956 -0.0541
# 2 17.6638 89.6827 46.6031 0.0311 14.6981 -0.0295
# 3 24.3887 46.6031 111.1020 0.0104 20.3159 -0.0197
# 4 0.0334 0.0311 0.0104 33.8006 -0.0114 0.9528
# 5 8.2956 14.6981 20.3159 -0.0114 28.6246 0.0197
# 6 -0.0541 -0.0295 -0.0197 0.9528 0.0197 20.4336
#
#
#
# Elastic Compliance Matrix: (Units=1/GPa)
#
#
# Indices 1 2 3 4 5 6 
#
# 1 0.070297 -0.006642 -0.010967 -0.000068 -0.009179 0.000178
# 2 -0.006642 0.015204 -0.004417 -0.000007 -0.002747 0.000003
# 3 -0.010967 -0.004417 0.014094 0.000010 -0.004557 -0.000018
# 4 -0.000068 -0.000007 0.000010 0.029624 0.000029 -0.001382
# 5 -0.009179 -0.002747 -0.004557 0.000029 0.042240 -0.000075
# 6 0.000178 0.000003 -0.000018 -0.001382 -0.000075 0.049004
#
#
# Mechanical properties :
#
#
# Convention : Reuss Voigt Hill
#
# Bulk Modulus (GPa) = 18.00410 44.31980 31.16195
# Shear Modulus (GPa) = 17.66595 25.43252 21.54923
#
# Velocity S-wave (km/s) = 2.99379 3.59210 3.30651
# Velocity P-wave (km/s) = 4.59181 6.29999 5.51247
#
# Compressibility (1/GPa) = 0.05554290
#
# Stress axis : x y z
#
# Youngs Moduli (GPa) = 14.22536 65.77087 70.95135
#
# Poissons Ratio (x) = 0.43688 0.77810
# Poissons Ratio (y) = 0.09449 0.31341
# Poissons Ratio (z) = 0.15600 0.29052
#
# Static dielectric constant tensor:
#      x y z
#    x 1.922990 0.000000 -0.002060 
#    y 0.000000 1.682370 0.000000 
#    z -0.002060 0.000000 1.744570 
# 
# From -- ./inp_files/382295.got.cif
#   From: 2010.05.17/outbox.ucp.g08.bks.cvg/sg12_192_cif.got.tgz:382295.got - 2010.06.11 11:47:21.
