data_PCOD9223004
_publ_section_title
;
Structure prediction by ZEFSAII (Michael W. Deem and Ramdas Pophale) SiO2 
 PCOD9223004
Probable space group: C 2/M
;
_chemical_formula_sum "Si O2"
_cell_formula_units_Z 64
_cell_length_a 26.921273
_cell_length_b 19.931530
_cell_length_c 6.118657
_cell_angle_alpha 90.000000
_cell_angle_beta 109.986542
_cell_angle_gamma 90.000000
_cell_volume 3085.426955
_symmetry_space_group_name_H-M "C 2/M"
_symmetry_group_IT_number 12
_symmetry_cell_setting 'monoclinic'
loop_
_space_group_symop_operation_xyz
x,y,z
-x,y,-z
-x,-y,-z
x,-y,z
1/2+x,1/2+y,z
1/2-x,1/2+y,-z
1/2-x,1/2-y,-z
1/2+x,1/2-y,z
loop_
_atom_site_type_symbol
_atom_site_label
_atom_site_fract_x
_atom_site_fract_y
_atom_site_fract_z
Si Si1 0.162300 0.926374 0.253662
Si Si2 0.953495 0.218371 0.104365
Si Si3 0.353066 0.076653 0.498677
Si Si4 0.544884 0.571537 0.881102
Si Si5 0.249376 0.575665 0.975176
Si Si6 0.309435 0.166246 0.816524
Si Si7 0.605101 0.194863 0.680655
Si Si8 0.649353 0.284639 0.366194
O O1 0.199743 0.915202 0.100496
O O2 0.167242 0.861242 0.410675
O O3 0.175838 0.000000 0.367517
O O4 0.102014 0.929435 0.081846
O O5 0.959583 0.145359 0.228542
O O6 0.945424 0.276075 0.270392
O O7 0.900007 0.215710 0.877941
O O8 0.000000 0.229299 0.000000
O O9 0.301713 0.077407 0.262543
O O10 0.333466 0.109655 0.693745
O O11 0.396696 0.126631 0.462040
O O12 0.370255 0.000000 0.549428
O O13 0.540830 0.500000 0.751423
O O14 0.500000 0.571210 0.000000
O O15 0.250908 0.500000 0.072132
O O16 0.240433 0.633939 0.137394
O O17 0.307239 0.234309 0.672273
O O18 0.351456 0.181029 0.069074
O O19 0.628074 0.251931 0.555288
#
# Coordination Sequence:
#
# PCOD9223004 Si02
#       8
#     8   8   8   8   8   8   8   8
#     4   9  17  30  47  68  99 134 165 205 249 285
#     4   9  17  30  50  74  99 128 162 203 247 287
#     4   9  17  31  51  72  96 128 163 197 236 285
#     4   8  14  27  48  71  95 127 166 204 243 285
#     4   9  17  29  46  70  99 130 166 204 241 284
#     4   9  17  31  49  70  96 127 163 202 241 286
#     4   9  18  32  49  73  99 124 160 200 239 290
#     4   9  18  32  48  69  98 130 165 201 241 289
#
# _framework density 20.742674000000001
#
# number of rings (size 3 to 8) (size 9 to 14) (size 15 to 20)
#    0.000    3.125    0.000    0.375    0.000    1.500 
#    0.000   10.000    0.000    7.125    0.000   16.625 
#    0.000    0.000    0.000    0.000    0.000    0.000 
#
# Total GULP energy -178364.144271 kJ/mol
# GULP energy per Si atom -5573.879508 kJ/mol
# Density = 2.069546 g / cm^3
# Si number density = 20.742674 Si / 1000 Ang^3
#
#
#
# Elastic Constant Matrix: (Units=GPa)
#
#
# Indices 1 2 3 4 5 6 
#
# 1 76.0960 67.0013 20.7411 0.0000 -8.5747 0.0000
# 2 67.0013 187.4378 48.5708 0.0000 -30.3145 0.0000
# 3 20.7411 48.5708 64.7056 0.0000 -3.2188 0.0000
# 4 0.0000 0.0000 0.0000 -14.9926 0.0000 -14.5370
# 5 -8.5747 -30.3145 -3.2188 0.0000 17.2986 0.0000
# 6 0.0000 0.0000 0.0000 -14.5370 0.0000 23.8997
#
#
#
# Elastic Compliance Matrix: (Units=1/GPa)
#
#
# Indices 1 2 3 4 5 6 
#
# 1 0.019378 -0.007187 -0.000974 0.000000 -0.003171 0.000000
# 2 -0.007187 0.012138 -0.005982 0.000000 0.016596 0.000000
# 3 -0.000974 -0.005982 0.019896 0.000000 -0.007264 0.000000
# 4 0.000000 0.000000 0.000000 -0.041956 0.000000 -0.025519
# 5 -0.003171 0.016596 -0.007264 0.000000 0.083968 0.000000
# 6 0.000000 0.000000 0.000000 -0.025519 0.000000 0.026319
#
#
# Mechanical properties :
#
#
# Convention : Reuss Voigt Hill
#
# Bulk Modulus (GPa) = 43.24319 66.76287 55.00303
# Shear Modulus (GPa) = 32.10483 18.03621 25.07052
#
# Velocity S-wave (km/s) = 3.93844 2.95196 3.48033
# Velocity P-wave (km/s) = 6.44782 6.62381 6.53641
#
# Compressibility (1/GPa) = 0.02312503
#
# Stress axis : x y z
#
# Youngs Moduli (GPa) = 51.60581 82.38254 50.26103
#
# Poissons Ratio (x) = 0.59209 0.04897
# Poissons Ratio (y) = 0.37090 0.30068
# Poissons Ratio (z) = 0.05028 0.49284
#
# Static dielectric constant tensor:
#      x y z
#    x 1.729750 0.000000 -0.001030 
#    y 0.000000 1.802750 0.000000 
#    z -0.001030 0.000000 1.718630 
# 
# From -- ./inp_files/29192.got.cif
#   From: 2010.05.17/outbox.cif.g08.bks.cpg/sg12_15_cif.got.tgz:29192.got - 2010.06.03 13:09:07.
