data_PCOD9223472
_publ_section_title
;
Structure prediction by ZEFSAII (Michael W. Deem and Ramdas Pophale) SiO2 
 PCOD9223472
Probable space group: C 2/M
;
_chemical_formula_sum "Si O2"
_cell_formula_units_Z 32
_cell_length_a 27.000000
_cell_length_b 9.000000
_cell_length_c 21.000000
_cell_angle_alpha 90.000000
_cell_angle_beta 50.000000
_cell_angle_gamma 90.000000
_cell_volume 3909.124793
_symmetry_space_group_name_H-M "C 2/M"
_symmetry_group_IT_number 12
_symmetry_cell_setting 'monoclinic'
loop_
_space_group_symop_operation_xyz
x,y,z
-x,y,-z
-x,-y,-z
x,-y,z
1/2+x,1/2+y,z
1/2-x,1/2+y,-z
1/2-x,1/2-y,-z
1/2+x,1/2-y,z
loop_
_atom_site_type_symbol
_atom_site_label
_atom_site_fract_x
_atom_site_fract_y
_atom_site_fract_z
Si Si1 0.308010 0.323272 0.990123
Si Si2 0.718383 0.178201 0.851764
Si Si3 0.900505 0.823754 0.096646
Si Si4 0.568251 0.829462 0.164703
Si Si5 0.862233 0.821178 0.686520
Si Si6 0.936223 0.827773 0.507095
Si Si7 0.017816 0.675829 0.340741
Si Si8 0.003431 0.671970 0.083555
O O1 0.302640 0.500000 0.999580
O O2 0.303185 0.249659 0.063613
O O3 0.250000 0.250000 0.000000
O O4 0.372237 0.277981 0.898893
O O5 0.669749 0.252658 0.842340
O O6 0.791928 0.213117 0.772138
O O7 0.710824 0.000000 0.860784
O O8 0.942438 0.776647 0.122446
O O9 0.899643 0.000000 0.086794
O O10 0.939858 0.740652 0.007348
O O11 0.525016 0.789164 0.260655
O O12 0.526206 0.827495 0.136371
O O13 0.592743 0.000000 0.153982
O O14 0.877246 0.777706 0.600823
O O15 0.917686 0.745092 0.681892
O O16 0.870956 0.000000 0.682290
O O17 0.000000 0.817864 0.500000
O O18 0.955817 0.739035 0.428470
O O19 0.927334 0.000000 0.498132
O O20 0.019013 0.500000 0.348722
O O21 0.990213 0.500000 0.077055
#
# Coordination Sequence:
#
# PCOD9223472 Si02
#       8
#     8   8   8   8   8   8   8   8
#     4  12  24  35  48  67  97 133 168 201 237 282
#     4  11  21  35  52  71  96 129 167 201 242 292
#     4  11  21  33  50  74  99 122 158 207 250 290
#     4  10  21  35  50  70  98 129 165 201 238 288
#     4   9  19  33  49  69  95 130 167 200 234 285
#     4   8  15  30  48  67  93 125 161 199 239 283
#     4  10  19  30  47  73 100 127 160 200 242 284
#     4  10  19  34  54  70  92 129 165 201 246 290
#
# _framework density 8.1859760000000001
#
# number of rings (size 3 to 8) (size 9 to 14) (size 15 to 20)
#    0.000    1.875    1.250    5.625    0.000    6.750 
#    0.000    0.000    0.000    0.000    0.000    0.875 
#    0.000    0.000    0.000    0.000    0.000    0.000 
#
# Total GULP energy -178348.978851 kJ/mol
# GULP energy per Si atom -5573.405589 kJ/mol
# Density = 0.816734 g / cm^3
# Si number density = 8.185976 Si / 1000 Ang^3
#
#
#
# Elastic Constant Matrix: (Units=GPa)
#
#
# Indices 1 2 3 4 5 6 
#
# 1 21.3411 6.3374 -29.4025 0.0000 10.8339 0.0041
# 2 6.3374 66.4895 18.1715 -0.0023 5.4913 0.0102
# 3 -29.4025 18.1715 -27.3131 -0.0001 28.4540 0.0060
# 4 0.0000 -0.0023 -0.0001 22.4951 -0.0005 -1.7736
# 5 10.8339 5.4913 28.4540 -0.0005 6.4568 -0.0002
# 6 0.0041 0.0102 0.0060 -1.7736 -0.0002 17.5589
#
#
#
# Elastic Compliance Matrix: (Units=1/GPa)
#
#
# Indices 1 2 3 4 5 6 
#
# 1 0.023733 -0.000065 -0.011987 0.000000 0.013059 -0.000001
# 2 -0.000065 0.016114 -0.000603 0.000001 -0.010937 -0.000009
# 3 -0.011987 -0.000603 -0.000469 0.000001 0.022693 0.000004
# 4 0.000000 0.000001 0.000001 0.044811 -0.000001 0.004526
# 5 0.013059 -0.010937 0.022693 -0.000001 0.042262 -0.000004
# 6 -0.000001 -0.000009 0.000004 0.004526 -0.000004 0.057409
#
#
# Mechanical properties :
#
#
# Convention : Reuss Voigt Hill
#
# Bulk Modulus (GPa) = 71.08336 5.63672 38.36004
# Shear Modulus (GPa) = 23.37990 13.66287 18.52138
#
# Velocity S-wave (km/s) = 3.78305 2.89196 3.36711
# Velocity P-wave (km/s) = 7.91164 3.82120 6.21271
#
# Compressibility (1/GPa) = 0.01406799
#
# Stress axis : x y z
#
# Youngs Moduli (GPa) = 42.13584 62.05658 -2132.40032
#
# Poissons Ratio (x) = 0.00400 -25.56122
# Poissons Ratio (y) = 0.00272 -1.28685
# Poissons Ratio (z) = 0.50508 0.03745
#
# Static dielectric constant tensor:
#      x y z
#    x 1.558800 0.000000 0.012460 
#    y 0.000000 1.549330 0.000000 
#    z 0.012460 0.000000 1.574020 
# 
# From -- ./inp_files/326806.got.cif
#   From: 2010.05.17/outbox.ucp.g08.bks.cvg/sg12_164_cif.got.tgz:326806.got - 2010.06.11 11:47:21.
