data_PCOD9223066
_publ_section_title
;
Structure prediction by ZEFSAII (Michael W. Deem and Ramdas Pophale) SiO2 
 PCOD9223066
Probable space group: C 2/M
;
_chemical_formula_sum "Si O2"
_cell_formula_units_Z 64
_cell_length_a 14.079680
_cell_length_b 20.801567
_cell_length_c 14.966209
_cell_angle_alpha 90.000000
_cell_angle_beta 43.869716
_cell_angle_gamma 90.000000
_cell_volume 3037.714553
_symmetry_space_group_name_H-M "C 2/M"
_symmetry_group_IT_number 12
_symmetry_cell_setting 'monoclinic'
loop_
_space_group_symop_operation_xyz
x,y,z
-x,y,-z
-x,-y,-z
x,-y,z
1/2+x,1/2+y,z
1/2-x,1/2+y,-z
1/2-x,1/2-y,-z
1/2+x,1/2-y,z
loop_
_atom_site_type_symbol
_atom_site_label
_atom_site_fract_x
_atom_site_fract_y
_atom_site_fract_z
Si Si1 0.587855 0.314805 0.060355
Si Si2 0.091133 0.196491 0.355543
Si Si3 0.133116 0.801183 0.651405
Si Si4 0.973498 0.426770 0.854157
Si Si5 0.812840 0.320880 0.067583
Si Si6 0.274017 0.427881 0.125436
Si Si7 0.860542 0.343313 0.382039
Si Si8 0.598701 0.843368 0.356383
O O1 0.441625 0.316364 0.206305
O O2 0.699236 0.316396 0.065538
O O3 0.617274 0.249556 0.985424
O O4 0.616384 0.378576 0.986570
O O5 0.228203 0.167492 0.216680
O O6 0.000000 0.169327 0.500000
O O7 0.981017 0.197531 0.349536
O O8 0.133455 0.269503 0.353925
O O9 0.179469 0.726689 0.628299
O O10 0.250646 0.849182 0.536684
O O11 0.997158 0.500000 0.869191
O O12 0.850003 0.430481 0.864224
O O13 0.107682 0.396837 0.713393
O O14 0.917860 0.376352 0.965602
O O15 0.321250 0.500000 0.108207
O O16 0.212884 0.394015 0.254361
O O17 0.007195 0.335744 0.329495
O O18 0.500000 0.868357 0.500000
#
# Coordination Sequence:
#
# PCOD9223066 Si02
#       8
#     8   8   8   8   8   8   8   8
#     4   9  14  24  41  63  85 110 147 181 215 255
#     4   9  16  26  43  68  90 111 141 180 223 264
#     4   9  16  26  44  65  88 115 141 178 220 263
#     4   9  16  26  42  65  89 111 144 187 221 254
#     4   9  14  24  43  63  85 111 143 181 221 256
#     4   9  16  25  39  62  90 116 146 184 214 245
#     4   9  16  27  42  65  88 113 145 178 218 260
#     4   9  16  26  41  62  88 117 146 179 217 254
#
# _framework density 21.068470999999999
#
# number of rings (size 3 to 8) (size 9 to 14) (size 15 to 20)
#    0.000    3.000    2.500    0.000    0.000    0.250 
#    0.000    0.625    0.000    2.625    0.000    1.750 
#    0.000    0.000    0.000    0.000    0.000    0.000 
#
# Total GULP energy -178373.252767 kJ/mol
# GULP energy per Si atom -5574.164149 kJ/mol
# Density = 2.102052 g / cm^3
# Si number density = 21.068471 Si / 1000 Ang^3
#
#
#
# Elastic Constant Matrix: (Units=GPa)
#
#
# Indices 1 2 3 4 5 6 
#
# 1 58.9216 12.7287 -3.3654 0.0001 1.8552 0.0000
# 2 12.7287 122.2400 76.9183 0.0001 -7.8237 0.0000
# 3 -3.3654 76.9183 185.2280 0.0003 -4.2565 0.0000
# 4 0.0001 0.0001 0.0003 26.3127 -0.0002 -0.4227
# 5 1.8552 -7.8237 -4.2565 -0.0002 20.5963 0.0001
# 6 0.0000 0.0000 0.0000 -0.4227 0.0001 0.0219
#
#
#
# Elastic Compliance Matrix: (Units=1/GPa)
#
#
# Indices 1 2 3 4 5 6 
#
# 1 0.017768 -0.002941 0.001489 0.000000 -0.002410 0.000027
# 2 -0.002941 0.011785 -0.004861 0.000000 0.003737 -0.000022
# 3 0.001489 -0.004861 0.007434 0.000000 -0.000444 0.000013
# 4 0.000000 0.000000 0.000000 0.055058 -0.000003 1.061599
# 5 -0.002410 0.003737 -0.000444 -0.000003 0.050097 -0.000193
# 6 0.000027 -0.000022 0.000013 1.061599 -0.000193 66.086633
#
#
# Mechanical properties :
#
#
# Convention : Reuss Voigt Hill
#
# Bulk Modulus (GPa) = 41.05136 59.88364 50.46750
# Shear Modulus (GPa) = 0.07547 28.06005 14.06776
#
# Velocity S-wave (km/s) = 0.18947 3.65341 2.58682
# Velocity P-wave (km/s) = 4.42435 6.80306 5.73831
#
# Compressibility (1/GPa) = 0.02435973
#
# Stress axis : x y z
#
# Youngs Moduli (GPa) = 56.28094 84.85280 134.51015
#
# Poissons Ratio (x) = 0.24957 -0.20026
# Poissons Ratio (y) = 0.16554 0.65392
# Poissons Ratio (z) = -0.08379 0.41251
#
# Static dielectric constant tensor:
#      x y z
#    x 1.854580 0.000000 0.006390 
#    y 0.000000 1.713350 0.000000 
#    z 0.006390 0.000000 1.801790 
# 
# From -- ./inp_files/177710.got.cif
#   From: 2010.05.17/outbox.cif.g08.bks.cpg/sg12_89_cif.got.tgz:177710.got - 2010.06.03 13:09:07.
