data_PCOD9223511
_publ_section_title
;
Structure prediction by ZEFSAII (Michael W. Deem and Ramdas Pophale) SiO2 
 PCOD9223511
Probable space group: C 2/M
;
_chemical_formula_sum "Si O2"
_cell_formula_units_Z 24
_cell_length_a 21.000000
_cell_length_b 9.000000
_cell_length_c 30.000000
_cell_angle_alpha 90.000000
_cell_angle_beta 150.000000
_cell_angle_gamma 90.000000
_cell_volume 2835.000000
_symmetry_space_group_name_H-M "C 2/M"
_symmetry_group_IT_number 12
_symmetry_cell_setting 'monoclinic'
loop_
_space_group_symop_operation_xyz
x,y,z
-x,y,-z
-x,-y,-z
x,-y,z
1/2+x,1/2+y,z
1/2-x,1/2+y,-z
1/2-x,1/2-y,-z
1/2+x,1/2-y,z
loop_
_atom_site_type_symbol
_atom_site_label
_atom_site_fract_x
_atom_site_fract_y
_atom_site_fract_z
Si Si1 0.042307 0.820926 0.739302
Si Si2 0.262283 0.170977 0.936079
Si Si3 0.114945 0.677742 0.432727
Si Si4 0.123017 0.674794 0.282606
Si Si5 0.946601 0.169859 0.110199
Si Si6 0.121074 0.672613 0.541384
O O1 0.182318 0.781750 0.843919
O O2 0.995131 0.748762 0.664791
O O3 0.945577 0.761274 0.718403
O O4 0.034775 0.000000 0.732550
O O5 0.159128 0.172583 0.914104
O O6 0.302992 0.000000 0.955140
O O7 0.377832 0.269166 0.024356
O O8 0.120520 0.500000 0.428668
O O9 0.250000 0.750000 0.500000
O O10 0.094271 0.703746 0.472938
O O11 0.102827 0.500000 0.275853
O O12 0.269134 0.720076 0.374637
O O13 0.059162 0.730056 0.198040
O O14 0.987702 0.000000 0.129652
O O15 0.165917 0.500000 0.570668
O O16 0.000000 0.685607 0.500000
#
# Coordination Sequence:
#
# PCOD9223511 Si02
#       6
#     8   8   8   8   8   8
#     4  10  19  31  48  71 102 135 168 207 252 303
#     4   8  15  26  40  63  95 129 163 202 246 294
#     4  11  21  33  53  77 102 133 170 212 256 304
#     4  11  20  30  48  72  99 132 170 211 253 302
#     4   9  16  26  42  64  95 131 164 202 249 302
#     4  10  22  39  55  72 100 137 174 212 255 304
#
# _framework density 8.4656079999999996
#
# number of rings (size 3 to 8) (size 9 to 14) (size 15 to 20)
#    0.000    2.167    1.667    4.000    0.000    5.667 
#    0.000    0.000    0.000    0.000    0.000    1.167 
#    0.000    9.333    0.000    0.000    0.000    0.000 
#
# Total GULP energy -133804.504156 kJ/mol
# GULP energy per Si atom -5575.187673 kJ/mol
# Density = 0.844634 g / cm^3
# Si number density = 8.465608 Si / 1000 Ang^3
#
#
#
# Elastic Constant Matrix: (Units=GPa)
#
#
# Indices 1 2 3 4 5 6 
#
# 1 53.4119 28.2888 33.3548 0.0000 -14.5182 0.0000
# 2 28.2888 89.7540 64.9442 0.0000 -14.6322 0.0000
# 3 33.3548 64.9442 127.0946 0.0000 -34.1004 0.0000
# 4 0.0000 0.0000 0.0000 36.3995 0.0000 -6.3792
# 5 -14.5182 -14.6322 -34.1004 0.0000 17.1635 0.0000
# 6 0.0000 0.0000 0.0000 -6.3792 0.0000 14.4472
#
#
#
# Elastic Compliance Matrix: (Units=1/GPa)
#
#
# Indices 1 2 3 4 5 6 
#
# 1 0.026553 -0.006297 0.001789 0.000000 0.020646 0.000000
# 2 -0.006297 0.019481 -0.011297 0.000000 -0.011165 0.000000
# 3 0.001789 -0.011297 0.023544 0.000000 0.038659 0.000000
# 4 0.000000 0.000000 0.000000 0.029777 0.000000 0.013148
# 5 0.020646 -0.011165 0.038659 0.000000 0.143017 0.000000
# 6 0.000000 0.000000 0.000000 0.013148 0.000000 0.075023
#
#
# Mechanical properties :
#
#
# Convention : Reuss Voigt Hill
#
# Bulk Modulus (GPa) = 26.33979 58.15956 42.24967
# Shear Modulus (GPa) = 13.82506 23.18022 18.50264
#
# Velocity S-wave (km/s) = 2.86062 3.70412 3.30936
# Velocity P-wave (km/s) = 5.14797 7.26079 6.29368
#
# Compressibility (1/GPa) = 0.03796538
#
# Stress axis : x y z
#
# Youngs Moduli (GPa) = 37.66121 51.33243 42.47332
#
# Poissons Ratio (x) = 0.32327 -0.07598
# Poissons Ratio (y) = 0.23717 0.47984
# Poissons Ratio (z) = -0.06737 0.57993
#
# Static dielectric constant tensor:
#      x y z
#    x 1.546470 0.000000 -0.008780 
#    y 0.000000 1.578350 0.000000 
#    z -0.008780 0.000000 1.599770 
# 
# From -- ./inp_files/319573.got.cif
#   From: 2010.05.17/outbox.ucp.g08.bks.cvg/sg12_160_cif.got.tgz:319573.got - 2010.06.11 11:47:21.
