data_PCOD9223683
_publ_section_title
;
Structure prediction by ZEFSAII (Michael W. Deem and Ramdas Pophale) SiO2 
 PCOD9223683
Probable space group: C 2/M
;
_chemical_formula_sum "Si O2"
_cell_formula_units_Z 28
_cell_length_a 15.000000
_cell_length_b 9.000000
_cell_length_c 24.000000
_cell_angle_alpha 90.000000
_cell_angle_beta 120.000000
_cell_angle_gamma 90.000000
_cell_volume 2805.922308
_symmetry_space_group_name_H-M "C 2/M"
_symmetry_group_IT_number 12
_symmetry_cell_setting 'monoclinic'
loop_
_space_group_symop_operation_xyz
x,y,z
-x,y,-z
-x,-y,-z
x,-y,z
1/2+x,1/2+y,z
1/2-x,1/2+y,-z
1/2-x,1/2-y,-z
1/2+x,1/2-y,z
loop_
_atom_site_type_symbol
_atom_site_label
_atom_site_fract_x
_atom_site_fract_y
_atom_site_fract_z
Si Si1 0.725629 0.176695 0.784633
Si Si2 0.417069 0.172177 0.812530
Si Si3 0.998371 0.326095 0.718004
Si Si4 0.765368 0.676619 0.915592
Si Si5 0.322694 0.676342 0.595135
Si Si6 0.110959 0.821280 0.510267
Si Si7 0.596591 0.178436 0.943350
O O1 0.815592 0.231995 0.772816
O O2 0.610426 0.226190 0.733405
O O3 0.754023 0.243009 0.853611
O O4 0.723249 0.000000 0.787296
O O5 0.491781 0.183147 0.782868
O O6 0.482651 0.216465 0.887202
O O7 0.386337 0.000000 0.808825
O O8 0.984553 0.500000 0.698756
O O9 0.906314 0.232165 0.664646
O O10 0.757359 0.500000 0.905023
O O11 0.675308 0.734108 0.928268
O O12 0.869824 0.707414 0.982923
O O13 0.309897 0.500000 0.592503
O O14 0.211926 0.751560 0.570159
O O15 0.369913 0.716709 0.548910
O O16 0.000000 0.772528 0.500000
O O17 0.115028 0.000000 0.516846
O O18 0.609093 0.000000 0.937875
#
# Coordination Sequence:
#
# PCOD9223683 Si02
#       7
#     8   8   8   8   8   8   8
#     4  11  23  39  57  81 113 148 190 239 290 344
#     4  10  21  39  59  79 107 148 193 234 286 348
#     4  10  22  41  60  77 113 159 190 227 282 341
#     4  10  19  32  56  83 107 142 186 236 292 350
#     4  10  21  36  59  90 119 148 189 237 275 321
#     4   9  19  38  62  88 120 156 190 224 272 330
#     4   9  18  35  56  79 109 143 185 236 293 351
#
# _framework density 9.9788940000000004
#
# number of rings (size 3 to 8) (size 9 to 14) (size 15 to 20)
#    0.000    2.143    1.429    1.286    0.000    5.429 
#    0.000    7.143    0.000    0.000    0.000    0.000 
#    0.000    0.000    0.000    0.000    0.000    0.000 
#
# Total GULP energy -156263.089542 kJ/mol
# GULP energy per Si atom -5580.824626 kJ/mol
# Density = 0.995618 g / cm^3
# Si number density = 9.978894 Si / 1000 Ang^3
#
#
#
# Elastic Constant Matrix: (Units=GPa)
#
#
# Indices 1 2 3 4 5 6 
#
# 1 109.5723 28.3341 22.9814 0.0000 34.2401 0.0000
# 2 28.3341 15.4299 19.6186 0.0000 13.3232 0.0000
# 3 22.9814 19.6186 67.2988 0.0000 30.0289 0.0000
# 4 0.0000 0.0000 0.0000 22.8657 0.0000 1.2603
# 5 34.2401 13.3232 30.0289 0.0000 27.6494 0.0000
# 6 0.0000 0.0000 0.0000 1.2603 0.0000 29.4776
#
#
#
# Elastic Compliance Matrix: (Units=1/GPa)
#
#
# Indices 1 2 3 4 5 6 
#
# 1 0.026474 -0.044768 0.017488 0.000000 -0.030205 0.000000
# 2 -0.044768 0.196981 -0.047575 0.000000 0.012191 0.000000
# 3 0.017488 -0.047575 0.043055 0.000000 -0.045491 0.000000
# 4 0.000000 0.000000 0.000000 0.043837 0.000000 -0.001874
# 5 -0.030205 0.012191 -0.045491 0.000000 0.117103 0.000000
# 6 0.000000 0.000000 0.000000 -0.001874 0.000000 0.034004
#
#
# Mechanical properties :
#
#
# Convention : Reuss Voigt Hill
#
# Bulk Modulus (GPa) = 8.56180 37.12992 22.84586
# Shear Modulus (GPa) = 7.69115 24.08967 15.89041
#
# Velocity S-wave (km/s) = 1.96522 3.47800 2.82476
# Velocity P-wave (km/s) = 3.07387 5.89689 4.70223
#
# Compressibility (1/GPa) = 0.11679789
#
# Stress axis : x y z
#
# Youngs Moduli (GPa) = 37.77322 5.07663 23.22635
#
# Poissons Ratio (x) = 0.22727 -0.40618
# Poissons Ratio (y) = 1.69104 1.10500
# Poissons Ratio (z) = -0.66057 0.24152
#
# Static dielectric constant tensor:
#      x y z
#    x 1.727360 0.000000 -0.009740 
#    y 0.000000 1.669480 0.000000 
#    z -0.009740 0.000000 1.729630 
# 
# From -- ./inp_files/339016.got.cif
#   From: 2010.05.17/outbox.ucp.g08.bks.cvg/sg12_170_cif.got.tgz:339016.got - 2010.06.11 11:47:21.
