data_PCOD9223920
_publ_section_title
;
Structure prediction by ZEFSAII (Michael W. Deem and Ramdas Pophale) SiO2 
 PCOD9223920
Probable space group: C 2/M
;
_chemical_formula_sum "Si O2"
_cell_formula_units_Z 24
_cell_length_a 27.000000
_cell_length_b 9.000000
_cell_length_c 12.000000
_cell_angle_alpha 90.000000
_cell_angle_beta 60.000000
_cell_angle_gamma 90.000000
_cell_volume 2525.330077
_symmetry_space_group_name_H-M "C 2/M"
_symmetry_group_IT_number 12
_symmetry_cell_setting 'monoclinic'
loop_
_space_group_symop_operation_xyz
x,y,z
-x,y,-z
-x,-y,-z
x,-y,z
1/2+x,1/2+y,z
1/2-x,1/2+y,-z
1/2-x,1/2-y,-z
1/2+x,1/2-y,z
loop_
_atom_site_type_symbol
_atom_site_label
_atom_site_fract_x
_atom_site_fract_y
_atom_site_fract_z
Si Si1 0.268710 0.178618 0.665956
Si Si2 0.084686 0.680001 0.115216
Si Si3 0.520481 0.820216 0.604714
Si Si4 0.196620 0.323230 0.121772
Si Si5 0.858460 0.680735 0.185358
Si Si6 0.869013 0.179466 0.412177
O O1 0.299653 0.200892 0.750431
O O2 0.206168 0.253391 0.750179
O O3 0.309035 0.254657 0.527620
O O4 0.263077 0.000000 0.651926
O O5 0.083146 0.500000 0.115908
O O6 0.137827 0.729319 0.132438
O O7 0.026874 0.723288 0.247179
O O8 0.102545 0.721647 0.967417
O O9 0.500000 0.789855 0.500000
O O10 0.579418 0.737344 0.567579
O O11 0.528883 0.000000 0.602231
O O12 0.200124 0.500000 0.099288
O O13 0.250000 0.250000 0.000000
O O14 0.856436 0.500000 0.193761
O O15 0.880205 0.750789 0.276942
O O16 0.866507 0.000000 0.410694
#
# Coordination Sequence:
#
# PCOD9223920 Si02
#       6
#     8   8   8   8   8   8
#     4  11  22  38  62  91 124 161 204 251 304 361
#     4   9  19  36  61  91 122 158 199 243 296 357
#     4  10  21  42  69  92 119 156 200 247 298 363
#     4  10  19  34  58  90 123 154 193 240 293 354
#     4  11  22  39  62  88 123 161 204 251 302 363
#     4  12  26  42  60  86 122 161 206 253 304 361
#
# _framework density 9.5037079999999996
#
# number of rings (size 3 to 8) (size 9 to 14) (size 15 to 20)
#    0.000    1.500    1.667    4.000    0.000    4.333 
#    0.000    5.833    0.000    0.000    0.000    0.000 
#    0.000    0.000    0.000    0.000    0.000    0.000 
#
# Total GULP energy -134034.873200 kJ/mol
# GULP energy per Si atom -5584.786383 kJ/mol
# Density = 0.948208 g / cm^3
# Si number density = 9.503708 Si / 1000 Ang^3
#
#
#
# Elastic Constant Matrix: (Units=GPa)
#
#
# Indices 1 2 3 4 5 6 
#
# 1 75.5086 28.1045 33.0268 0.0000 4.1526 0.0000
# 2 28.1045 84.6885 42.2199 0.0000 7.0998 0.0000
# 3 33.0268 42.2199 145.0202 0.0000 -2.5442 0.0000
# 4 0.0000 0.0000 0.0000 26.5088 0.0000 -1.4335
# 5 4.1526 7.0998 -2.5442 0.0000 41.3107 0.0000
# 6 0.0000 0.0000 0.0000 -1.4335 0.0000 33.1001
#
#
#
# Elastic Compliance Matrix: (Units=1/GPa)
#
#
# Indices 1 2 3 4 5 6 
#
# 1 0.015853 -0.003933 -0.002484 0.000000 -0.001071 0.000000
# 2 -0.003933 0.015079 -0.003537 0.000000 -0.002414 0.000000
# 3 -0.002484 -0.003537 0.008515 0.000000 0.001382 0.000000
# 4 0.000000 0.000000 0.000000 0.037812 0.000000 0.001638
# 5 -0.001071 -0.002414 0.001382 0.000000 0.024814 0.000000
# 6 0.000000 0.000000 0.000000 0.001638 0.000000 0.030282
#
#
# Mechanical properties :
#
#
# Convention : Reuss Voigt Hill
#
# Bulk Modulus (GPa) = 51.17795 56.88000 54.02897
# Shear Modulus (GPa) = 31.49112 33.64166 32.56639
#
# Velocity S-wave (km/s) = 4.07477 4.21161 4.14376
# Velocity P-wave (km/s) = 7.00871 7.32396 7.16807
#
# Compressibility (1/GPa) = 0.01953966
#
# Stress axis : x y z
#
# Youngs Moduli (GPa) = 63.08076 66.31953 117.43741
#
# Poissons Ratio (x) = 0.26081 0.29173
# Poissons Ratio (y) = 0.24807 0.41532
# Poissons Ratio (z) = 0.15670 0.23454
#
# Static dielectric constant tensor:
#      x y z
#    x 1.687070 0.000000 0.016190 
#    y 0.000000 1.635210 0.000000 
#    z 0.016190 0.000000 1.664540 
# 
# From -- ./inp_files/179733.got.cif
#   From: 2010.05.17/outbox.ucp.g08.bks.cvg/sg12_90_cif.got.tgz:179733.got - 2010.06.11 11:47:21.
