data_PCOD9223047
_publ_section_title
;
Structure prediction by ZEFSAII (Michael W. Deem and Ramdas Pophale) SiO2 
 PCOD9223047
Probable space group: C 2/M
;
_chemical_formula_sum "Si O2"
_cell_formula_units_Z 40
_cell_length_a 28.686669
_cell_length_b 13.974828
_cell_length_c 6.475718
_cell_angle_alpha 90.000000
_cell_angle_beta 76.952828
_cell_angle_gamma 90.000000
_cell_volume 2529.040307
_symmetry_space_group_name_H-M "C 2/M"
_symmetry_group_IT_number 12
_symmetry_cell_setting 'monoclinic'
loop_
_space_group_symop_operation_xyz
x,y,z
-x,y,-z
-x,-y,-z
x,-y,z
1/2+x,1/2+y,z
1/2-x,1/2+y,-z
1/2-x,1/2-y,-z
1/2+x,1/2-y,z
loop_
_atom_site_type_symbol
_atom_site_label
_atom_site_fract_x
_atom_site_fract_y
_atom_site_fract_z
Si Si1 0.693291 0.000000 0.297107
Si Si2 0.125853 0.000000 0.503433
Si Si3 0.556679 0.500000 0.952006
Si Si4 0.556679 0.000000 0.434642
Si Si5 0.625851 0.000000 0.744861
Si Si6 0.875379 0.136591 0.875188
Si Si7 0.306709 0.500000 0.183699
Si Si8 0.624621 0.136591 0.125943
O O1 0.671694 0.000000 0.549139
O O2 0.669787 0.909198 0.202662
O O3 0.750000 0.000000 0.234788
O O4 0.125339 0.908957 0.352345
O O5 0.171697 0.000000 0.607457
O O6 0.080692 0.000000 0.702095
O O7 0.578942 0.590806 0.052148
O O8 0.500000 0.500000 0.000000
O O9 0.500000 0.000000 0.500000
O O10 0.578943 0.090806 0.289973
O O11 0.580690 0.000000 0.636530
O O12 0.625338 0.908957 0.896975
O O13 0.875414 0.250000 0.874587
O O14 0.830214 0.090802 0.042248
#
# Coordination Sequence:
#
# PCOD9223047 Si02
#       8
#     4   4   4   4   4   8   4   8
#     4   9  19  33  52  76 102 137 175 211 258 314
#     4   8  18  35  53  67 108 135 165 216 263 300
#     4   9  19  35  50  76 104 133 175 211 260 312
#     4   9  19  35  50  76 104 133 175 211 260 312
#     4   8  18  35  53  67 108 135 165 216 263 300
#     4   9  19  35  52  75 104 136 171 217 258 305
#     4   9  19  33  52  76 102 137 175 211 258 314
#     4   9  19  35  52  75 104 136 171 217 258 305
#
# _framework density 15.816276999999999
#
# number of rings (size 3 to 8) (size 9 to 14) (size 15 to 20)
#    0.000    4.000    0.000    0.000    0.000   13.600 
#    7.200    2.000    0.000    0.000    0.000    0.000 
#    0.000    0.000    0.000    0.000    0.000    0.000 
#
# Total GULP energy -111340.323869 kJ/mol
# GULP energy per Si atom -5567.016193 kJ/mol
# Density = 1.578028 g / cm^3
# Si number density = 15.816277 Si / 1000 Ang^3
#
#
#
# Elastic Constant Matrix: (Units=GPa)
#
#
# Indices 1 2 3 4 5 6 
#
# 1 174.8157 64.3013 79.4537 0.0000 -25.4881 0.0000
# 2 64.3013 190.4664 70.0670 0.0000 1.7361 0.0000
# 3 79.4537 70.0670 133.8326 0.0000 13.1958 0.0000
# 4 0.0000 0.0000 0.0000 4.0652 0.0000 -1.3414
# 5 -25.4881 1.7361 13.1958 0.0000 16.8486 0.0000
# 6 0.0000 0.0000 0.0000 -1.3414 0.0000 8.5320
#
#
#
# Elastic Compliance Matrix: (Units=1/GPa)
#
#
# Indices 1 2 3 4 5 6 
#
# 1 0.018070 -0.001381 -0.013778 0.000000 0.038269 0.000000
# 2 -0.001381 0.006682 -0.002606 0.000000 -0.000736 0.000000
# 3 -0.013778 -0.002606 0.020639 0.000000 -0.036739 0.000000
# 4 0.000000 0.000000 0.000000 0.259450 0.000000 0.040791
# 5 0.038269 -0.000736 -0.036739 0.000000 0.146095 0.000000
# 6 0.000000 0.000000 0.000000 0.040791 0.000000 0.123619
#
#
# Mechanical properties :
#
#
# Convention : Reuss Voigt Hill
#
# Bulk Modulus (GPa) = 101.41269 102.97320 102.19294
# Shear Modulus (GPa) = 8.15167 24.90867 16.53017
#
# Velocity S-wave (km/s) = 2.27270 3.97278 3.23636
# Velocity P-wave (km/s) = 8.43477 9.28930 8.87233
#
# Compressibility (1/GPa) = 0.00986070
#
# Stress axis : x y z
#
# Youngs Moduli (GPa) = 55.34012 149.66193 48.45257
#
# Poissons Ratio (x) = 0.20663 0.66760
# Poissons Ratio (y) = 0.07640 0.12626
# Poissons Ratio (z) = 0.76250 0.39001
#
# Static dielectric constant tensor:
#      x y z
#    x 1.513140 0.000000 0.007240 
#    y 0.000000 1.510530 0.000000 
#    z 0.007240 0.000000 1.537230 
# 
# From -- ./inp_files/31075.got.cif
#   From: 2010.05.17/outbox.cif.g08.bks.cpg/sg12_16_cif.got.tgz:31075.got - 2010.06.03 13:09:07.
