data_PCOD9223540
_publ_section_title
;
Structure prediction by ZEFSAII (Michael W. Deem and Ramdas Pophale) SiO2 
 PCOD9223540
Probable space group: C 2/M
;
_chemical_formula_sum "Si O2"
_cell_formula_units_Z 28
_cell_length_a 30.000000
_cell_length_b 9.000000
_cell_length_c 15.000000
_cell_angle_alpha 90.000000
_cell_angle_beta 60.000000
_cell_angle_gamma 90.000000
_cell_volume 3507.402885
_symmetry_space_group_name_H-M "C 2/M"
_symmetry_group_IT_number 12
_symmetry_cell_setting 'monoclinic'
loop_
_space_group_symop_operation_xyz
x,y,z
-x,y,-z
-x,-y,-z
x,-y,z
1/2+x,1/2+y,z
1/2-x,1/2+y,-z
1/2-x,1/2-y,-z
1/2+x,1/2-y,z
loop_
_atom_site_type_symbol
_atom_site_label
_atom_site_fract_x
_atom_site_fract_y
_atom_site_fract_z
Si Si1 0.469329 0.177380 0.779629
Si Si2 0.859134 0.321835 0.550065
Si Si3 0.078067 0.172393 0.667106
Si Si4 0.553177 0.819934 0.397076
Si Si5 0.949351 0.180576 0.990841
Si Si6 0.138956 0.825807 0.791139
Si Si7 0.745826 0.320848 0.603251
O O1 0.528984 0.222172 0.710833
O O2 0.445169 0.226439 0.708469
O O3 0.463327 0.000000 0.793979
O O4 0.451573 0.255277 0.888834
O O5 0.865969 0.500000 0.528922
O O6 0.881729 0.229232 0.445471
O O7 0.895532 0.281458 0.597917
O O8 0.797823 0.294207 0.608467
O O9 0.103847 0.181864 0.738026
O O10 0.063544 0.000000 0.666454
O O11 0.500000 0.769156 0.500000
O O12 0.550211 0.000000 0.399095
O O13 0.897447 0.233130 0.093450
O O14 0.949577 0.000000 0.986540
O O15 0.000000 0.221375 0.000000
O O16 0.194878 0.765252 0.706654
O O17 0.147439 0.000000 0.803698
O O18 0.740841 0.500000 0.596025
O O19 0.750000 0.250000 0.500000
#
# Coordination Sequence:
#
# PCOD9223540 Si02
#       7
#     8   8   8   8   8   8   8
#     4  11  21  33  50  73 101 130 167 208 244 288
#     4  10  19  32  50  73  99 133 170 201 239 291
#     4  11  19  30  49  73 104 134 162 197 243 297
#     4   9  17  31  49  69  99 133 161 199 250 292
#     4  10  19  34  52  70  97 134 164 195 247 301
#     4   9  18  32  48  69 101 134 159 190 242 299
#     4  10  19  31  50  75 100 129 165 200 241 292
#
# _framework density 7.9831149999999997
#
# number of rings (size 3 to 8) (size 9 to 14) (size 15 to 20)
#    0.000    2.000    4.286    0.857    0.000    0.286 
#    0.000    2.857    0.000    0.857    0.000    0.000 
#    0.000    0.000    0.000    0.000    0.000    0.143 
#
# Total GULP energy -155984.811646 kJ/mol
# GULP energy per Si atom -5570.886130 kJ/mol
# Density = 0.796494 g / cm^3
# Si number density = 7.983115 Si / 1000 Ang^3
#
#
#
# Elastic Constant Matrix: (Units=GPa)
#
#
# Indices 1 2 3 4 5 6 
#
# 1 88.7868 11.7473 38.3355 0.0000 -1.4634 0.0000
# 2 11.7473 17.2101 15.9624 0.0000 3.8656 0.0000
# 3 38.3355 15.9624 103.2333 0.0000 0.7820 0.0000
# 4 0.0000 0.0000 0.0000 20.2365 0.0000 -1.9410
# 5 -1.4634 3.8656 0.7820 0.0000 29.0060 0.0000
# 6 0.0000 0.0000 0.0000 -1.9410 0.0000 12.8466
#
#
#
# Elastic Compliance Matrix: (Units=1/GPa)
#
#
# Indices 1 2 3 4 5 6 
#
# 1 0.013912 -0.005899 -0.004266 0.000000 0.001603 0.000000
# 2 -0.005899 0.072636 -0.008967 0.000000 -0.009736 0.000000
# 3 -0.004266 -0.008967 0.012653 0.000000 0.000639 0.000000
# 4 0.000000 0.000000 0.000000 0.050142 0.000000 0.007576
# 5 0.001603 -0.009736 0.000639 0.000000 0.035837 0.000000
# 6 0.000000 0.000000 0.000000 0.007576 0.000000 0.078987
#
#
# Mechanical properties :
#
#
# Convention : Reuss Voigt Hill
#
# Bulk Modulus (GPa) = 16.41070 37.92452 27.16761
# Shear Modulus (GPa) = 15.49223 21.96347 18.72785
#
# Velocity S-wave (km/s) = 3.11836 3.71296 3.42857
# Velocity P-wave (km/s) = 4.82351 6.49507 5.72067
#
# Compressibility (1/GPa) = 0.06093586
#
# Stress axis : x y z
#
# Youngs Moduli (GPa) = 71.88108 13.76732 79.03475
#
# Poissons Ratio (x) = 0.08122 0.33717
# Poissons Ratio (y) = 0.42405 0.70869
# Poissons Ratio (z) = 0.30665 0.12345
#
# Static dielectric constant tensor:
#      x y z
#    x 1.545160 0.000000 -0.014540 
#    y 0.000000 1.537250 0.000000 
#    z -0.014540 0.000000 1.546620 
# 
# From -- ./inp_files/248128.got.cif
#   From: 2010.05.17/outbox.ucp.g08.bks.cvg/sg12_125_cif.got.tgz:248128.got - 2010.06.11 11:47:21.
