data_PCOD9223620
_publ_section_title
;
Structure prediction by ZEFSAII (Michael W. Deem and Ramdas Pophale) SiO2 
 PCOD9223620
Probable space group: C 2/M
;
_chemical_formula_sum "Si O2"
_cell_formula_units_Z 32
_cell_length_a 27.000000
_cell_length_b 18.000000
_cell_length_c 21.000000
_cell_angle_alpha 90.000000
_cell_angle_beta 160.000000
_cell_angle_gamma 90.000000
_cell_volume 3490.657583
_symmetry_space_group_name_H-M "C 2/M"
_symmetry_group_IT_number 12
_symmetry_cell_setting 'monoclinic'
loop_
_space_group_symop_operation_xyz
x,y,z
-x,y,-z
-x,-y,-z
x,-y,z
1/2+x,1/2+y,z
1/2-x,1/2+y,-z
1/2-x,1/2-y,-z
1/2+x,1/2-y,z
loop_
_atom_site_type_symbol
_atom_site_label
_atom_site_fract_x
_atom_site_fract_y
_atom_site_fract_z
Si Si1 0.360510 0.085682 0.655743
Si Si2 0.458040 0.273264 0.572273
Si Si3 0.657878 0.243590 0.157116
Si Si4 0.263650 0.219760 0.152728
Si Si5 0.254895 0.584282 0.960301
Si Si6 0.565754 0.819693 0.822197
Si Si7 0.417671 0.415374 0.597765
Si Si8 0.903271 0.420464 0.946597
O O1 0.423734 0.141491 0.679835
O O2 0.211623 0.108716 0.510876
O O3 0.485442 0.084936 0.860472
O O4 0.343043 0.000000 0.611996
O O5 0.297531 0.240667 0.368914
O O6 0.576096 0.256438 0.660090
O O7 0.525598 0.235941 0.716836
O O8 0.434479 0.359584 0.559644
O O9 0.688619 0.288875 0.130245
O O10 0.500000 0.251701 0.000000
O O11 0.675882 0.157681 0.155580
O O12 0.276999 0.140254 0.135258
O O13 0.156619 0.272403 0.982666
O O14 0.209005 0.500000 0.893230
O O15 0.170782 0.617515 0.919632
O O16 0.426880 0.585023 0.180439
O O17 0.382279 0.500000 0.535793
O O18 0.823865 0.500000 0.856249
O O19 0.000000 0.423949 0.000000
#
# Coordination Sequence:
#
# PCOD9223620 Si02
#       8
#     8   8   8   8   8   8   8   8
#     4  10  20  32  52  80 114 152 190 232 275 324
#     4  11  22  37  56  81 114 152 184 236 285 328
#     4  11  23  37  57  83 114 153 191 234 282 334
#     4  11  21  40  58  84 114 147 189 237 283 333
#     4  10  20  37  61  83 112 147 185 233 288 340
#     4  11  20  37  58  83 112 149 190 234 278 336
#     4  10  19  32  51  82 116 147 184 226 275 330
#     4   9  17  31  49  72 108 153 187 214 262 326
#
# _framework density 9.1673270000000002
#
# number of rings (size 3 to 8) (size 9 to 14) (size 15 to 20)
#    0.000    1.625    3.750    3.000    0.000    3.000 
#    0.000    0.625    0.000    8.625    0.000    0.000 
#    0.000    0.000    0.000    0.000    0.000    0.000 
#
# Total GULP energy -178380.940379 kJ/mol
# GULP energy per Si atom -5574.404387 kJ/mol
# Density = 0.914646 g / cm^3
# Si number density = 9.167327 Si / 1000 Ang^3
#
#
#
# Elastic Constant Matrix: (Units=GPa)
#
#
# Indices 1 2 3 4 5 6 
#
# 1 79.8203 25.7526 25.7539 0.0002 12.3801 0.0000
# 2 25.7526 74.4416 3.9160 0.0012 6.4383 0.0006
# 3 25.7539 3.9160 78.6572 0.0010 19.3827 0.0005
# 4 0.0002 0.0012 0.0010 15.9038 0.0007 13.0049
# 5 12.3801 6.4383 19.3827 0.0007 27.7463 0.0003
# 6 0.0000 0.0006 0.0005 13.0049 0.0003 19.5078
#
#
#
# Elastic Compliance Matrix: (Units=1/GPa)
#
#
# Indices 1 2 3 4 5 6 
#
# 1 0.015992 -0.005050 -0.004246 0.000001 -0.002998 0.000000
# 2 -0.005050 0.015304 0.001463 -0.000002 -0.002320 0.000001
# 3 -0.004246 0.001463 0.016485 -0.000001 -0.009961 0.000000
# 4 0.000001 -0.000002 -0.000001 0.138236 -0.000002 -0.092156
# 5 -0.002998 -0.002320 -0.009961 -0.000002 0.044875 0.000001
# 6 0.000000 0.000001 0.000000 -0.092156 0.000001 0.112698
#
#
# Mechanical properties :
#
#
# Convention : Reuss Voigt Hill
#
# Bulk Modulus (GPa) = 31.13683 38.19602 34.66642
# Shear Modulus (GPa) = 13.51490 24.46467 18.98979
#
# Velocity S-wave (km/s) = 2.71795 3.65683 3.22177
# Velocity P-wave (km/s) = 5.18353 6.22155 5.72611
#
# Compressibility (1/GPa) = 0.03211631
#
# Stress axis : x y z
#
# Youngs Moduli (GPa) = 62.53010 65.34247 60.65970
#
# Poissons Ratio (x) = 0.32997 0.25757
# Poissons Ratio (y) = 0.31576 -0.08876
# Poissons Ratio (z) = 0.26551 -0.09561
#
# Static dielectric constant tensor:
#      x y z
#    x 1.612330 0.000000 -0.034030 
#    y 0.000000 1.663100 0.000000 
#    z -0.034030 0.000000 1.636440 
# 
# From -- ./inp_files/328672.got.cif
#   From: 2010.05.17/outbox.ucp.g08.bks.cvg/sg12_165_cif.got.tgz:328672.got - 2010.06.11 11:47:21.
