data_PCOD9223210
_publ_section_title
;
Structure prediction by ZEFSAII (Michael W. Deem and Ramdas Pophale) SiO2 
 PCOD9223210
Probable space group: C 2/M
;
_chemical_formula_sum "Si O2"
_cell_formula_units_Z 32
_cell_length_a 24.000000
_cell_length_b 9.000000
_cell_length_c 18.000000
_cell_angle_alpha 90.000000
_cell_angle_beta 90.000000
_cell_angle_gamma 90.000000
_cell_volume 3888.000000
_symmetry_space_group_name_H-M "C 2/M"
_symmetry_group_IT_number 12
_symmetry_cell_setting 'monoclinic'
loop_
_space_group_symop_operation_xyz
x,y,z
-x,y,-z
-x,-y,-z
x,-y,z
1/2+x,1/2+y,z
1/2-x,1/2+y,-z
1/2-x,1/2-y,-z
1/2+x,1/2-y,z
loop_
_atom_site_type_symbol
_atom_site_label
_atom_site_fract_x
_atom_site_fract_y
_atom_site_fract_z
Si Si1 0.312417 0.179414 0.291313
Si Si2 0.993828 0.679218 0.914093
Si Si3 0.694924 0.177264 0.262959
Si Si4 0.805420 0.679013 0.464404
Si Si5 0.070115 0.678940 0.775514
Si Si6 0.398226 0.669530 0.825091
Si Si7 0.383728 0.177604 0.595966
Si Si8 0.021923 0.168717 0.320023
O O1 0.255562 0.251369 0.262963
O O2 0.316056 0.220600 0.378857
O O3 0.366830 0.224871 0.244036
O O4 0.308355 0.000000 0.287741
O O5 0.991466 0.500000 0.911274
O O6 0.042560 0.725012 0.854981
O O7 0.936404 0.746483 0.883958
O O8 0.000000 0.723836 0.000000
O O9 0.657039 0.243339 0.197587
O O10 0.662355 0.213883 0.340255
O O11 0.698027 0.000000 0.258147
O O12 0.799129 0.500000 0.467656
O O13 0.750000 0.750000 0.500000
O O14 0.856991 0.719675 0.517503
O O15 0.068363 0.500000 0.773823
O O16 0.030569 0.740436 0.710164
O O17 0.386567 0.500000 0.846750
O O18 0.436092 0.666163 0.750594
O O19 0.441528 0.255799 0.616006
O O20 0.391883 0.000000 0.598802
O O21 0.006649 0.000000 0.338347
#
# Coordination Sequence:
#
# PCOD9223210 Si02
#       8
#     8   8   8   8   8   8   8   8
#     4  10  20  32  48  69  96 129 162 197 239 287
#     4   9  17  31  53  78 101 125 155 193 236 283
#     4  10  18  29  47  70  96 127 163 201 239 279
#     4  10  19  31  46  67  94 124 162 203 242 282
#     4   9  18  33  50  70  97 128 158 190 235 290
#     4   9  17  29  47  73 101 125 156 198 238 280
#     4   9  17  29  45  66  91 121 158 200 243 282
#     4   9  17  29  47  69  91 121 159 200 240 278
#
# _framework density 8.2304530000000007
#
# number of rings (size 3 to 8) (size 9 to 14) (size 15 to 20)
#    0.000    2.625    1.250    1.125    0.000    4.750 
#    0.000    0.625    0.000    4.500    0.000    0.000 
#    0.000    0.000    0.000    0.000    0.000    0.000 
#
# Total GULP energy -178290.831817 kJ/mol
# GULP energy per Si atom -5571.588494 kJ/mol
# Density = 0.821172 g / cm^3
# Si number density = 8.230453 Si / 1000 Ang^3
#
#
#
# Elastic Constant Matrix: (Units=GPa)
#
#
# Indices 1 2 3 4 5 6 
#
# 1 122.7128 37.9945 64.0852 0.0000 11.7075 0.0000
# 2 37.9945 18.7364 30.5761 0.0000 4.5341 0.0000
# 3 64.0852 30.5761 99.5585 0.0000 18.4052 0.0000
# 4 0.0000 0.0000 0.0000 14.0998 0.0000 5.7470
# 5 11.7075 4.5341 18.4052 0.0000 24.2154 0.0000
# 6 0.0000 0.0000 0.0000 5.7470 0.0000 28.6107
#
#
#
# Elastic Compliance Matrix: (Units=1/GPa)
#
#
# Indices 1 2 3 4 5 6 
#
# 1 0.022038 -0.043445 -0.000439 0.000000 -0.002187 0.000000
# 2 -0.043445 0.193334 -0.033278 0.000000 0.010097 0.000000
# 3 -0.000439 -0.033278 0.022520 0.000000 -0.010674 0.000000
# 4 0.000000 0.000000 0.000000 0.077247 0.000000 -0.015517
# 5 -0.002187 0.010097 -0.010674 0.000000 0.048575 0.000000
# 6 0.000000 0.000000 0.000000 -0.015517 0.000000 0.038069
#
#
# Mechanical properties :
#
#
# Convention : Reuss Voigt Hill
#
# Bulk Modulus (GPa) = 11.96607 56.25769 34.11188
# Shear Modulus (GPa) = 8.56217 20.60864 14.58540
#
# Velocity S-wave (km/s) = 2.28316 3.54216 2.97991
# Velocity P-wave (km/s) = 3.77301 7.14003 5.71032
#
# Compressibility (1/GPa) = 0.08356963
#
# Stress axis : x y z
#
# Youngs Moduli (GPa) = 45.37520 5.17239 44.40410
#
# Poissons Ratio (x) = 0.22471 0.01950
# Poissons Ratio (y) = 1.97131 1.47767
# Poissons Ratio (z) = 0.01993 0.17213
#
# Static dielectric constant tensor:
#      x y z
#    x 1.539860 0.000000 0.004550 
#    y 0.000000 1.556430 0.000000 
#    z 0.004550 0.000000 1.549420 
# 
# From -- ./inp_files/281385.got.cif
#   From: 2010.05.17/outbox.ucp.g08.bks.cvg/sg12_141_cif.got.tgz:281385.got - 2010.06.11 11:47:21.
