data_PCOD9223731
_publ_section_title
;
Structure prediction by ZEFSAII (Michael W. Deem and Ramdas Pophale) SiO2 
 PCOD9223731
Probable space group: C 2/M
;
_chemical_formula_sum "Si O2"
_cell_formula_units_Z 28
_cell_length_a 9.000000
_cell_length_b 18.000000
_cell_length_c 30.000000
_cell_angle_alpha 90.000000
_cell_angle_beta 140.000000
_cell_angle_gamma 90.000000
_cell_volume 3123.947783
_symmetry_space_group_name_H-M "C 2/M"
_symmetry_group_IT_number 12
_symmetry_cell_setting 'monoclinic'
loop_
_space_group_symop_operation_xyz
x,y,z
-x,y,-z
-x,-y,-z
x,-y,z
1/2+x,1/2+y,z
1/2-x,1/2+y,-z
1/2-x,1/2-y,-z
1/2+x,1/2-y,z
loop_
_atom_site_type_symbol
_atom_site_label
_atom_site_fract_x
_atom_site_fract_y
_atom_site_fract_z
Si Si1 0.968116 0.412437 0.862183
Si Si2 0.341747 0.168165 0.007823
Si Si3 0.694931 0.840598 0.582437
Si Si4 0.408664 0.780988 0.345900
Si Si5 0.656535 0.414986 0.711041
Si Si6 0.140942 0.912314 0.122755
Si Si7 0.999502 0.331860 0.267949
O O1 0.927257 0.500000 0.864016
O O2 0.767042 0.380889 0.782211
O O3 0.013922 0.366351 0.917532
O O4 0.199818 0.408903 0.885047
O O5 0.500000 0.171978 0.000000
O O6 0.250000 0.250000 0.000000
O O7 0.115947 0.117109 0.946179
O O8 0.500000 0.855434 0.500000
O O9 0.578093 0.820329 0.603015
O O10 0.872311 0.775588 0.606711
O O11 0.888411 0.901604 0.639639
O O12 0.153592 0.740928 0.288938
O O13 0.435667 0.825326 0.305460
O O14 0.701938 0.500000 0.728781
O O15 0.808255 0.391648 0.703220
O O16 0.273898 0.857828 0.188317
O O17 0.139475 0.000000 0.136446
#
# Coordination Sequence:
#
# PCOD9223731 Si02
#       7
#     8   8   8   8   8   8   8
#     4   9  19  39  61  79 106 144 183 220 269 331
#     4  12  26  39  55  81 112 144 182 230 275 316
#     4  10  19  33  54  79 109 141 177 222 273 328
#     4   9  19  33  53  82 110 141 178 222 271 322
#     4   9  19  36  57  78 105 144 182 220 268 322
#     4  10  21  38  60  82 109 146 182 221 272 326
#     4   9  18  34  56  81 110 140 179 224 266 319
#
# _framework density 8.9630179999999999
#
# number of rings (size 3 to 8) (size 9 to 14) (size 15 to 20)
#    0.000    2.286    0.000    3.429    0.000    9.429 
#    0.000    2.857    0.000    0.857    0.000    0.000 
#    0.000    0.000    0.000    0.000    0.000    0.000 
#
# Total GULP energy -155887.489119 kJ/mol
# GULP energy per Si atom -5567.410326 kJ/mol
# Density = 0.894262 g / cm^3
# Si number density = 8.963018 Si / 1000 Ang^3
#
#
#
# Elastic Constant Matrix: (Units=GPa)
#
#
# Indices 1 2 3 4 5 6 
#
# 1 118.0785 31.9038 54.6059 0.0000 -24.2039 0.0000
# 2 31.9038 58.4796 46.2558 0.0000 -14.7405 0.0000
# 3 54.6059 46.2558 132.4338 -0.0001 -15.6380 0.0000
# 4 0.0000 0.0000 -0.0001 25.2252 0.0000 -1.5480
# 5 -24.2039 -14.7405 -15.6380 0.0000 35.0176 0.0000
# 6 0.0000 0.0000 0.0000 -1.5480 0.0000 17.1593
#
#
#
# Elastic Compliance Matrix: (Units=1/GPa)
#
#
# Indices 1 2 3 4 5 6 
#
# 1 0.011834 -0.002343 -0.003391 0.000000 0.005679 0.000000
# 2 -0.002343 0.025635 -0.007289 0.000000 0.005917 0.000000
# 3 -0.003391 -0.007289 0.011460 0.000000 -0.000294 0.000000
# 4 0.000000 0.000000 0.000000 0.039864 0.000000 0.003596
# 5 0.005679 0.005917 -0.000294 0.000000 0.034842 0.000000
# 6 0.000000 0.000000 0.000000 0.003596 0.000000 0.058602
#
#
# Mechanical properties :
#
#
# Convention : Reuss Voigt Hill
#
# Bulk Modulus (GPa) = 43.69802 63.83589 53.76695
# Shear Modulus (GPa) = 23.15790 27.22885 25.19337
#
# Velocity S-wave (km/s) = 3.59814 3.90161 3.75294
# Velocity P-wave (km/s) = 6.45693 7.48229 6.98844
#
# Compressibility (1/GPa) = 0.02288433
#
# Stress axis : x y z
#
# Youngs Moduli (GPa) = 84.50171 39.00950 87.25903
#
# Poissons Ratio (x) = 0.09139 0.29586
# Poissons Ratio (y) = 0.19796 0.63603
# Poissons Ratio (z) = 0.28651 0.28434
#
# Static dielectric constant tensor:
#      x y z
#    x 1.591240 0.000000 0.003520 
#    y 0.000000 1.669740 0.000000 
#    z 0.003520 0.000000 1.627240 
# 
# From -- ./inp_files/372820.got.cif
#   From: 2010.05.17/outbox.ucp.g08.bks.cvg/sg12_187_cif.got.tgz:372820.got - 2010.06.11 11:47:21.
