data_PCOD9223330
_publ_section_title
;
Structure prediction by ZEFSAII (Michael W. Deem and Ramdas Pophale) SiO2 
 PCOD9223330
Probable space group: C 2/M
;
_chemical_formula_sum "Si O2"
_cell_formula_units_Z 32
_cell_length_a 30.000000
_cell_length_b 9.000000
_cell_length_c 18.000000
_cell_angle_alpha 90.000000
_cell_angle_beta 40.000000
_cell_angle_gamma 90.000000
_cell_volume 3123.947783
_symmetry_space_group_name_H-M "C 2/M"
_symmetry_group_IT_number 12
_symmetry_cell_setting 'monoclinic'
loop_
_space_group_symop_operation_xyz
x,y,z
-x,y,-z
-x,-y,-z
x,-y,z
1/2+x,1/2+y,z
1/2-x,1/2+y,-z
1/2-x,1/2-y,-z
1/2+x,1/2-y,z
loop_
_atom_site_type_symbol
_atom_site_label
_atom_site_fract_x
_atom_site_fract_y
_atom_site_fract_z
Si Si1 0.198563 0.674040 0.124272
Si Si2 0.799000 0.674218 0.709590
Si Si3 0.843216 0.820249 0.158359
Si Si4 0.602077 0.324004 0.512110
Si Si5 0.931442 0.175045 0.917818
Si Si6 0.683046 0.825951 0.545942
Si Si7 0.057162 0.819797 0.264449
Si Si8 0.414987 0.673508 0.219214
O O1 0.193282 0.500000 0.113129
O O2 0.225336 0.686388 0.174537
O O3 0.122444 0.747247 0.221093
O O4 0.250000 0.750000 0.000000
O O5 0.815555 0.500000 0.675179
O O6 0.736258 0.723715 0.736077
O O7 0.863679 0.776147 0.608632
O O8 0.891547 0.791720 0.166198
O O9 0.841470 0.000000 0.153925
O O10 0.875687 0.754384 0.042758
O O11 0.604670 0.500000 0.522414
O O12 0.648855 0.245139 0.515666
O O13 0.521397 0.279481 0.613955
O O14 0.936150 0.233100 0.829406
O O15 0.004164 0.180763 0.867598
O O16 0.914825 0.000000 0.929703
O O17 0.750000 0.750000 0.500000
O O18 0.622862 0.791783 0.681546
O O19 0.697344 0.000000 0.515786
O O20 0.062300 0.000000 0.262553
O O21 0.393829 0.500000 0.262726
#
# Coordination Sequence:
#
# PCOD9223330 Si02
#       8
#     8   8   8   8   8   8   8   8
#     4  11  24  42  66  94 126 162 207 255 307 372
#     4  10  22  40  60  87 123 162 204 254 308 366
#     4   9  17  30  55  85 114 153 199 247 300 358
#     4  11  23  41  64  91 122 159 205 257 314 374
#     4   9  16  31  55  85 119 153 195 248 302 363
#     4  12  24  38  58  83 119 165 212 257 305 364
#     4  10  21  39  63  89 123 162 204 257 313 375
#     4  10  18  32  55  86 117 149 199 251 305 366
#
# _framework density 10.243449
#
# number of rings (size 3 to 8) (size 9 to 14) (size 15 to 20)
#    0.000    1.750    1.250    3.750    0.000    7.000 
#    0.000    2.500    0.000    3.000    0.000    0.000 
#    0.000    0.000    0.000    0.000    0.000    0.000 
#
# Total GULP energy -178441.681084 kJ/mol
# GULP energy per Si atom -5576.302534 kJ/mol
# Density = 1.022013 g / cm^3
# Si number density = 10.243449 Si / 1000 Ang^3
#
#
#
# Elastic Constant Matrix: (Units=GPa)
#
#
# Indices 1 2 3 4 5 6 
#
# 1 34.5233 3.0088 -74.4814 -0.0160 4.2978 0.0038
# 2 3.0088 46.8908 -23.2061 -0.0132 0.1173 0.0065
# 3 -74.4814 -23.2061 -93.2043 -0.0361 30.4817 0.0092
# 4 -0.0160 -0.0132 -0.0361 22.6268 0.0150 -0.5202
# 5 4.2978 0.1173 30.4817 0.0150 7.6163 -0.0036
# 6 0.0038 0.0065 0.0092 -0.5202 -0.0036 26.1992
#
#
#
# Elastic Compliance Matrix: (Units=1/GPa)
#
#
# Indices 1 2 3 4 5 6 
#
# 1 0.014765 -0.003887 -0.005863 -0.000011 0.015192 0.000003
# 2 -0.003887 0.021228 -0.000679 0.000005 0.004586 -0.000004
# 3 -0.005863 -0.000679 -0.002074 -0.000015 0.011621 0.000003
# 4 -0.000011 0.000005 -0.000015 0.044215 -0.000019 0.000878
# 5 0.015192 0.004586 0.011621 -0.000019 0.076146 0.000003
# 6 0.000003 -0.000004 0.000003 0.000878 0.000003 0.038187
#
#
# Mechanical properties :
#
#
# Convention : Reuss Voigt Hill
#
# Bulk Modulus (GPa) = 76.56923 -22.34973 27.10975
# Shear Modulus (GPa) = 22.96973 16.81437 19.89205
#
# Velocity S-wave (km/s) = 3.35205 2.86796 3.11941
# Velocity P-wave (km/s) = 7.24138 0.18430 5.12208
#
# Compressibility (1/GPa) = 0.01306008
#
# Stress axis : x y z
#
# Youngs Moduli (GPa) = 67.72786 47.10805 -482.07134
#
# Poissons Ratio (x) = 0.18310 -2.82627
# Poissons Ratio (y) = 0.26325 -0.32756
# Poissons Ratio (z) = 0.39707 0.03201
#
# Static dielectric constant tensor:
#      x y z
#    x 1.792120 -0.000020 0.012300 
#    y -0.000020 1.696870 0.000010 
#    z 0.012300 0.000010 1.800630 
# 
# From -- ./inp_files/295470.got.cif
#   From: 2010.05.17/outbox.ucp.g08.bks.cvg/sg12_148_cif.got.tgz:295470.got - 2010.06.11 11:47:21.
