data_PCOD9223336
_publ_section_title
;
Structure prediction by ZEFSAII (Michael W. Deem and Ramdas Pophale) SiO2 
 PCOD9223336
Probable space group: C 2/M
;
_chemical_formula_sum "Si O2"
_cell_formula_units_Z 28
_cell_length_a 15.000000
_cell_length_b 9.000000
_cell_length_c 24.000000
_cell_angle_alpha 90.000000
_cell_angle_beta 120.000000
_cell_angle_gamma 90.000000
_cell_volume 2805.922308
_symmetry_space_group_name_H-M "C 2/M"
_symmetry_group_IT_number 12
_symmetry_cell_setting 'monoclinic'
loop_
_space_group_symop_operation_xyz
x,y,z
-x,y,-z
-x,-y,-z
x,-y,z
1/2+x,1/2+y,z
1/2-x,1/2+y,-z
1/2-x,1/2-y,-z
1/2+x,1/2-y,z
loop_
_atom_site_type_symbol
_atom_site_label
_atom_site_fract_x
_atom_site_fract_y
_atom_site_fract_z
Si Si1 0.921066 0.824320 0.707701
Si Si2 0.718003 0.177098 0.931776
Si Si3 0.716576 0.674587 0.623411
Si Si4 0.050049 0.818782 0.650220
Si Si5 0.012735 0.672606 0.164229
Si Si6 0.098615 0.326982 0.067697
Si Si7 0.642873 0.325139 0.482376
O O1 0.819810 0.763903 0.646125
O O2 0.019959 0.774738 0.702845
O O3 0.926960 0.761933 0.770842
O O4 0.918582 0.000000 0.706894
O O5 0.604292 0.227178 0.878683
O O6 0.803846 0.227872 0.915303
O O7 0.714947 0.000000 0.937397
O O8 0.750000 0.250000 0.000000
O O9 0.742608 0.500000 0.636605
O O10 0.658307 0.730731 0.659915
O O11 0.637984 0.688749 0.547532
O O12 0.956452 0.768077 0.581260
O O13 0.052717 0.000000 0.647949
O O14 0.010055 0.500000 0.180328
O O15 0.065666 0.681475 0.121052
O O16 0.121126 0.500000 0.060412
O O17 0.000000 0.282040 0.000000
O O18 0.651217 0.500000 0.472041
O O19 0.750000 0.250000 0.500000
#
# Coordination Sequence:
#
# PCOD9223336 Si02
#       7
#     8   8   8   8   8   8   8
#     4  11  23  39  58  82 116 152 192 242 285 336
#     4  11  22  38  62  92 122 153 191 238 289 345
#     4  10  20  36  60  84 110 152 197 235 288 349
#     4   9  19  36  57  82 114 151 192 235 284 342
#     4  10  23  42  61  83 119 157 191 233 287 353
#     4  10  20  39  63  88 118 152 189 235 292 347
#     4  10  18  32  57  85 113 145 188 241 290 340
#
# _framework density 9.9788940000000004
#
# number of rings (size 3 to 8) (size 9 to 14) (size 15 to 20)
#    0.000    1.857    2.857    1.286    0.000    4.857 
#    0.000    6.429    0.000    1.714    0.000    0.000 
#    0.000    0.000    0.000    0.000    0.000    0.000 
#
# Total GULP energy -156216.885021 kJ/mol
# GULP energy per Si atom -5579.174465 kJ/mol
# Density = 0.995618 g / cm^3
# Si number density = 9.978894 Si / 1000 Ang^3
#
#
#
# Elastic Constant Matrix: (Units=GPa)
#
#
# Indices 1 2 3 4 5 6 
#
# 1 73.1255 16.8667 2.7128 0.0000 -4.7498 0.0000
# 2 16.8667 17.8341 24.3329 0.0000 -4.0628 0.0000
# 3 2.7128 24.3329 51.3433 0.0000 -1.3108 0.0000
# 4 0.0000 0.0000 0.0000 20.8300 0.0000 1.3453
# 5 -4.7498 -4.0628 -1.3108 0.0000 16.1507 0.0000
# 6 0.0000 0.0000 0.0000 1.3453 0.0000 23.0032
#
#
#
# Elastic Compliance Matrix: (Units=1/GPa)
#
#
# Indices 1 2 3 4 5 6 
#
# 1 0.029913 -0.078346 0.035345 0.000000 -0.008043 0.000000
# 2 -0.078346 0.384826 -0.176723 0.000000 0.059421 0.000000
# 3 0.035345 -0.176723 0.100702 0.000000 -0.025888 0.000000
# 4 0.000000 0.000000 0.000000 0.048190 0.000000 -0.002818
# 5 -0.008043 0.059421 -0.025888 0.000000 0.072398 0.000000
# 6 0.000000 0.000000 0.000000 -0.002818 0.000000 0.043637
#
#
# Mechanical properties :
#
#
# Convention : Reuss Voigt Hill
#
# Bulk Modulus (GPa) = 13.15932 25.56975 19.36454
# Shear Modulus (GPa) = 4.36893 18.55615 11.46254
#
# Velocity S-wave (km/s) = 1.48116 3.05252 2.39914
# Velocity P-wave (km/s) = 3.08756 5.02629 4.17113
#
# Compressibility (1/GPa) = 0.07599178
#
# Stress axis : x y z
#
# Youngs Moduli (GPa) = 33.43083 2.59857 9.93032
#
# Poissons Ratio (x) = 0.20359 -0.35098
# Poissons Ratio (y) = 2.61919 1.75491
# Poissons Ratio (z) = -1.18160 0.45923
#
# Static dielectric constant tensor:
#      x y z
#    x 1.719370 0.000000 -0.030260 
#    y 0.000000 1.672390 0.000000 
#    z -0.030260 0.000000 1.722400 
# 
# From -- ./inp_files/309036.got.cif
#   From: 2010.05.17/outbox.ucp.g08.bks.cvg/sg12_155_cif.got.tgz:309036.got - 2010.06.11 11:47:21.
