data_PCOD9223162
_publ_section_title
;
Structure prediction by ZEFSAII (Michael W. Deem and Ramdas Pophale) SiO2 
 PCOD9223162
Probable space group: C 2/M
;
_chemical_formula_sum "Si O2"
_cell_formula_units_Z 32
_cell_length_a 30.000000
_cell_length_b 9.000000
_cell_length_c 30.000000
_cell_angle_alpha 90.000000
_cell_angle_beta 30.000000
_cell_angle_gamma 90.000000
_cell_volume 4050.000000
_symmetry_space_group_name_H-M "C 2/M"
_symmetry_group_IT_number 12
_symmetry_cell_setting 'monoclinic'
loop_
_space_group_symop_operation_xyz
x,y,z
-x,y,-z
-x,-y,-z
x,-y,z
1/2+x,1/2+y,z
1/2-x,1/2+y,-z
1/2-x,1/2-y,-z
1/2+x,1/2-y,z
loop_
_atom_site_type_symbol
_atom_site_label
_atom_site_fract_x
_atom_site_fract_y
_atom_site_fract_z
Si Si1 0.341217 0.676032 0.104887
Si Si2 0.825911 0.826431 0.884347
Si Si3 0.980801 0.324139 0.922414
Si Si4 0.965403 0.319807 0.594116
Si Si5 0.359031 0.181047 0.597832
Si Si6 0.133681 0.174393 0.054453
Si Si7 0.652781 0.177976 0.221352
Si Si8 0.334492 0.677942 0.216046
O O1 0.358983 0.500000 0.084249
O O2 0.252164 0.710491 0.153851
O O3 0.326435 0.703881 0.169840
O O4 0.423493 0.765627 0.013949
O O5 0.884628 0.803249 0.877421
O O6 0.871478 0.770837 0.800644
O O7 0.801388 0.000000 0.904408
O O8 0.735355 0.730352 0.963153
O O9 0.982684 0.500000 0.920577
O O10 0.929140 0.263131 0.924012
O O11 0.079009 0.257674 0.840502
O O12 0.966109 0.500000 0.591269
O O13 0.904826 0.273165 0.604769
O O14 0.915823 0.278614 0.681270
O O15 0.067394 0.271052 0.501526
O O16 0.257885 0.230982 0.682183
O O17 0.355045 0.000000 0.601748
O O18 0.129655 0.000000 0.046853
O O19 0.649242 0.000000 0.216567
O O20 0.343992 0.500000 0.213846
#
# Coordination Sequence:
#
# PCOD9223162 Si02
#       8
#     8   8   8   8   8   8   8   8
#     4  10  19  31  46  67  95 130 167 194 223 274
#     4  10  20  32  49  72  95 120 152 191 237 284
#     4  12  24  34  46  66  93 127 165 202 238 274
#     4   8  13  23  43  72  98 120 153 195 232 269
#     4   8  13  24  44  69  95 121 156 199 232 264
#     4  10  20  35  51  67  90 121 157 196 236 281
#     4  10  17  27  47  73 100 129 156 186 230 278
#     4  10  19  32  49  68  93 130 168 198 232 273
#
# _framework density 7.9012349999999998
#
# number of rings (size 3 to 8) (size 9 to 14) (size 15 to 20)
#    0.000    2.250    2.500    3.000    0.000    3.500 
#    0.000    0.000    0.000    0.750    0.000    2.625 
#    0.000    0.000    0.000    0.000    0.000    0.000 
#
# Total GULP energy -178278.348627 kJ/mol
# GULP energy per Si atom -5571.198395 kJ/mol
# Density = 0.788325 g / cm^3
# Si number density = 7.901235 Si / 1000 Ang^3
#
#
#
# Elastic Constant Matrix: (Units=GPa)
#
#
# Indices 1 2 3 4 5 6 
#
# 1 19.7945 8.6780 16.3511 -0.0003 -6.1795 -0.0012
# 2 8.6780 11.5601 20.5666 -0.0020 -11.4478 0.0069
# 3 16.3511 20.5666 95.7803 -0.0012 -18.3381 0.0082
# 4 -0.0003 -0.0020 -0.0012 -6.1182 0.0003 2.1269
# 5 -6.1795 -11.4478 -18.3381 0.0003 13.2345 0.0017
# 6 -0.0012 0.0069 0.0082 2.1269 0.0017 20.5703
#
#
#
# Elastic Compliance Matrix: (Units=1/GPa)
#
#
# Indices 1 2 3 4 5 6 
#
# 1 0.098423 -0.206044 0.002880 0.000083 -0.128281 0.000075
# 2 -0.206044 1.175791 -0.055796 -0.000470 0.843538 -0.000403
# 3 0.002880 -0.055796 0.017622 0.000018 -0.022502 0.000012
# 4 0.000083 -0.000470 0.000018 -0.157775 -0.000342 0.016313
# 5 -0.128281 0.843538 -0.022502 -0.000342 0.714142 -0.000304
# 6 0.000075 -0.000403 0.000012 0.016313 -0.000304 0.046927
#
#
# Mechanical properties :
#
#
# Convention : Reuss Voigt Hill
#
# Bulk Modulus (GPa) = 1.29213 24.25848 12.77530
# Shear Modulus (GPa) = 1.87194 10.97327 6.42261
#
# Velocity S-wave (km/s) = 1.08957 2.63801 2.01820
# Velocity P-wave (km/s) = 1.54995 4.96620 3.67869
#
# Compressibility (1/GPa) = 0.77391608
#
# Stress axis : x y z
#
# Youngs Moduli (GPa) = 10.16019 0.85049 56.74853
#
# Poissons Ratio (x) = 0.17524 -0.16346
# Poissons Ratio (y) = 2.09345 3.16634
# Poissons Ratio (z) = -0.02927 0.04745
#
# Static dielectric constant tensor:
#      x y z
#    x 1.529430 0.000000 0.045030 
#    y 0.000000 1.525460 0.000000 
#    z 0.045030 0.000000 1.573600 
# 
# From -- ./inp_files/384519.got.cif
#   From: 2010.05.17/outbox.ucp.g08.bks.cvg/sg12_193_cif.got.tgz:384519.got - 2010.06.11 11:47:21.
