data_PCOD9223263
_publ_section_title
;
Structure prediction by ZEFSAII (Michael W. Deem and Ramdas Pophale) SiO2 
 PCOD9223263
Probable space group: C 2/M
;
_chemical_formula_sum "Si O2"
_cell_formula_units_Z 28
_cell_length_a 21.000000
_cell_length_b 9.000000
_cell_length_c 18.000000
_cell_angle_alpha 90.000000
_cell_angle_beta 60.000000
_cell_angle_gamma 90.000000
_cell_volume 2946.218424
_symmetry_space_group_name_H-M "C 2/M"
_symmetry_group_IT_number 12
_symmetry_cell_setting 'monoclinic'
loop_
_space_group_symop_operation_xyz
x,y,z
-x,y,-z
-x,-y,-z
x,-y,z
1/2+x,1/2+y,z
1/2-x,1/2+y,-z
1/2-x,1/2-y,-z
1/2+x,1/2-y,z
loop_
_atom_site_type_symbol
_atom_site_label
_atom_site_fract_x
_atom_site_fract_y
_atom_site_fract_z
Si Si1 0.905345 0.168728 0.693466
Si Si2 0.808558 0.675499 0.866431
Si Si3 0.589115 0.831539 0.457428
Si Si4 0.424822 0.681573 0.217658
Si Si5 0.417970 0.328052 0.388501
Si Si6 0.654055 0.320194 0.885661
Si Si7 0.089016 0.178465 0.076114
O O1 0.869202 0.286194 0.769267
O O2 0.886638 0.218891 0.620967
O O3 0.993065 0.170655 0.654960
O O4 0.880475 0.000000 0.723657
O O5 0.801696 0.500000 0.884470
O O6 0.732278 0.730146 0.873813
O O7 0.841807 0.753955 0.919904
O O8 0.500000 0.835207 0.500000
O O9 0.608674 0.771842 0.527573
O O10 0.615747 0.000000 0.430012
O O11 0.425239 0.500000 0.217257
O O12 0.401073 0.725283 0.314741
O O13 0.373593 0.731956 0.178907
O O14 0.509696 0.727162 0.153493
O O15 0.393836 0.500000 0.411021
O O16 0.659022 0.500000 0.877125
O O17 0.595965 0.286784 0.984822
O O18 0.093136 0.000000 0.082163
#
# Coordination Sequence:
#
# PCOD9223263 Si02
#       7
#     8   8   8   8   8   8   8
#     4  10  18  31  50  74  99 130 170 209 246 291
#     4  11  21  32  48  74 106 137 165 205 258 305
#     4   9  17  28  45  73 105 133 157 196 253 304
#     4   9  16  30  52  77 100 128 171 216 251 289
#     4   9  16  28  48  74  99 126 164 208 249 290
#     4   9  19  32  50  75 102 132 170 213 255 298
#     4  10  18  33  55  76  96 129 175 217 252 293
#
# _framework density 9.5037079999999996
#
# number of rings (size 3 to 8) (size 9 to 14) (size 15 to 20)
#    0.000    2.429    1.429    2.143    0.000    4.000 
#    0.000    0.714    0.000    6.857    0.000    0.000 
#    0.000    0.000    0.000    0.000    0.000    0.000 
#
# Total GULP energy -156069.047777 kJ/mol
# GULP energy per Si atom -5573.894563 kJ/mol
# Density = 0.948208 g / cm^3
# Si number density = 9.503708 Si / 1000 Ang^3
#
#
#
# Elastic Constant Matrix: (Units=GPa)
#
#
# Indices 1 2 3 4 5 6 
#
# 1 86.8896 13.3109 25.5615 0.0000 39.1738 0.0000
# 2 13.3109 26.6505 5.2179 0.0000 10.6422 0.0000
# 3 25.5615 5.2179 54.3395 0.0000 43.6085 0.0000
# 4 0.0000 0.0000 0.0000 17.1387 0.0000 5.2961
# 5 39.1738 10.6422 43.6085 0.0000 40.2208 0.0000
# 6 0.0000 0.0000 0.0000 5.2961 0.0000 19.1881
#
#
#
# Elastic Compliance Matrix: (Units=1/GPa)
#
#
# Indices 1 2 3 4 5 6 
#
# 1 47.870483 32.135471143.487123 0.000008********** -0.000041
# 2 32.135471 21.627577 96.372231 0.000005********** -0.000027
# 3 143.487123 96.372231430.274532 0.000024********** -0.000122
# 4 0.000008 0.000005 0.000024 0.063788 -0.000036 -0.017606
# 5 ****************************** -0.000036927.665025 0.000179
# 6 -0.000041 -0.000027 -0.000122 -0.017606 0.000179 0.056975
#
#
# Mechanical properties :
#
#
# Convention : Reuss Voigt Hill
#
# Bulk Modulus (GPa) = 0.00096 28.45111 14.22603
# Shear Modulus (GPa) = 0.00406 23.56212 11.78309
#
# Velocity S-wave (km/s) = 0.04627 3.52465 2.49252
# Velocity P-wave (km/s) = 0.05796 5.61829 3.97294
#
# Compressibility (1/GPa) = 1043.76224194
#
# Stress axis : x y z
#
# Youngs Moduli (GPa) = 0.02089 0.04624 0.00232
#
# Poissons Ratio (x) = -1.48586 -0.33348
# Poissons Ratio (y) = -0.67130 -0.22398
# Poissons Ratio (z) = -2.99740 -4.45599
#
# Static dielectric constant tensor:
#      x y z
#    x 1.659640 0.000000 -0.000960 
#    y 0.000000 1.647580 0.000000 
#    z -0.000960 0.000000 1.707030 
# 
# From -- ./inp_files/280228.got.cif
#   From: 2010.05.17/outbox.ucp.g08.bks.cvg/sg12_141_cif.got.tgz:280228.got - 2010.06.11 11:47:21.
