data_PCOD9223747
_publ_section_title
;
Structure prediction by ZEFSAII (Michael W. Deem and Ramdas Pophale) SiO2 
 PCOD9223747
Probable space group: C 2/M
;
_chemical_formula_sum "Si O2"
_cell_formula_units_Z 32
_cell_length_a 24.000000
_cell_length_b 9.000000
_cell_length_c 30.000000
_cell_angle_alpha 90.000000
_cell_angle_beta 30.000000
_cell_angle_gamma 90.000000
_cell_volume 3240.000000
_symmetry_space_group_name_H-M "C 2/M"
_symmetry_group_IT_number 12
_symmetry_cell_setting 'monoclinic'
loop_
_space_group_symop_operation_xyz
x,y,z
-x,y,-z
-x,-y,-z
x,-y,z
1/2+x,1/2+y,z
1/2-x,1/2+y,-z
1/2-x,1/2-y,-z
1/2+x,1/2-y,z
loop_
_atom_site_type_symbol
_atom_site_label
_atom_site_fract_x
_atom_site_fract_y
_atom_site_fract_z
Si Si1 0.730403 0.174199 0.202417
Si Si2 0.105087 0.179713 0.458459
Si Si3 0.860156 0.678909 0.284944
Si Si4 0.506137 0.321973 0.623015
Si Si5 0.790050 0.323522 0.889042
Si Si6 0.969608 0.177309 0.290305
Si Si7 0.443222 0.168700 0.087572
Si Si8 0.444347 0.676278 0.910662
O O1 0.608007 0.229918 0.299882
O O2 0.745366 0.193230 0.138487
O O3 0.818434 0.275361 0.166992
O O4 0.745707 0.000000 0.201708
O O5 0.233533 0.225778 0.358118
O O6 0.078747 0.214982 0.528864
O O7 0.000000 0.230933 0.500000
O O8 0.105594 0.000000 0.454459
O O9 0.865194 0.500000 0.279767
O O10 0.882388 0.737715 0.319534
O O11 0.965763 0.744589 0.184047
O O12 0.483204 0.500000 0.636928
O O13 0.549253 0.293208 0.643724
O O14 0.811331 0.500000 0.881694
O O15 0.906401 0.234287 0.810300
O O16 0.686931 0.277739 0.992812
O O17 0.963959 0.000000 0.287288
O O18 0.506167 0.283196 0.075404
O O19 0.447687 0.000000 0.102709
O O20 0.500000 0.167433 0.000000
O O21 0.445345 0.500000 0.901209
#
# Coordination Sequence:
#
# PCOD9223747 Si02
#       8
#     8   8   8   8   8   8   8   8
#     4  10  19  33  54  84 120 156 196 246 303 356
#     4   9  20  40  64  90 122 156 196 248 307 368
#     4  11  24  41  62  89 119 159 206 251 304 369
#     4   9  19  37  63  91 117 154 201 249 303 363
#     4   9  19  36  58  84 118 158 198 241 296 357
#     4  10  21  38  62  91 122 156 199 253 302 353
#     4  11  22  34  53  82 118 162 209 251 292 353
#     4  11  23  39  58  84 122 164 202 251 308 357
#
# _framework density 9.8765429999999999
#
# number of rings (size 3 to 8) (size 9 to 14) (size 15 to 20)
#    0.000    2.000    1.250    1.875    1.750    3.500 
#    0.000    1.250    0.000    1.875    0.000    0.000 
#    0.000    0.000    0.000    0.000    0.000    0.000 
#
# Total GULP energy -178546.875114 kJ/mol
# GULP energy per Si atom -5579.589847 kJ/mol
# Density = 0.985406 g / cm^3
# Si number density = 9.876543 Si / 1000 Ang^3
#
#
#
# Elastic Constant Matrix: (Units=GPa)
#
#
# Indices 1 2 3 4 5 6 
#
# 1 73.8877 12.1736 27.8236 -0.0021 -5.0265 0.0026
# 2 12.1736 39.7494 23.2741 -0.0023 0.1104 -0.0004
# 3 27.8236 23.2741 103.5871 -0.0002 9.3358 0.0002
# 4 -0.0021 -0.0023 -0.0002 27.2172 0.0010 -0.4239
# 5 -5.0265 0.1104 9.3358 0.0010 26.2403 -0.0021
# 6 0.0026 -0.0004 0.0002 -0.4239 -0.0021 28.6104
#
#
#
# Elastic Compliance Matrix: (Units=1/GPa)
#
#
# Indices 1 2 3 4 5 6 
#
# 1 0.015785 -0.002449 -0.004094 0.000001 0.004491 -0.000001
# 2 -0.002449 0.029480 -0.006108 0.000002 0.001580 0.000001
# 3 -0.004094 -0.006108 0.012598 -0.000001 -0.005241 0.000000
# 4 0.000001 0.000002 -0.000001 0.036750 -0.000001 0.000545
# 5 0.004491 0.001580 -0.005241 -0.000001 0.040827 0.000003
# 6 -0.000001 0.000001 0.000000 0.000545 0.000003 0.034960
#
#
# Mechanical properties :
#
#
# Convention : Reuss Voigt Hill
#
# Bulk Modulus (GPa) = 30.71314 38.19632 34.45473
# Shear Modulus (GPa) = 24.20638 26.67710 25.44174
#
# Velocity S-wave (km/s) = 3.50444 3.67894 3.59275
# Velocity P-wave (km/s) = 5.65306 6.11760 5.88991
#
# Compressibility (1/GPa) = 0.03255935
#
# Stress axis : x y z
#
# Youngs Moduli (GPa) = 63.35191 33.92154 79.37705
#
# Poissons Ratio (x) = 0.08309 0.32499
# Poissons Ratio (y) = 0.15518 0.48484
# Poissons Ratio (z) = 0.25938 0.20719
#
# Static dielectric constant tensor:
#      x y z
#    x 1.732000 0.000000 0.010570 
#    y 0.000000 1.658270 0.000000 
#    z 0.010570 0.000000 1.705110 
# 
# From -- ./inp_files/382271.got.cif
#   From: 2010.05.17/outbox.ucp.g08.bks.cvg/sg12_192_cif.got.tgz:382271.got - 2010.06.11 11:47:21.
