data_PCOD9223651
_publ_section_title
;
Structure prediction by ZEFSAII (Michael W. Deem and Ramdas Pophale) SiO2 
 PCOD9223651
Probable space group: C 2/M
;
_chemical_formula_sum "Si O2"
_cell_formula_units_Z 24
_cell_length_a 30.000000
_cell_length_b 9.000000
_cell_length_c 9.000000
_cell_angle_alpha 90.000000
_cell_angle_beta 90.000000
_cell_angle_gamma 90.000000
_cell_volume 2430.000000
_symmetry_space_group_name_H-M "C 2/M"
_symmetry_group_IT_number 12
_symmetry_cell_setting 'monoclinic'
loop_
_space_group_symop_operation_xyz
x,y,z
-x,y,-z
-x,-y,-z
x,-y,z
1/2+x,1/2+y,z
1/2-x,1/2+y,-z
1/2-x,1/2-y,-z
1/2+x,1/2-y,z
loop_
_atom_site_type_symbol
_atom_site_label
_atom_site_fract_x
_atom_site_fract_y
_atom_site_fract_z
Si Si1 0.715541 0.332950 0.108590
Si Si2 0.873398 0.834453 0.086209
Si Si3 0.657022 0.174462 0.336413
Si Si4 0.516213 0.179897 0.665859
Si Si5 0.932973 0.674465 0.863750
Si Si6 0.117478 0.676760 0.638357
O O1 0.731775 0.500000 0.137948
O O2 0.699001 0.251002 0.257605
O O3 0.750000 0.250000 0.000000
O O4 0.668117 0.342192 0.024329
O O5 0.858421 0.720519 0.211958
O O6 0.881563 0.000000 0.144779
O O7 0.916671 0.770925 0.001976
O O8 0.609692 0.182561 0.247014
O O9 0.643435 0.237441 0.496661
O O10 0.667608 0.000000 0.346574
O O11 0.500000 0.213721 0.500000
O O12 0.478386 0.226846 0.783847
O O13 0.567099 0.233616 0.667046
O O14 0.517247 0.000000 0.680904
O O15 0.938161 0.500000 0.906232
O O16 0.113967 0.500000 0.616945
#
# Coordination Sequence:
#
# PCOD9223651 Si02
#       6
#     8   8   8   8   8   8
#     4  10  21  38  60  81 101 130 169 212 258 314
#     4  10  22  37  51  73 109 142 169 209 262 314
#     4   9  17  31  54  81 106 134 171 214 260 308
#     4   9  15  27  50  79 106 134 179 228 258 287
#     4   9  16  30  53  76 101 138 181 222 258 296
#     4  10  19  32  53  80 108 140 177 217 258 300
#
# _framework density 9.8765429999999999
#
# number of rings (size 3 to 8) (size 9 to 14) (size 15 to 20)
#    0.000    2.500    1.667    1.000    0.000    3.333 
#    0.000    5.000    0.000    1.000    0.000    0.000 
#    0.000    0.000    0.000    0.000    0.000    0.000 
#
# Total GULP energy -133638.045457 kJ/mol
# GULP energy per Si atom -5568.251894 kJ/mol
# Density = 0.985406 g / cm^3
# Si number density = 9.876543 Si / 1000 Ang^3
#
#
#
# Elastic Constant Matrix: (Units=GPa)
#
#
# Indices 1 2 3 4 5 6 
#
# 1 57.1383 42.2349 35.7610 0.0000 -49.5962 0.0000
# 2 42.2349 37.7756 25.0146 0.0000 -32.9829 0.0000
# 3 35.7610 25.0146 87.7025 0.0000 -44.9191 0.0000
# 4 0.0000 0.0000 0.0000 14.0096 0.0000 -1.5713
# 5 -49.5962 -32.9829 -44.9191 0.0000 42.5824 0.0000
# 6 0.0000 0.0000 0.0000 -1.5713 0.0000 14.6647
#
#
#
# Elastic Compliance Matrix: (Units=1/GPa)
#
#
# Indices 1 2 3 4 5 6 
#
# 1 -0.134587 -0.002679 -0.055918 0.000000 -0.217817 0.000000
# 2 -0.002679 0.101402 0.023493 0.000000 0.100204 0.000000
# 3 -0.055918 0.023493 0.007537 0.000000 -0.038982 0.000000
# 4 0.000000 0.000000 0.000000 0.072248 0.000000 0.007741
# 5 -0.217817 0.100204 -0.038982 0.000000 -0.193717 0.000000
# 6 0.000000 0.000000 0.000000 0.007741 0.000000 0.069021
#
#
# Mechanical properties :
#
#
# Convention : Reuss Voigt Hill
#
# Bulk Modulus (GPa) = -10.43213 43.18195 16.37491
# Shear Modulus (GPa) = -125.50210 19.55837 -52.97186
#
# Velocity S-wave (km/s) = -7.97956 3.15007 -5.18413
# Velocity P-wave (km/s) = 9.49687 5.92781 5.24651
#
# Compressibility (1/GPa) = -0.09585773
#
# Stress axis : x y z
#
# Youngs Moduli (GPa) = -7.43013 9.86178 132.67814
#
# Poissons Ratio (x) = 0.02642 7.41916
# Poissons Ratio (y) = -0.01990 -3.11696
# Poissons Ratio (z) = -0.41548 -0.23168
#
# Static dielectric constant tensor:
#      x y z
#    x 1.691630 0.000000 0.034100 
#    y 0.000000 1.703120 0.000000 
#    z 0.034100 0.000000 1.745120 
# 
# From -- ./inp_files/108765.got.cif
#   From: 2010.05.17/outbox.ucp.g08.bks.cvg/sg12_55_cif.got.tgz:108765.got - 2010.06.11 11:47:21.
