data_PCOD9223615
_publ_section_title
;
Structure prediction by ZEFSAII (Michael W. Deem and Ramdas Pophale) SiO2 
 PCOD9223615
Probable space group: C 2/M
;
_chemical_formula_sum "Si O2"
_cell_formula_units_Z 32
_cell_length_a 30.000000
_cell_length_b 9.000000
_cell_length_c 15.000000
_cell_angle_alpha 90.000000
_cell_angle_beta 130.000000
_cell_angle_gamma 90.000000
_cell_volume 3102.479995
_symmetry_space_group_name_H-M "C 2/M"
_symmetry_group_IT_number 12
_symmetry_cell_setting 'monoclinic'
loop_
_space_group_symop_operation_xyz
x,y,z
-x,y,-z
-x,-y,-z
x,-y,z
1/2+x,1/2+y,z
1/2-x,1/2+y,-z
1/2-x,1/2-y,-z
1/2+x,1/2-y,z
loop_
_atom_site_type_symbol
_atom_site_label
_atom_site_fract_x
_atom_site_fract_y
_atom_site_fract_z
Si Si1 0.437655 0.178689 0.675341
Si Si2 0.414191 0.323541 0.823770
Si Si3 0.110526 0.679315 0.022761
Si Si4 0.296090 0.169054 0.620681
Si Si5 0.741002 0.836281 0.224498
Si Si6 0.648281 0.829693 0.580006
Si Si7 0.430939 0.664474 0.400106
Si Si8 0.447464 0.326162 0.221180
O O1 0.448215 0.239415 0.788894
O O2 0.376466 0.223732 0.548568
O O3 0.488912 0.255506 0.686600
O O4 0.441581 0.000000 0.678875
O O5 0.424231 0.500000 0.837009
O O6 0.419274 0.254811 0.928998
O O7 0.349426 0.278669 0.708587
O O8 0.107655 0.500000 0.029100
O O9 0.179104 0.722651 0.110745
O O10 0.083251 0.735789 0.896593
O O11 0.250000 0.250000 0.500000
O O12 0.268189 0.150025 0.681462
O O13 0.313422 0.000000 0.613735
O O14 0.798766 0.741679 0.297961
O O15 0.750086 0.000000 0.196868
O O16 0.594709 0.796813 0.575758
O O17 0.662621 0.000000 0.585440
O O18 0.500000 0.660293 0.500000
O O19 0.409081 0.500000 0.402707
O O20 0.417000 0.682084 0.277906
O O21 0.452361 0.500000 0.203231
#
# Coordination Sequence:
#
# PCOD9223615 Si02
#       8
#     8   8   8   8   8   8   8   8
#     4  11  23  38  57  87 124 159 196 245 300 353
#     4  11  22  36  56  83 116 157 202 248 291 348
#     4  10  22  42  63  85 118 160 201 245 296 349
#     4  10  19  32  51  78 112 154 199 245 297 351
#     4   9  20  37  57  80 113 156 196 236 290 351
#     4  11  23  36  59  92 123 153 193 246 296 348
#     4  10  21  40  64  89 120 155 189 235 297 361
#     4  11  23  40  64  91 116 152 199 244 294 357
#
# _framework density 10.314329000000001
#
# number of rings (size 3 to 8) (size 9 to 14) (size 15 to 20)
#    0.000    1.625    1.250    4.500    0.000    8.250 
#    0.000    3.125    0.000    0.000    0.000    0.000 
#    0.000    0.000    0.000    0.000    0.000    0.000 
#
# Total GULP energy -178420.227886 kJ/mol
# GULP energy per Si atom -5575.632121 kJ/mol
# Density = 1.029085 g / cm^3
# Si number density = 10.314329 Si / 1000 Ang^3
#
#
#
# Elastic Constant Matrix: (Units=GPa)
#
#
# Indices 1 2 3 4 5 6 
#
# 1 26.6437 -0.5683 6.0800 0.0000 -1.8136 0.0000
# 2 -0.5683 48.9350 7.9586 0.0000 -1.4691 0.0000
# 3 6.0800 7.9586 77.2507 0.0000 -10.3619 0.0000
# 4 0.0000 0.0000 0.0000 13.7738 0.0000 -0.9482
# 5 -1.8136 -1.4691 -10.3619 0.0000 25.3307 0.0000
# 6 0.0000 0.0000 0.0000 -0.9482 0.0000 21.4755
#
#
#
# Elastic Compliance Matrix: (Units=1/GPa)
#
#
# Indices 1 2 3 4 5 6 
#
# 1 0.038324 0.000965 -0.002899 0.000000 0.001614 0.000000
# 2 0.000965 0.020811 -0.002168 0.000000 0.000389 0.000000
# 3 -0.002899 -0.002168 0.014127 0.000000 0.005445 0.000000
# 4 0.000000 0.000000 0.000000 0.072823 0.000000 0.003215
# 5 0.001614 0.000389 0.005445 0.000000 0.041843 0.000000
# 6 0.000000 0.000000 0.000000 0.003215 0.000000 0.046707
#
#
# Mechanical properties :
#
#
# Convention : Reuss Voigt Hill
#
# Bulk Modulus (GPa) = 15.37090 19.97445 17.67267
# Shear Modulus (GPa) = 18.90180 21.40660 20.15420
#
# Velocity S-wave (km/s) = 3.03031 3.22485 3.12909
# Velocity P-wave (km/s) = 4.43972 4.85490 4.65195
#
# Compressibility (1/GPa) = 0.06505799
#
# Stress axis : x y z
#
# Youngs Moduli (GPa) = 26.09308 48.05218 70.78743
#
# Poissons Ratio (x) = -0.04637 0.20523
# Poissons Ratio (y) = -0.02518 0.15345
# Poissons Ratio (z) = 0.07565 0.10416
#
# Static dielectric constant tensor:
#      x y z
#    x 1.864090 0.000000 0.043150 
#    y 0.000000 1.725340 0.000000 
#    z 0.043150 0.000000 1.748530 
# 
# From -- ./inp_files/250012.got.cif
#   From: 2010.05.17/outbox.ucp.g08.bks.cvg/sg12_126_cif.got.tgz:250012.got - 2010.06.11 11:47:21.
