data_PCOD9223834
_publ_section_title
;
Structure prediction by ZEFSAII (Michael W. Deem and Ramdas Pophale) SiO2 
 PCOD9223834
Probable space group: C 2/M
;
_chemical_formula_sum "Si O2"
_cell_formula_units_Z 28
_cell_length_a 15.000000
_cell_length_b 9.000000
_cell_length_c 21.000000
_cell_angle_alpha 90.000000
_cell_angle_beta 90.000000
_cell_angle_gamma 90.000000
_cell_volume 2835.000000
_symmetry_space_group_name_H-M "C 2/M"
_symmetry_group_IT_number 12
_symmetry_cell_setting 'monoclinic'
loop_
_space_group_symop_operation_xyz
x,y,z
-x,y,-z
-x,-y,-z
x,-y,z
1/2+x,1/2+y,z
1/2-x,1/2+y,-z
1/2-x,1/2-y,-z
1/2+x,1/2-y,z
loop_
_atom_site_type_symbol
_atom_site_label
_atom_site_fract_x
_atom_site_fract_y
_atom_site_fract_z
Si Si1 0.271144 0.827890 0.067456
Si Si2 0.346949 0.322659 0.515075
Si Si3 0.393740 0.175179 0.281131
Si Si4 0.775938 0.820921 0.792947
Si Si5 0.989883 0.823122 0.401061
Si Si6 0.973732 0.827246 0.806926
Si Si7 0.516700 0.830869 0.926598
O O1 0.235249 0.762359 0.134575
O O2 0.376975 0.826949 0.079362
O O3 0.241375 0.000000 0.061803
O O4 0.250000 0.750000 0.000000
O O5 0.332223 0.500000 0.522531
O O6 0.250000 0.250000 0.500000
O O7 0.415611 0.300823 0.456313
O O8 0.411357 0.272298 0.574408
O O9 0.295734 0.231493 0.259278
O O10 0.445753 0.250181 0.339372
O O11 0.454244 0.214908 0.220703
O O12 0.388350 0.000000 0.293260
O O13 0.878341 0.798645 0.774897
O O14 0.761718 0.000000 0.797995
O O15 0.997869 0.000000 0.390817
O O16 0.970452 0.788014 0.881295
O O17 0.997692 0.000000 0.797149
O O18 0.485529 0.000000 0.912447
O O19 0.500000 0.799741 0.000000
#
# Coordination Sequence:
#
# PCOD9223834 Si02
#       7
#     8   8   8   8   8   8   8
#     4  10  19  34  53  75 106 140 178 229 284 345
#     4   9  19  37  62  89 125 161 195 239 284 333
#     4  11  22  40  61  82 115 156 195 238 289 347
#     4   9  20  38  56  75 108 148 183 229 290 344
#     4   9  20  39  59  86 122 160 195 237 288 335
#     4  11  22  37  58  82 109 145 190 239 289 348
#     4  10  20  35  55  79 110 144 181 234 294 348
#
# _framework density 9.8765429999999999
#
# number of rings (size 3 to 8) (size 9 to 14) (size 15 to 20)
#    0.000    2.143    1.429    2.571    0.000    3.143 
#    0.000    9.286    0.000    0.000    0.000    0.000 
#    0.000    0.000    0.000    0.000    0.000    0.000 
#
# Total GULP energy -156043.919660 kJ/mol
# GULP energy per Si atom -5572.997131 kJ/mol
# Density = 0.985406 g / cm^3
# Si number density = 9.876543 Si / 1000 Ang^3
#
#
#
# Elastic Constant Matrix: (Units=GPa)
#
#
# Indices 1 2 3 4 5 6 
#
# 1 102.7024 22.2958 20.2321 0.0000 38.4702 0.0000
# 2 22.2958 23.8921 25.1640 0.0000 17.7065 0.0000
# 3 20.2321 25.1640 61.8301 0.0000 37.3099 0.0000
# 4 0.0000 0.0000 0.0000 33.4430 0.0000 3.2470
# 5 38.4702 17.7065 37.3099 0.0000 36.0185 0.0000
# 6 0.0000 0.0000 0.0000 3.2470 0.0000 23.2778
#
#
#
# Elastic Compliance Matrix: (Units=1/GPa)
#
#
# Indices 1 2 3 4 5 6 
#
# 1 0.025873 -0.017977 0.027185 0.000000 -0.046956 0.000000
# 2 -0.017977 0.088365 -0.041218 0.000000 0.018457 0.000000
# 3 0.027185 -0.041218 0.078271 0.000000 -0.089850 0.000000
# 4 0.000000 0.000000 0.000000 0.030312 0.000000 -0.004228
# 5 -0.046956 0.018457 -0.089850 0.000000 0.161914 0.000000
# 6 0.000000 0.000000 0.000000 -0.004228 0.000000 0.043549
#
#
# Mechanical properties :
#
#
# Convention : Reuss Voigt Hill
#
# Bulk Modulus (GPa) = 7.78281 35.97871 21.88076
# Shear Modulus (GPa) = 9.34346 26.59670 17.97008
#
# Velocity S-wave (km/s) = 2.17725 3.67339 3.01945
# Velocity P-wave (km/s) = 3.20455 6.02042 4.82258
#
# Compressibility (1/GPa) = 0.12848826
#
# Stress axis : x y z
#
# Youngs Moduli (GPa) = 38.65026 11.31673 12.77617
#
# Poissons Ratio (x) = 0.20344 -0.34732
# Poissons Ratio (y) = 0.69481 0.52661
# Poissons Ratio (z) = -1.05070 0.46645
#
# Static dielectric constant tensor:
#      x y z
#    x 1.748280 0.000000 -0.042540 
#    y 0.000000 1.683650 0.000000 
#    z -0.042540 0.000000 1.778020 
# 
# From -- ./inp_files/309033.got.cif
#   From: 2010.05.17/outbox.ucp.g08.bks.cvg/sg12_155_cif.got.tgz:309033.got - 2010.06.11 11:47:21.
