data_PCOD9223682
_publ_section_title
;
Structure prediction by ZEFSAII (Michael W. Deem and Ramdas Pophale) SiO2 
 PCOD9223682
Probable space group: C 2/M
;
_chemical_formula_sum "Si O2"
_cell_formula_units_Z 26
_cell_length_a 21.000000
_cell_length_b 18.000000
_cell_length_c 15.000000
_cell_angle_alpha 90.000000
_cell_angle_beta 30.000000
_cell_angle_gamma 90.000000
_cell_volume 2835.000000
_symmetry_space_group_name_H-M "C 2/M"
_symmetry_group_IT_number 12
_symmetry_cell_setting 'monoclinic'
loop_
_space_group_symop_operation_xyz
x,y,z
-x,y,-z
-x,-y,-z
x,-y,z
1/2+x,1/2+y,z
1/2-x,1/2+y,-z
1/2-x,1/2-y,-z
1/2+x,1/2-y,z
loop_
_atom_site_type_symbol
_atom_site_label
_atom_site_fract_x
_atom_site_fract_y
_atom_site_fract_z
Si Si1 0.276480 0.677389 0.658651
Si Si2 0.600758 0.661522 0.007047
Si Si3 0.182059 0.838457 0.711436
Si Si4 0.816829 0.589066 0.385558
Si Si5 0.188559 0.675803 0.117735
Si Si6 0.592168 0.158502 0.041286
Si Si7 0.500000 0.243004 0.500000
O O1 0.212805 0.750639 0.688400
O O2 0.281495 0.619935 0.570438
O O3 0.402493 0.708462 0.556893
O O4 0.191120 0.641321 0.841389
O O5 0.669023 0.639003 0.831173
O O6 0.692668 0.636066 0.975965
O O7 0.453050 0.642278 0.171544
O O8 0.589942 0.751355 0.033371
O O9 0.283629 0.875964 0.522842
O O10 0.816091 0.500000 0.390051
O O11 0.955953 0.620838 0.190045
O O12 0.131300 0.639582 0.096707
O O13 0.086898 0.697789 0.320552
O O14 0.250000 0.750000 0.000000
#
# Coordination Sequence:
#
# PCOD9223682 Si02
#       7
#     8   8   8   8   8   8   4
#     4  11  22  36  60  91 117 156 197 250 301 352
#     4   9  18  34  59  93 117 148 187 254 301 345
#     4  10  19  37  61  89 116 150 203 248 295 349
#     4  12  26  39  58  86 122 164 202 247 300 361
#     4  10  19  32  55  96 127 145 183 250 318 356
#     4  10  20  36  57  85 123 148 197 240 302 359
#     4  12  20  32  57  94 127 150 188 254 308 356
#
# _framework density 9.1710759999999993
#
# number of rings (size 3 to 8) (size 9 to 14) (size 15 to 20)
#    0.000    1.538    6.154    1.846    4.308    1.231 
#    0.000    1.923    0.000    4.615    0.000    0.000 
#    0.000    0.000    0.000    0.000    0.000    0.000 
#
# Total GULP energy -144736.372774 kJ/mol
# GULP energy per Si atom -5566.783568 kJ/mol
# Density = 0.915020 g / cm^3
# Si number density = 9.171076 Si / 1000 Ang^3
#
#
#
# Elastic Constant Matrix: (Units=GPa)
#
#
# Indices 1 2 3 4 5 6 
#
# 1 140.6739 24.6340 31.5429 0.0000 -0.8628 0.0000
# 2 24.6340 40.6775 21.3847 0.0000 10.4249 0.0000
# 3 31.5429 21.3847 95.7306 0.0000 12.2831 0.0000
# 4 0.0000 0.0000 0.0000 11.4911 0.0000 -0.3783
# 5 -0.8628 10.4249 12.2831 0.0000 35.0736 0.0000
# 6 0.0000 0.0000 0.0000 -0.3783 0.0000 10.7871
#
#
#
# Elastic Compliance Matrix: (Units=1/GPa)
#
#
# Indices 1 2 3 4 5 6 
#
# 1 0.008382 -0.004595 -0.002028 0.000000 0.002282 0.000000
# 2 -0.004595 0.031810 -0.004570 0.000000 -0.007968 0.000000
# 3 -0.002028 -0.004570 0.012530 0.000000 -0.003080 0.000000
# 4 0.000000 0.000000 0.000000 0.087124 0.000000 0.003055
# 5 0.002282 -0.007968 -0.003080 0.000000 0.032014 0.000000
# 6 0.000000 0.000000 0.000000 0.003055 0.000000 0.092811
#
#
# Mechanical properties :
#
#
# Convention : Reuss Voigt Hill
#
# Bulk Modulus (GPa) = 32.96263 48.02281 40.49272
# Shear Modulus (GPa) = 16.82539 24.77173 20.79856
#
# Velocity S-wave (km/s) = 3.03199 3.67895 3.37103
# Velocity P-wave (km/s) = 5.50157 6.65468 6.10541
#
# Compressibility (1/GPa) = 0.03033738
#
# Stress axis : x y z
#
# Youngs Moduli (GPa) = 119.30286 31.43623 79.80679
#
# Poissons Ratio (x) = 0.14444 0.16187
# Poissons Ratio (y) = 0.54816 0.36469
# Poissons Ratio (z) = 0.24198 0.14365
#
# Static dielectric constant tensor:
#      x y z
#    x 1.670390 0.000000 -0.024550 
#    y 0.000000 1.616020 0.000000 
#    z -0.024550 0.000000 1.679410 
# 
# From -- ./inp_files/234423.got.cif
#   From: 2010.05.17/outbox.ucp.g08.bks.cvg/sg12_118_cif.got.tgz:234423.got - 2010.06.11 11:47:21.
