data_PCOD9223983
_publ_section_title
;
Structure prediction by ZEFSAII (Michael W. Deem and Ramdas Pophale) SiO2 
 PCOD9223983
Probable space group: C 2/M
;
_chemical_formula_sum "Si O2"
_cell_formula_units_Z 32
_cell_length_a 21.000000
_cell_length_b 9.000000
_cell_length_c 24.000000
_cell_angle_alpha 90.000000
_cell_angle_beta 130.000000
_cell_angle_gamma 90.000000
_cell_volume 3474.777594
_symmetry_space_group_name_H-M "C 2/M"
_symmetry_group_IT_number 12
_symmetry_cell_setting 'monoclinic'
loop_
_space_group_symop_operation_xyz
x,y,z
-x,y,-z
-x,-y,-z
x,-y,z
1/2+x,1/2+y,z
1/2-x,1/2+y,-z
1/2-x,1/2-y,-z
1/2+x,1/2-y,z
loop_
_atom_site_type_symbol
_atom_site_label
_atom_site_fract_x
_atom_site_fract_y
_atom_site_fract_z
Si Si1 0.535825 0.671286 0.287708
Si Si2 0.174282 0.674737 0.926371
Si Si3 0.511258 0.327063 0.441139
Si Si4 0.403605 0.823260 0.293381
Si Si5 0.746789 0.325916 0.148681
Si Si6 0.835738 0.170241 0.540552
Si Si7 0.921957 0.678544 0.920114
Si Si8 0.514282 0.820531 0.162999
O O1 0.515538 0.500000 0.264950
O O2 0.460208 0.747647 0.278002
O O3 0.612431 0.677426 0.373192
O O4 0.553139 0.755851 0.240608
O O5 0.175244 0.500000 0.939651
O O6 0.196729 0.693189 0.874256
O O7 0.082607 0.729740 0.891063
O O8 0.250000 0.750000 0.000000
O O9 0.500000 0.324229 0.500000
O O10 0.504526 0.500000 0.417773
O O11 0.441774 0.231153 0.372170
O O12 0.600856 0.270886 0.470647
O O13 0.307761 0.780583 0.232799
O O14 0.409408 0.000000 0.289731
O O15 0.726124 0.500000 0.141218
O O16 0.662962 0.235318 0.101789
O O17 0.750000 0.250000 0.500000
O O18 0.818407 0.000000 0.516584
O O19 0.921537 0.500000 0.920742
O O20 0.937946 0.726544 0.865634
O O21 0.000000 0.730707 0.000000
O O22 0.513765 0.000000 0.165079
#
# Coordination Sequence:
#
# PCOD9223983 Si02
#       8
#     8   8   8   8   8   8   8   8
#     4  10  20  35  57  84 112 144 184 228 275 324
#     4  10  20  35  55  81 108 137 178 226 272 321
#     4   9  19  37  58  82 114 146 183 229 271 319
#     4  10  19  35  58  83 112 146 184 228 277 326
#     4  10  21  37  56  79 111 145 179 226 278 327
#     4   9  19  35  55  81 110 143 179 219 267 318
#     4  10  22  39  58  79 108 147 186 228 276 330
#     4  10  20  37  57  79 110 144 183 227 273 326
#
# _framework density 9.2092220000000005
#
# number of rings (size 3 to 8) (size 9 to 14) (size 15 to 20)
#    0.000    2.250    1.250    2.250    0.000    6.500 
#    2.250    0.000    0.000    0.000    0.000    0.000 
#    0.000    0.000    0.000    0.000    0.000    0.000 
#
# Total GULP energy -178377.560359 kJ/mol
# GULP energy per Si atom -5574.298761 kJ/mol
# Density = 0.918826 g / cm^3
# Si number density = 9.209222 Si / 1000 Ang^3
#
#
#
# Elastic Constant Matrix: (Units=GPa)
#
#
# Indices 1 2 3 4 5 6 
#
# 1 -76.9689 1.6672 -4.0786 0.0000 17.3684 0.0000
# 2 1.6672 16.2623 27.0684 0.0000 7.1438 0.0000
# 3 -4.0786 27.0684 42.0566 0.0000 9.0645 0.0000
# 4 0.0000 0.0000 0.0000 27.4822 0.0000 -1.2658
# 5 17.3684 7.1438 9.0645 0.0000 30.1083 0.0000
# 6 0.0000 0.0000 0.0000 -1.2658 0.0000 20.6876
#
#
#
# Elastic Compliance Matrix: (Units=1/GPa)
#
#
# Indices 1 2 3 4 5 6 
#
# 1 -0.012583 -0.035506 0.019519 0.000000 0.009807 0.000000
# 2 -0.035506 -0.919685 0.574301 0.000000 0.065797 0.000000
# 3 0.019519 0.574301 -0.333825 0.000000 -0.047022 0.000000
# 4 0.000000 0.000000 0.000000 0.036490 0.000000 0.002233
# 5 0.009807 0.065797 -0.047022 0.000000 0.026101 0.000000
# 6 0.000000 0.000000 0.000000 0.002233 0.000000 0.048475
#
#
# Mechanical properties :
#
#
# Convention : Reuss Voigt Hill
#
# Bulk Modulus (GPa) = -6.69045 3.40712 -1.64167
# Shear Modulus (GPa) = -2.15380 12.76850 5.30735
#
# Velocity S-wave (km/s) = -1.08255 2.63581 1.69935
# Velocity P-wave (km/s) = 2.28099 3.33425 1.71963
#
# Compressibility (1/GPa) = -0.14946671
#
# Stress axis : x y z
#
# Youngs Moduli (GPa) = -79.47417 -1.08733 -2.99558
#
# Poissons Ratio (x) = -0.03861 0.05847
# Poissons Ratio (y) = -2.82185 1.72037
# Poissons Ratio (z) = 1.55123 0.62445
#
# Static dielectric constant tensor:
#      x y z
#    x 1.642110 0.000000 -0.023910 
#    y 0.000000 1.632210 0.000000 
#    z -0.023910 0.000000 1.664820 
# 
# From -- ./inp_files/346310.got.cif
#   From: 2010.05.17/outbox.ucp.g08.bks.cvg/sg12_174_cif.got.tgz:346310.got - 2010.06.11 11:47:21.
