data_PCOD9223855
_publ_section_title
;
Structure prediction by ZEFSAII (Michael W. Deem and Ramdas Pophale) SiO2 
 PCOD9223855
Probable space group: C 2/M
;
_chemical_formula_sum "Si O2"
_cell_formula_units_Z 32
_cell_length_a 18.000000
_cell_length_b 9.000000
_cell_length_c 30.000000
_cell_angle_alpha 90.000000
_cell_angle_beta 40.000000
_cell_angle_gamma 90.000000
_cell_volume 3123.947783
_symmetry_space_group_name_H-M "C 2/M"
_symmetry_group_IT_number 12
_symmetry_cell_setting 'monoclinic'
loop_
_space_group_symop_operation_xyz
x,y,z
-x,y,-z
-x,-y,-z
x,-y,z
1/2+x,1/2+y,z
1/2-x,1/2+y,-z
1/2-x,1/2-y,-z
1/2+x,1/2-y,z
loop_
_atom_site_type_symbol
_atom_site_label
_atom_site_fract_x
_atom_site_fract_y
_atom_site_fract_z
Si Si1 0.815495 0.325540 0.904598
Si Si2 0.898047 0.167161 0.375379
Si Si3 0.910894 0.676032 0.960745
Si Si4 0.457420 0.827520 0.431289
Si Si5 0.331864 0.178875 0.172494
Si Si6 0.663092 0.829492 0.429303
Si Si7 0.223083 0.325519 0.306196
Si Si8 0.892853 0.178936 0.781814
O O1 0.810092 0.500000 0.898559
O O2 0.873583 0.303123 0.926260
O O3 0.887585 0.246494 0.833104
O O4 0.686240 0.258939 0.966236
O O5 0.777611 0.161973 0.405985
O O6 0.884075 0.253314 0.427172
O O7 0.996587 0.229514 0.297377
O O8 0.936385 0.000000 0.369240
O O9 0.904665 0.500000 0.973839
O O10 0.043464 0.726601 0.903538
O O11 0.432014 0.766794 0.492513
O O12 0.588712 0.815061 0.353950
O O13 0.428489 0.000000 0.447829
O O14 0.303984 0.244178 0.233983
O O15 0.225008 0.220061 0.189844
O O16 0.335033 0.000000 0.174405
O O17 0.709001 0.759778 0.362366
O O18 0.628192 0.000000 0.432263
O O19 0.257035 0.500000 0.292727
O O20 0.897570 0.000000 0.783165
#
# Coordination Sequence:
#
# PCOD9223855 Si02
#       8
#     8   8   8   8   8   8   8   8
#     4  10  21  37  59  86 112 138 174 220 262 309
#     4  10  20  35  54  77 107 143 183 222 264 319
#     4   9  20  39  60  82 110 144 176 212 263 316
#     4  10  19  34  55  77 106 141 178 225 275 320
#     4  10  21  38  57  78 108 145 182 218 261 316
#     4   9  19  34  53  78 106 140 182 224 271 324
#     4  10  20  34  54  79 106 140 181 225 271 318
#     4  10  21  36  55  78 109 148 180 215 265 318
#
# _framework density 10.243449
#
# number of rings (size 3 to 8) (size 9 to 14) (size 15 to 20)
#    0.000    2.250    1.250    1.125    1.750    4.000 
#    0.000    3.750    0.000    1.500    0.000    0.000 
#    0.000    0.000    0.000    0.000    0.000    0.000 
#
# Total GULP energy -178423.660677 kJ/mol
# GULP energy per Si atom -5575.739396 kJ/mol
# Density = 1.022013 g / cm^3
# Si number density = 10.243449 Si / 1000 Ang^3
#
#
#
# Elastic Constant Matrix: (Units=GPa)
#
#
# Indices 1 2 3 4 5 6 
#
# 1 33.2549 27.3850 8.1002 0.0001 5.3881 0.0003
# 2 27.3850 0.4389 11.8325 0.0001 3.2423 0.0010
# 3 8.1002 11.8325 63.4954 -0.0001 -4.6498 0.0000
# 4 0.0001 0.0001 -0.0001 22.4747 -0.0001 3.6336
# 5 5.3881 3.2423 -4.6498 -0.0001 33.9132 -0.0001
# 6 0.0003 0.0010 0.0000 3.6336 -0.0001 13.9602
#
#
#
# Elastic Compliance Matrix: (Units=1/GPa)
#
#
# Indices 1 2 3 4 5 6 
#
# 1 0.003228 0.035772 -0.007441 0.000000 -0.004953 -0.000003
# 2 0.035772 -0.044326 0.003627 0.000000 -0.000948 0.000002
# 3 -0.007441 0.003627 0.016247 0.000000 0.003063 0.000000
# 4 0.000000 0.000000 0.000000 0.046449 0.000000 -0.012090
# 5 -0.004953 -0.000948 0.003063 0.000000 0.030785 0.000000
# 6 -0.000003 0.000002 0.000000 -0.012090 0.000000 0.074779
#
#
# Mechanical properties :
#
#
# Convention : Reuss Voigt Hill
#
# Bulk Modulus (GPa) = 25.59775 21.31385 23.45580
# Shear Modulus (GPa) = 65.55891 17.39439 41.47665
#
# Velocity S-wave (km/s) = 5.66303 2.91701 4.50438
# Velocity P-wave (km/s) = 7.43516 4.66599 6.20698
#
# Compressibility (1/GPa) = 0.03906593
#
# Stress axis : x y z
#
# Youngs Moduli (GPa) = 309.78755 -22.56034 61.55087
#
# Poissons Ratio (x) = 0.80702 0.45798
# Poissons Ratio (y) = -11.08164 -0.22326
# Poissons Ratio (z) = 2.30502 0.08183
#
# Static dielectric constant tensor:
#      x y z
#    x 1.796160 0.000000 -0.001260 
#    y 0.000000 1.705340 0.000000 
#    z -0.001260 0.000000 1.724620 
# 
# From -- ./inp_files/346026.got.cif
#   From: 2010.05.17/outbox.ucp.g08.bks.cvg/sg12_174_cif.got.tgz:346026.got - 2010.06.11 11:47:21.
