data_PCOD9223999
_publ_section_title
;
Structure prediction by ZEFSAII (Michael W. Deem and Ramdas Pophale) SiO2 
 PCOD9223999
Probable space group: C 2/M
;
_chemical_formula_sum "Si O2"
_cell_formula_units_Z 28
_cell_length_a 9.000000
_cell_length_b 24.000000
_cell_length_c 18.000000
_cell_angle_alpha 90.000000
_cell_angle_beta 130.000000
_cell_angle_gamma 90.000000
_cell_volume 2978.380795
_symmetry_space_group_name_H-M "C 2/M"
_symmetry_group_IT_number 12
_symmetry_cell_setting 'monoclinic'
loop_
_space_group_symop_operation_xyz
x,y,z
-x,y,-z
-x,-y,-z
x,-y,z
1/2+x,1/2+y,z
1/2-x,1/2+y,-z
1/2-x,1/2-y,-z
1/2+x,1/2-y,z
loop_
_atom_site_type_symbol
_atom_site_label
_atom_site_fract_x
_atom_site_fract_y
_atom_site_fract_z
Si Si1 0.954080 0.724114 0.770250
Si Si2 0.696185 0.809397 0.610194
Si Si3 0.022175 0.627492 0.346305
Si Si4 0.572547 0.648259 0.446968
Si Si5 0.774042 0.562006 0.701022
Si Si6 0.691120 0.062429 0.113179
Si Si7 0.811881 0.311167 0.885921
O O1 0.768303 0.760320 0.685923
O O2 0.982236 0.679989 0.712250
O O3 0.896750 0.694591 0.829287
O O4 0.141196 0.764914 0.840104
O O5 0.500000 0.799575 0.500000
O O6 0.647945 0.861805 0.648842
O O7 0.869333 0.817392 0.606733
O O8 0.218873 0.624540 0.459238
O O9 0.050134 0.576931 0.298184
O O10 0.500000 0.676841 0.500000
O O11 0.404168 0.604716 0.370838
O O12 0.702041 0.500000 0.661777
O O13 0.841250 0.563527 0.808178
O O14 0.771419 0.125809 0.126147
O O15 0.785234 0.000000 0.129892
O O16 0.500000 0.061736 0.000000
O O17 0.000000 0.302409 0.000000
#
# Coordination Sequence:
#
# PCOD9223999 Si02
#       7
#     8   8   8   8   8   8   8
#     4  12  22  38  57  86 121 157 196 246 300 361
#     4  10  22  37  54  81 117 159 194 237 298 360
#     4  10  21  35  52  80 116 152 191 240 298 358
#     4   9  20  34  56  80 111 147 198 244 291 347
#     4  10  19  35  59  85 114 154 205 256 301 347
#     4   9  18  34  58  86 113 146 195 249 294 342
#     4  11  23  39  61  89 121 158 201 250 307 361
#
# _framework density 9.4010809999999996
#
# number of rings (size 3 to 8) (size 9 to 14) (size 15 to 20)
#    0.000    1.857    2.857    1.286    2.000    6.571 
#    0.000    0.714    0.000    6.000    0.000    0.000 
#    0.000   17.429    0.000    0.000    0.000    0.000 
#
# Total GULP energy -155898.527573 kJ/mol
# GULP energy per Si atom -5567.804556 kJ/mol
# Density = 0.937968 g / cm^3
# Si number density = 9.401081 Si / 1000 Ang^3
#
#
#
# Elastic Constant Matrix: (Units=GPa)
#
#
# Indices 1 2 3 4 5 6 
#
# 1 85.9369 22.8780 22.7376 0.0000 -10.2164 0.0000
# 2 22.8780 102.5047 32.9938 0.0000 4.7136 0.0000
# 3 22.7376 32.9938 105.2235 0.0000 -13.6615 0.0000
# 4 0.0000 0.0000 0.0000 19.0057 0.0000 -3.3327
# 5 -10.2164 4.7136 -13.6615 0.0000 26.5860 0.0000
# 6 0.0000 0.0000 0.0000 -3.3327 0.0000 20.0412
#
#
#
# Elastic Compliance Matrix: (Units=1/GPa)
#
#
# Indices 1 2 3 4 5 6 
#
# 1 0.013316 -0.002754 -0.001378 0.000000 0.004897 0.000000
# 2 -0.002754 0.011818 -0.003772 0.000000 -0.005092 0.000000
# 3 -0.001378 -0.003772 0.011789 0.000000 0.006197 0.000000
# 4 0.000000 0.000000 0.000000 0.054196 0.000000 0.009012
# 5 0.004897 -0.005092 0.006197 0.000000 0.043583 0.000000
# 6 0.000000 0.000000 0.000000 0.009012 0.000000 0.051396
#
#
# Mechanical properties :
#
#
# Convention : Reuss Voigt Hill
#
# Bulk Modulus (GPa) = 47.35749 50.09822 48.72786
# Shear Modulus (GPa) = 23.92982 27.46363 25.69672
#
# Velocity S-wave (km/s) = 3.57139 3.82601 3.70089
# Velocity P-wave (km/s) = 6.49987 6.79857 6.65090
#
# Compressibility (1/GPa) = 0.02111598
#
# Stress axis : x y z
#
# Youngs Moduli (GPa) = 75.09553 84.61362 84.82738
#
# Poissons Ratio (x) = 0.23300 0.11692
# Poissons Ratio (y) = 0.20679 0.31995
# Poissons Ratio (z) = 0.10350 0.31915
#
# Static dielectric constant tensor:
#      x y z
#    x 1.664070 0.000000 -0.015070 
#    y 0.000000 1.709200 0.000000 
#    z -0.015070 0.000000 1.649190 
# 
# From -- ./inp_files/259264.got.cif
#   From: 2010.05.17/outbox.ucp.g08.bks.cvg/sg12_130_cif.got.tgz:259264.got - 2010.06.11 11:47:21.
