data_PCOD9223029
_publ_section_title
;
Structure prediction by ZEFSAII (Michael W. Deem and Ramdas Pophale) SiO2 
 PCOD9223029
Probable space group: C 2/M
;
_chemical_formula_sum "Si O2"
_cell_formula_units_Z 56
_cell_length_a 38.537008
_cell_length_b 7.622602
_cell_length_c 23.972451
_cell_angle_alpha 90.000000
_cell_angle_beta 155.674721
_cell_angle_gamma 90.000000
_cell_volume 2900.699857
_symmetry_space_group_name_H-M "C 2/M"
_symmetry_group_IT_number 12
_symmetry_cell_setting 'monoclinic'
loop_
_space_group_symop_operation_xyz
x,y,z
-x,y,-z
-x,-y,-z
x,-y,z
1/2+x,1/2+y,z
1/2-x,1/2+y,-z
1/2-x,1/2-y,-z
1/2+x,1/2-y,z
loop_
_atom_site_type_symbol
_atom_site_label
_atom_site_fract_x
_atom_site_fract_y
_atom_site_fract_z
Si Si1 0.944128 0.294866 0.726128
Si Si2 0.744469 0.709698 0.927115
Si Si3 0.169206 0.791808 0.342835
Si Si4 0.094910 0.785325 0.629396
Si Si5 0.712635 0.209485 0.575470
Si Si6 0.717225 0.710906 0.711956
Si Si7 0.632785 0.784958 0.988772
O O1 0.950577 0.500000 0.721071
O O2 0.909556 0.283149 0.738726
O O3 0.870892 0.219582 0.578457
O O4 0.037565 0.220616 0.856070
O O5 0.743708 0.500000 0.920574
O O6 0.658728 0.771959 0.771764
O O7 0.822995 0.770583 0.004337
O O8 0.750000 0.750000 0.000000
O O9 0.250000 0.750000 0.500000
O O10 0.202405 0.726179 0.331463
O O11 0.155641 0.000000 0.320755
O O12 0.138967 0.730326 0.635949
O O13 0.000000 0.724545 0.500000
O O14 0.093062 0.000000 0.626714
O O15 0.711340 0.239551 0.639084
O O16 0.712388 0.000000 0.565490
O O17 0.717438 0.500000 0.714761
O O18 0.803116 0.770436 0.868280
O O19 0.631235 0.000000 0.987706
#
# Coordination Sequence:
#
# PCOD9223029 Si02
#       7
#     8   8   8   8   8   8   8
#     4   9  17  31  50  68  89 120 156 191 227 269
#     4   9  17  30  48  68  92 121 152 188 230 275
#     4   9  17  30  47  68  94 122 152 186 228 272
#     4   8  15  29  47  66  90 120 152 187 226 265
#     4   9  18  30  45  67  93 118 142 180 234 274
#     4   9  17  30  49  68  87 119 158 188 218 266
#     4   8  16  32  49  65  90 124 156 186 226 273
#
# _framework density 19.305686000000001
#
# number of rings (size 3 to 8) (size 9 to 14) (size 15 to 20)
#    0.000    3.286    0.000    3.000    0.000    4.000 
#    0.000    5.000    0.000    5.143    0.000    0.000 
#    0.000    0.000    0.000    0.000    0.000    0.000 
#
# Total GULP energy -155941.976056 kJ/mol
# GULP energy per Si atom -5569.356288 kJ/mol
# Density = 1.926175 g / cm^3
# Si number density = 19.305686 Si / 1000 Ang^3
#
#
#
# Elastic Constant Matrix: (Units=GPa)
#
#
# Indices 1 2 3 4 5 6 
#
# 1 186.0771 -8.7012 112.4321 0.0000 6.4958 0.0000
# 2 -8.7012 31.1985 2.9489 0.0000 1.8004 0.0000
# 3 112.4321 2.9489 130.0375 0.0000 30.1077 0.0000
# 4 0.0000 0.0000 0.0000 6.8561 0.0000 -6.2370
# 5 6.4958 1.8004 30.1077 0.0000 30.5172 0.0000
# 6 0.0000 0.0000 0.0000 -6.2370 0.0000 25.7509
#
#
#
# Elastic Compliance Matrix: (Units=1/GPa)
#
#
# Indices 1 2 3 4 5 6 
#
# 1 0.014445 0.004798 -0.015320 0.000000 0.011757 0.000000
# 2 0.004798 0.033770 -0.005465 0.000000 0.002378 0.000000
# 3 -0.015320 -0.005465 0.026219 0.000000 -0.022284 0.000000
# 4 0.000000 0.000000 0.000000 0.187074 0.000000 0.045310
# 5 0.011757 0.002378 -0.022284 0.000000 0.052111 0.000000
# 6 0.000000 0.000000 0.000000 0.045310 0.000000 0.049808
#
#
# Mechanical properties :
#
#
# Convention : Reuss Voigt Hill
#
# Bulk Modulus (GPa) = 23.55104 62.29695 42.92400
# Shear Modulus (GPa) = 12.20840 28.66707 20.43774
#
# Velocity S-wave (km/s) = 2.51743 3.85762 3.25720
# Velocity P-wave (km/s) = 4.54703 7.22360 6.03556
#
# Compressibility (1/GPa) = 0.04246096
#
# Stress axis : x y z
#
# Youngs Moduli (GPa) = 69.22938 29.61176 38.13984
#
# Poissons Ratio (x) = -0.14208 0.58430
# Poissons Ratio (y) = -0.33218 0.20843
# Poissons Ratio (z) = 1.06059 0.16183
#
# Static dielectric constant tensor:
#      x y z
#    x 1.686080 0.000000 0.016880 
#    y 0.000000 1.843880 0.000000 
#    z 0.016880 0.000000 1.665320 
# 
# From -- ./inp_files/313281.got.cif
#   From: 2010.05.17/outbox.cif.g08.bks.cpg/sg12_157_cif.got.tgz:313281.got - 2010.06.03 13:09:07.
