data_PCOD9223251
_publ_section_title
;
Structure prediction by ZEFSAII (Michael W. Deem and Ramdas Pophale) SiO2 
 PCOD9223251
Probable space group: C 2/M
;
_chemical_formula_sum "Si O2"
_cell_formula_units_Z 28
_cell_length_a 30.000000
_cell_length_b 9.000000
_cell_length_c 18.000000
_cell_angle_alpha 90.000000
_cell_angle_beta 40.000000
_cell_angle_gamma 90.000000
_cell_volume 3123.947783
_symmetry_space_group_name_H-M "C 2/M"
_symmetry_group_IT_number 12
_symmetry_cell_setting 'monoclinic'
loop_
_space_group_symop_operation_xyz
x,y,z
-x,y,-z
-x,-y,-z
x,-y,z
1/2+x,1/2+y,z
1/2-x,1/2+y,-z
1/2-x,1/2-y,-z
1/2+x,1/2-y,z
loop_
_atom_site_type_symbol
_atom_site_label
_atom_site_fract_x
_atom_site_fract_y
_atom_site_fract_z
Si Si1 0.126189 0.679647 0.208538
Si Si2 0.693697 0.679325 0.813880
Si Si3 0.035618 0.320522 0.590395
Si Si4 0.472056 0.178616 0.233920
Si Si5 0.340639 0.181733 0.669235
Si Si6 0.929696 0.820273 0.135917
Si Si7 0.623514 0.677989 0.059667
O O1 0.130206 0.500000 0.195126
O O2 0.161222 0.722790 0.241532
O O3 0.152201 0.756735 0.100185
O O4 0.044425 0.722541 0.319035
O O5 0.694074 0.500000 0.806000
O O6 0.772990 0.731049 0.710014
O O7 0.636981 0.731228 0.826586
O O8 0.668558 0.710943 0.929563
O O9 0.035345 0.500000 0.585957
O O10 0.058132 0.283398 0.645924
O O11 0.089405 0.266026 0.460354
O O12 0.434394 0.247284 0.210850
O O13 0.549365 0.246108 0.138737
O O14 0.475337 0.000000 0.223550
O O15 0.341406 0.000000 0.667856
O O16 0.927886 0.000000 0.145708
O O17 0.000000 0.784882 0.000000
O O18 0.615656 0.500000 0.075572
#
# Coordination Sequence:
#
# PCOD9223251 Si02
#       7
#     8   8   8   8   8   8   8
#     4   9  17  29  49  76  97 120 161 204 239 275
#     4   9  18  30  46  69  95 128 166 194 229 288
#     4   8  15  28  47  71  97 123 156 199 239 277
#     4  10  19  31  50  77  99 119 157 202 244 281
#     4   9  16  29  49  70  95 128 164 200 233 276
#     4  10  18  32  51  71  97 127 160 195 234 285
#     4  10  18  31  48  70 100 130 159 194 239 286
#
# _framework density 8.9630179999999999
#
# number of rings (size 3 to 8) (size 9 to 14) (size 15 to 20)
#    0.000    2.714    1.429    2.143    0.000    2.571 
#    0.000    0.714    0.000    9.429    0.000    0.000 
#    0.000    0.000    0.000    0.000    0.000    0.000 
#
# Total GULP energy -156015.362714 kJ/mol
# GULP energy per Si atom -5571.977240 kJ/mol
# Density = 0.894262 g / cm^3
# Si number density = 8.963018 Si / 1000 Ang^3
#
#
#
# Elastic Constant Matrix: (Units=GPa)
#
#
# Indices 1 2 3 4 5 6 
#
# 1 108.8871 11.8310 10.4808 0.0016 8.1780 -0.0002
# 2 11.8310 20.8720 5.2795 0.0020 6.1870 -0.0005
# 3 10.4808 5.2795 7.6875 0.0006 5.1105 -0.0011
# 4 0.0016 0.0020 0.0006 14.1918 0.0006 8.9105
# 5 8.1780 6.1870 5.1105 0.0006 22.2922 -0.0006
# 6 -0.0002 -0.0005 -0.0011 8.9105 -0.0006 17.5856
#
#
#
# Elastic Compliance Matrix: (Units=1/GPa)
#
#
# Indices 1 2 3 4 5 6 
#
# 1 0.010713 -0.002834 -0.012471 0.000000 -0.000285 -0.000001
# 2 -0.002834 0.060038 -0.031833 -0.000009 -0.008325 0.000004
# 3 -0.012471 -0.031833 0.188805 -0.000011 -0.029873 0.000016
# 4 0.000000 -0.000009 -0.000011 0.103338 0.000001 -0.052361
# 5 -0.000285 -0.008325 -0.029873 0.000001 0.054122 -0.000001
# 6 -0.000001 0.000004 0.000016 -0.052361 -0.000001 0.083395
#
#
# Mechanical properties :
#
#
# Convention : Reuss Voigt Hill
#
# Bulk Modulus (GPa) = 6.05034 21.40323 13.72679
# Shear Modulus (GPa) = 7.69491 18.13761 12.91626
#
# Velocity S-wave (km/s) = 2.07410 3.18434 2.68718
# Velocity P-wave (km/s) = 3.01966 5.04833 4.15957
#
# Compressibility (1/GPa) = 0.16527989
#
# Stress axis : x y z
#
# Youngs Moduli (GPa) = 93.34026 16.65626 5.29648
#
# Poissons Ratio (x) = 0.04720 0.06605
# Poissons Ratio (y) = 0.26452 0.16860
# Poissons Ratio (z) = 1.16402 0.53022
#
# Static dielectric constant tensor:
#      x y z
#    x 1.624390 0.000000 -0.005440 
#    y 0.000000 1.597440 0.000000 
#    z -0.005440 0.000000 1.630990 
# 
# From -- ./inp_files/287313.got.cif
#   From: 2010.05.17/outbox.ucp.g08.bks.cvg/sg12_144_cif.got.tgz:287313.got - 2010.06.11 11:47:21.
