data_PCOD9223720
_publ_section_title
;
Structure prediction by ZEFSAII (Michael W. Deem and Ramdas Pophale) SiO2 
 PCOD9223720
Probable space group: C 2/M
;
_chemical_formula_sum "Si O2"
_cell_formula_units_Z 28
_cell_length_a 15.000000
_cell_length_b 9.000000
_cell_length_c 24.000000
_cell_angle_alpha 90.000000
_cell_angle_beta 120.000000
_cell_angle_gamma 90.000000
_cell_volume 2805.922308
_symmetry_space_group_name_H-M "C 2/M"
_symmetry_group_IT_number 12
_symmetry_cell_setting 'monoclinic'
loop_
_space_group_symop_operation_xyz
x,y,z
-x,y,-z
-x,-y,-z
x,-y,z
1/2+x,1/2+y,z
1/2-x,1/2+y,-z
1/2-x,1/2-y,-z
1/2+x,1/2-y,z
loop_
_atom_site_type_symbol
_atom_site_label
_atom_site_fract_x
_atom_site_fract_y
_atom_site_fract_z
Si Si1 0.350695 0.320711 0.408310
Si Si2 0.424234 0.679914 0.553761
Si Si3 0.332944 0.678673 0.984387
Si Si4 0.933385 0.821572 0.220218
Si Si5 0.707204 0.821711 0.148435
Si Si6 0.489424 0.675968 0.876612
Si Si7 0.359195 0.319940 0.654468
O O1 0.341689 0.500000 0.403929
O O2 0.455081 0.278443 0.408617
O O3 0.373295 0.273327 0.479626
O O4 0.245915 0.247552 0.355161
O O5 0.422634 0.500000 0.552381
O O6 0.369483 0.727763 0.593001
O O7 0.321295 0.500000 0.978064
O O8 0.317522 0.749918 0.919330
O O9 0.250000 0.750000 0.000000
O O10 0.443316 0.709381 0.047641
O O11 0.820527 0.770240 0.203298
O O12 0.943863 0.793640 0.157544
O O13 0.036413 0.767827 0.282619
O O14 0.934212 0.000000 0.228474
O O15 0.615007 0.767517 0.158264
O O16 0.707953 0.000000 0.143589
O O17 0.465784 0.500000 0.869787
O O18 0.354615 0.500000 0.655781
#
# Coordination Sequence:
#
# PCOD9223720 Si02
#       7
#     8   8   8   8   8   8   8
#     4   9  17  32  52  76 107 137 171 220 268 314
#     4   8  16  31  52  76 104 140 174 210 268 326
#     4  11  21  36  60  84 111 143 177 221 275 324
#     4   9  20  38  54  72 107 146 176 215 268 320
#     4  11  22  38  58  83 109 140 181 224 268 322
#     4  10  21  39  57  77 107 143 175 217 277 325
#     4  10  19  33  54  76 101 140 182 215 260 319
#
# _framework density 9.9788940000000004
#
# number of rings (size 3 to 8) (size 9 to 14) (size 15 to 20)
#    0.000    2.286    1.429    2.571    0.000    4.000 
#    0.000    5.714    0.000    0.000    0.000    0.000 
#    0.000    0.000    0.000    0.000    0.000    0.000 
#
# Total GULP energy -156247.544921 kJ/mol
# GULP energy per Si atom -5580.269461 kJ/mol
# Density = 0.995618 g / cm^3
# Si number density = 9.978894 Si / 1000 Ang^3
#
#
#
# Elastic Constant Matrix: (Units=GPa)
#
#
# Indices 1 2 3 4 5 6 
#
# 1 96.3565 25.6707 14.9164 0.0000 43.3310 0.0000
# 2 25.6707 24.0432 9.0907 0.0000 13.5319 0.0000
# 3 14.9164 9.0907 26.4822 0.0000 29.8859 0.0000
# 4 0.0000 0.0000 0.0000 20.1579 0.0000 7.0632
# 5 43.3310 13.5319 29.8859 0.0000 35.2135 0.0000
# 6 0.0000 0.0000 0.0000 7.0632 0.0000 30.9349
#
#
#
# Elastic Compliance Matrix: (Units=1/GPa)
#
#
# Indices 1 2 3 4 5 6 
#
# 1 -0.002047 -0.005640 -0.052106 0.000000 0.048909 0.000000
# 2 -0.005640 0.057366 0.012566 0.000000 -0.025770 0.000000
# 3 -0.052106 0.012566 -0.097402 0.000000 0.141954 0.000000
# 4 0.000000 0.000000 0.000000 0.053922 0.000000 -0.012312
# 5 0.048909 -0.025770 0.141954 0.000000 -0.142360 0.000000
# 6 0.000000 0.000000 0.000000 -0.012312 0.000000 0.035137
#
#
# Mechanical properties :
#
#
# Convention : Reuss Voigt Hill
#
# Bulk Modulus (GPa) = -7.55044 27.35970 9.90463
# Shear Modulus (GPa) = -101.68274 23.74153 -38.97060
#
# Velocity S-wave (km/s) = -7.14559 3.45278 -4.42368
# Velocity P-wave (km/s) = 8.47766 5.44373 4.59547
#
# Compressibility (1/GPa) = -0.13244266
#
# Stress axis : x y z
#
# Youngs Moduli (GPa) = -488.47328 17.43200 -10.26669
#
# Poissons Ratio (x) = 0.09831 -0.53495
# Poissons Ratio (y) = -2.75493 0.12901
# Poissons Ratio (z) = -25.45221 -0.21905
#
# Static dielectric constant tensor:
#      x y z
#    x 1.728330 0.000000 0.002000 
#    y 0.000000 1.668380 0.000000 
#    z 0.002000 0.000000 1.715560 
# 
# From -- ./inp_files/339099.got.cif
#   From: 2010.05.17/outbox.ucp.g08.bks.cvg/sg12_170_cif.got.tgz:339099.got - 2010.06.11 11:47:21.
