data_PCOD9223710
_publ_section_title
;
Structure prediction by ZEFSAII (Michael W. Deem and Ramdas Pophale) SiO2 
 PCOD9223710
Probable space group: C 2/M
;
_chemical_formula_sum "Si O2"
_cell_formula_units_Z 32
_cell_length_a 21.000000
_cell_length_b 9.000000
_cell_length_c 21.000000
_cell_angle_alpha 90.000000
_cell_angle_beta 60.000000
_cell_angle_gamma 90.000000
_cell_volume 3437.254828
_symmetry_space_group_name_H-M "C 2/M"
_symmetry_group_IT_number 12
_symmetry_cell_setting 'monoclinic'
loop_
_space_group_symop_operation_xyz
x,y,z
-x,y,-z
-x,-y,-z
x,-y,z
1/2+x,1/2+y,z
1/2-x,1/2+y,-z
1/2-x,1/2-y,-z
1/2+x,1/2-y,z
loop_
_atom_site_type_symbol
_atom_site_label
_atom_site_fract_x
_atom_site_fract_y
_atom_site_fract_z
Si Si1 0.067326 0.678622 0.822417
Si Si2 0.080428 0.180396 0.447885
Si Si3 0.632813 0.819930 0.925639
Si Si4 0.717826 0.676875 0.454309
Si Si5 0.324112 0.321791 0.720122
Si Si6 0.702462 0.324717 0.702927
Si Si7 0.700007 0.676790 0.129996
Si Si8 0.097289 0.322878 0.081606
O O1 0.080312 0.500000 0.809897
O O2 0.091568 0.723959 0.882038
O O3 0.119518 0.773746 0.752048
O O4 0.982684 0.708062 0.850499
O O5 0.135034 0.222098 0.477447
O O6 0.116254 0.222427 0.362484
O O7 0.000000 0.240045 0.500000
O O8 0.077651 0.000000 0.448268
O O9 0.717239 0.773715 0.894773
O O10 0.633478 0.000000 0.922644
O O11 0.593675 0.773614 0.010116
O O12 0.720873 0.500000 0.456956
O O13 0.750000 0.750000 0.500000
O O14 0.764422 0.735374 0.372158
O O15 0.309820 0.500000 0.721315
O O16 0.250044 0.235647 0.738580
O O17 0.344834 0.293294 0.782503
O O18 0.710815 0.500000 0.691689
O O19 0.702258 0.500000 0.118329
O O20 0.662502 0.751621 0.088802
O O21 0.108488 0.500000 0.075769
#
# Coordination Sequence:
#
# PCOD9223710 Si02
#       8
#     8   8   8   8   8   8   8   8
#     4  10  19  36  57  76 105 141 181 223 271 326
#     4   8  15  30  54  81 106 135 176 216 254 306
#     4   9  17  33  57  78  98 138 188 221 264 330
#     4  10  20  36  58  83 114 146 181 221 266 318
#     4   9  17  33  56  78 103 143 183 217 261 319
#     4  11  21  34  56  83 108 139 183 228 270 318
#     4  10  19  33  53  76 107 144 178 217 268 329
#     4  10  21  34  52  79 108 138 176 228 276 322
#
# _framework density 9.3097549999999991
#
# number of rings (size 3 to 8) (size 9 to 14) (size 15 to 20)
#    0.000    2.375    1.250    3.000    0.000    2.500 
#    2.250    0.625    0.000   10.875    0.000    0.000 
#    0.000    0.000    0.000    0.000    0.000    0.000 
#
# Total GULP energy -178267.413908 kJ/mol
# GULP energy per Si atom -5570.856685 kJ/mol
# Density = 0.928857 g / cm^3
# Si number density = 9.309755 Si / 1000 Ang^3
#
#
#
# Elastic Constant Matrix: (Units=GPa)
#
#
# Indices 1 2 3 4 5 6 
#
# 1 60.1989 22.3976 31.0348 0.0001 -4.1912 -0.0003
# 2 22.3976 16.2143 11.1993 0.0001 -4.1142 -0.0008
# 3 31.0348 11.1993 31.6100 0.0001 -10.5338 -0.0002
# 4 0.0001 0.0001 0.0001 10.0014 0.0000 8.7020
# 5 -4.1912 -4.1142 -10.5338 0.0000 20.2924 0.0001
# 6 -0.0003 -0.0008 -0.0002 8.7020 0.0001 17.8281
#
#
#
# Elastic Compliance Matrix: (Units=1/GPa)
#
#
# Indices 1 2 3 4 5 6 
#
# 1 0.060283 -0.056857 -0.046836 0.000003 -0.023389 -0.000004
# 2 -0.056857 0.135340 0.015843 -0.000010 0.023920 0.000011
# 3 -0.046836 0.015843 0.084464 -0.000001 0.037384 0.000001
# 4 0.000003 -0.000010 -0.000001 0.173797 -0.000001 -0.084831
# 5 -0.023389 0.023920 0.037384 -0.000001 0.068704 0.000001
# 6 -0.000004 0.000011 0.000001 -0.084831 0.000001 0.097498
#
#
# Mechanical properties :
#
#
# Convention : Reuss Voigt Hill
#
# Bulk Modulus (GPa) = 9.57972 26.36517 17.97244
# Shear Modulus (GPa) = 6.01988 12.51715 9.26851
#
# Velocity S-wave (km/s) = 1.80003 2.59561 2.23353
# Velocity P-wave (km/s) = 3.07836 4.81390 4.04042
#
# Compressibility (1/GPa) = 0.10438721
#
# Stress axis : x y z
#
# Youngs Moduli (GPa) = 16.58841 7.38881 11.83936
#
# Poissons Ratio (x) = 0.42010 0.55451
# Poissons Ratio (y) = 0.94316 -0.18757
# Poissons Ratio (z) = 0.77694 -0.11706
#
# Static dielectric constant tensor:
#      x y z
#    x 1.644100 0.000000 -0.023540 
#    y 0.000000 1.612490 0.000000 
#    z -0.023540 0.000000 1.659110 
# 
# From -- ./inp_files/319917.got.cif
#   From: 2010.05.17/outbox.ucp.g08.bks.cvg/sg12_160_cif.got.tgz:319917.got - 2010.06.11 11:47:21.
