data_PCOD9223521
_publ_section_title
;
Structure prediction by ZEFSAII (Michael W. Deem and Ramdas Pophale) SiO2 
 PCOD9223521
Probable space group: C 2/M
;
_chemical_formula_sum "Si O2"
_cell_formula_units_Z 32
_cell_length_a 18.000000
_cell_length_b 9.000000
_cell_length_c 21.000000
_cell_angle_alpha 90.000000
_cell_angle_beta 90.000000
_cell_angle_gamma 90.000000
_cell_volume 3402.000000
_symmetry_space_group_name_H-M "C 2/M"
_symmetry_group_IT_number 12
_symmetry_cell_setting 'monoclinic'
loop_
_space_group_symop_operation_xyz
x,y,z
-x,y,-z
-x,-y,-z
x,-y,z
1/2+x,1/2+y,z
1/2-x,1/2+y,-z
1/2-x,1/2-y,-z
1/2+x,1/2-y,z
loop_
_atom_site_type_symbol
_atom_site_label
_atom_site_fract_x
_atom_site_fract_y
_atom_site_fract_z
Si Si1 0.338938 0.821320 0.560940
Si Si2 0.078939 0.681141 0.315678
Si Si3 0.157877 0.832679 0.815294
Si Si4 0.659039 0.332187 0.064639
Si Si5 0.663658 0.171607 0.191415
Si Si6 0.586916 0.177791 0.699265
Si Si7 0.321539 0.178970 0.421447
Si Si8 0.840315 0.332975 0.060257
O O1 0.394585 0.769946 0.615190
O O2 0.360507 0.785458 0.488638
O O3 0.259299 0.750617 0.575329
O O4 0.331874 0.000000 0.564790
O O5 0.078866 0.500000 0.316435
O O6 0.134282 0.724930 0.259320
O O7 0.996741 0.734346 0.301505
O O8 0.247189 0.827733 0.810153
O O9 0.125789 0.722674 0.763770
O O10 0.135923 0.780107 0.885334
O O11 0.133417 0.000000 0.802461
O O12 0.633948 0.500000 0.053714
O O13 0.636614 0.271150 0.133199
O O14 0.749724 0.333769 0.062008
O O15 0.635323 0.223124 0.008517
O O16 0.639917 0.000000 0.181905
O O17 0.633200 0.233922 0.638983
O O18 0.584262 0.000000 0.693910
O O19 0.313967 0.000000 0.417673
O O20 0.865190 0.500000 0.073618
#
# Coordination Sequence:
#
# PCOD9223521 Si02
#       8
#     8   8   8   8   8   8   8   8
#     4   9  17  32  53  74  97 127 162 199 241 289
#     4   9  18  32  50  70  94 128 167 202 237 284
#     4  10  19  31  49  72  97 127 163 201 241 287
#     4   9  16  26  43  70 100 126 155 196 244 289
#     4   9  17  30  48  69  93 125 164 201 238 285
#     4  10  20  33  48  69  98 129 162 201 243 287
#     4   9  18  31  50  76 101 125 157 200 246 289
#     4   9  16  27  45  70  99 128 158 196 241 287
#
# _framework density 9.4062319999999993
#
# number of rings (size 3 to 8) (size 9 to 14) (size 15 to 20)
#    0.000    2.750    0.000    1.875    0.000    5.500 
#    0.000    4.375    0.000    0.750    0.000    9.625 
#    0.000    0.000    0.000    0.000    0.000    0.000 
#
# Total GULP energy -178269.347989 kJ/mol
# GULP energy per Si atom -5570.917125 kJ/mol
# Density = 0.938482 g / cm^3
# Si number density = 9.406232 Si / 1000 Ang^3
#
#
#
# Elastic Constant Matrix: (Units=GPa)
#
#
# Indices 1 2 3 4 5 6 
#
# 1 2.5234 2.9300 8.3970 0.0000 10.4258 0.0000
# 2 2.9300 -3.7222 -21.2713 0.0000 16.1116 0.0000
# 3 8.3970 -21.2713 39.8209 0.0000 41.5391 0.0000
# 4 0.0000 0.0000 0.0000 -15.7466 0.0000 -28.9852
# 5 10.4258 16.1116 41.5391 0.0000 -37.8926 0.0000
# 6 0.0000 0.0000 0.0000 -28.9852 0.0000 -17.9398
#
#
#
# Elastic Compliance Matrix: (Units=1/GPa)
#
#
# Indices 1 2 3 4 5 6 
#
# 1 -0.045838 0.126330 0.015989 0.000000 0.058630 0.000000
# 2 0.126330 -0.012121 -0.029855 0.000000 -0.003124 0.000000
# 3 0.015989 -0.029855 0.006739 0.000000 -0.000907 0.000000
# 4 0.000000 0.000000 0.000000 0.032170 0.000000 -0.051977
# 5 0.058630 -0.003124 -0.000907 0.000000 -0.012582 0.000000
# 6 0.000000 0.000000 0.000000 -0.051977 0.000000 0.028237
#
#
# Mechanical properties :
#
#
# Convention : Reuss Voigt Hill
#
# Bulk Modulus (GPa) = 5.75683 2.08151 3.91917
# Shear Modulus (GPa) = -29.33970 -11.07805 -20.20887
#
# Velocity S-wave (km/s) = -3.95345 -2.42929 -3.28110
# Velocity P-wave (km/s) = 4.21579 2.59995 3.50233
#
# Compressibility (1/GPa) = 0.17370684
#
# Stress axis : x y z
#
# Youngs Moduli (GPa) = -21.81610 -82.50121 148.38208
#
# Poissons Ratio (x) = 10.42238 -2.37241
# Poissons Ratio (y) = 2.75603 4.43001
# Poissons Ratio (z) = 0.34881 -2.46311
#
# Static dielectric constant tensor:
#      x y z
#    x 1.635490 0.000000 0.008410 
#    y 0.000000 1.632750 0.000000 
#    z 0.008410 0.000000 1.644760 
# 
# From -- ./inp_files/314135.got.cif
#   From: 2010.05.17/outbox.ucp.g08.bks.cvg/sg12_158_cif.got.tgz:314135.got - 2010.06.11 11:47:21.
