data_PCOD9223191
_publ_section_title
;
Structure prediction by ZEFSAII (Michael W. Deem and Ramdas Pophale) SiO2 
 PCOD9223191
Probable space group: C 2/M
;
_chemical_formula_sum "Si O2"
_cell_formula_units_Z 22
_cell_length_a 24.000000
_cell_length_b 12.000000
_cell_length_c 9.000000
_cell_angle_alpha 90.000000
_cell_angle_beta 120.000000
_cell_angle_gamma 90.000000
_cell_volume 2244.737847
_symmetry_space_group_name_H-M "C 2/M"
_symmetry_group_IT_number 12
_symmetry_cell_setting 'monoclinic'
loop_
_space_group_symop_operation_xyz
x,y,z
-x,y,-z
-x,-y,-z
x,-y,z
1/2+x,1/2+y,z
1/2-x,1/2+y,-z
1/2-x,1/2-y,-z
1/2+x,1/2-y,z
loop_
_atom_site_type_symbol
_atom_site_label
_atom_site_fract_x
_atom_site_fract_y
_atom_site_fract_z
Si Si1 0.818026 0.736519 0.509174
Si Si2 0.385898 0.000000 0.281019
Si Si3 0.321096 0.230265 0.157147
Si Si4 0.468221 0.000000 0.127463
Si Si5 0.885809 0.500000 0.629809
Si Si6 0.935786 0.868480 0.770912
Si Si7 0.436865 0.743188 0.093928
O O1 0.750000 0.750000 0.500000
O O2 0.816077 0.747604 0.327809
O O3 0.847299 0.615971 0.600223
O O4 0.866945 0.833648 0.618278
O O5 0.343009 0.103276 0.176701
O O6 0.452499 0.000000 0.282512
O O7 0.398373 0.000000 0.470802
O O8 0.379543 0.283241 0.134972
O O9 0.250000 0.250000 0.000000
O O10 0.440117 0.124576 0.054829
O O11 0.544543 0.000000 0.197542
O O12 0.991364 0.796124 0.761404
O O13 0.948866 0.000000 0.778069
O O14 0.931076 0.828165 0.935715
#
# Coordination Sequence:
#
# PCOD9223191 Si02
#       7
#     8   4   8   4   4   8   8
#     4  11  24  41  64  92 124 166 204 253 307 369
#     4   8  19  34  61  90 121 154 187 251 311 368
#     4  10  21  42  62  91 122 157 207 252 307 367
#     4  10  17  34  64  97 122 142 203 257 304 358
#     4  10  19  37  62  90 122 158 198 245 316 360
#     4  11  24  43  61  88 127 168 209 249 310 371
#     4  10  21  39  65  93 121 162 203 256 310 365
#
# _framework density 9.8006989999999998
#
# number of rings (size 3 to 8) (size 9 to 14) (size 15 to 20)
#    0.000    1.818    1.818    2.455    1.273    2.909 
#    8.182    2.727    0.000    0.000    0.000    0.000 
#    0.000    0.000    0.000    0.000    0.000    0.000 
#
# Total GULP energy -122513.232361 kJ/mol
# GULP energy per Si atom -5568.783289 kJ/mol
# Density = 0.977839 g / cm^3
# Si number density = 9.800699 Si / 1000 Ang^3
#
#
#
# Elastic Constant Matrix: (Units=GPa)
#
#
# Indices 1 2 3 4 5 6 
#
# 1 198.5576 31.9789 43.9675 0.0000 -2.4766 0.0000
# 2 31.9789 94.2651 18.1140 0.0000 -3.6825 0.0000
# 3 43.9675 18.1140 59.0522 0.0000 10.1389 0.0000
# 4 0.0000 0.0000 0.0000 13.5841 0.0000 -13.6484
# 5 -2.4766 -3.6825 10.1389 0.0000 31.6331 0.0000
# 6 0.0000 0.0000 0.0000 -13.6484 0.0000 13.3209
#
#
#
# Elastic Compliance Matrix: (Units=1/GPa)
#
#
# Indices 1 2 3 4 5 6 
#
# 1 0.006272 -0.001167 -0.004627 0.000000 0.001838 0.000000
# 2 -0.001167 0.011689 -0.003106 0.000000 0.002265 0.000000
# 3 -0.004627 -0.003106 0.022706 0.000000 -0.008002 0.000000
# 4 0.000000 0.000000 0.000000 -2.501027 0.000000 -2.562515
# 5 0.001838 0.002265 -0.008002 0.000000 0.034585 0.000000
# 6 0.000000 0.000000 0.000000 -2.562515 0.000000 -2.550446
#
#
# Mechanical properties :
#
#
# Convention : Reuss Voigt Hill
#
# Bulk Modulus (GPa) = 43.73062 59.99953 51.86507
# Shear Modulus (GPa) = -1.00994 28.89527 13.94266
#
# Velocity S-wave (km/s) = -0.71858 3.84362 2.66993
# Velocity P-wave (km/s) = 4.65509 7.09748 6.00184
#
# Compressibility (1/GPa) = 0.02286727
#
# Stress axis : x y z
#
# Youngs Moduli (GPa) = 159.44300 85.54703 44.04096
#
# Poissons Ratio (x) = 0.09980 0.20380
# Poissons Ratio (y) = 0.18601 0.13679
# Poissons Ratio (z) = 0.73782 0.26570
#
# Static dielectric constant tensor:
#      x y z
#    x 1.721920 0.000000 0.031290 
#    y 0.000000 1.679470 0.000000 
#    z 0.031290 0.000000 1.825540 
# 
# From -- ./inp_files/95097.got.cif
#   From: 2010.05.17/outbox.ucp.g08.bks.cvg/sg12_48_cif.got.tgz:95097.got - 2010.06.11 11:47:21.
