data_PCOD9223352
_publ_section_title
;
Structure prediction by ZEFSAII (Michael W. Deem and Ramdas Pophale) SiO2 
 PCOD9223352
Probable space group: C 2/M
;
_chemical_formula_sum "Si O2"
_cell_formula_units_Z 32
_cell_length_a 21.000000
_cell_length_b 18.000000
_cell_length_c 9.000000
_cell_angle_alpha 90.000000
_cell_angle_beta 90.000000
_cell_angle_gamma 90.000000
_cell_volume 3402.000000
_symmetry_space_group_name_H-M "C 2/M"
_symmetry_group_IT_number 12
_symmetry_cell_setting 'monoclinic'
loop_
_space_group_symop_operation_xyz
x,y,z
-x,y,-z
-x,-y,-z
x,-y,z
1/2+x,1/2+y,z
1/2-x,1/2+y,-z
1/2-x,1/2-y,-z
1/2+x,1/2-y,z
loop_
_atom_site_type_symbol
_atom_site_label
_atom_site_fract_x
_atom_site_fract_y
_atom_site_fract_z
Si Si1 0.820176 0.910215 0.189285
Si Si2 0.341630 0.089563 0.320909
Si Si3 0.447946 0.912742 0.865934
Si Si4 0.951361 0.147851 0.278983
Si Si5 0.078046 0.910311 0.384843
Si Si6 0.192218 0.589413 0.020797
Si Si7 0.287252 0.410091 0.527496
Si Si8 0.468482 0.814672 0.343920
O O1 0.893633 0.882536 0.176235
O O2 0.760645 0.884335 0.085804
O O3 0.800518 0.888563 0.357689
O O4 0.822888 0.000000 0.179817
O O5 0.282452 0.113858 0.422339
O O6 0.405795 0.134134 0.354692
O O7 0.352442 0.000000 0.334774
O O8 0.318342 0.104401 0.152920
O O9 0.375659 0.888396 0.905012
O O10 0.478425 0.861443 0.742030
O O11 0.445471 0.000000 0.823049
O O12 0.500000 0.908364 0.000000
O O13 0.935728 0.119533 0.447715
O O14 0.951200 0.236617 0.268538
O O15 0.025110 0.120138 0.270038
O O16 0.152761 0.889176 0.367278
O O17 0.072833 0.000000 0.387172
O O18 0.194132 0.500000 0.038178
O O19 0.286125 0.500000 0.530987
O O20 0.500000 0.794577 0.500000
#
# Coordination Sequence:
#
# PCOD9223352 Si02
#       8
#     8   8   8   8   8   8   8   8
#     4   9  17  32  57  84 106 135 179 227 265 314
#     4  10  20  36  54  75 108 144 178 221 274 322
#     4  10  20  38  60  79 102 145 195 227 263 323
#     4  10  18  33  51  79 115 138 178 219 274 321
#     4   9  15  31  58  81 106 142 181 222 270 324
#     4   9  18  34  58  81 102 137 184 230 268 313
#     4   8  16  29  52  83 106 130 174 228 272 311
#     4  12  24  35  52  81 114 146 177 229 275 318
#
# _framework density 9.4062319999999993
#
# number of rings (size 3 to 8) (size 9 to 14) (size 15 to 20)
#    0.000    2.375    2.500    2.625    1.750    1.000 
#    0.000    4.375    2.750    0.000    0.000    4.375 
#    0.000    0.000    0.000    0.000    0.000    0.000 
#
# Total GULP energy -178200.734642 kJ/mol
# GULP energy per Si atom -5568.772958 kJ/mol
# Density = 0.938482 g / cm^3
# Si number density = 9.406232 Si / 1000 Ang^3
#
#
#
# Elastic Constant Matrix: (Units=GPa)
#
#
# Indices 1 2 3 4 5 6 
#
# 1 85.0661 6.9809 10.4552 0.0000 41.4817 0.0000
# 2 6.9809 44.9938 0.4330 0.0000 5.6040 0.0000
# 3 10.4552 0.4330 7.7415 0.0000 9.9823 0.0000
# 4 0.0000 0.0000 0.0000 16.3163 0.0000 27.5034
# 5 41.4817 5.6040 9.9823 0.0000 28.3749 0.0000
# 6 0.0000 0.0000 0.0000 27.5034 0.0000 30.3177
#
#
#
# Elastic Compliance Matrix: (Units=1/GPa)
#
#
# Indices 1 2 3 4 5 6 
#
# 1 0.049493 0.003104 0.049549 0.000000 -0.090399 0.000000
# 2 0.003104 0.023275 0.011502 0.000000 -0.013180 0.000000
# 3 0.049549 0.011502 0.289081 0.000000 -0.176406 0.000000
# 4 0.000000 0.000000 0.000000 -0.115819 0.000000 0.105068
# 5 -0.090399 -0.013180 -0.176406 0.000000 0.232060 0.000000
# 6 0.000000 0.000000 0.000000 0.105068 0.000000 -0.062331
#
#
# Mechanical properties :
#
#
# Convention : Reuss Voigt Hill
#
# Bulk Modulus (GPa) = 2.04016 19.28216 10.66116
# Shear Modulus (GPa) = 11.09053 22.99727 17.04390
#
# Velocity S-wave (km/s) = 2.43066 3.50015 3.01323
# Velocity P-wave (km/s) = 2.99405 5.15816 4.21728
#
# Compressibility (1/GPa) = 0.49015785
#
# Stress axis : x y z
#
# Youngs Moduli (GPa) = 20.20484 42.96510 3.45924
#
# Poissons Ratio (x) = -0.13334 -0.17140
# Poissons Ratio (y) = -0.06271 -0.03979
# Poissons Ratio (z) = -1.00113 -0.49419
#
# Static dielectric constant tensor:
#      x y z
#    x 1.693440 0.000000 -0.006300 
#    y 0.000000 1.624610 0.000000 
#    z -0.006300 0.000000 1.732560 
# 
# From -- ./inp_files/87966.got.cif
#   From: 2010.05.17/outbox.ucp.g08.bks.cvg/sg12_44_cif.got.tgz:87966.got - 2010.06.11 11:47:21.
