data_PCOD9223563
_publ_section_title
;
Structure prediction by ZEFSAII (Michael W. Deem and Ramdas Pophale) SiO2 
 PCOD9223563
Probable space group: C 2/M
;
_chemical_formula_sum "Si O2"
_cell_formula_units_Z 28
_cell_length_a 27.000000
_cell_length_b 9.000000
_cell_length_c 12.000000
_cell_angle_alpha 90.000000
_cell_angle_beta 70.000000
_cell_angle_gamma 90.000000
_cell_volume 2740.143682
_symmetry_space_group_name_H-M "C 2/M"
_symmetry_group_IT_number 12
_symmetry_cell_setting 'monoclinic'
loop_
_space_group_symop_operation_xyz
x,y,z
-x,y,-z
-x,-y,-z
x,-y,z
1/2+x,1/2+y,z
1/2-x,1/2+y,-z
1/2-x,1/2-y,-z
1/2+x,1/2-y,z
loop_
_atom_site_type_symbol
_atom_site_label
_atom_site_fract_x
_atom_site_fract_y
_atom_site_fract_z
Si Si1 0.906213 0.823228 0.378116
Si Si2 0.915089 0.673289 0.607645
Si Si3 0.818277 0.332010 0.837552
Si Si4 0.021100 0.180446 0.238635
Si Si5 0.703143 0.170718 0.599049
Si Si6 0.708409 0.676366 0.812479
Si Si7 0.615987 0.324599 0.030117
O O1 0.917863 0.768150 0.494163
O O2 0.853185 0.746078 0.378363
O O3 0.959804 0.784953 0.270910
O O4 0.898938 0.000000 0.380513
O O5 0.928316 0.500000 0.578462
O O6 0.854682 0.677509 0.699202
O O7 0.953232 0.742073 0.672608
O O8 0.826475 0.500000 0.876064
O O9 0.756745 0.313146 0.861527
O O10 0.844766 0.216038 0.899363
O O11 0.058559 0.231442 0.108134
O O12 0.025162 0.000000 0.249196
O O13 0.750000 0.250000 0.500000
O O14 0.719790 0.202770 0.711728
O O15 0.699866 0.000000 0.570730
O O16 0.707946 0.500000 0.777660
O O17 0.650236 0.719465 0.898724
O O18 0.610955 0.500000 0.024949
#
# Coordination Sequence:
#
# PCOD9223563 Si02
#       7
#     8   8   8   8   8   8   8
#     4  11  22  37  57  79 108 147 188 231 277 326
#     4  10  19  31  51  81 115 148 184 230 283 333
#     4   9  18  31  50  79 113 145 177 221 275 328
#     4   9  19  35  54  80 113 148 187 229 275 326
#     4  12  26  43  62  83 108 139 178 224 273 328
#     4  10  20  36  57  81 111 147 186 226 270 321
#     4   9  18  33  55  82 112 146 184 226 269 318
#
# _framework density 10.218442
#
# number of rings (size 3 to 8) (size 9 to 14) (size 15 to 20)
#    0.000    2.000    0.000    3.857    0.000    5.714 
#    0.000    0.714    0.000    4.286    0.000    0.000 
#    0.000    0.000    0.000    0.000    0.000    0.000 
#
# Total GULP energy -156083.683430 kJ/mol
# GULP energy per Si atom -5574.417265 kJ/mol
# Density = 1.019518 g / cm^3
# Si number density = 10.218442 Si / 1000 Ang^3
#
#
#
# Elastic Constant Matrix: (Units=GPa)
#
#
# Indices 1 2 3 4 5 6 
#
# 1 89.1512 26.5015 15.0589 0.0000 -34.7225 0.0000
# 2 26.5015 33.8777 17.6525 0.0000 -15.7731 0.0000
# 3 15.0589 17.6525 49.1612 0.0000 -25.0607 0.0000
# 4 0.0000 0.0000 0.0000 15.3700 0.0000 3.8880
# 5 -34.7225 -15.7731 -25.0607 0.0000 22.4084 0.0000
# 6 0.0000 0.0000 0.0000 3.8880 0.0000 30.3693
#
#
#
# Elastic Compliance Matrix: (Units=1/GPa)
#
#
# Indices 1 2 3 4 5 6 
#
# 1 0.118819 -0.010823 0.133665 0.000000 0.325981 0.000000
# 2 -0.010823 0.044893 -0.012202 0.000000 0.001183 0.000000
# 3 0.133665 -0.012202 0.197681 0.000000 0.419609 0.000000
# 4 0.000000 0.000000 0.000000 0.067239 0.000000 -0.008608
# 5 0.325981 0.001183 0.419609 0.000000 1.019852 0.000000
# 6 0.000000 0.000000 0.000000 -0.008608 0.000000 0.034030
#
#
# Mechanical properties :
#
#
# Convention : Reuss Voigt Hill
#
# Bulk Modulus (GPa) = 1.71623 32.29065 17.00344
# Shear Modulus (GPa) = 3.43534 21.16135 12.29834
#
# Velocity S-wave (km/s) = 1.29792 3.22133 2.45577
# Velocity P-wave (km/s) = 1.75719 5.44706 4.04711
#
# Compressibility (1/GPa) = 0.58267333
#
# Stress axis : x y z
#
# Youngs Moduli (GPa) = 8.41614 22.27494 5.05864
#
# Poissons Ratio (x) = 0.24109 -0.67616
# Poissons Ratio (y) = 0.09109 0.06172
# Poissons Ratio (z) = -1.12494 0.27179
#
# Static dielectric constant tensor:
#      x y z
#    x 1.723630 0.000000 -0.063040 
#    y 0.000000 1.693290 0.000000 
#    z -0.063040 0.000000 1.887230 
# 
# From -- ./inp_files/180641.got.cif
#   From: 2010.05.17/outbox.ucp.g08.bks.cvg/sg12_91_cif.got.tgz:180641.got - 2010.06.11 11:47:21.
