data_PCOD9223614
_publ_section_title
;
Structure prediction by ZEFSAII (Michael W. Deem and Ramdas Pophale) SiO2 
 PCOD9223614
Probable space group: C 2/M
;
_chemical_formula_sum "Si O2"
_cell_formula_units_Z 32
_cell_length_a 30.000000
_cell_length_b 9.000000
_cell_length_c 15.000000
_cell_angle_alpha 90.000000
_cell_angle_beta 130.000000
_cell_angle_gamma 90.000000
_cell_volume 3102.479995
_symmetry_space_group_name_H-M "C 2/M"
_symmetry_group_IT_number 12
_symmetry_cell_setting 'monoclinic'
loop_
_space_group_symop_operation_xyz
x,y,z
-x,y,-z
-x,-y,-z
x,-y,z
1/2+x,1/2+y,z
1/2-x,1/2+y,-z
1/2-x,1/2-y,-z
1/2+x,1/2-y,z
loop_
_atom_site_type_symbol
_atom_site_label
_atom_site_fract_x
_atom_site_fract_y
_atom_site_fract_z
Si Si1 0.893287 0.180679 0.754206
Si Si2 0.004588 0.669408 0.357125
Si Si3 0.517256 0.323541 0.852912
Si Si4 0.866321 0.330647 0.213173
Si Si5 0.897213 0.167466 0.417646
Si Si6 0.183083 0.170352 0.511767
Si Si7 0.142951 0.679406 0.997074
Si Si8 0.700644 0.179844 0.245847
O O1 0.856256 0.232097 0.619084
O O2 0.857805 0.254596 0.787437
O O3 0.961562 0.221588 0.840811
O O4 0.891686 0.000000 0.755438
O O5 0.020584 0.500000 0.352412
O O6 0.048370 0.728299 0.488071
O O7 0.006081 0.780999 0.275707
O O8 0.936928 0.666398 0.296400
O O9 0.525678 0.500000 0.871967
O O10 0.579652 0.244758 0.942902
O O11 0.846504 0.500000 0.202742
O O12 0.857641 0.227113 0.286521
O O13 0.844816 0.275057 0.089371
O O14 0.858019 0.166345 0.455252
O O15 0.917342 0.000000 0.423791
O O16 0.244106 0.237283 0.625536
O O17 0.196576 0.000000 0.502346
O O18 0.136589 0.500000 0.987063
O O19 0.193492 0.718463 0.132150
O O20 0.701861 0.000000 0.252315
#
# Coordination Sequence:
#
# PCOD9223614 Si02
#       8
#     8   8   8   8   8   8   8   8
#     4  10  20  36  56  81 113 139 170 223 279 325
#     4  10  19  32  51  77 112 146 176 215 266 319
#     4  10  19  33  55  81 112 146 175 214 271 324
#     4   9  19  34  50  73 107 142 175 218 269 317
#     4  11  20  32  52  79 109 141 179 220 265 322
#     4   9  19  37  56  78 111 142 176 222 272 320
#     4   9  20  38  56  77 109 144 182 225 266 312
#     4  10  21  38  60  79 100 143 190 225 265 317
#
# _framework density 10.314329000000001
#
# number of rings (size 3 to 8) (size 9 to 14) (size 15 to 20)
#    0.000    2.250    1.250    2.625    0.000    6.000 
#    0.000    4.375    0.000    0.000    0.000    0.000 
#    0.000    0.000    0.000    0.000    0.000    0.000 
#
# Total GULP energy -178408.122745 kJ/mol
# GULP energy per Si atom -5575.253836 kJ/mol
# Density = 1.029085 g / cm^3
# Si number density = 10.314329 Si / 1000 Ang^3
#
#
#
# Elastic Constant Matrix: (Units=GPa)
#
#
# Indices 1 2 3 4 5 6 
#
# 1 6.5679 -6.5294 -2.9776 0.0000 -9.2099 0.0000
# 2 -6.5294 13.8504 0.8058 0.0000 -3.5327 0.0000
# 3 -2.9776 0.8058 73.8015 0.0000 -14.2846 0.0000
# 4 0.0000 0.0000 0.0000 -24.2153 0.0000 0.4066
# 5 -9.2099 -3.5327 -14.2846 0.0000 23.7646 0.0000
# 6 0.0000 0.0000 0.0000 0.4066 0.0000 19.1701
#
#
#
# Elastic Compliance Matrix: (Units=1/GPa)
#
#
# Indices 1 2 3 4 5 6 
#
# 1 -0.332164 -0.201580 -0.047435 0.000000 -0.187207 0.000000
# 2 -0.201580 -0.047137 -0.027268 0.000000 -0.101519 0.000000
# 3 -0.047435 -0.027268 0.008590 0.000000 -0.017273 0.000000
# 4 0.000000 0.000000 0.000000 -0.041281 0.000000 0.000875
# 5 -0.187207 -0.101519 -0.017273 0.000000 -0.055946 0.000000
# 6 0.000000 0.000000 0.000000 0.000875 0.000000 0.052146
#
#
# Mechanical properties :
#
#
# Convention : Reuss Voigt Hill
#
# Bulk Modulus (GPa) = -1.08310 8.53526 3.72608
# Shear Modulus (GPa) = -29.24248 10.60527 -9.31861
#
# Velocity S-wave (km/s) = -3.76914 2.26984 -2.12770
# Velocity P-wave (km/s) = 4.41227 3.31906 2.05572
#
# Compressibility (1/GPa) = -0.92327585
#
# Stress axis : x y z
#
# Youngs Moduli (GPa) = -3.01056 -21.21488 116.40883
#
# Poissons Ratio (x) = -4.27649 5.52191
# Poissons Ratio (y) = -0.60687 3.17422
# Poissons Ratio (z) = -0.14281 -0.57848
#
# Static dielectric constant tensor:
#      x y z
#    x 1.762640 0.000000 -0.035360 
#    y 0.000000 1.718180 0.000000 
#    z -0.035360 0.000000 1.767550 
# 
# From -- ./inp_files/250071.got.cif
#   From: 2010.05.17/outbox.ucp.g08.bks.cvg/sg12_126_cif.got.tgz:250071.got - 2010.06.11 11:47:21.
