data_PCOD9223816
_publ_section_title
;
Structure prediction by ZEFSAII (Michael W. Deem and Ramdas Pophale) SiO2 
 PCOD9223816
Probable space group: C 2/M
;
_chemical_formula_sum "Si O2"
_cell_formula_units_Z 32
_cell_length_a 21.000000
_cell_length_b 9.000000
_cell_length_c 24.000000
_cell_angle_alpha 90.000000
_cell_angle_beta 130.000000
_cell_angle_gamma 90.000000
_cell_volume 3474.777594
_symmetry_space_group_name_H-M "C 2/M"
_symmetry_group_IT_number 12
_symmetry_cell_setting 'monoclinic'
loop_
_space_group_symop_operation_xyz
x,y,z
-x,y,-z
-x,-y,-z
x,-y,z
1/2+x,1/2+y,z
1/2-x,1/2+y,-z
1/2-x,1/2-y,-z
1/2+x,1/2-y,z
loop_
_atom_site_type_symbol
_atom_site_label
_atom_site_fract_x
_atom_site_fract_y
_atom_site_fract_z
Si Si1 0.532892 0.673579 0.283945
Si Si2 0.204740 0.177258 0.922364
Si Si3 0.509089 0.326025 0.439610
Si Si4 0.404204 0.826788 0.292840
Si Si5 0.725225 0.324401 0.148122
Si Si6 0.837766 0.173575 0.545379
Si Si7 0.956389 0.825579 0.915653
Si Si8 0.470254 0.824774 0.149755
O O1 0.523118 0.500000 0.264514
O O2 0.454242 0.730175 0.275744
O O3 0.610868 0.691199 0.368632
O O4 0.539405 0.772309 0.232713
O O5 0.252645 0.232638 0.894470
O O6 0.111863 0.240896 0.874955
O O7 0.204202 0.000000 0.924753
O O8 0.250000 0.250000 0.000000
O O9 0.500000 0.319040 0.500000
O O10 0.500065 0.500000 0.416789
O O11 0.439541 0.228235 0.370990
O O12 0.598567 0.274061 0.466875
O O13 0.305979 0.807520 0.232042
O O14 0.423230 0.000000 0.293361
O O15 0.717562 0.500000 0.128635
O O16 0.639568 0.281432 0.129358
O O17 0.750000 0.250000 0.500000
O O18 0.823597 0.000000 0.527665
O O19 0.003578 0.730213 0.896255
O O20 0.959651 0.000000 0.900987
O O21 0.000000 0.811967 0.000000
O O22 0.456538 0.000000 0.143544
#
# Coordination Sequence:
#
# PCOD9223816 Si02
#       8
#     8   8   8   8   8   8   8   8
#     4  10  20  37  60  85 115 155 196 236 288 348
#     4  12  24  38  61  89 118 151 191 240 290 345
#     4   9  19  37  58  80 112 152 194 236 279 340
#     4  10  19  33  57  87 118 149 187 242 293 341
#     4  10  21  38  59  86 119 150 193 243 291 348
#     4   9  19  35  57  84 114 149 188 232 284 337
#     4  10  22  41  62  82 114 160 196 234 296 354
#     4  12  24  39  60  88 119 152 197 245 289 346
#
# _framework density 9.2092220000000005
#
# number of rings (size 3 to 8) (size 9 to 14) (size 15 to 20)
#    0.000    1.750    1.250    4.500    0.000    5.000 
#    2.250    0.000    0.000    0.000    0.000    0.000 
#    0.000    0.000    0.000    0.000    0.000    0.000 
#
# Total GULP energy -178617.921694 kJ/mol
# GULP energy per Si atom -5581.810053 kJ/mol
# Density = 0.918826 g / cm^3
# Si number density = 9.209222 Si / 1000 Ang^3
#
#
#
# Elastic Constant Matrix: (Units=GPa)
#
#
# Indices 1 2 3 4 5 6 
#
# 1 -22.1460 -0.6393 12.0217 0.0000 -3.1002 0.0000
# 2 -0.6393 57.1462 27.4798 0.0000 -0.4659 0.0000
# 3 12.0217 27.4798 54.0317 0.0000 2.6967 0.0000
# 4 0.0000 0.0000 0.0000 21.6165 0.0000 -3.7234
# 5 -3.1002 -0.4659 2.6967 0.0000 27.5666 0.0000
# 6 0.0000 0.0000 0.0000 -3.7234 0.0000 29.3338
#
#
#
# Elastic Compliance Matrix: (Units=1/GPa)
#
#
# Indices 1 2 3 4 5 6 
#
# 1 -0.037795 -0.006147 0.011810 0.000000 -0.005510 0.000000
# 2 -0.006147 0.022231 -0.009971 0.000000 0.000660 0.000000
# 3 0.011810 -0.009971 0.020996 0.000000 -0.000894 0.000000
# 4 0.000000 0.000000 0.000000 0.047295 0.000000 0.006003
# 5 -0.005510 0.000660 -0.000894 0.000000 0.035755 0.000000
# 6 0.000000 0.000000 0.000000 0.006003 0.000000 0.034852
#
#
# Mechanical properties :
#
#
# Convention : Reuss Voigt Hill
#
# Bulk Modulus (GPa) = -314.00861 18.52847 -147.74007
# Shear Modulus (GPa) = 38.20059 19.04802 28.62431
#
# Velocity S-wave (km/s) = 4.55910 3.21936 3.94650
# Velocity P-wave (km/s) = 11.96420 4.88882 7.72145
#
# Compressibility (1/GPa) = -0.00318463
#
# Stress axis : x y z
#
# Youngs Moduli (GPa) = -26.45851 44.98318 47.62841
#
# Poissons Ratio (x) = 0.27651 -0.56251
# Poissons Ratio (y) = -0.16264 0.47492
# Poissons Ratio (z) = 0.31249 0.44855
#
# Static dielectric constant tensor:
#      x y z
#    x 1.609430 0.000000 0.015240 
#    y 0.000000 1.644200 0.000000 
#    z 0.015240 0.000000 1.745350 
# 
# From -- ./inp_files/346308.got.cif
#   From: 2010.05.17/outbox.ucp.g08.bks.cvg/sg12_174_cif.got.tgz:346308.got - 2010.06.11 11:47:21.
