data_PCOD9223634
_publ_section_title
;
Structure prediction by ZEFSAII (Michael W. Deem and Ramdas Pophale) SiO2 
 PCOD9223634
Probable space group: C 2/M
;
_chemical_formula_sum "Si O2"
_cell_formula_units_Z 28
_cell_length_a 21.000000
_cell_length_b 9.000000
_cell_length_c 30.000000
_cell_angle_alpha 90.000000
_cell_angle_beta 150.000000
_cell_angle_gamma 90.000000
_cell_volume 2835.000000
_symmetry_space_group_name_H-M "C 2/M"
_symmetry_group_IT_number 12
_symmetry_cell_setting 'monoclinic'
loop_
_space_group_symop_operation_xyz
x,y,z
-x,y,-z
-x,-y,-z
x,-y,z
1/2+x,1/2+y,z
1/2-x,1/2+y,-z
1/2-x,1/2-y,-z
1/2+x,1/2-y,z
loop_
_atom_site_type_symbol
_atom_site_label
_atom_site_fract_x
_atom_site_fract_y
_atom_site_fract_z
Si Si1 0.450293 0.823343 0.290942
Si Si2 0.506311 0.821688 0.089724
Si Si3 0.204603 0.821310 0.726731
Si Si4 0.425378 0.674130 0.133812
Si Si5 0.236334 0.176710 0.086269
Si Si6 0.350205 0.321759 0.408305
Si Si7 0.357845 0.672807 0.658210
O O1 0.404665 0.753609 0.309838
O O2 0.332155 0.794397 0.185279
O O3 0.574569 0.752639 0.342778
O O4 0.466872 0.000000 0.304795
O O5 0.653617 0.782482 0.169942
O O6 0.470255 0.755421 0.116350
O O7 0.495939 0.000000 0.084222
O O8 0.401033 0.753006 0.993113
O O9 0.198187 0.779542 0.670588
O O10 0.189941 0.000000 0.720456
O O11 0.397735 0.500000 0.108632
O O12 0.306550 0.754154 0.085550
O O13 0.538960 0.682262 0.238982
O O14 0.222718 0.000000 0.073004
O O15 0.500000 0.286324 0.500000
O O16 0.335620 0.500000 0.403901
O O17 0.268606 0.246282 0.397905
O O18 0.336528 0.500000 0.634939
#
# Coordination Sequence:
#
# PCOD9223634 Si02
#       7
#     8   8   8   8   8   8   8
#     4  10  22  39  60  83 115 158 199 238 283 340
#     4  11  21  33  52  78 112 152 193 239 287 336
#     4  10  22  39  59  85 117 152 190 237 290 343
#     4  10  19  32  52  79 111 149 192 238 286 335
#     4  10  21  35  51  76 111 152 196 241 283 331
#     4  10  21  40  66  93 120 149 185 232 288 349
#     4  10  20  36  61  89 118 152 191 238 287 341
#
# _framework density 9.8765429999999999
#
# number of rings (size 3 to 8) (size 9 to 14) (size 15 to 20)
#    0.000    1.857    1.429    2.571    0.000    5.429 
#    0.000    3.571    0.000    0.000    0.000    0.000 
#    0.000    0.000    0.000    0.000    0.000    0.000 
#
# Total GULP energy -156487.319043 kJ/mol
# GULP energy per Si atom -5588.832823 kJ/mol
# Density = 0.985406 g / cm^3
# Si number density = 9.876543 Si / 1000 Ang^3
#
#
#
# Elastic Constant Matrix: (Units=GPa)
#
#
# Indices 1 2 3 4 5 6 
#
# 1 127.3060 47.7452 19.8557 0.0000 35.1500 0.0000
# 2 47.7452 75.2043 26.7132 -0.0001 21.9831 0.0001
# 3 19.8557 26.7132 45.9182 -0.0006 30.8459 -0.0001
# 4 0.0000 -0.0001 -0.0006 21.8197 -0.0002 6.5615
# 5 35.1500 21.9831 30.8459 -0.0002 28.5916 0.0000
# 6 0.0000 0.0001 -0.0001 6.5615 0.0000 34.8710
#
#
#
# Elastic Compliance Matrix: (Units=1/GPa)
#
#
# Indices 1 2 3 4 5 6 
#
# 1 0.021089 -0.009155 0.032312 0.000000 -0.053746 0.000000
# 2 -0.009155 0.021338 -0.018144 0.000000 0.014424 0.000000
# 3 0.032312 -0.018144 0.129596 0.000002 -0.165587 0.000000
# 4 0.000000 0.000000 0.000002 0.048579 -0.000002 -0.009141
# 5 -0.053746 0.014424 -0.165587 -0.000002 0.268602 0.000000
# 6 0.000000 0.000000 0.000000 -0.009141 0.000000 0.030397
#
#
# Mechanical properties :
#
#
# Convention : Reuss Voigt Hill
#
# Bulk Modulus (GPa) = 5.49311 48.56185 27.02748
# Shear Modulus (GPa) = 8.76794 27.33074 18.04934
#
# Velocity S-wave (km/s) = 2.10912 3.72374 3.02611
# Velocity P-wave (km/s) = 2.95265 6.56705 5.09138
#
# Compressibility (1/GPa) = 0.18204634
#
# Stress axis : x y z
#
# Youngs Moduli (GPa) = 47.41838 46.86403 7.71632
#
# Poissons Ratio (x) = 0.42906 -0.24933
# Poissons Ratio (y) = 0.43414 0.14001
# Poissons Ratio (z) = -1.53216 0.85032
#
# Static dielectric constant tensor:
#      x y z
#    x 1.663550 0.000000 -0.013300 
#    y 0.000000 1.661630 0.000000 
#    z -0.013300 0.000000 1.727720 
# 
# From -- ./inp_files/380749.got.cif
#   From: 2010.05.17/outbox.ucp.g08.bks.cvg/sg12_191_cif.got.tgz:380749.got - 2010.06.11 11:47:21.
