data_PCOD9223172
_publ_section_title
;
Structure prediction by ZEFSAII (Michael W. Deem and Ramdas Pophale) SiO2 
 PCOD9223172
Probable space group: C 2/M
;
_chemical_formula_sum "Si O2"
_cell_formula_units_Z 32
_cell_length_a 24.000000
_cell_length_b 9.000000
_cell_length_c 21.000000
_cell_angle_alpha 90.000000
_cell_angle_beta 50.000000
_cell_angle_gamma 90.000000
_cell_volume 3474.777594
_symmetry_space_group_name_H-M "C 2/M"
_symmetry_group_IT_number 12
_symmetry_cell_setting 'monoclinic'
loop_
_space_group_symop_operation_xyz
x,y,z
-x,y,-z
-x,-y,-z
x,-y,z
1/2+x,1/2+y,z
1/2-x,1/2+y,-z
1/2-x,1/2-y,-z
1/2+x,1/2-y,z
loop_
_atom_site_type_symbol
_atom_site_label
_atom_site_fract_x
_atom_site_fract_y
_atom_site_fract_z
Si Si1 0.835397 0.679580 0.077014
Si Si2 0.817838 0.320371 0.847213
Si Si3 0.317594 0.820319 0.235155
Si Si4 0.430733 0.179868 0.652286
Si Si5 0.667593 0.179903 0.391545
Si Si6 0.091687 0.318659 0.573972
Si Si7 0.084617 0.680567 0.106227
Si Si8 0.425635 0.181075 0.269150
O O1 0.833074 0.500000 0.077253
O O2 0.758488 0.743704 0.110254
O O3 0.844366 0.723340 0.144547
O O4 0.895055 0.727205 0.980516
O O5 0.809706 0.500000 0.851675
O O6 0.874670 0.278582 0.749517
O O7 0.852800 0.277760 0.889324
O O8 0.239984 0.750010 0.309091
O O9 0.372431 0.775506 0.251080
O O10 0.311611 0.000000 0.240108
O O11 0.398338 0.222247 0.607647
O O12 0.511851 0.230546 0.608710
O O13 0.433807 0.000000 0.650471
O O14 0.649377 0.226638 0.477392
O O15 0.673747 0.000000 0.385654
O O16 0.092370 0.500000 0.573760
O O17 0.099378 0.270216 0.641847
O O18 0.081946 0.500000 0.108056
O O19 0.007132 0.730801 0.190980
O O20 0.427109 0.000000 0.269924
#
# Coordination Sequence:
#
# PCOD9223172 Si02
#       8
#     8   8   8   8   8   8   8   8
#     4  10  20  32  47  72 102 129 156 192 237 285
#     4  10  17  29  52  76  96 123 156 194 241 289
#     4  10  21  34  48  68  98 132 163 195 233 279
#     4   9  15  26  47  75  98 117 149 195 242 281
#     4  10  19  31  51  76  98 122 155 198 243 285
#     4   9  16  28  49  76  98 118 155 204 244 277
#     4   9  17  30  50  74  97 122 159 202 239 277
#     4   9  17  31  49  70  95 125 162 203 239 272
#
# _framework density 9.2092220000000005
#
# number of rings (size 3 to 8) (size 9 to 14) (size 15 to 20)
#    0.000    2.500    2.500    0.750    0.000    2.500 
#    0.000    2.500    0.000    3.750    0.000    1.750 
#    0.000    0.000    0.000    0.000    0.000    0.000 
#
# Total GULP energy -178383.535856 kJ/mol
# GULP energy per Si atom -5574.485495 kJ/mol
# Density = 0.918826 g / cm^3
# Si number density = 9.209222 Si / 1000 Ang^3
#
#
#
# Elastic Constant Matrix: (Units=GPa)
#
#
# Indices 1 2 3 4 5 6 
#
# 1 96.2579 5.4829 35.8980 -0.0003 35.7433 0.0003
# 2 5.4829 -4.0130 6.5658 -0.0014 5.0968 0.0010
# 3 35.8980 6.5658 129.1809 -0.0004 44.7284 0.0003
# 4 -0.0003 -0.0014 -0.0004 18.1847 0.0004 -3.2889
# 5 35.7433 5.0968 44.7284 0.0004 30.5573 -0.0003
# 6 0.0003 0.0010 0.0003 -3.2889 -0.0003 16.0926
#
#
#
# Elastic Compliance Matrix: (Units=1/GPa)
#
#
# Indices 1 2 3 4 5 6 
#
# 1 0.019873 -0.002892 0.005082 0.000001 -0.030202 -0.000001
# 2 -0.002892 -0.204676 -0.003620 -0.000015 0.042820 0.000010
# 3 0.005082 -0.003620 0.016955 0.000001 -0.030159 -0.000001
# 4 0.000001 -0.000015 0.000001 0.057102 0.000000 0.011670
# 5 -0.030202 0.042820 -0.030159 0.000000 0.105056 0.000000
# 6 -0.000001 0.000010 -0.000001 0.011670 0.000000 0.064525
#
#
# Mechanical properties :
#
#
# Convention : Reuss Voigt Hill
#
# Bulk Modulus (GPa) = -5.85797 35.25769 14.69986
# Shear Modulus (GPa) = 1043.16331 24.53219 533.84775
#
# Velocity S-wave (km/s) = 23.82432 3.65353 17.04328
# Velocity P-wave (km/s) = 27.45197 6.08127 19.88206
#
# Compressibility (1/GPa) = -0.17070758
#
# Stress axis : x y z
#
# Youngs Moduli (GPa) = 50.31891 -4.88576 58.97868
#
# Poissons Ratio (x) = -0.01413 -0.29972
# Poissons Ratio (y) = 0.14552 0.21349
# Poissons Ratio (z) = -0.25571 -0.01769
#
# Static dielectric constant tensor:
#      x y z
#    x 1.638460 0.000000 0.015660 
#    y 0.000000 1.615760 0.000000 
#    z 0.015660 0.000000 1.648700 
# 
# From -- ./inp_files/295524.got.cif
#   From: 2010.05.17/outbox.ucp.g08.bks.cvg/sg12_148_cif.got.tgz:295524.got - 2010.06.11 11:47:21.
