data_PCOD9223451
_publ_section_title
;
Structure prediction by ZEFSAII (Michael W. Deem and Ramdas Pophale) SiO2 
 PCOD9223451
Probable space group: C 2/M
;
_chemical_formula_sum "Si O2"
_cell_formula_units_Z 32
_cell_length_a 24.000000
_cell_length_b 9.000000
_cell_length_c 18.000000
_cell_angle_alpha 90.000000
_cell_angle_beta 80.000000
_cell_angle_gamma 90.000000
_cell_volume 3828.932544
_symmetry_space_group_name_H-M "C 2/M"
_symmetry_group_IT_number 12
_symmetry_cell_setting 'monoclinic'
loop_
_space_group_symop_operation_xyz
x,y,z
-x,y,-z
-x,-y,-z
x,-y,z
1/2+x,1/2+y,z
1/2-x,1/2+y,-z
1/2-x,1/2-y,-z
1/2+x,1/2-y,z
loop_
_atom_site_type_symbol
_atom_site_label
_atom_site_fract_x
_atom_site_fract_y
_atom_site_fract_z
Si Si1 0.213215 0.673743 0.334797
Si Si2 0.536004 0.678110 0.367872
Si Si3 0.802109 0.678285 0.093608
Si Si4 0.665320 0.319723 0.757892
Si Si5 0.116538 0.326418 0.234885
Si Si6 0.591886 0.318948 0.634449
Si Si7 0.182096 0.678417 0.078420
Si Si8 0.628894 0.320813 0.465887
O O1 0.215342 0.500000 0.354893
O O2 0.275730 0.720725 0.296705
O O3 0.173466 0.686848 0.271234
O O4 0.182304 0.761160 0.407651
O O5 0.533555 0.500000 0.373943
O O6 0.571212 0.727477 0.287719
O O7 0.471938 0.730749 0.370364
O O8 0.572611 0.728154 0.431727
O O9 0.800778 0.500000 0.103002
O O10 0.831080 0.749749 0.160071
O O11 0.738427 0.740411 0.095510
O O12 0.829162 0.712382 0.005772
O O13 0.663677 0.500000 0.766380
O O14 0.616941 0.273892 0.709120
O O15 0.099515 0.500000 0.241343
O O16 0.131961 0.285071 0.147213
O O17 0.592112 0.500000 0.636045
O O18 0.627169 0.274470 0.552554
O O19 0.192042 0.500000 0.081555
O O20 0.629203 0.500000 0.464067
#
# Coordination Sequence:
#
# PCOD9223451 Si02
#       8
#     8   8   8   8   8   8   8   8
#     4   9  17  29  45  66  93 125 155 186 232 286
#     4   9  17  30  49  72  94 117 156 207 243 270
#     4  10  19  29  47  74 100 123 155 196 232 271
#     4  10  19  33  49  64  94 135 164 186 228 291
#     4   9  16  29  48  69  95 124 152 184 231 286
#     4   9  18  32  50  68  89 127 167 194 234 289
#     4   9  17  31  49  71  99 129 155 184 231 287
#     4   9  17  30  49  71  93 117 154 204 246 277
#
# _framework density 8.3574210000000004
#
# number of rings (size 3 to 8) (size 9 to 14) (size 15 to 20)
#    0.000    2.750    1.250    0.750    0.000    3.500 
#    0.000    1.875    0.000    3.750    0.000    5.250 
#    0.000    0.000    0.000    0.000    0.000    0.000 
#
# Total GULP energy -178181.812604 kJ/mol
# GULP energy per Si atom -5568.181644 kJ/mol
# Density = 0.833840 g / cm^3
# Si number density = 8.357421 Si / 1000 Ang^3
#
#
#
# Elastic Constant Matrix: (Units=GPa)
#
#
# Indices 1 2 3 4 5 6 
#
# 1 32.0293 7.1570 19.6701 0.0000 9.8569 0.0000
# 2 7.1570 11.9297 20.6932 0.0000 6.9759 0.0000
# 3 19.6701 20.6932 126.3742 0.0000 20.7481 0.0000
# 4 0.0000 0.0000 0.0000 28.4880 0.0000 -0.9442
# 5 9.8569 6.9759 20.7481 0.0000 21.1059 0.0000
# 6 0.0000 0.0000 0.0000 -0.9442 0.0000 14.8194
#
#
#
# Elastic Compliance Matrix: (Units=1/GPa)
#
#
# Indices 1 2 3 4 5 6 
#
# 1 0.039026 -0.012960 -0.001983 0.000000 -0.011993 0.000000
# 2 -0.012960 0.132217 -0.016041 0.000000 -0.021879 0.000000
# 3 -0.001983 -0.016041 0.011717 0.000000 -0.005290 0.000000
# 4 0.000000 0.000000 0.000000 0.035177 0.000000 0.002241
# 5 -0.011993 -0.021879 -0.005290 0.000000 0.065413 0.000000
# 6 0.000000 0.000000 0.000000 0.002241 0.000000 0.067622
#
#
# Mechanical properties :
#
#
# Convention : Reuss Voigt Hill
#
# Bulk Modulus (GPa) = 8.26501 29.48597 18.87549
# Shear Modulus (GPa) = 11.02609 21.07019 16.04814
#
# Velocity S-wave (km/s) = 2.57117 3.55430 3.10193
# Velocity P-wave (km/s) = 3.71079 5.87562 4.91391
#
# Compressibility (1/GPa) = 0.12099194
#
# Stress axis : x y z
#
# Youngs Moduli (GPa) = 25.62395 7.56332 85.34727
#
# Poissons Ratio (x) = 0.09802 0.16926
# Poissons Ratio (y) = 0.33209 1.36902
# Poissons Ratio (z) = 0.05082 0.12132
#
# Static dielectric constant tensor:
#      x y z
#    x 1.568430 0.000000 -0.008050 
#    y 0.000000 1.566830 0.000000 
#    z -0.008050 0.000000 1.577700 
# 
# From -- ./inp_files/287601.got.cif
#   From: 2010.05.17/outbox.ucp.g08.bks.cvg/sg12_144_cif.got.tgz:287601.got - 2010.06.11 11:47:21.
