data_PCOD9223727
_publ_section_title
;
Structure prediction by ZEFSAII (Michael W. Deem and Ramdas Pophale) SiO2 
 PCOD9223727
Probable space group: C 2/M
;
_chemical_formula_sum "Si O2"
_cell_formula_units_Z 32
_cell_length_a 30.000000
_cell_length_b 15.000000
_cell_length_c 21.000000
_cell_angle_alpha 90.000000
_cell_angle_beta 20.000000
_cell_angle_gamma 90.000000
_cell_volume 3232.090354
_symmetry_space_group_name_H-M "C 2/M"
_symmetry_group_IT_number 12
_symmetry_cell_setting 'monoclinic'
loop_
_space_group_symop_operation_xyz
x,y,z
-x,y,-z
-x,-y,-z
x,-y,z
1/2+x,1/2+y,z
1/2-x,1/2+y,-z
1/2-x,1/2-y,-z
1/2+x,1/2-y,z
loop_
_atom_site_type_symbol
_atom_site_label
_atom_site_fract_x
_atom_site_fract_y
_atom_site_fract_z
Si Si1 0.436551 0.103074 0.686770
Si Si2 0.573095 0.395730 0.339362
Si Si3 0.637967 0.394073 0.484354
Si Si4 0.677853 0.661471 0.955201
Si Si5 0.401675 0.400715 0.315253
Si Si6 0.866389 0.892033 0.218310
Si Si7 0.198525 0.711315 0.343413
Si Si8 0.822881 0.690090 0.954808
O O1 0.307142 0.125182 0.818253
O O2 0.552791 0.174687 0.521784
O O3 0.399184 0.118144 0.811120
O O4 0.474892 0.000000 0.623104
O O5 0.500000 0.358530 0.500000
O O6 0.589212 0.500000 0.329154
O O7 0.499466 0.387689 0.370150
O O8 0.712171 0.352809 0.146117
O O9 0.676054 0.500000 0.426415
O O10 0.636744 0.370656 0.561237
O O11 0.710158 0.314011 0.350417
O O12 0.720543 0.695119 0.829062
O O13 0.558995 0.594623 0.106112
O O14 0.611317 0.739900 0.086694
O O15 0.345298 0.500000 0.387603
O O16 0.368983 0.359883 0.289158
O O17 0.752320 0.848570 0.329339
O O18 0.855317 0.000000 0.233242
O O19 0.000000 0.870819 0.000000
O O20 0.750000 0.750000 0.000000
#
# Coordination Sequence:
#
# PCOD9223727 Si02
#       8
#     8   8   8   8   8   8   8   8
#     4  11  23  36  54  85 125 160 188 232 300 361
#     4  10  19  33  54  77 106 149 196 235 268 316
#     4  10  21  37  57  84 114 148 195 243 287 340
#     4  11  21  34  56  83 115 155 194 239 284 343
#     4  10  20  37  61  84 109 148 198 244 284 334
#     4  10  21  39  61  87 114 145 193 245 291 342
#     4  12  23  37  59  86 119 151 189 239 295 355
#     4  10  20  33  49  73 111 151 189 226 272 335
#
# _framework density 9.9007129999999997
#
# number of rings (size 3 to 8) (size 9 to 14) (size 15 to 20)
#    0.000    1.500    1.250    6.000    0.000    3.500 
#    0.000    0.625    0.000    0.375    0.000    0.000 
#    0.000    0.000    0.000    0.000    0.000    0.000 
#
# Total GULP energy -178241.825369 kJ/mol
# GULP energy per Si atom -5570.057043 kJ/mol
# Density = 0.987818 g / cm^3
# Si number density = 9.900713 Si / 1000 Ang^3
#
#
#
# Elastic Constant Matrix: (Units=GPa)
#
#
# Indices 1 2 3 4 5 6 
#
# 1 110.1975 26.8980 2.3493 0.0000 14.0831 0.0000
# 2 26.8980 69.7978 6.6032 0.0001 11.2592 -0.0001
# 3 2.3493 6.6032 27.0508 0.0000 13.3522 -0.0001
# 4 0.0000 0.0001 0.0000 18.2796 0.0000 1.5913
# 5 14.0831 11.2592 13.3522 0.0000 40.5179 0.0000
# 6 0.0000 -0.0001 -0.0001 1.5913 0.0000 16.8430
#
#
#
# Elastic Compliance Matrix: (Units=1/GPa)
#
#
# Indices 1 2 3 4 5 6 
#
# 1 0.010320 -0.003623 0.001507 0.000000 -0.003077 0.000000
# 2 -0.003623 0.016355 -0.002455 0.000000 -0.002476 0.000000
# 3 0.001507 -0.002455 0.044615 0.000000 -0.014544 0.000000
# 4 0.000000 0.000000 0.000000 0.055160 0.000000 -0.005211
# 5 -0.003077 -0.002476 -0.014544 0.000000 0.031231 0.000000
# 6 0.000000 0.000000 0.000000 -0.005211 0.000000 0.059864
#
#
# Mechanical properties :
#
#
# Convention : Reuss Voigt Hill
#
# Bulk Modulus (GPa) = 16.09112 30.97192 23.53152
# Shear Modulus (GPa) = 20.20991 26.54114 23.37552
#
# Velocity S-wave (km/s) = 3.19819 3.66507 3.43956
# Velocity P-wave (km/s) = 4.66710 5.79530 5.26153
#
# Compressibility (1/GPa) = 0.06214609
#
# Stress axis : x y z
#
# Youngs Moduli (GPa) = 96.89832 61.14285 22.41419
#
# Poissons Ratio (x) = 0.22154 -0.03377
# Poissons Ratio (y) = 0.35109 0.05504
# Poissons Ratio (z) = -0.14601 0.15013
#
# Static dielectric constant tensor:
#      x y z
#    x 1.713570 0.000000 0.028400 
#    y 0.000000 2.046970 0.000000 
#    z 0.028400 0.000000 1.742750 
# 
# From -- ./inp_files/330318.got.cif
#   From: 2010.05.17/outbox.ucp.g08.bks.cvg/sg12_166_cif.got.tgz:330318.got - 2010.06.11 11:47:21.
