data_PCOD9223960
_publ_section_title
;
Structure prediction by ZEFSAII (Michael W. Deem and Ramdas Pophale) SiO2 
 PCOD9223960
Probable space group: C 2/M
;
_chemical_formula_sum "Si O2"
_cell_formula_units_Z 32
_cell_length_a 21.000000
_cell_length_b 9.000000
_cell_length_c 24.000000
_cell_angle_alpha 90.000000
_cell_angle_beta 130.000000
_cell_angle_gamma 90.000000
_cell_volume 3474.777594
_symmetry_space_group_name_H-M "C 2/M"
_symmetry_group_IT_number 12
_symmetry_cell_setting 'monoclinic'
loop_
_space_group_symop_operation_xyz
x,y,z
-x,y,-z
-x,-y,-z
x,-y,z
1/2+x,1/2+y,z
1/2-x,1/2+y,-z
1/2-x,1/2-y,-z
1/2+x,1/2-y,z
loop_
_atom_site_type_symbol
_atom_site_label
_atom_site_fract_x
_atom_site_fract_y
_atom_site_fract_z
Si Si1 0.236756 0.323281 0.151053
Si Si2 0.486552 0.826919 0.365512
Si Si3 0.329619 0.677799 0.690748
Si Si4 0.395341 0.827353 0.194892
Si Si5 0.311097 0.180062 0.304254
Si Si6 0.665257 0.819639 0.427800
Si Si7 0.999191 0.821167 0.156368
Si Si8 0.079937 0.171055 0.005542
O O1 0.234451 0.500000 0.155730
O O2 0.313171 0.270444 0.155549
O O3 0.260489 0.248577 0.223721
O O4 0.152500 0.264090 0.075520
O O5 0.448608 0.818958 0.281794
O O6 0.407753 0.767412 0.357092
O O7 0.581216 0.769180 0.413913
O O8 0.495255 0.000000 0.386427
O O9 0.332146 0.500000 0.680693
O O10 0.241330 0.712754 0.669847
O O11 0.342999 0.765054 0.640846
O O12 0.403276 0.709475 0.776886
O O13 0.450419 0.762718 0.177003
O O14 0.373516 0.000000 0.174166
O O15 0.311768 0.000000 0.297107
O O16 0.750000 0.750000 0.500000
O O17 0.668593 0.000000 0.431481
O O18 0.990166 0.000000 0.155724
O O19 0.956946 0.776395 0.074376
O O20 0.109758 0.000000 0.016090
O O21 0.000000 0.169263 0.000000
#
# Coordination Sequence:
#
# PCOD9223960 Si02
#       8
#     8   8   8   8   8   8   8   8
#     4  11  22  35  53  81 114 146 187 239 288 333
#     4   8  16  33  57  82 108 144 189 228 269 331
#     4  10  20  36  60  89 116 144 184 235 285 340
#     4  10  19  35  57  79 105 145 188 230 281 337
#     4   9  18  36  61  85 112 151 194 232 280 341
#     4  11  22  38  59  86 117 150 188 231 282 339
#     4  10  20  33  54  83 110 139 183 235 285 333
#     4  10  21  38  56  74 105 150 191 231 284 344
#
# _framework density 9.2092220000000005
#
# number of rings (size 3 to 8) (size 9 to 14) (size 15 to 20)
#    0.000    2.125    1.250    3.375    0.000    3.750 
#    0.000    2.500    0.000    3.750    0.000    0.000 
#    0.000    0.000    0.000    0.000    0.000    0.000 
#
# Total GULP energy -178411.350410 kJ/mol
# GULP energy per Si atom -5575.354700 kJ/mol
# Density = 0.918826 g / cm^3
# Si number density = 9.209222 Si / 1000 Ang^3
#
#
#
# Elastic Constant Matrix: (Units=GPa)
#
#
# Indices 1 2 3 4 5 6 
#
# 1 102.8679 25.1949 17.3158 0.0000 23.6227 0.0000
# 2 25.1949 38.0844 20.8761 0.0000 15.1224 0.0000
# 3 17.3158 20.8761 53.9831 0.0000 31.6396 0.0000
# 4 0.0000 0.0000 0.0000 3.1362 0.0000 -0.5631
# 5 23.6227 15.1224 31.6396 0.0000 29.7693 0.0000
# 6 0.0000 0.0000 0.0000 -0.5631 0.0000 23.8116
#
#
#
# Elastic Compliance Matrix: (Units=1/GPa)
#
#
# Indices 1 2 3 4 5 6 
#
# 1 0.013620 -0.006996 0.006864 0.000000 -0.014550 0.000000
# 2 -0.006996 0.037759 -0.011588 0.000000 -0.001313 0.000000
# 3 0.006864 -0.011588 0.054488 0.000000 -0.057471 0.000000
# 4 0.000000 0.000000 0.000000 0.320215 0.000000 0.007572
# 5 -0.014550 -0.001313 -0.057471 0.000000 0.106886 0.000000
# 6 0.000000 0.000000 0.000000 0.007572 0.000000 0.042175
#
#
# Mechanical properties :
#
#
# Convention : Reuss Voigt Hill
#
# Bulk Modulus (GPa) = 12.13193 35.74544 23.93869
# Shear Modulus (GPa) = 7.98645 20.11334 14.04990
#
# Velocity S-wave (km/s) = 2.08459 3.30816 2.76491
# Velocity P-wave (km/s) = 3.52068 5.83450 4.81854
#
# Compressibility (1/GPa) = 0.08242713
#
# Stress axis : x y z
#
# Youngs Moduli (GPa) = 73.41910 26.48343 18.35272
#
# Poissons Ratio (x) = 0.18528 -0.12597
# Poissons Ratio (y) = 0.51364 0.21268
# Poissons Ratio (z) = -0.50395 0.30690
#
# Static dielectric constant tensor:
#      x y z
#    x 1.665940 0.000000 0.003770 
#    y 0.000000 1.622540 0.000000 
#    z 0.003770 0.000000 1.633200 
# 
# From -- ./inp_files/346264.got.cif
#   From: 2010.05.17/outbox.ucp.g08.bks.cvg/sg12_174_cif.got.tgz:346264.got - 2010.06.11 11:47:21.
