data_PCOD9223676
_publ_section_title
;
Structure prediction by ZEFSAII (Michael W. Deem and Ramdas Pophale) SiO2 
 PCOD9223676
Probable space group: C 2/M
;
_chemical_formula_sum "Si O2"
_cell_formula_units_Z 32
_cell_length_a 15.000000
_cell_length_b 9.000000
_cell_length_c 27.000000
_cell_angle_alpha 90.000000
_cell_angle_beta 70.000000
_cell_angle_gamma 90.000000
_cell_volume 3425.179603
_symmetry_space_group_name_H-M "C 2/M"
_symmetry_group_IT_number 12
_symmetry_cell_setting 'monoclinic'
loop_
_space_group_symop_operation_xyz
x,y,z
-x,y,-z
-x,-y,-z
x,-y,z
1/2+x,1/2+y,z
1/2-x,1/2+y,-z
1/2-x,1/2-y,-z
1/2+x,1/2-y,z
loop_
_atom_site_type_symbol
_atom_site_label
_atom_site_fract_x
_atom_site_fract_y
_atom_site_fract_z
Si Si1 0.379638 0.676359 0.933389
Si Si2 0.112186 0.321141 0.555368
Si Si3 0.822698 0.178230 0.049401
Si Si4 0.324038 0.677109 0.162624
Si Si5 0.495151 0.177328 0.175850
Si Si6 0.700302 0.179013 0.435910
Si Si7 0.882015 0.680078 0.757124
Si Si8 0.589304 0.181391 0.360972
O O1 0.390766 0.500000 0.924710
O O2 0.272715 0.729048 0.942051
O O3 0.445001 0.758861 0.881646
O O4 0.392072 0.708990 0.989848
O O5 0.116970 0.500000 0.557955
O O6 0.200851 0.251066 0.567116
O O7 0.126229 0.284275 0.494428
O O8 0.013749 0.273473 0.598765
O O9 0.851634 0.210273 0.100297
O O10 0.801525 0.000000 0.051313
O O11 0.336008 0.500000 0.166878
O O12 0.390259 0.765315 0.187006
O O13 0.216037 0.715526 0.196263
O O14 0.536537 0.230027 0.220543
O O15 0.501138 0.000000 0.173293
O O16 0.663962 0.227516 0.388996
O O17 0.709562 0.000000 0.433760
O O18 0.886243 0.500000 0.753841
O O19 0.890441 0.733328 0.698917
O O20 0.590536 0.000000 0.359886
#
# Coordination Sequence:
#
# PCOD9223676 Si02
#       8
#     8   8   8   8   8   8   8   8
#     4  10  19  32  55  82 106 135 171 210 259 315
#     4   9  17  30  50  77 108 137 168 210 258 307
#     4   9  18  34  55  79 108 138 167 209 262 316
#     4  10  20  37  57  76 101 136 174 212 261 314
#     4  11  22  37  55  77 105 137 174 217 265 311
#     4   9  17  30  50  77 107 136 170 212 255 304
#     4   9  19  36  55  73 101 138 175 217 262 307
#     4   9  17  31  53  76  98 136 182 213 249 306
#
# _framework density 9.3425759999999993
#
# number of rings (size 3 to 8) (size 9 to 14) (size 15 to 20)
#    0.000    2.500    1.250    1.125    0.000    4.000 
#    0.000    3.125    0.000    6.000    0.000    0.000 
#    0.000    0.000    0.000    0.000    0.000    0.000 
#
# Total GULP energy -178399.640802 kJ/mol
# GULP energy per Si atom -5574.988775 kJ/mol
# Density = 0.932131 g / cm^3
# Si number density = 9.342576 Si / 1000 Ang^3
#
#
#
# Elastic Constant Matrix: (Units=GPa)
#
#
# Indices 1 2 3 4 5 6 
#
# 1 71.9864 17.0709 42.3062 0.0000 33.9037 0.0000
# 2 17.0709 9.1352 16.5973 0.0000 11.8999 0.0000
# 3 42.3062 16.5973 113.4254 0.0000 40.3755 0.0000
# 4 0.0000 0.0000 0.0000 17.5109 0.0000 0.1511
# 5 33.9037 11.8999 40.3755 0.0000 23.8407 0.0000
# 6 0.0000 0.0000 0.0000 0.1511 0.0000 24.7825
#
#
#
# Elastic Compliance Matrix: (Units=1/GPa)
#
#
# Indices 1 2 3 4 5 6 
#
# 1 0.054560 0.019555 0.019846 0.000000 -0.120960 0.000000
# 2 0.019555 0.350087 0.034194 0.000000 -0.260461 0.000000
# 3 0.019846 0.034194 0.031555 0.000000 -0.098731 0.000000
# 4 0.000000 0.000000 0.000000 0.057110 0.000000 -0.000348
# 5 -0.120960 -0.260461 -0.098731 0.000000 0.511174 0.000000
# 6 0.000000 0.000000 0.000000 -0.000348 0.000000 0.040353
#
#
# Mechanical properties :
#
#
# Convention : Reuss Voigt Hill
#
# Bulk Modulus (GPa) = 1.71412 38.49954 20.10683
# Shear Modulus (GPa) = 4.57828 21.13168 12.85498
#
# Velocity S-wave (km/s) = 1.56702 3.36658 2.62578
# Velocity P-wave (km/s) = 2.04778 5.98004 4.46958
#
# Compressibility (1/GPa) = 0.58339135
#
# Stress axis : x y z
#
# Youngs Moduli (GPa) = 18.32856 2.85643 31.69044
#
# Poissons Ratio (x) = -0.05586 -0.62893
# Poissons Ratio (y) = -0.35841 -1.08362
# Poissons Ratio (z) = -0.36375 -0.09767
#
# Static dielectric constant tensor:
#      x y z
#    x 1.659380 0.000000 0.005080 
#    y 0.000000 1.624290 0.000000 
#    z 0.005080 0.000000 1.652220 
# 
# From -- ./inp_files/359724.got.cif
#   From: 2010.05.17/outbox.ucp.g08.bks.cvg/sg12_180_cif.got.tgz:359724.got - 2010.06.11 11:47:21.
