data_PCOD9223384
_publ_section_title
;
Structure prediction by ZEFSAII (Michael W. Deem and Ramdas Pophale) SiO2 
 PCOD9223384
Probable space group: C 2/M
;
_chemical_formula_sum "Si O2"
_cell_formula_units_Z 32
_cell_length_a 18.000000
_cell_length_b 21.000000
_cell_length_c 27.000000
_cell_angle_alpha 90.000000
_cell_angle_beta 160.000000
_cell_angle_gamma 90.000000
_cell_volume 3490.657583
_symmetry_space_group_name_H-M "C 2/M"
_symmetry_group_IT_number 12
_symmetry_cell_setting 'monoclinic'
loop_
_space_group_symop_operation_xyz
x,y,z
-x,y,-z
-x,-y,-z
x,-y,z
1/2+x,1/2+y,z
1/2-x,1/2+y,-z
1/2-x,1/2-y,-z
1/2+x,1/2-y,z
loop_
_atom_site_type_symbol
_atom_site_label
_atom_site_fract_x
_atom_site_fract_y
_atom_site_fract_z
Si Si1 0.438561 0.878060 0.903148
Si Si2 0.486836 0.427942 0.637827
Si Si3 0.074621 0.736538 0.822948
Si Si4 0.943091 0.753168 0.850873
Si Si5 0.832656 0.431761 0.439967
Si Si6 0.987017 0.694994 0.432887
Si Si7 0.256779 0.699319 0.459386
Si Si8 0.094282 0.111758 0.817707
O O1 0.397374 0.807480 0.856687
O O2 0.225203 0.919358 0.762907
O O3 0.500000 0.873593 0.000000
O O4 0.657753 0.903549 0.015148
O O5 0.408872 0.500000 0.581527
O O6 0.341222 0.369714 0.527244
O O7 0.536385 0.414321 0.726871
O O8 0.071542 0.811750 0.806394
O O9 0.954678 0.731140 0.800662
O O10 0.967109 0.698513 0.711061
O O11 0.322892 0.720017 0.988671
O O12 0.757181 0.804919 0.738621
O O13 0.841007 0.500000 0.471217
O O14 0.593984 0.419444 0.268187
O O15 0.000000 0.434360 0.500000
O O16 0.889616 0.368647 0.506836
O O17 0.000000 0.693714 0.500000
O O18 0.084437 0.762208 0.477835
O O19 0.250000 0.750000 0.500000
#
# Coordination Sequence:
#
# PCOD9223384 Si02
#       8
#     8   8   8   8   8   8   8   8
#     4   9  20  33  53  81 114 151 188 228 286 350
#     4  11  22  35  54  82 116 154 190 233 288 344
#     4  10  19  33  54  83 109 144 187 236 289 332
#     4  10  19  32  55  81 112 144 186 234 285 339
#     4  10  19  30  48  75 106 140 181 230 285 339
#     4  11  19  33  54  77 106 145 185 229 284 330
#     4  12  21  35  56  82 111 146 190 243 280 337
#     4  10  18  34  52  78 113 145 184 232 289 346
#
# _framework density 9.1673270000000002
#
# number of rings (size 3 to 8) (size 9 to 14) (size 15 to 20)
#    0.000    1.625    5.000    1.125    0.000    2.750 
#    0.000    0.000    0.000    4.125    0.000    3.500 
#    0.000    4.500    0.000    0.000    0.000    0.000 
#
# Total GULP energy -178203.773519 kJ/mol
# GULP energy per Si atom -5568.867922 kJ/mol
# Density = 0.914646 g / cm^3
# Si number density = 9.167327 Si / 1000 Ang^3
#
#
#
# Elastic Constant Matrix: (Units=GPa)
#
#
# Indices 1 2 3 4 5 6 
#
# 1 36.3351 21.6501 27.2542 -0.0118 6.0787 -0.0075
# 2 21.6501 114.5868 43.2660 0.0169 -0.4966 -0.0104
# 3 27.2542 43.2660 110.6928 0.0251 5.5807 -0.0242
# 4 -0.0118 0.0169 0.0251 13.7477 -0.0038 -5.1111
# 5 6.0787 -0.4966 5.5807 -0.0038 30.7626 -0.0051
# 6 -0.0075 -0.0104 -0.0242 -5.1111 -0.0051 0.3420
#
#
#
# Elastic Compliance Matrix: (Units=1/GPa)
#
#
# Indices 1 2 3 4 5 6 
#
# 1 0.036281 -0.004249 -0.006971 -0.000017 -0.005973 -0.000174
# 2 -0.004249 0.010760 -0.003240 0.000000 0.001601 0.000028
# 3 -0.006971 -0.003240 0.012061 -0.000043 -0.000863 -0.000050
# 4 -0.000017 0.000000 -0.000043 -0.015965 -0.000030 -0.238596
# 5 -0.005973 0.001601 -0.000863 -0.000030 0.033870 -0.000091
# 6 -0.000174 0.000028 -0.000050 -0.238596 -0.000091 -0.641772
#
#
# Mechanical properties :
#
#
# Convention : Reuss Voigt Hill
#
# Bulk Modulus (GPa) = 33.13299 49.55060 41.34180
# Shear Modulus (GPa) = -9.50962 20.26673 5.37856
#
# Velocity S-wave (km/s) = -2.27990 3.32833 1.71462
# Velocity P-wave (km/s) = 3.34363 6.46952 5.14949
#
# Compressibility (1/GPa) = 0.03018140
#
# Stress axis : x y z
#
# Youngs Moduli (GPa) = 27.56231 92.93475 82.91525
#
# Poissons Ratio (x) = 0.39485 0.57802
# Poissons Ratio (y) = 0.11710 0.26868
# Poissons Ratio (z) = 0.19214 0.30115
#
# Static dielectric constant tensor:
#      x y z
#    x 1.724580 -0.000020 0.106360 
#    y -0.000020 1.657470 0.000060 
#    z 0.106360 0.000060 1.656050 
# 
# From -- ./inp_files/364781.got.cif
#   From: 2010.05.17/outbox.ucp.g08.bks.cvg/sg12_183_cif.got.tgz:364781.got - 2010.06.11 11:47:21.
