data_PCOD9223364
_publ_section_title
;
Structure prediction by ZEFSAII (Michael W. Deem and Ramdas Pophale) SiO2 
 PCOD9223364
Probable space group: C 2/M
;
_chemical_formula_sum "Si O2"
_cell_formula_units_Z 32
_cell_length_a 9.000000
_cell_length_b 18.000000
_cell_length_c 21.000000
_cell_angle_alpha 90.000000
_cell_angle_beta 90.000000
_cell_angle_gamma 90.000000
_cell_volume 3402.000000
_symmetry_space_group_name_H-M "C 2/M"
_symmetry_group_IT_number 12
_symmetry_cell_setting 'monoclinic'
loop_
_space_group_symop_operation_xyz
x,y,z
-x,y,-z
-x,-y,-z
x,-y,z
1/2+x,1/2+y,z
1/2-x,1/2+y,-z
1/2-x,1/2-y,-z
1/2+x,1/2-y,z
loop_
_atom_site_type_symbol
_atom_site_label
_atom_site_fract_x
_atom_site_fract_y
_atom_site_fract_z
Si Si1 0.626277 0.206093 0.760024
Si Si2 0.591974 0.089214 0.192757
Si Si3 0.422653 0.321602 0.826971
Si Si4 0.875791 0.717938 0.546986
Si Si5 0.872413 0.588263 0.953053
Si Si6 0.895222 0.800638 0.364922
Si Si7 0.159884 0.819227 0.026908
Si Si8 0.900694 0.914622 0.257488
O O1 0.545938 0.128690 0.774283
O O2 0.551333 0.262312 0.811336
O O3 0.796198 0.200889 0.777827
O O4 0.613194 0.234605 0.687804
O O5 0.613739 0.116085 0.119435
O O6 0.737771 0.108940 0.233067
O O7 0.577303 0.000000 0.191803
O O8 0.354416 0.323978 0.897079
O O9 0.491456 0.398282 0.801963
O O10 0.750000 0.750000 0.500000
O O11 0.765059 0.683891 0.601275
O O12 0.000000 0.678767 0.500000
O O13 0.979132 0.777650 0.584135
O O14 0.886769 0.500000 0.948852
O O15 0.725321 0.609630 0.990688
O O16 0.000000 0.617786 0.000000
O O17 0.940877 0.868727 0.319993
O O18 0.250000 0.750000 0.000000
O O19 0.000000 0.807316 0.000000
O O20 0.897805 0.000000 0.272614
#
# Coordination Sequence:
#
# PCOD9223364 Si02
#       8
#     8   8   8   8   8   8   8   8
#     4  11  20  34  54  78 106 134 175 221 269 321
#     4  10  20  35  53  74 104 140 178 224 280 332
#     4  11  22  34  52  75 103 137 177 231 281 329
#     4   9  18  32  55  84 112 136 167 209 245 293
#     4  10  21  37  54  71  97 136 180 227 280 338
#     4  10  18  33  55  82 107 140 176 211 259 305
#     4  12  23  35  52  73 100 135 179 229 284 340
#     4  10  21  36  54  78 110 145 180 223 274 324
#
# _framework density 9.4062319999999993
#
# number of rings (size 3 to 8) (size 9 to 14) (size 15 to 20)
#    0.000    1.625    0.000    7.125    0.000    1.250 
#    0.000    0.000    0.000    3.750    0.000    3.500 
#    0.000    0.000    0.000    0.000    0.000    0.000 
#
# Total GULP energy -178267.114205 kJ/mol
# GULP energy per Si atom -5570.847319 kJ/mol
# Density = 0.938482 g / cm^3
# Si number density = 9.406232 Si / 1000 Ang^3
#
#
#
# Elastic Constant Matrix: (Units=GPa)
#
#
# Indices 1 2 3 4 5 6 
#
# 1 77.9769 17.6967 13.3890 0.0000 -6.0779 0.0000
# 2 17.6967 25.3794 16.3368 0.0000 6.5773 0.0000
# 3 13.3890 16.3368 104.4924 0.0000 -9.4624 0.0000
# 4 0.0000 0.0000 0.0000 13.3364 0.0000 -6.0300
# 5 -6.0779 6.5773 -9.4624 0.0000 41.4942 0.0000
# 6 0.0000 0.0000 0.0000 -6.0300 0.0000 12.7217
#
#
#
# Elastic Compliance Matrix: (Units=1/GPa)
#
#
# Indices 1 2 3 4 5 6 
#
# 1 0.015937 -0.012438 0.000299 0.000000 0.004374 0.000000
# 2 -0.012438 0.056816 -0.008444 0.000000 -0.012753 0.000000
# 3 0.000299 -0.008444 0.011209 0.000000 0.003938 0.000000
# 4 0.000000 0.000000 0.000000 0.095437 0.000000 0.045237
# 5 0.004374 -0.012753 0.003938 0.000000 0.027660 0.000000
# 6 0.000000 0.000000 0.000000 0.045237 0.000000 0.100048
#
#
# Mechanical properties :
#
#
# Convention : Reuss Voigt Hill
#
# Bulk Modulus (GPa) = 23.36784 33.63265 28.50025
# Shear Modulus (GPa) = 13.79166 24.20552 18.99859
#
# Velocity S-wave (km/s) = 2.71054 3.59092 3.18133
# Velocity P-wave (km/s) = 4.71641 5.92533 5.35509
#
# Compressibility (1/GPa) = 0.04279385
#
# Stress axis : x y z
#
# Youngs Moduli (GPa) = 62.74768 17.60078 89.21737
#
# Poissons Ratio (x) = 0.21893 -0.02665
# Poissons Ratio (y) = 0.78048 0.75334
# Poissons Ratio (z) = -0.01874 0.14862
#
# Static dielectric constant tensor:
#      x y z
#    x 1.660540 0.000000 0.011000 
#    y 0.000000 1.702760 0.000000 
#    z 0.011000 0.000000 1.657700 
# 
# From -- ./inp_files/300806.got.cif
#   From: 2010.05.17/outbox.ucp.g08.bks.cvg/sg12_151_cif.got.tgz:300806.got - 2010.06.11 11:47:21.
