data_PCOD9223273
_publ_section_title
;
Structure prediction by ZEFSAII (Michael W. Deem and Ramdas Pophale) SiO2 
 PCOD9223273
Probable space group: C 2/M
;
_chemical_formula_sum "Si O2"
_cell_formula_units_Z 32
_cell_length_a 30.000000
_cell_length_b 9.000000
_cell_length_c 24.000000
_cell_angle_alpha 90.000000
_cell_angle_beta 30.000000
_cell_angle_gamma 90.000000
_cell_volume 3240.000000
_symmetry_space_group_name_H-M "C 2/M"
_symmetry_group_IT_number 12
_symmetry_cell_setting 'monoclinic'
loop_
_space_group_symop_operation_xyz
x,y,z
-x,y,-z
-x,-y,-z
x,-y,z
1/2+x,1/2+y,z
1/2-x,1/2+y,-z
1/2-x,1/2-y,-z
1/2+x,1/2-y,z
loop_
_atom_site_type_symbol
_atom_site_label
_atom_site_fract_x
_atom_site_fract_y
_atom_site_fract_z
Si Si1 0.098725 0.824750 0.266658
Si Si2 0.591995 0.323270 0.140064
Si Si3 0.583666 0.823444 0.503450
Si Si4 0.280382 0.322109 0.101900
Si Si5 0.332930 0.669608 0.482798
Si Si6 0.736516 0.678634 0.754890
Si Si7 0.147494 0.331480 0.749000
Si Si8 0.584731 0.822957 0.706363
O O1 0.107503 0.806629 0.189674
O O2 0.180932 0.734099 0.201125
O O3 0.009784 0.762625 0.392918
O O4 0.105210 0.000000 0.270695
O O5 0.572999 0.500000 0.152269
O O6 0.508426 0.219168 0.219621
O O7 0.663533 0.279439 0.014459
O O8 0.620746 0.783043 0.524771
O O9 0.662031 0.775857 0.374747
O O10 0.569931 0.000000 0.512061
O O11 0.284284 0.500000 0.098827
O O12 0.298744 0.271388 0.146127
O O13 0.369666 0.500000 0.447194
O O14 0.233709 0.663006 0.614614
O O15 0.346894 0.729863 0.405757
O O16 0.737852 0.500000 0.752732
O O17 0.672457 0.736531 0.775213
O O18 0.127132 0.500000 0.788471
O O19 0.077449 0.275885 0.779242
O O20 0.601907 0.000000 0.685097
#
# Coordination Sequence:
#
# PCOD9223273 Si02
#       8
#     8   8   8   8   8   8   8   8
#     4  11  22  36  57  86 114 142 182 227 280 339
#     4  10  22  39  58  81 112 146 184 231 278 326
#     4  10  19  33  55  83 114 147 179 224 276 327
#     4  10  22  41  61  80 106 145 190 235 278 324
#     4  10  18  31  51  78 114 148 180 223 272 326
#     4   9  20  38  59  82 109 145 191 231 271 324
#     4   9  20  35  53  80 113 148 184 224 272 327
#     4  11  21  33  53  82 113 147 185 223 273 331
#
# _framework density 9.8765429999999999
#
# number of rings (size 3 to 8) (size 9 to 14) (size 15 to 20)
#    0.000    2.000    1.250    2.250    0.000    4.000 
#    0.000    3.125    0.000    3.750    0.000    0.000 
#    0.000    0.000    0.000    0.000    0.000    0.000 
#
# Total GULP energy -178199.637969 kJ/mol
# GULP energy per Si atom -5568.738687 kJ/mol
# Density = 0.985406 g / cm^3
# Si number density = 9.876543 Si / 1000 Ang^3
#
#
#
# Elastic Constant Matrix: (Units=GPa)
#
#
# Indices 1 2 3 4 5 6 
#
# 1 24.7473 -8.1202 -13.4890 0.0058 9.4270 -0.0015
# 2 -8.1202 -17.5509 7.8610 0.0159 14.9403 -0.0081
# 3 -13.4890 7.8610 6.2819 0.0155 9.1906 -0.0048
# 4 0.0058 0.0159 0.0155 21.3734 -0.0027 0.4994
# 5 9.4270 14.9403 9.1906 -0.0027 18.9226 0.0029
# 6 -0.0015 -0.0081 -0.0048 0.4994 0.0029 27.2328
#
#
#
# Elastic Compliance Matrix: (Units=1/GPa)
#
#
# Indices 1 2 3 4 5 6 
#
# 1 -0.006393 0.002068 -0.064223 0.000051 0.032746 -0.000015
# 2 0.002068 -0.034512 0.032023 0.000003 0.010666 -0.000006
# 3 -0.064223 0.032023 -0.098857 0.000073 0.054726 -0.000019
# 4 0.000051 0.000003 0.000073 0.046807 -0.000057 -0.000858
# 5 0.032746 0.010666 0.054726 -0.000057 0.001532 0.000015
# 6 -0.000015 -0.000006 -0.000019 -0.000858 0.000015 0.036736
#
#
# Mechanical properties :
#
#
# Convention : Reuss Voigt Hill
#
# Bulk Modulus (GPa) = -4.99929 -1.55757 -3.27843
# Shear Modulus (GPa) = -81.83818 15.32087 -33.25865
#
# Velocity S-wave (km/s) = -6.44364 2.78802 -4.10777
# Velocity P-wave (km/s) = 7.60901 3.09416 4.91545
#
# Compressibility (1/GPa) = -0.20002850
#
# Stress axis : x y z
#
# Youngs Moduli (GPa) = -156.41436 -28.97557 -10.11565
#
# Poissons Ratio (x) = 0.05991 -0.64966
# Poissons Ratio (y) = 0.32340 0.32393
# Poissons Ratio (z) = -10.04546 0.92787
#
# Static dielectric constant tensor:
#      x y z
#    x 1.791690 0.000000 -0.039490 
#    y 0.000000 1.654210 0.000000 
#    z -0.039490 0.000000 1.733030 
# 
# From -- ./inp_files/353302.got.cif
#   From: 2010.05.17/outbox.ucp.g08.bks.cvg/sg12_177_cif.got.tgz:353302.got - 2010.06.11 11:47:21.
