data_PCOD9223180
_publ_section_title
;
Structure prediction by ZEFSAII (Michael W. Deem and Ramdas Pophale) SiO2 
 PCOD9223180
Probable space group: C 2/M
;
_chemical_formula_sum "Si O2"
_cell_formula_units_Z 32
_cell_length_a 21.000000
_cell_length_b 18.000000
_cell_length_c 12.000000
_cell_angle_alpha 90.000000
_cell_angle_beta 130.000000
_cell_angle_gamma 90.000000
_cell_volume 3474.777594
_symmetry_space_group_name_H-M "C 2/M"
_symmetry_group_IT_number 12
_symmetry_cell_setting 'monoclinic'
loop_
_space_group_symop_operation_xyz
x,y,z
-x,y,-z
-x,-y,-z
x,-y,z
1/2+x,1/2+y,z
1/2-x,1/2+y,-z
1/2-x,1/2-y,-z
1/2+x,1/2-y,z
loop_
_atom_site_type_symbol
_atom_site_label
_atom_site_fract_x
_atom_site_fract_y
_atom_site_fract_z
Si Si1 0.715041 0.414666 0.116941
Si Si2 0.315991 0.314233 0.107407
Si Si3 0.120153 0.278356 0.374125
Si Si4 0.190243 0.643793 0.121285
Si Si5 0.922071 0.415572 0.829979
Si Si6 0.777768 0.208053 0.702960
Si Si7 0.607515 0.913684 0.810120
Si Si8 0.472898 0.774770 0.348281
O O1 0.691190 0.500000 0.097136
O O2 0.712854 0.370959 0.229399
O O3 0.808428 0.410551 0.169292
O O4 0.662201 0.365597 0.971626
O O5 0.277282 0.367436 0.158035
O O6 0.387840 0.265278 0.234178
O O7 0.250000 0.250000 0.000000
O O8 0.095009 0.355347 0.284616
O O9 0.162511 0.224786 0.332867
O O10 0.185003 0.287393 0.548476
O O11 0.036563 0.246643 0.328996
O O12 0.159635 0.591058 0.184450
O O13 0.199053 0.726274 0.183352
O O14 0.126405 0.627886 0.948313
O O15 0.934270 0.500000 0.805151
O O16 0.000000 0.396393 0.000000
O O17 0.538357 0.863587 0.675045
O O18 0.587761 0.000000 0.806033
O O19 0.500000 0.755721 0.500000
#
# Coordination Sequence:
#
# PCOD9223180 Si02
#       8
#     8   8   8   8   8   8   8   8
#     4  10  19  33  58  84 109 147 183 223 282 331
#     4  11  19  35  57  82 112 146 186 239 263 317
#     4  10  23  34  55  79 108 147 185 228 277 330
#     4  10  17  32  55  73 102 151 184 220 261 305
#     4  10  21  34  50  77 113 147 179 217 267 337
#     4  10  19  38  53  76 110 143 189 233 269 324
#     4  10  19  31  50  84 121 147 176 214 265 339
#     4  12  22  35  56  84 111 147 187 225 283 330
#
# _framework density 9.2092220000000005
#
# number of rings (size 3 to 8) (size 9 to 14) (size 15 to 20)
#    0.000    1.625    3.750    2.625    0.000    2.750 
#    0.000    0.000    0.000    1.875    0.000    0.000 
#    0.000    0.000    0.000    0.000    0.000    0.000 
#
# Total GULP energy -178201.589916 kJ/mol
# GULP energy per Si atom -5568.799685 kJ/mol
# Density = 0.918826 g / cm^3
# Si number density = 9.209222 Si / 1000 Ang^3
#
#
#
# Elastic Constant Matrix: (Units=GPa)
#
#
# Indices 1 2 3 4 5 6 
#
# 1 46.1839 9.9238 36.2512 0.0000 4.9064 0.0000
# 2 9.9238 89.8604 45.0484 0.0000 -4.0976 0.0000
# 3 36.2512 45.0484 71.6223 0.0000 6.9003 0.0000
# 4 0.0000 0.0000 0.0000 17.7665 0.0000 -3.4109
# 5 4.9064 -4.0976 6.9003 0.0000 17.9678 0.0000
# 6 0.0000 0.0000 0.0000 -3.4109 0.0000 13.6654
#
#
#
# Elastic Compliance Matrix: (Units=1/GPa)
#
#
# Indices 1 2 3 4 5 6 
#
# 1 0.039789 0.008447 -0.025535 0.000000 0.000868 0.000000
# 2 0.008447 0.019211 -0.017195 0.000000 0.008678 0.000000
# 3 -0.025535 -0.017195 0.038845 0.000000 -0.011866 0.000000
# 4 0.000000 0.000000 0.000000 0.059119 0.000000 0.014756
# 5 0.000868 0.008678 -0.011866 0.000000 0.061954 0.000000
# 6 0.000000 0.000000 0.000000 0.014756 0.000000 0.076861
#
#
# Mechanical properties :
#
#
# Convention : Reuss Voigt Hill
#
# Bulk Modulus (GPa) = 34.15477 43.34594 38.75036
# Shear Modulus (GPa) = 13.36527 17.64282 15.50404
#
# Velocity S-wave (km/s) = 2.69670 3.09833 2.90447
# Velocity P-wave (km/s) = 5.31793 6.03197 5.68617
#
# Compressibility (1/GPa) = 0.02927848
#
# Stress axis : x y z
#
# Youngs Moduli (GPa) = 25.13273 52.05305 25.74350
#
# Poissons Ratio (x) = -0.43967 0.65736
# Poissons Ratio (y) = -0.21229 0.44265
# Poissons Ratio (z) = 0.64177 0.89503
#
# Static dielectric constant tensor:
#      x y z
#    x 1.702730 0.000000 -0.015420 
#    y 0.000000 1.615580 0.000000 
#    z -0.015420 0.000000 1.654290 
# 
# From -- ./inp_files/168797.got.cif
#   From: 2010.05.17/outbox.ucp.g08.bks.cvg/sg12_85_cif.got.tgz:168797.got - 2010.06.11 11:47:21.
