data_PCOD9223319
_publ_section_title
;
Structure prediction by ZEFSAII (Michael W. Deem and Ramdas Pophale) SiO2 
 PCOD9223319
Probable space group: C 2/M
;
_chemical_formula_sum "Si O2"
_cell_formula_units_Z 28
_cell_length_a 21.000000
_cell_length_b 9.000000
_cell_length_c 30.000000
_cell_angle_alpha 90.000000
_cell_angle_beta 150.000000
_cell_angle_gamma 90.000000
_cell_volume 2835.000000
_symmetry_space_group_name_H-M "C 2/M"
_symmetry_group_IT_number 12
_symmetry_cell_setting 'monoclinic'
loop_
_space_group_symop_operation_xyz
x,y,z
-x,y,-z
-x,-y,-z
x,-y,z
1/2+x,1/2+y,z
1/2-x,1/2+y,-z
1/2-x,1/2-y,-z
1/2+x,1/2-y,z
loop_
_atom_site_type_symbol
_atom_site_label
_atom_site_fract_x
_atom_site_fract_y
_atom_site_fract_z
Si Si1 0.726807 0.665334 0.160692
Si Si2 0.804257 0.173216 0.681588
Si Si3 0.126926 0.335054 0.658542
Si Si4 0.989189 0.331367 0.918177
Si Si5 0.586184 0.332732 0.507182
Si Si6 0.786335 0.832815 0.113840
Si Si7 0.952820 0.323629 0.145704
O O1 0.693978 0.500000 0.124749
O O2 0.808752 0.657864 0.255072
O O3 0.600230 0.746079 0.101952
O O4 0.810267 0.744296 0.173495
O O5 0.732785 0.203068 0.685486
O O6 0.700203 0.218614 0.582269
O O7 0.925593 0.278302 0.751342
O O8 0.838754 0.000000 0.701079
O O9 0.078730 0.500000 0.616331
O O10 0.013414 0.218902 0.589797
O O11 0.938071 0.500000 0.882824
O O12 0.008211 0.266885 0.879904
O O13 0.133450 0.338931 0.021975
O O14 0.500000 0.326961 0.500000
O O15 0.632605 0.500000 0.530017
O O16 0.835083 0.752737 0.098950
O O17 0.836853 0.000000 0.144997
O O18 0.932271 0.500000 0.129910
#
# Coordination Sequence:
#
# PCOD9223319 Si02
#       7
#     8   8   8   8   8   8   8
#     4  11  22  37  58  84 113 147 188 231 276 329
#     4  10  18  32  53  79 111 146 181 223 275 328
#     4   9  18  32  51  78 110 144 181 223 272 325
#     4  10  22  39  59  82 110 144 186 235 283 331
#     4   9  17  28  47  78 111 142 178 224 271 319
#     4  11  24  40  56  79 112 150 188 229 282 336
#     4  11  22  37  58  83 111 145 187 234 279 329
#
# _framework density 9.8765429999999999
#
# number of rings (size 3 to 8) (size 9 to 14) (size 15 to 20)
#    0.000    1.857    1.429    3.000    0.000    6.857 
#    0.000    0.000    0.000    0.857    0.000    0.000 
#    0.000    0.000    0.000    0.000    0.000    0.000 
#
# Total GULP energy -156045.103944 kJ/mol
# GULP energy per Si atom -5573.039427 kJ/mol
# Density = 0.985406 g / cm^3
# Si number density = 9.876543 Si / 1000 Ang^3
#
#
#
# Elastic Constant Matrix: (Units=GPa)
#
#
# Indices 1 2 3 4 5 6 
#
# 1 73.3516 40.1831 6.6659 0.0000 -3.9192 0.0000
# 2 40.1831 52.8787 0.1283 0.0000 -6.2048 0.0001
# 3 6.6659 0.1283 39.0915 0.0001 -8.2321 0.0000
# 4 0.0000 0.0000 0.0001 18.1687 0.0000 3.6041
# 5 -3.9192 -6.2048 -8.2321 0.0000 1.8966 0.0000
# 6 0.0000 0.0001 0.0000 3.6041 0.0000 18.0603
#
#
#
# Elastic Compliance Matrix: (Units=1/GPa)
#
#
# Indices 1 2 3 4 5 6 
#
# 1 0.019924 -0.006064 0.012968 0.000000 0.077619 0.000000
# 2 -0.006064 -0.003674 -0.047965 0.000001 -0.232738 0.000000
# 3 0.012968 -0.047965 -0.045065 0.000001 -0.325719 0.000000
# 4 0.000000 0.000001 0.000001 0.057308 0.000003 -0.011436
# 5 0.077619 -0.232738 -0.325719 0.000003 -1.487501 0.000001
# 6 0.000000 0.000000 0.000000 -0.011436 0.000001 0.057652
#
#
# Mechanical properties :
#
#
# Convention : Reuss Voigt Hill
#
# Bulk Modulus (GPa) = -9.01411 28.80849 9.89719
# Shear Modulus (GPa) = -3.68674 15.51474 5.91400
#
# Velocity S-wave (km/s) = -1.36765 2.80560 1.73218
# Velocity P-wave (km/s) = 2.65843 5.01110 3.00366
#
# Compressibility (1/GPa) = -0.11093714
#
# Stress axis : x y z
#
# Youngs Moduli (GPa) = 50.19186 -272.17438 -22.19034
#
# Poissons Ratio (x) = -1.65039 0.28776
# Poissons Ratio (y) = 0.30435 -1.06436
# Poissons Ratio (z) = -0.65089 -13.05490
#
# Static dielectric constant tensor:
#      x y z
#    x 1.667040 0.000000 -0.023460 
#    y 0.000000 1.748980 0.000000 
#    z -0.023460 0.000000 1.756030 
# 
# From -- ./inp_files/314394.got.cif
#   From: 2010.05.17/outbox.ucp.g08.bks.cvg/sg12_158_cif.got.tgz:314394.got - 2010.06.11 11:47:21.
