data_PCOD9223302
_publ_section_title
;
Structure prediction by ZEFSAII (Michael W. Deem and Ramdas Pophale) SiO2 
 PCOD9223302
Probable space group: C 2/M
;
_chemical_formula_sum "Si O2"
_cell_formula_units_Z 28
_cell_length_a 18.000000
_cell_length_b 18.000000
_cell_length_c 15.000000
_cell_angle_alpha 90.000000
_cell_angle_beta 140.000000
_cell_angle_gamma 90.000000
_cell_volume 3123.947783
_symmetry_space_group_name_H-M "C 2/M"
_symmetry_group_IT_number 12
_symmetry_cell_setting 'monoclinic'
loop_
_space_group_symop_operation_xyz
x,y,z
-x,y,-z
-x,-y,-z
x,-y,z
1/2+x,1/2+y,z
1/2-x,1/2+y,-z
1/2-x,1/2-y,-z
1/2+x,1/2-y,z
loop_
_atom_site_type_symbol
_atom_site_label
_atom_site_fract_x
_atom_site_fract_y
_atom_site_fract_z
Si Si1 0.241584 0.086003 0.890059
Si Si2 0.673442 0.313774 0.977458
Si Si3 0.821518 0.408872 0.640608
Si Si4 0.971650 0.684120 0.079176
Si Si5 0.606634 0.910987 0.488693
Si Si6 0.661732 0.091117 0.739590
Si Si7 0.877595 0.913614 0.411529
O O1 0.192767 0.087984 0.745215
O O2 0.259610 0.000000 0.932372
O O3 0.156628 0.126345 0.882460
O O4 0.361584 0.130637 0.996533
O O5 0.747768 0.359855 0.120093
O O6 0.750000 0.250000 0.000000
O O7 0.566765 0.266001 0.919724
O O8 0.839334 0.500000 0.669414
O O9 0.824300 0.393227 0.537534
O O10 0.703741 0.386826 0.583312
O O11 0.922583 0.358888 0.776470
O O12 0.000000 0.688747 0.000000
O O13 0.470868 0.890135 0.353542
O O14 0.660998 0.887661 0.633472
O O15 0.602674 0.000000 0.492302
O O16 0.678598 0.000000 0.764599
O O17 0.000000 0.876762 0.500000
O O18 0.901414 0.000000 0.457295
#
# Coordination Sequence:
#
# PCOD9223302 Si02
#       7
#     8   8   8   8   8   8   8
#     4  10  19  34  58  83 106 143 193 233 276 328
#     4  10  21  33  51  75 113 150 184 228 280 334
#     4  10  18  31  56  88 115 141 182 235 288 335
#     4  11  21  34  54  80 120 150 184 232 285 328
#     4   8  15  27  51  84 112 140 181 237 289 329
#     4   9  16  31  53  78 110 149 192 233 276 335
#     4   9  18  32  53  81 111 139 173 227 286 338
#
# _framework density 8.9630179999999999
#
# number of rings (size 3 to 8) (size 9 to 14) (size 15 to 20)
#    0.000    2.429    1.429    3.429    0.000    1.714 
#    0.000    1.429   18.857    5.143    0.000    0.000 
#    0.000    0.000    0.000    0.000    0.000    1.143 
#
# Total GULP energy -155905.397187 kJ/mol
# GULP energy per Si atom -5568.049900 kJ/mol
# Density = 0.894262 g / cm^3
# Si number density = 8.963018 Si / 1000 Ang^3
#
#
#
# Elastic Constant Matrix: (Units=GPa)
#
#
# Indices 1 2 3 4 5 6 
#
# 1 152.1584 41.4866 46.3096 0.0000 -11.7487 0.0000
# 2 41.4866 69.9408 11.2660 0.0000 -1.7432 0.0000
# 3 46.3096 11.2660 40.5757 0.0000 -1.2728 0.0000
# 4 0.0000 0.0000 0.0000 19.3734 0.0000 -1.9147
# 5 -11.7487 -1.7432 -1.2728 0.0000 31.9045 0.0000
# 6 0.0000 0.0000 0.0000 -1.9147 0.0000 29.8056
#
#
#
# Elastic Compliance Matrix: (Units=1/GPa)
#
#
# Indices 1 2 3 4 5 6 
#
# 1 0.011893 -0.005021 -0.012066 0.000000 0.003624 0.000000
# 2 -0.005021 0.017100 0.000955 0.000000 -0.000876 0.000000
# 3 -0.012066 0.000955 0.038061 0.000000 -0.002873 0.000000
# 4 0.000000 0.000000 0.000000 0.051947 0.000000 0.003337
# 5 0.003624 -0.000876 -0.002873 0.000000 0.032516 0.000000
# 6 0.000000 0.000000 0.000000 0.003337 0.000000 0.033765
#
#
# Mechanical properties :
#
#
# Convention : Reuss Voigt Hill
#
# Bulk Modulus (GPa) = 28.74343 51.19994 39.97169
# Shear Modulus (GPa) = 21.82037 27.12419 24.47228
#
# Velocity S-wave (km/s) = 3.49269 3.89410 3.69884
# Velocity P-wave (km/s) = 5.68634 6.98874 6.37091
#
# Compressibility (1/GPa) = 0.03479056
#
# Stress axis : x y z
#
# Youngs Moduli (GPa) = 84.08173 58.47851 26.27340
#
# Poissons Ratio (x) = 0.29360 0.31702
# Poissons Ratio (y) = 0.42215 -0.02508
# Poissons Ratio (z) = 1.01454 -0.05583
#
# Static dielectric constant tensor:
#      x y z
#    x 1.648000 0.000000 -0.006060 
#    y 0.000000 1.619670 0.000000 
#    z -0.006060 0.000000 1.623860 
# 
# From -- ./inp_files/226595.got.cif
#   From: 2010.05.17/outbox.ucp.g08.bks.cvg/sg12_114_cif.got.tgz:226595.got - 2010.06.11 11:47:21.
