data_PCOD9223916
_publ_section_title
;
Structure prediction by ZEFSAII (Michael W. Deem and Ramdas Pophale) SiO2 
 PCOD9223916
Probable space group: C 2/M
;
_chemical_formula_sum "Si O2"
_cell_formula_units_Z 32
_cell_length_a 30.000000
_cell_length_b 9.000000
_cell_length_c 15.000000
_cell_angle_alpha 90.000000
_cell_angle_beta 50.000000
_cell_angle_gamma 90.000000
_cell_volume 3102.479995
_symmetry_space_group_name_H-M "C 2/M"
_symmetry_group_IT_number 12
_symmetry_cell_setting 'monoclinic'
loop_
_space_group_symop_operation_xyz
x,y,z
-x,y,-z
-x,-y,-z
x,-y,z
1/2+x,1/2+y,z
1/2-x,1/2+y,-z
1/2-x,1/2-y,-z
1/2+x,1/2-y,z
loop_
_atom_site_type_symbol
_atom_site_label
_atom_site_fract_x
_atom_site_fract_y
_atom_site_fract_z
Si Si1 0.641610 0.825423 0.970574
Si Si2 0.238027 0.821727 0.110514
Si Si3 0.264041 0.180129 0.385921
Si Si4 0.049471 0.821769 0.744311
Si Si5 0.605480 0.321749 0.337340
Si Si6 0.859473 0.820706 0.520392
Si Si7 0.552191 0.173636 0.239133
Si Si8 0.114531 0.177956 0.832203
O O1 0.708811 0.776732 0.893074
O O2 0.606371 0.731819 0.943434
O O3 0.639947 0.000000 0.947602
O O4 0.611543 0.810465 0.105334
O O5 0.172725 0.788496 0.225122
O O6 0.242379 0.000000 0.097606
O O7 0.250000 0.750000 0.000000
O O8 0.250000 0.250000 0.500000
O O9 0.208055 0.223083 0.397304
O O10 0.324870 0.245570 0.274512
O O11 0.266772 0.000000 0.386470
O O12 0.107613 0.784496 0.612985
O O13 0.063954 0.779051 0.827355
O O14 0.997180 0.745820 0.759068
O O15 0.041002 0.000000 0.752113
O O16 0.597051 0.500000 0.344485
O O17 0.603353 0.268414 0.442454
O O18 0.562804 0.249159 0.320769
O O19 0.858641 0.000000 0.528610
O O20 0.540169 0.000000 0.266016
O O21 0.120410 0.000000 0.820051
#
# Coordination Sequence:
#
# PCOD9223916 Si02
#       8
#     8   8   8   8   8   8   8   8
#     4  10  22  40  60  85 120 158 192 238 301 358
#     4  10  19  34  58  87 118 152 191 233 290 353
#     4  11  20  36  62  91 126 159 194 239 292 353
#     4  10  22  42  62  82 114 154 201 246 288 348
#     4  10  20  36  62  88 112 153 198 236 287 348
#     4   9  19  38  62  86 117 156 196 236 283 350
#     4  11  24  41  60  84 117 153 195 248 302 350
#     4  11  23  39  61  91 120 153 199 246 294 348
#
# _framework density 10.314329000000001
#
# number of rings (size 3 to 8) (size 9 to 14) (size 15 to 20)
#    0.000    1.750    2.500    1.875    0.000    5.500 
#    0.000    8.125    0.000    0.000    0.000    0.000 
#    0.000    0.000    0.000    0.000    0.000    0.000 
#
# Total GULP energy -178726.750065 kJ/mol
# GULP energy per Si atom -5585.210940 kJ/mol
# Density = 1.029085 g / cm^3
# Si number density = 10.314329 Si / 1000 Ang^3
#
#
#
# Elastic Constant Matrix: (Units=GPa)
#
#
# Indices 1 2 3 4 5 6 
#
# 1 159.5988 37.6667 4.4615 0.0000 21.1224 0.0000
# 2 37.6667 36.9220 6.4144 0.0000 7.8153 0.0000
# 3 4.4615 6.4144 13.0356 0.0000 17.0445 0.0000
# 4 0.0000 0.0000 0.0000 25.4225 0.0000 0.1072
# 5 21.1224 7.8153 17.0445 0.0000 39.4755 0.0000
# 6 0.0000 0.0000 0.0000 0.1072 0.0000 30.9503
#
#
#
# Elastic Compliance Matrix: (Units=1/GPa)
#
#
# Indices 1 2 3 4 5 6 
#
# 1 0.009424 -0.010048 0.013115 0.000000 -0.008716 0.000000
# 2 -0.010048 0.040345 -0.029853 0.000000 0.010278 0.000000
# 3 0.013115 -0.029853 0.202926 0.000000 -0.088726 0.000000
# 4 0.000000 0.000000 0.000000 0.039336 0.000000 -0.000136
# 5 -0.008716 0.010278 -0.088726 0.000000 0.066271 0.000000
# 6 0.000000 0.000000 0.000000 -0.000136 0.000000 0.032310
#
#
# Mechanical properties :
#
#
# Convention : Reuss Voigt Hill
#
# Bulk Modulus (GPa) = 5.02199 34.07128 19.54664
# Shear Modulus (GPa) = 9.79324 29.90392 19.84858
#
# Velocity S-wave (km/s) = 2.18122 3.81153 3.10528
# Velocity P-wave (km/s) = 2.96367 5.99355 4.72790
#
# Compressibility (1/GPa) = 0.19912427
#
# Stress axis : x y z
#
# Youngs Moduli (GPa) = 106.11275 24.78623 4.92791
#
# Poissons Ratio (x) = 0.24904 -0.06463
# Poissons Ratio (y) = 1.06617 0.14711
# Poissons Ratio (z) = -1.39171 0.73994
#
# Static dielectric constant tensor:
#      x y z
#    x 1.742980 0.000000 0.009270 
#    y 0.000000 1.690990 0.000000 
#    z 0.009270 0.000000 1.775660 
# 
# From -- ./inp_files/249660.got.cif
#   From: 2010.05.17/outbox.ucp.g08.bks.cvg/sg12_125_cif.got.tgz:249660.got - 2010.06.11 11:47:21.
