data_PCOD9223600
_publ_section_title
;
Structure prediction by ZEFSAII (Michael W. Deem and Ramdas Pophale) SiO2 
 PCOD9223600
Probable space group: C 2/M
;
_chemical_formula_sum "Si O2"
_cell_formula_units_Z 32
_cell_length_a 15.000000
_cell_length_b 9.000000
_cell_length_c 27.000000
_cell_angle_alpha 90.000000
_cell_angle_beta 100.000000
_cell_angle_gamma 90.000000
_cell_volume 3589.624260
_symmetry_space_group_name_H-M "C 2/M"
_symmetry_group_IT_number 12
_symmetry_cell_setting 'monoclinic'
loop_
_space_group_symop_operation_xyz
x,y,z
-x,y,-z
-x,-y,-z
x,-y,z
1/2+x,1/2+y,z
1/2-x,1/2+y,-z
1/2-x,1/2-y,-z
1/2+x,1/2-y,z
loop_
_atom_site_type_symbol
_atom_site_label
_atom_site_fract_x
_atom_site_fract_y
_atom_site_fract_z
Si Si1 0.350253 0.179877 0.005653
Si Si2 0.986161 0.179060 0.616508
Si Si3 0.491013 0.677185 0.731453
Si Si4 0.029491 0.319649 0.078792
Si Si5 0.181468 0.677531 0.635952
Si Si6 0.117881 0.321006 0.190190
Si Si7 0.199307 0.821530 0.448631
Si Si8 0.701296 0.321622 0.742514
O O1 0.400666 0.218948 0.958711
O O2 0.341398 0.000000 0.006787
O O3 0.250000 0.250000 0.000000
O O4 0.426647 0.225842 0.054031
O O5 0.963180 0.211724 0.672045
O O6 0.904646 0.224025 0.572314
O O7 0.081836 0.256490 0.616100
O O8 0.997467 0.000000 0.614471
O O9 0.479567 0.500000 0.737145
O O10 0.435400 0.763308 0.767156
O O11 0.597837 0.713270 0.746806
O O12 0.026970 0.500000 0.079533
O O13 0.069970 0.266917 0.135075
O O14 0.176480 0.500000 0.640514
O O15 0.245739 0.713549 0.596128
O O16 0.217039 0.745580 0.690899
O O17 0.115076 0.500000 0.188516
O O18 0.222741 0.278046 0.210152
O O19 0.250000 0.750000 0.500000
O O20 0.199459 0.000000 0.454796
O O21 0.705832 0.500000 0.736143
#
# Coordination Sequence:
#
# PCOD9223600 Si02
#       8
#     8   8   8   8   8   8   8   8
#     4   9  17  33  55  73  94 130 171 208 248 293
#     4   9  19  37  56  73  99 135 168 199 244 300
#     4   9  18  33  51  73 102 132 162 200 246 291
#     4   8  17  33  50  71 101 134 165 200 249 302
#     4  10  20  35  55  77 100 128 166 209 246 285
#     4  10  19  32  51  74 101 133 168 203 240 292
#     4  10  22  37  53  75 102 131 163 203 251 298
#     4   9  19  34  51  72 100 134 166 196 241 300
#
# _framework density 8.9145819999999993
#
# number of rings (size 3 to 8) (size 9 to 14) (size 15 to 20)
#    0.000    2.750    0.000    2.625    0.000    6.500 
#    0.000    6.250    0.000    0.000    0.000    0.000 
#    0.000    0.000    0.000    0.000    0.000    0.000 
#
# Total GULP energy -178399.565241 kJ/mol
# GULP energy per Si atom -5574.986414 kJ/mol
# Density = 0.889429 g / cm^3
# Si number density = 8.914582 Si / 1000 Ang^3
#
#
#
# Elastic Constant Matrix: (Units=GPa)
#
#
# Indices 1 2 3 4 5 6 
#
# 1 99.1264 19.5568 43.3419 0.0000 30.2514 0.0000
# 2 19.5568 7.6528 13.9360 0.0000 6.1850 0.0000
# 3 43.3419 13.9360 70.0890 0.0000 35.7984 0.0000
# 4 0.0000 0.0000 0.0000 23.4111 0.0000 -1.0625
# 5 30.2514 6.1850 35.7984 0.0000 30.7909 0.0000
# 6 0.0000 0.0000 0.0000 -1.0625 0.0000 29.2247
#
#
#
# Elastic Compliance Matrix: (Units=1/GPa)
#
#
# Indices 1 2 3 4 5 6 
#
# 1 0.025402 -0.060938 0.007148 0.000000 -0.021027 0.000000
# 2 -0.060938 0.353986 -0.066382 0.000000 0.065942 0.000000
# 3 0.007148 -0.066382 0.048803 0.000000 -0.050428 0.000000
# 4 0.000000 0.000000 0.000000 0.042785 0.000000 0.001556
# 5 -0.021027 0.065942 -0.050428 0.000000 0.098519 0.000000
# 6 0.000000 0.000000 0.000000 0.001556 0.000000 0.034274
#
#
# Mechanical properties :
#
#
# Convention : Reuss Voigt Hill
#
# Bulk Modulus (GPa) = 5.32348 36.72639 21.02494
# Shear Modulus (GPa) = 5.51433 23.35426 14.43429
#
# Velocity S-wave (km/s) = 1.76056 3.62317 2.84841
# Velocity P-wave (km/s) = 2.66929 6.17632 4.75773
#
# Compressibility (1/GPa) = 0.18784706
#
# Stress axis : x y z
#
# Youngs Moduli (GPa) = 39.36637 2.82497 20.49056
#
# Poissons Ratio (x) = 0.17215 -0.14646
# Poissons Ratio (y) = 2.39891 1.36019
# Poissons Ratio (z) = -0.28137 0.18753
#
# Static dielectric constant tensor:
#      x y z
#    x 1.615400 0.000000 0.017940 
#    y 0.000000 1.597250 0.000000 
#    z 0.017940 0.000000 1.606990 
# 
# From -- ./inp_files/359793.got.cif
#   From: 2010.05.17/outbox.ucp.g08.bks.cvg/sg12_180_cif.got.tgz:359793.got - 2010.06.11 11:47:21.
