data_PCOD9223750
_publ_section_title
;
Structure prediction by ZEFSAII (Michael W. Deem and Ramdas Pophale) SiO2 
 PCOD9223750
Probable space group: C 2/M
;
_chemical_formula_sum "Si O2"
_cell_formula_units_Z 32
_cell_length_a 30.000000
_cell_length_b 9.000000
_cell_length_c 15.000000
_cell_angle_alpha 90.000000
_cell_angle_beta 120.000000
_cell_angle_gamma 90.000000
_cell_volume 3507.402885
_symmetry_space_group_name_H-M "C 2/M"
_symmetry_group_IT_number 12
_symmetry_cell_setting 'monoclinic'
loop_
_space_group_symop_operation_xyz
x,y,z
-x,y,-z
-x,-y,-z
x,-y,z
1/2+x,1/2+y,z
1/2-x,1/2+y,-z
1/2-x,1/2-y,-z
1/2+x,1/2-y,z
loop_
_atom_site_type_symbol
_atom_site_label
_atom_site_fract_x
_atom_site_fract_y
_atom_site_fract_z
Si Si1 0.803190 0.326430 0.073356
Si Si2 0.466568 0.819384 0.232376
Si Si3 0.885756 0.317969 0.296023
Si Si4 0.352951 0.819751 0.452076
Si Si5 0.388762 0.174841 0.006296
Si Si6 0.582169 0.179514 0.315262
Si Si7 0.757444 0.178951 0.604460
Si Si8 0.366222 0.677521 0.797027
O O1 0.793495 0.500000 0.078684
O O2 0.834920 0.270827 0.190815
O O3 0.750000 0.250000 0.000000
O O4 0.841464 0.312374 0.027875
O O5 0.434312 0.769124 0.285954
O O6 0.525649 0.778350 0.291799
O O7 0.463721 0.000000 0.229655
O O8 0.437772 0.772776 0.113055
O O9 0.886096 0.500000 0.296120
O O10 0.882868 0.267571 0.394614
O O11 0.377217 0.770079 0.569401
O O12 0.293020 0.780788 0.389245
O O13 0.356274 0.000000 0.455887
O O14 0.377875 0.264107 0.906692
O O15 0.395334 0.000000 0.991333
O O16 0.594481 0.252624 0.233871
O O17 0.584857 0.000000 0.309778
O O18 0.750000 0.250000 0.500000
O O19 0.809651 0.225079 0.705495
O O20 0.758368 0.000000 0.595305
O O21 0.368381 0.500000 0.797072
#
# Coordination Sequence:
#
# PCOD9223750 Si02
#       8
#     8   8   8   8   8   8   8   8
#     4   9  18  31  50  73 101 136 169 206 250 300
#     4   8  16  32  53  77 102 132 169 212 258 298
#     4   8  15  29  49  75 106 131 159 206 257 301
#     4   9  17  29  49  77 104 131 163 202 254 303
#     4   9  19  36  53  73 103 137 174 213 256 301
#     4  10  19  33  55  78 102 133 172 213 252 304
#     4  10  20  34  51  73 103 136 168 207 255 303
#     4  11  23  35  51  77 105 136 173 212 258 307
#
# _framework density 9.1235599999999994
#
# number of rings (size 3 to 8) (size 9 to 14) (size 15 to 20)
#    0.000    2.750    1.250    1.875    1.750    2.000 
#    0.000    5.625    0.000    1.500    0.000    0.875 
#    0.000    0.000    0.000    0.000    0.000    0.000 
#
# Total GULP energy -178322.343724 kJ/mol
# GULP energy per Si atom -5572.573241 kJ/mol
# Density = 0.910279 g / cm^3
# Si number density = 9.123560 Si / 1000 Ang^3
#
#
#
# Elastic Constant Matrix: (Units=GPa)
#
#
# Indices 1 2 3 4 5 6 
#
# 1 26.6427 19.4009 16.1734 0.0000 19.1022 0.0000
# 2 19.4009 3.4056 3.6430 0.0000 -9.6356 0.0000
# 3 16.1734 3.6430 19.6075 0.0000 -28.4295 0.0000
# 4 0.0000 0.0000 0.0000 12.3042 0.0000 7.2097
# 5 19.1022 -9.6356 -28.4295 0.0000 14.4902 0.0000
# 6 0.0000 0.0000 0.0000 7.2097 0.0000 10.0438
#
#
#
# Elastic Compliance Matrix: (Units=1/GPa)
#
#
# Indices 1 2 3 4 5 6 
#
# 1 0.018189 -0.050079 0.048109 0.000000 0.037111 0.000000
# 2 -0.050079 0.428765 -0.255196 0.000000 -0.149553 0.000000
# 3 0.048109 -0.255196 0.151391 0.000000 0.063906 0.000000
# 4 0.000000 0.000000 0.000000 0.140274 0.000000 -0.100693
# 5 0.037111 -0.149553 0.063906 0.000000 0.046024 0.000000
# 6 0.000000 0.000000 0.000000 -0.100693 0.000000 0.171845
#
#
# Mechanical properties :
#
#
# Convention : Reuss Voigt Hill
#
# Bulk Modulus (GPa) = 11.90285 14.23228 13.06756
# Shear Modulus (GPa) = 3.33595 8.06355 5.69975
#
# Velocity S-wave (km/s) = 1.35358 2.10444 1.76930
# Velocity P-wave (km/s) = 2.99670 3.70426 3.36911
#
# Compressibility (1/GPa) = 0.08401351
#
# Stress axis : x y z
#
# Youngs Moduli (GPa) = 54.97967 2.33228 6.60540
#
# Poissons Ratio (x) = 0.11680 -0.31778
# Poissons Ratio (y) = 2.75334 1.68567
# Poissons Ratio (z) = -2.64504 0.59519
#
# Static dielectric constant tensor:
#      x y z
#    x 1.633160 0.000000 0.011360 
#    y 0.000000 1.615420 0.000000 
#    z 0.011360 0.000000 1.612730 
# 
# From -- ./inp_files/249184.got.cif
#   From: 2010.05.17/outbox.ucp.g08.bks.cvg/sg12_125_cif.got.tgz:249184.got - 2010.06.11 11:47:21.
