data_PCOD9223860
_publ_section_title
;
Structure prediction by ZEFSAII (Michael W. Deem and Ramdas Pophale) SiO2 
 PCOD9223860
Probable space group: C 2/M
;
_chemical_formula_sum "Si O2"
_cell_formula_units_Z 28
_cell_length_a 30.000000
_cell_length_b 9.000000
_cell_length_c 18.000000
_cell_angle_alpha 90.000000
_cell_angle_beta 40.000000
_cell_angle_gamma 90.000000
_cell_volume 3123.947783
_symmetry_space_group_name_H-M "C 2/M"
_symmetry_group_IT_number 12
_symmetry_cell_setting 'monoclinic'
loop_
_space_group_symop_operation_xyz
x,y,z
-x,y,-z
-x,-y,-z
x,-y,z
1/2+x,1/2+y,z
1/2-x,1/2+y,-z
1/2-x,1/2-y,-z
1/2+x,1/2-y,z
loop_
_atom_site_type_symbol
_atom_site_label
_atom_site_fract_x
_atom_site_fract_y
_atom_site_fract_z
Si Si1 0.915684 0.820495 0.319449
Si Si2 0.058595 0.824476 0.192528
Si Si3 0.292581 0.821946 0.013926
Si Si4 0.810755 0.676245 0.745189
Si Si5 0.058082 0.172749 0.364016
Si Si6 0.687445 0.321038 0.414637
Si Si7 0.205490 0.820562 0.624035
O O1 0.869071 0.776686 0.450417
O O2 0.872995 0.784031 0.299675
O O3 0.994162 0.768369 0.226066
O O4 0.918587 0.000000 0.319527
O O5 0.033516 0.816407 0.310480
O O6 0.072692 0.000000 0.159904
O O7 0.128582 0.733528 0.092066
O O8 0.255359 0.757566 0.134716
O O9 0.287593 0.000000 0.017298
O O10 0.250000 0.750000 0.000000
O O11 0.800561 0.500000 0.754674
O O12 0.876953 0.719149 0.710472
O O13 0.828417 0.746569 0.643132
O O14 0.000000 0.204678 0.500000
O O15 0.080431 0.000000 0.347118
O O16 0.688586 0.500000 0.408632
O O17 0.761470 0.256370 0.346848
O O18 0.250000 0.750000 0.500000
O O19 0.213528 0.000000 0.615952
#
# Coordination Sequence:
#
# PCOD9223860 Si02
#       7
#     8   8   8   8   8   8   8
#     4   8  16  31  54  82 112 146 180 213 263 326
#     4  10  19  34  56  79 106 142 182 222 262 317
#     4  12  24  40  58  77 102 139 184 230 274 322
#     4  12  24  37  55  79 107 141 182 229 273 320
#     4  10  20  34  54  79 110 147 178 211 264 324
#     4  10  19  34  55  81 112 147 183 222 271 328
#     4   9  16  29  50  79 113 148 183 220 263 321
#
# _framework density 8.9630179999999999
#
# number of rings (size 3 to 8) (size 9 to 14) (size 15 to 20)
#    0.000    1.857    1.429    5.143    0.000    2.571 
#    0.000    5.714    0.000    0.857    0.000    6.000 
#    0.000    0.000    0.000    0.000    0.000    0.000 
#
# Total GULP energy -156177.087715 kJ/mol
# GULP energy per Si atom -5577.753133 kJ/mol
# Density = 0.894262 g / cm^3
# Si number density = 8.963018 Si / 1000 Ang^3
#
#
#
# Elastic Constant Matrix: (Units=GPa)
#
#
# Indices 1 2 3 4 5 6 
#
# 1 74.7274 20.1806 -0.1543 -0.0011 -30.3306 0.0016
# 2 20.1806 97.2105 19.6888 0.0041 -14.6019 0.0020
# 3 -0.1543 19.6888 50.7432 -0.0147 -23.5908 0.0058
# 4 -0.0011 0.0041 -0.0147 23.8693 0.0064 -0.8229
# 5 -30.3306 -14.6019 -23.5908 0.0064 28.2723 -0.0005
# 6 0.0016 0.0020 0.0058 -0.8229 -0.0005 27.1817
#
#
#
# Elastic Compliance Matrix: (Units=1/GPa)
#
#
# Indices 1 2 3 4 5 6 
#
# 1 0.049954 -0.006066 0.042419 0.000006 0.085854 -0.000010
# 2 -0.006066 0.012119 -0.007901 -0.000005 -0.006841 0.000001
# 3 0.042419 -0.007901 0.068883 0.000019 0.098904 -0.000014
# 4 0.000006 -0.000005 0.000019 0.041939 0.000010 0.001270
# 5 0.085854 -0.006841 0.098904 0.000010 0.206468 -0.000021
# 6 -0.000010 0.000001 -0.000014 0.001270 -0.000021 0.036828
#
#
# Mechanical properties :
#
#
# Convention : Reuss Voigt Hill
#
# Bulk Modulus (GPa) = 5.32310 33.56791 19.44550
# Shear Modulus (GPa) = 11.85098 28.06237 19.95667
#
# Velocity S-wave (km/s) = 2.57398 3.96087 3.34020
# Velocity P-wave (km/s) = 3.43654 6.29956 5.07416
#
# Compressibility (1/GPa) = 0.18786049
#
# Stress axis : x y z
#
# Youngs Moduli (GPa) = 20.01828 82.51586 14.51745
#
# Poissons Ratio (x) = 0.50053 -0.61582
# Poissons Ratio (y) = 0.12143 0.11471
# Poissons Ratio (z) = -0.84916 0.65198
#
# Static dielectric constant tensor:
#      x y z
#    x 1.701250 0.000000 0.004910 
#    y 0.000000 1.596900 0.000000 
#    z 0.004910 0.000000 1.612560 
# 
# From -- ./inp_files/295083.got.cif
#   From: 2010.05.17/outbox.ucp.g08.bks.cvg/sg12_148_cif.got.tgz:295083.got - 2010.06.11 11:47:21.
