data_PCOD9223188
_publ_section_title
;
Structure prediction by ZEFSAII (Michael W. Deem and Ramdas Pophale) SiO2 
 PCOD9223188
Probable space group: C 2/M
;
_chemical_formula_sum "Si O2"
_cell_formula_units_Z 30
_cell_length_a 18.000000
_cell_length_b 24.000000
_cell_length_c 12.000000
_cell_angle_alpha 90.000000
_cell_angle_beta 140.000000
_cell_angle_gamma 90.000000
_cell_volume 3332.210969
_symmetry_space_group_name_H-M "C 2/M"
_symmetry_group_IT_number 12
_symmetry_cell_setting 'monoclinic'
loop_
_space_group_symop_operation_xyz
x,y,z
-x,y,-z
-x,-y,-z
x,-y,z
1/2+x,1/2+y,z
1/2-x,1/2+y,-z
1/2-x,1/2-y,-z
1/2+x,1/2-y,z
loop_
_atom_site_type_symbol
_atom_site_label
_atom_site_fract_x
_atom_site_fract_y
_atom_site_fract_z
Si Si1 0.497869 0.310053 0.131227
Si Si2 0.600559 0.193500 0.527478
Si Si3 0.091046 0.699399 0.857741
Si Si4 0.287815 0.565175 0.136917
Si Si5 0.744625 0.356500 0.108964
Si Si6 0.831305 0.187527 0.478939
Si Si7 0.500000 0.625460 0.500000
Si Si8 0.867202 0.628169 0.877229
O O1 0.452208 0.259345 0.154849
O O2 0.617371 0.322751 0.336600
O O3 0.500000 0.297187 0.000000
O O4 0.391339 0.353085 0.020925
O O5 0.500000 0.212697 0.500000
O O6 0.519128 0.171353 0.332762
O O7 0.682210 0.150734 0.691056
O O8 0.670466 0.246738 0.558216
O O9 0.198431 0.694488 0.896505
O O10 0.126937 0.671831 0.014454
O O11 0.299091 0.500000 0.131443
O O12 0.409209 0.590942 0.320019
O O13 0.200643 0.578028 0.139856
O O14 0.244648 0.594494 0.971816
O O15 0.923485 0.161235 0.497994
O O16 0.710176 0.156794 0.309382
O O17 0.000000 0.615577 0.000000
#
# Coordination Sequence:
#
# PCOD9223188 Si02
#       8
#     8   8   8   8   8   8   4   8
#     4  11  21  32  50  82 119 151 181 220 279 344
#     4   9  17  29  52  80 110 145 185 220 263 320
#     4   9  19  32  51  76 110 151 190 220 261 329
#     4  10  21  36  59  83 105 139 189 247 289 322
#     4  10  19  34  53  78 109 148 188 231 273 326
#     4  10  19  32  53  83 115 150 181 222 274 336
#     4  10  17  34  58  88 112 134 179 236 288 330
#     4  10  21  35  52  76 112 145 182 229 285 337
#
# _framework density 9.003031
#
# number of rings (size 3 to 8) (size 9 to 14) (size 15 to 20)
#    0.000    2.133    2.000    1.800    0.000    1.333 
#    0.000    3.333    0.000   10.400    0.000    1.867 
#    0.000    0.000    0.000    0.000    0.000    0.000 
#
# Total GULP energy -167009.063006 kJ/mol
# GULP energy per Si atom -5566.968767 kJ/mol
# Density = 0.898254 g / cm^3
# Si number density = 9.003031 Si / 1000 Ang^3
#
#
#
# Elastic Constant Matrix: (Units=GPa)
#
#
# Indices 1 2 3 4 5 6 
#
# 1 52.5588 -8.5091 27.4256 0.0000 9.4638 0.0000
# 2 -8.5091 37.5168 30.1846 0.0000 4.9194 0.0000
# 3 27.4256 30.1846 166.0297 0.0000 -11.4482 0.0000
# 4 0.0000 0.0000 0.0000 15.4361 0.0000 -2.2063
# 5 9.4638 4.9194 -11.4482 0.0000 33.1008 0.0000
# 6 0.0000 0.0000 0.0000 -2.2063 0.0000 7.8228
#
#
#
# Elastic Compliance Matrix: (Units=1/GPa)
#
#
# Indices 1 2 3 4 5 6 
#
# 1 0.028015 0.014650 -0.008189 0.000000 -0.013019 0.000000
# 2 0.014650 0.040434 -0.010730 0.000000 -0.013909 0.000000
# 3 -0.008189 -0.010730 0.009832 0.000000 0.007336 0.000000
# 4 0.000000 0.000000 0.000000 0.067504 0.000000 0.019039
# 5 -0.013019 -0.013909 0.007336 0.000000 0.038538 0.000000
# 6 0.000000 0.000000 0.000000 0.019039 0.000000 0.133201
#
#
# Mechanical properties :
#
#
# Convention : Reuss Voigt Hill
#
# Bulk Modulus (GPa) = 14.33826 39.36750 26.85288
# Shear Modulus (GPa) = 14.31391 25.07223 19.69307
#
# Velocity S-wave (km/s) = 2.82254 3.73558 3.31069
# Velocity P-wave (km/s) = 4.31308 6.36530 5.43689
#
# Compressibility (1/GPa) = 0.06974345
#
# Stress axis : x y z
#
# Youngs Moduli (GPa) = 35.69484 24.73160 101.70584
#
# Poissons Ratio (x) = -0.36231 0.83284
# Poissons Ratio (y) = -0.52292 1.09130
# Poissons Ratio (z) = 0.29230 0.26537
#
# Static dielectric constant tensor:
#      x y z
#    x 1.668450 0.000000 0.027320 
#    y 0.000000 1.611000 0.000000 
#    z 0.027320 0.000000 1.678970 
# 
# From -- ./inp_files/160496.got.cif
#   From: 2010.05.17/outbox.ucp.g08.bks.cvg/sg12_81_cif.got.tgz:160496.got - 2010.06.11 11:47:21.
