data_PCOD9223739
_publ_section_title
;
Structure prediction by ZEFSAII (Michael W. Deem and Ramdas Pophale) SiO2 
 PCOD9223739
Probable space group: C 2/M
;
_chemical_formula_sum "Si O2"
_cell_formula_units_Z 28
_cell_length_a 30.000000
_cell_length_b 9.000000
_cell_length_c 21.000000
_cell_angle_alpha 90.000000
_cell_angle_beta 30.000000
_cell_angle_gamma 90.000000
_cell_volume 2835.000000
_symmetry_space_group_name_H-M "C 2/M"
_symmetry_group_IT_number 12
_symmetry_cell_setting 'monoclinic'
loop_
_space_group_symop_operation_xyz
x,y,z
-x,y,-z
-x,-y,-z
x,-y,z
1/2+x,1/2+y,z
1/2-x,1/2+y,-z
1/2-x,1/2-y,-z
1/2+x,1/2-y,z
loop_
_atom_site_type_symbol
_atom_site_label
_atom_site_fract_x
_atom_site_fract_y
_atom_site_fract_z
Si Si1 0.825210 0.326019 0.115414
Si Si2 0.374569 0.668603 0.179128
Si Si3 0.498312 0.677943 0.130664
Si Si4 0.213759 0.830093 0.139981
Si Si5 0.777539 0.335448 0.529015
Si Si6 0.059717 0.174365 0.662974
Si Si7 0.612042 0.833317 0.165635
O O1 0.845824 0.500000 0.086157
O O2 0.831007 0.268306 0.179460
O O3 0.735832 0.302467 0.186119
O O4 0.902426 0.234202 0.985223
O O5 0.390963 0.500000 0.134013
O O6 0.460754 0.729868 0.109554
O O7 0.306243 0.655959 0.321486
O O8 0.494441 0.500000 0.135247
O O9 0.444250 0.728482 0.258764
O O10 0.152174 0.708776 0.184092
O O11 0.180600 0.000000 0.172912
O O12 0.306637 0.823859 0.985160
O O13 0.806169 0.500000 0.475604
O O14 0.750000 0.250000 0.500000
O O15 0.856349 0.256003 0.469612
O O16 0.965242 0.217715 0.752352
O O17 0.073768 0.000000 0.644374
O O18 0.576179 0.000000 0.206885
#
# Coordination Sequence:
#
# PCOD9223739 Si02
#       7
#     8   8   8   8   8   8   8
#     4  11  22  35  53  81 112 144 182 224 270 319
#     4  10  22  39  54  75 108 148 187 221 266 324
#     4  10  20  35  53  76 110 149 182 216 266 325
#     4   9  19  34  51  77 112 142 176 221 270 326
#     4  11  22  38  58  80 108 143 186 231 271 317
#     4  11  21  35  56  82 112 145 181 222 275 323
#     4  10  19  33  54  81 109 141 180 222 272 324
#
# _framework density 9.8765429999999999
#
# number of rings (size 3 to 8) (size 9 to 14) (size 15 to 20)
#    0.000    1.714    2.857    2.143    0.000    5.714 
#    0.000    0.000    0.000    0.857    0.000    6.000 
#    0.000    0.000    0.000    0.000    0.000    0.000 
#
# Total GULP energy -155980.242242 kJ/mol
# GULP energy per Si atom -5570.722937 kJ/mol
# Density = 0.985406 g / cm^3
# Si number density = 9.876543 Si / 1000 Ang^3
#
#
#
# Elastic Constant Matrix: (Units=GPa)
#
#
# Indices 1 2 3 4 5 6 
#
# 1 82.1401 22.8507 -2.5336 0.0023 4.1976 -0.0008
# 2 22.8507 30.9479 6.9186 0.0056 -3.4743 -0.0035
# 3 -2.5336 6.9186 26.0081 0.0116 -5.8022 -0.0034
# 4 0.0023 0.0056 0.0116 12.2324 0.0015 -7.0353
# 5 4.1976 -3.4743 -5.8022 0.0015 8.0410 -0.0013
# 6 -0.0008 -0.0035 -0.0034 -7.0353 -0.0013 25.0593
#
#
#
# Elastic Compliance Matrix: (Units=1/GPa)
#
#
# Indices 1 2 3 4 5 6 
#
# 1 0.017005 -0.014628 0.002571 0.000002 -0.013342 -0.000001
# 2 -0.014628 0.047604 -0.009292 -0.000011 0.021500 0.000003
# 3 0.002571 -0.009292 0.047647 -0.000049 0.029024 -0.000007
# 4 0.000002 -0.000011 -0.000049 0.097492 -0.000056 0.027371
# 5 -0.013342 0.021500 0.029024 -0.000056 0.161561 -0.000001
# 6 -0.000001 0.000003 -0.000007 0.027371 -0.000001 0.047590
#
#
# Mechanical properties :
#
#
# Convention : Reuss Voigt Hill
#
# Bulk Modulus (GPa) = 14.37649 21.50750 17.94199
# Shear Modulus (GPa) = 10.31390 16.52390 13.41890
#
# Velocity S-wave (km/s) = 2.28752 2.89541 2.60923
# Velocity P-wave (km/s) = 3.77768 4.69996 4.26383
#
# Compressibility (1/GPa) = 0.06955803
#
# Stress axis : x y z
#
# Youngs Moduli (GPa) = 58.80641 21.00652 20.98770
#
# Poissons Ratio (x) = 0.30729 -0.05397
# Poissons Ratio (y) = 0.86024 0.19502
# Poissons Ratio (z) = -0.15122 0.19519
#
# Static dielectric constant tensor:
#      x y z
#    x 1.735400 0.000000 -0.007460 
#    y 0.000000 1.669200 0.000000 
#    z -0.007460 0.000000 1.737610 
# 
# From -- ./inp_files/237796.got.cif
#   From: 2010.05.17/outbox.ucp.g08.bks.cvg/sg12_119_cif.got.tgz:237796.got - 2010.06.11 11:47:21.
