data_PCOD9223915
_publ_section_title
;
Structure prediction by ZEFSAII (Michael W. Deem and Ramdas Pophale) SiO2 
 PCOD9223915
Probable space group: C 2/M
;
_chemical_formula_sum "Si O2"
_cell_formula_units_Z 32
_cell_length_a 15.000000
_cell_length_b 9.000000
_cell_length_c 30.000000
_cell_angle_alpha 90.000000
_cell_angle_beta 130.000000
_cell_angle_gamma 90.000000
_cell_volume 3102.479995
_symmetry_space_group_name_H-M "C 2/M"
_symmetry_group_IT_number 12
_symmetry_cell_setting 'monoclinic'
loop_
_space_group_symop_operation_xyz
x,y,z
-x,y,-z
-x,-y,-z
x,-y,z
1/2+x,1/2+y,z
1/2-x,1/2+y,-z
1/2-x,1/2-y,-z
1/2+x,1/2-y,z
loop_
_atom_site_type_symbol
_atom_site_label
_atom_site_fract_x
_atom_site_fract_y
_atom_site_fract_z
Si Si1 0.621297 0.821298 0.596892
Si Si2 0.427258 0.679843 0.840953
Si Si3 0.846585 0.176279 0.139865
Si Si4 0.728782 0.175094 0.541315
Si Si5 0.458668 0.823543 0.623911
Si Si6 0.593282 0.179986 0.067466
Si Si7 0.063097 0.331775 0.748783
Si Si8 0.184294 0.672241 0.278879
O O1 0.636962 0.774680 0.550104
O O2 0.505335 0.792871 0.588933
O O3 0.720059 0.748010 0.659088
O O4 0.635176 0.000000 0.601202
O O5 0.419582 0.500000 0.839464
O O6 0.551223 0.730730 0.859446
O O7 0.417993 0.744799 0.887642
O O8 0.337860 0.743041 0.774929
O O9 0.717646 0.223878 0.086755
O O10 0.865293 0.223720 0.197038
O O11 0.853401 0.000000 0.139890
O O12 0.750000 0.250000 0.500000
O O13 0.853134 0.216799 0.602670
O O14 0.712009 0.000000 0.529036
O O15 0.553088 0.800137 0.693163
O O16 0.426535 0.000000 0.616003
O O17 0.589990 0.000000 0.072608
O O18 0.500000 0.220433 0.000000
O O19 0.107747 0.500000 0.768291
O O20 0.934451 0.326530 0.729809
O O21 0.213870 0.500000 0.279770
#
# Coordination Sequence:
#
# PCOD9223915 Si02
#       8
#     8   8   8   8   8   8   8   8
#     4  10  22  38  59  88 119 153 192 238 293 344
#     4  10  21  37  57  83 115 150 192 239 287 342
#     4   9  20  37  56  81 114 152 190 235 288 344
#     4  11  24  42  63  86 117 158 200 243 291 342
#     4  10  21  39  60  86 118 152 192 237 290 346
#     4  10  22  40  59  82 115 154 196 241 292 348
#     4   9  18  33  56  85 116 149 185 232 287 344
#     4  10  19  34  58  87 118 151 189 234 288 346
#
# _framework density 10.314329000000001
#
# number of rings (size 3 to 8) (size 9 to 14) (size 15 to 20)
#    0.000    2.125    1.250    1.125    1.750    4.250 
#    0.000    2.500    0.000    0.000    0.000    0.000 
#    0.000    0.000    0.000    0.000    0.000    0.000 
#
# Total GULP energy -178509.130759 kJ/mol
# GULP energy per Si atom -5578.410336 kJ/mol
# Density = 1.029085 g / cm^3
# Si number density = 10.314329 Si / 1000 Ang^3
#
#
#
# Elastic Constant Matrix: (Units=GPa)
#
#
# Indices 1 2 3 4 5 6 
#
# 1 99.7404 29.5971 39.6246 0.0000 -13.7437 0.0000
# 2 29.5971 14.4798 14.4676 0.0000 -5.6029 0.0000
# 3 39.6246 14.4676 77.0880 0.0000 -8.5869 0.0000
# 4 0.0000 0.0000 0.0000 30.2097 0.0000 -10.9788
# 5 -13.7437 -5.6029 -8.5869 0.0000 40.8542 0.0000
# 6 0.0000 0.0000 0.0000 -10.9788 0.0000 19.8214
#
#
#
# Elastic Compliance Matrix: (Units=1/GPa)
#
#
# Indices 1 2 3 4 5 6 
#
# 1 0.026635 -0.049747 -0.004215 0.000000 0.001252 0.000000
# 2 -0.049747 0.180902 -0.007660 0.000000 0.006464 0.000000
# 3 -0.004215 -0.007660 0.016692 0.000000 0.001040 0.000000
# 4 0.000000 0.000000 0.000000 0.041444 0.000000 0.022956
# 5 0.001252 0.006464 0.001040 0.000000 0.026004 0.000000
# 6 0.000000 0.000000 0.000000 0.022956 0.000000 0.063165
#
#
# Mechanical properties :
#
#
# Convention : Reuss Voigt Hill
#
# Bulk Modulus (GPa) = 9.90251 39.85411 24.87831
# Shear Modulus (GPa) = 9.77041 25.35163 17.56102
#
# Velocity S-wave (km/s) = 2.17867 3.50944 2.92086
# Velocity P-wave (km/s) = 3.33760 5.98192 4.84370
#
# Compressibility (1/GPa) = 0.10098453
#
# Stress axis : x y z
#
# Youngs Moduli (GPa) = 37.54427 5.52785 59.90789
#
# Poissons Ratio (x) = 0.27500 0.25252
# Poissons Ratio (y) = 1.86773 0.45890
# Poissons Ratio (z) = 0.15825 0.04234
#
# Static dielectric constant tensor:
#      x y z
#    x 1.785540 0.000000 0.054240 
#    y 0.000000 1.698980 0.000000 
#    z 0.054240 0.000000 1.761650 
# 
# From -- ./inp_files/314075.got.cif
#   From: 2010.05.17/outbox.ucp.g08.bks.cvg/sg12_158_cif.got.tgz:314075.got - 2010.06.11 11:47:21.
