data_PCOD9223374
_publ_section_title
;
Structure prediction by ZEFSAII (Michael W. Deem and Ramdas Pophale) SiO2 
 PCOD9223374
Probable space group: C 2/M
;
_chemical_formula_sum "Si O2"
_cell_formula_units_Z 32
_cell_length_a 30.000000
_cell_length_b 9.000000
_cell_length_c 12.000000
_cell_angle_alpha 90.000000
_cell_angle_beta 90.000000
_cell_angle_gamma 90.000000
_cell_volume 3240.000000
_symmetry_space_group_name_H-M "C 2/M"
_symmetry_group_IT_number 12
_symmetry_cell_setting 'monoclinic'
loop_
_space_group_symop_operation_xyz
x,y,z
-x,y,-z
-x,-y,-z
x,-y,z
1/2+x,1/2+y,z
1/2-x,1/2+y,-z
1/2-x,1/2-y,-z
1/2+x,1/2-y,z
loop_
_atom_site_type_symbol
_atom_site_label
_atom_site_fract_x
_atom_site_fract_y
_atom_site_fract_z
Si Si1 0.319124 0.175032 0.714485
Si Si2 0.418834 0.827763 0.753293
Si Si3 0.337433 0.674591 0.260252
Si Si4 0.991364 0.177878 0.877546
Si Si5 0.067134 0.820499 0.715423
Si Si6 0.297940 0.822158 0.477316
Si Si7 0.052785 0.173502 0.472930
Si Si8 0.253548 0.324314 0.117462
O O1 0.366483 0.187202 0.770295
O O2 0.324163 0.227771 0.588121
O O3 0.280106 0.240232 0.789483
O O4 0.308032 0.000000 0.702236
O O5 0.443123 0.723824 0.839901
O O6 0.433310 0.770992 0.631303
O O7 0.431345 0.000000 0.765432
O O8 0.337332 0.500000 0.291157
O O9 0.387045 0.713679 0.224081
O O10 0.320361 0.762022 0.366906
O O11 0.302811 0.696065 0.162922
O O12 0.025377 0.236946 0.783997
O O13 0.996159 0.000000 0.879312
O O14 0.000000 0.236449 0.000000
O O15 0.073047 0.769758 0.588735
O O16 0.061411 0.000000 0.706417
O O17 0.250000 0.750000 0.500000
O O18 0.294533 0.000000 0.469909
O O19 0.000000 0.176773 0.500000
O O20 0.064395 0.000000 0.451286
O O21 0.244480 0.500000 0.106615
O O22 0.250000 0.250000 0.000000
#
# Coordination Sequence:
#
# PCOD9223374 Si02
#       8
#     8   8   8   8   8   8   8   8
#     4   9  20  38  56  79 116 153 176 222 286 329
#     4  11  22  36  57  83 113 148 188 226 273 334
#     4  10  20  36  58  82 111 147 184 226 278 332
#     4  10  21  39  60  81 110 147 189 236 281 324
#     4   9  18  34  57  84 112 144 181 227 281 329
#     4  11  20  35  59  85 115 147 182 223 277 336
#     4  10  18  33  57  81 113 147 177 220 278 332
#     4  10  21  39  58  78 109 145 184 228 276 323
#
# _framework density 9.8765429999999999
#
# number of rings (size 3 to 8) (size 9 to 14) (size 15 to 20)
#    0.000    2.000    2.500    1.500    0.000    2.000 
#    0.000    5.000    0.000    0.000    0.000    0.000 
#    0.000    0.000    0.000    0.000    0.000    0.000 
#
# Total GULP energy -178303.311088 kJ/mol
# GULP energy per Si atom -5571.978471 kJ/mol
# Density = 0.985406 g / cm^3
# Si number density = 9.876543 Si / 1000 Ang^3
#
#
#
# Elastic Constant Matrix: (Units=GPa)
#
#
# Indices 1 2 3 4 5 6 
#
# 1 -21.2922 51.3332 0.0446 0.0000 -23.1447 0.0000
# 2 51.3332 -63.3830 14.3495 0.0000 57.3483 0.0000
# 3 0.0446 14.3495 48.4852 0.0000 39.0131 0.0000
# 4 0.0000 0.0000 0.0000 16.4739 0.0000 0.3617
# 5 -23.1447 57.3483 39.0131 0.0000 -61.6295 0.0000
# 6 0.0000 0.0000 0.0000 0.3617 0.0000 16.4284
#
#
#
# Elastic Compliance Matrix: (Units=1/GPa)
#
#
# Indices 1 2 3 4 5 6 
#
# 1 0.050473 0.044683 -0.020853 0.000000 0.009423 0.000000
# 2 0.044683 0.017373 -0.003106 0.000000 -0.002581 0.000000
# 3 -0.020853 -0.003106 0.011652 0.000000 0.012317 0.000000
# 4 0.000000 0.000000 0.000000 0.060731 0.000000 -0.001337
# 5 0.009423 -0.002581 0.012317 0.000000 -0.014369 0.000000
# 6 0.000000 0.000000 0.000000 -0.001337 0.000000 0.060900
#
#
# Mechanical properties :
#
#
# Convention : Reuss Voigt Hill
#
# Bulk Modulus (GPa) = 8.26816 10.58497 9.42656
# Shear Modulus (GPa) = 26.93553 -12.53991 7.19781
#
# Velocity S-wave (km/s) = 3.69672 -2.52232 1.91097
# Velocity P-wave (km/s) = 4.73453 1.76424 3.10671
#
# Compressibility (1/GPa) = 0.12094591
#
# Stress axis : x y z
#
# Youngs Moduli (GPa) = 19.81246 57.56069 85.81880
#
# Poissons Ratio (x) = -2.57198 1.78959
# Poissons Ratio (y) = -0.88528 0.26657
# Poissons Ratio (z) = 0.41315 0.17880
#
# Static dielectric constant tensor:
#      x y z
#    x 1.750780 0.000000 0.060890 
#    y 0.000000 1.676890 0.000000 
#    z 0.060890 0.000000 1.722090 
# 
# From -- ./inp_files/187439.got.cif
#   From: 2010.05.17/outbox.ucp.g08.bks.cvg/sg12_94_cif.got.tgz:187439.got - 2010.06.11 11:47:21.
