data_PCOD9223340
_publ_section_title
;
Structure prediction by ZEFSAII (Michael W. Deem and Ramdas Pophale) SiO2 
 PCOD9223340
Probable space group: C 2/M
;
_chemical_formula_sum "Si O2"
_cell_formula_units_Z 28
_cell_length_a 15.000000
_cell_length_b 9.000000
_cell_length_c 24.000000
_cell_angle_alpha 90.000000
_cell_angle_beta 60.000000
_cell_angle_gamma 90.000000
_cell_volume 2805.922308
_symmetry_space_group_name_H-M "C 2/M"
_symmetry_group_IT_number 12
_symmetry_cell_setting 'monoclinic'
loop_
_space_group_symop_operation_xyz
x,y,z
-x,y,-z
-x,-y,-z
x,-y,z
1/2+x,1/2+y,z
1/2-x,1/2+y,-z
1/2-x,1/2-y,-z
1/2+x,1/2-y,z
loop_
_atom_site_type_symbol
_atom_site_label
_atom_site_fract_x
_atom_site_fract_y
_atom_site_fract_z
Si Si1 0.083060 0.328791 0.424566
Si Si2 0.577389 0.176377 0.211167
Si Si3 0.697842 0.319718 0.880754
Si Si4 0.013656 0.825287 0.338753
Si Si5 0.783342 0.823820 0.432081
Si Si6 0.357910 0.679053 0.983452
Si Si7 0.458165 0.321359 0.157143
O O1 0.078628 0.500000 0.404857
O O2 0.056081 0.212264 0.385984
O O3 0.194741 0.299873 0.414904
O O4 0.000000 0.318580 0.500000
O O5 0.684951 0.229906 0.150698
O O6 0.574934 0.231424 0.274600
O O7 0.483846 0.249083 0.207417
O O8 0.572512 0.000000 0.208804
O O9 0.698952 0.500000 0.879010
O O10 0.646203 0.270971 0.839695
O O11 0.630534 0.278737 0.955331
O O12 0.894779 0.774179 0.376729
O O13 0.018733 0.000000 0.324316
O O14 0.750000 0.750000 0.500000
O O15 0.790634 0.000000 0.439917
O O16 0.350253 0.500000 0.983123
O O17 0.450810 0.721961 0.914320
O O18 0.250000 0.750000 0.000000
O O19 0.458075 0.500000 0.162508
#
# Coordination Sequence:
#
# PCOD9223340 Si02
#       7
#     8   8   8   8   8   8   8
#     4  10  20  37  62  89 116 147 184 228 280 337
#     4  11  23  40  59  80 114 155 193 237 285 340
#     4   9  19  36  58  83 113 151 193 234 285 345
#     4  11  24  40  59  86 119 152 191 235 281 339
#     4  10  21  37  60  88 117 148 183 229 281 336
#     4  10  18  32  57  86 114 146 188 238 290 341
#     4  10  20  36  60  85 112 149 193 241 287 339
#
# _framework density 9.9788940000000004
#
# number of rings (size 3 to 8) (size 9 to 14) (size 15 to 20)
#    0.000    1.857    2.857    1.286    0.000    4.286 
#    0.000    7.857    0.000    1.714    0.000    0.000 
#    0.000    0.000    0.000    0.000    0.000    0.000 
#
# Total GULP energy -156215.634247 kJ/mol
# GULP energy per Si atom -5579.129795 kJ/mol
# Density = 0.995618 g / cm^3
# Si number density = 9.978894 Si / 1000 Ang^3
#
#
#
# Elastic Constant Matrix: (Units=GPa)
#
#
# Indices 1 2 3 4 5 6 
#
# 1 51.7895 18.6173 3.5668 0.0000 3.3958 0.0000
# 2 18.6173 1.9287 8.2447 0.0000 1.2847 0.0000
# 3 3.5668 8.2447 44.6088 0.0000 2.5783 0.0000
# 4 0.0000 0.0000 0.0000 25.9434 0.0000 4.6234
# 5 3.3958 1.2847 2.5783 0.0000 17.6359 0.0000
# 6 0.0000 0.0000 0.0000 4.6234 0.0000 18.3702
#
#
#
# Elastic Compliance Matrix: (Units=1/GPa)
#
#
# Indices 1 2 3 4 5 6 
#
# 1 -0.001231 0.059667 -0.010783 0.000000 -0.002533 0.000000
# 2 0.059667 -0.170594 0.026932 0.000000 -0.002999 0.000000
# 3 -0.010783 0.026932 0.018451 0.000000 -0.002583 0.000000
# 4 0.000000 0.000000 0.000000 0.040356 0.000000 -0.010157
# 5 -0.002533 -0.002999 -0.002583 0.000000 0.057786 0.000000
# 6 0.000000 0.000000 0.000000 -0.010157 0.000000 0.056992
#
#
# Mechanical properties :
#
#
# Convention : Reuss Voigt Hill
#
# Bulk Modulus (GPa) = -573.93633 17.68718 -278.12457
# Shear Modulus (GPa) = -33.23288 16.91643 -8.15823
#
# Velocity S-wave (km/s) = -4.08506 2.91453 -2.02401
# Velocity P-wave (km/s) = 17.61958 4.49528 12.04662
#
# Compressibility (1/GPa) = -0.00174235
#
# Stress axis : x y z
#
# Youngs Moduli (GPa) = -812.05983 -5.86187 54.19781
#
# Poissons Ratio (x) = 0.34976 0.58441
# Poissons Ratio (y) = 48.45318 -1.45966
# Poissons Ratio (z) = -8.75637 0.15787
#
# Static dielectric constant tensor:
#      x y z
#    x 1.774420 0.000000 0.015610 
#    y 0.000000 1.675330 0.000000 
#    z 0.015610 0.000000 1.731580 
# 
# From -- ./inp_files/338432.got.cif
#   From: 2010.05.17/outbox.ucp.g08.bks.cvg/sg12_170_cif.got.tgz:338432.got - 2010.06.11 11:47:21.
