data_PCOD9223402
_publ_section_title
;
Structure prediction by ZEFSAII (Michael W. Deem and Ramdas Pophale) SiO2 
 PCOD9223402
Probable space group: C 2/M
;
_chemical_formula_sum "Si O2"
_cell_formula_units_Z 32
_cell_length_a 15.000000
_cell_length_b 21.000000
_cell_length_c 12.000000
_cell_angle_alpha 90.000000
_cell_angle_beta 110.000000
_cell_angle_gamma 90.000000
_cell_volume 3552.038107
_symmetry_space_group_name_H-M "C 2/M"
_symmetry_group_IT_number 12
_symmetry_cell_setting 'monoclinic'
loop_
_space_group_symop_operation_xyz
x,y,z
-x,y,-z
-x,-y,-z
x,-y,z
1/2+x,1/2+y,z
1/2-x,1/2+y,-z
1/2-x,1/2-y,-z
1/2+x,1/2-y,z
loop_
_atom_site_type_symbol
_atom_site_label
_atom_site_fract_x
_atom_site_fract_y
_atom_site_fract_z
Si Si1 0.106616 0.784275 0.865657
Si Si2 0.605340 0.606644 0.044501
Si Si3 0.614481 0.076656 0.552030
Si Si4 0.740547 0.327943 0.505099
Si Si5 0.736091 0.812116 0.240134
Si Si6 0.103505 0.803376 0.259006
Si Si7 0.818737 0.571081 0.168503
Si Si8 0.894717 0.655286 0.001194
O O1 0.184383 0.780195 0.802973
O O2 0.114674 0.728191 0.959829
O O3 0.003687 0.782309 0.765373
O O4 0.115424 0.849968 0.938178
O O5 0.601569 0.652962 0.149375
O O6 0.704965 0.571200 0.102199
O O7 0.500000 0.575215 0.000000
O O8 0.500000 0.085860 0.500000
O O9 0.671526 0.127686 0.499132
O O10 0.653702 0.089740 0.693713
O O11 0.631820 0.000000 0.535206
O O12 0.750000 0.250000 0.500000
O O13 0.724320 0.341753 0.628825
O O14 0.653753 0.339046 0.382907
O O15 0.662814 0.758655 0.250259
O O16 0.677775 0.856715 0.131055
O O17 0.855674 0.500000 0.168455
O O18 0.866836 0.615196 0.097148
O O19 0.000000 0.645171 0.000000
#
# Coordination Sequence:
#
# PCOD9223402 Si02
#       8
#     8   8   8   8   8   8   8   8
#     4  11  20  33  62  85 118 155 187 233 311 374
#     4  10  18  34  60  86 114 148 190 244 294 359
#     4  10  23  44  66  86 120 172 215 248 304 379
#     4  10  23  38  57  90 127 148 203 262 308 352
#     4  11  21  35  52  87 119 156 190 238 307 358
#     4  10  19  36  53  88 119 148 195 240 295 367
#     4  11  24  39  60  87 114 157 207 249 290 346
#     4  12  22  36  59  83 121 156 190 240 301 369
#
# _framework density 9.0089120000000005
#
# number of rings (size 3 to 8) (size 9 to 14) (size 15 to 20)
#    0.000    1.375    5.000    1.500    3.500    1.000 
#    0.000    0.625    0.000    0.000    0.000    0.875 
#    0.000    0.000    0.000    0.000    0.000    0.000 
#
# Total GULP energy -178347.334528 kJ/mol
# GULP energy per Si atom -5573.354204 kJ/mol
# Density = 0.898841 g / cm^3
# Si number density = 9.008912 Si / 1000 Ang^3
#
#
#
# Elastic Constant Matrix: (Units=GPa)
#
#
# Indices 1 2 3 4 5 6 
#
# 1 98.9473 15.2494 36.0130 0.0000 13.6157 0.0000
# 2 15.2494 49.5562 10.2015 0.0000 -4.7534 0.0000
# 3 36.0130 10.2015 103.5406 0.0000 7.9717 0.0000
# 4 0.0000 0.0000 0.0000 14.8544 0.0000 7.8078
# 5 13.6157 -4.7534 7.9717 0.0000 19.1167 0.0000
# 6 0.0000 0.0000 0.0000 7.8078 0.0000 2.5330
#
#
#
# Elastic Compliance Matrix: (Units=1/GPa)
#
#
# Indices 1 2 3 4 5 6 
#
# 1 0.013280 -0.004233 -0.003505 0.000000 -0.009049 0.000000
# 2 -0.004233 0.022674 -0.001475 0.000000 0.009268 0.000000
# 3 -0.003505 -0.001475 0.011219 0.000000 -0.002549 0.000000
# 4 0.000000 0.000000 0.000000 -0.108540 0.000000 0.334573
# 5 -0.009049 0.009268 -0.002549 0.000000 0.062123 0.000000
# 6 0.000000 0.000000 0.000000 0.334573 0.000000 -0.636524
#
#
# Mechanical properties :
#
#
# Convention : Reuss Voigt Hill
#
# Bulk Modulus (GPa) = 34.78725 41.66356 38.22541
# Shear Modulus (GPa) = -8.22694 20.00616 5.88961
#
# Velocity S-wave (km/s) = -2.13914 3.33581 1.80993
# Velocity P-wave (km/s) = 3.63976 6.16527 5.06253
#
# Compressibility (1/GPa) = 0.02874616
#
# Stress axis : x y z
#
# Youngs Moduli (GPa) = 75.30290 44.10270 89.13649
#
# Poissons Ratio (x) = 0.18668 0.31243
# Poissons Ratio (y) = 0.31875 0.13151
# Poissons Ratio (z) = 0.26395 0.06507
#
# Static dielectric constant tensor:
#      x y z
#    x 1.626350 0.000000 0.033730 
#    y 0.000000 1.633960 0.000000 
#    z 0.033730 0.000000 1.651490 
# 
# From -- ./inp_files/147624.got.cif
#   From: 2010.05.17/outbox.ucp.g08.bks.cvg/sg12_74_cif.got.tgz:147624.got - 2010.06.11 11:47:21.
