data_PCOD9223421
_publ_section_title
;
Structure prediction by ZEFSAII (Michael W. Deem and Ramdas Pophale) SiO2 
 PCOD9223421
Probable space group: C 2/M
;
_chemical_formula_sum "Si O2"
_cell_formula_units_Z 28
_cell_length_a 15.000000
_cell_length_b 9.000000
_cell_length_c 24.000000
_cell_angle_alpha 90.000000
_cell_angle_beta 60.000000
_cell_angle_gamma 90.000000
_cell_volume 2805.922308
_symmetry_space_group_name_H-M "C 2/M"
_symmetry_group_IT_number 12
_symmetry_cell_setting 'monoclinic'
loop_
_space_group_symop_operation_xyz
x,y,z
-x,y,-z
-x,-y,-z
x,-y,z
1/2+x,1/2+y,z
1/2-x,1/2+y,-z
1/2-x,1/2-y,-z
1/2+x,1/2-y,z
loop_
_atom_site_type_symbol
_atom_site_label
_atom_site_fract_x
_atom_site_fract_y
_atom_site_fract_z
Si Si1 0.760742 0.169789 0.338728
Si Si2 0.672704 0.823926 0.788600
Si Si3 0.545678 0.673734 0.423476
Si Si4 0.554120 0.819354 0.116929
Si Si5 0.379714 0.174376 0.020746
Si Si6 0.839652 0.171203 0.438046
Si Si7 0.783527 0.676719 0.847618
O O1 0.817400 0.274380 0.277526
O O2 0.646150 0.229403 0.384218
O O3 0.814925 0.175031 0.381234
O O4 0.760342 0.000000 0.318454
O O5 0.563387 0.769453 0.846929
O O6 0.763988 0.751465 0.794890
O O7 0.676390 0.000000 0.793472
O O8 0.500000 0.681358 0.500000
O O9 0.569906 0.500000 0.403793
O O10 0.452786 0.731106 0.414474
O O11 0.611006 0.777229 0.155561
O O12 0.552406 0.000000 0.114137
O O13 0.619495 0.770555 0.043158
O O14 0.307192 0.267970 0.083170
O O15 0.349415 0.000000 0.033746
O O16 0.500000 0.181100 0.000000
O O17 0.750000 0.250000 0.500000
O O18 0.841773 0.000000 0.456888
O O19 0.780823 0.500000 0.843724
#
# Coordination Sequence:
#
# PCOD9223421 Si02
#       7
#     8   8   8   8   8   8   8
#     4  11  24  40  59  89 123 152 192 247 296 339
#     4  11  23  43  63  80 112 162 204 235 289 359
#     4  10  20  37  62  90 120 155 193 230 280 350
#     4   9  20  38  60  85 117 156 197 241 291 351
#     4  10  18  35  61  86 117 157 199 237 288 355
#     4  10  21  37  60  89 121 152 190 236 287 343
#     4  11  22  37  59  90 122 149 194 252 300 340
#
# _framework density 9.9788940000000004
#
# number of rings (size 3 to 8) (size 9 to 14) (size 15 to 20)
#    0.000    1.714    2.857    1.714    0.000    2.857 
#    0.000    6.429    0.000    0.000    0.000    0.000 
#    0.000    0.000    0.000    0.000    0.000    0.000 
#
# Total GULP energy -156299.332815 kJ/mol
# GULP energy per Si atom -5582.119029 kJ/mol
# Density = 0.995618 g / cm^3
# Si number density = 9.978894 Si / 1000 Ang^3
#
#
#
# Elastic Constant Matrix: (Units=GPa)
#
#
# Indices 1 2 3 4 5 6 
#
# 1 96.6722 25.7317 4.1520 0.0000 4.9705 0.0000
# 2 25.7317 35.6352 2.5435 0.0000 10.4180 0.0000
# 3 4.1520 2.5435 32.8683 0.0000 8.4720 0.0000
# 4 0.0000 0.0000 0.0000 30.5059 0.0000 1.5453
# 5 4.9705 10.4180 8.4720 0.0000 14.7405 0.0000
# 6 0.0000 0.0000 0.0000 1.5453 0.0000 19.2510
#
#
#
# Elastic Compliance Matrix: (Units=1/GPa)
#
#
# Indices 1 2 3 4 5 6 
#
# 1 0.012995 -0.010442 -0.001886 0.000000 0.004082 0.000000
# 2 -0.010442 0.044299 0.005932 0.000000 -0.031198 0.000000
# 3 -0.001886 0.005932 0.036533 0.000000 -0.024554 0.000000
# 4 0.000000 0.000000 0.000000 0.032914 0.000000 -0.002642
# 5 0.004082 -0.031198 -0.024554 0.000000 0.102625 0.000000
# 6 0.000000 0.000000 0.000000 -0.002642 0.000000 0.052157
#
#
# Mechanical properties :
#
#
# Convention : Reuss Voigt Hill
#
# Bulk Modulus (GPa) = 12.34019 25.55889 18.94954
# Shear Modulus (GPa) = 15.56048 21.74939 18.65493
#
# Velocity S-wave (km/s) = 2.79529 3.30475 3.06064
# Velocity P-wave (km/s) = 4.07612 5.23413 4.69099
#
# Compressibility (1/GPa) = 0.08103604
#
# Stress axis : x y z
#
# Youngs Moduli (GPa) = 76.95408 22.57363 27.37289
#
# Poissons Ratio (x) = 0.23572 0.05161
# Poissons Ratio (y) = 0.80356 -0.16239
# Poissons Ratio (z) = 0.14511 -0.13392
#
# Static dielectric constant tensor:
#      x y z
#    x 1.738710 0.000000 0.043690 
#    y 0.000000 1.679010 0.000000 
#    z 0.043690 0.000000 1.699740 
# 
# From -- ./inp_files/309014.got.cif
#   From: 2010.05.17/outbox.ucp.g08.bks.cvg/sg12_155_cif.got.tgz:309014.got - 2010.06.11 11:47:21.
