data_PCOD9223461
_publ_section_title
;
Structure prediction by ZEFSAII (Michael W. Deem and Ramdas Pophale) SiO2 
 PCOD9223461
Probable space group: C 2/M
;
_chemical_formula_sum "Si O2"
_cell_formula_units_Z 32
_cell_length_a 30.000000
_cell_length_b 9.000000
_cell_length_c 15.000000
_cell_angle_alpha 90.000000
_cell_angle_beta 90.000000
_cell_angle_gamma 90.000000
_cell_volume 4050.000000
_symmetry_space_group_name_H-M "C 2/M"
_symmetry_group_IT_number 12
_symmetry_cell_setting 'monoclinic'
loop_
_space_group_symop_operation_xyz
x,y,z
-x,y,-z
-x,-y,-z
x,-y,z
1/2+x,1/2+y,z
1/2-x,1/2+y,-z
1/2-x,1/2-y,-z
1/2+x,1/2-y,z
loop_
_atom_site_type_symbol
_atom_site_label
_atom_site_fract_x
_atom_site_fract_y
_atom_site_fract_z
Si Si1 0.961181 0.823717 0.198636
Si Si2 0.950251 0.826363 0.522544
Si Si3 0.108744 0.174216 0.654980
Si Si4 0.799322 0.675490 0.392012
Si Si5 0.387318 0.822477 0.664556
Si Si6 0.552889 0.169056 0.978001
Si Si7 0.056511 0.678291 0.170139
Si Si8 0.707872 0.822724 0.395443
O O1 0.926340 0.768468 0.272084
O O2 0.941250 0.778251 0.103419
O O3 0.010167 0.751172 0.201177
O O4 0.966232 0.000000 0.208677
O O5 0.918224 0.815875 0.437312
O O6 0.924628 0.740856 0.599170
O O7 0.000000 0.771142 0.500000
O O8 0.954969 0.000000 0.547757
O O9 0.155763 0.256101 0.648071
O O10 0.117342 0.000000 0.672928
O O11 0.798982 0.500000 0.377758
O O12 0.752823 0.746827 0.361335
O O13 0.798994 0.703651 0.498817
O O14 0.404587 0.788775 0.762091
O O15 0.337734 0.765613 0.647594
O O16 0.385862 0.000000 0.651293
O O17 0.567022 0.000000 0.956787
O O18 0.500000 0.162692 0.000000
O O19 0.571444 0.223780 0.071573
O O20 0.048873 0.500000 0.167165
O O21 0.712160 0.000000 0.382867
#
# Coordination Sequence:
#
# PCOD9223461 Si02
#       8
#     8   8   8   8   8   8   8   8
#     4  10  19  30  46  68  93 123 158 192 227 268
#     4  10  20  32  44  61  91 128 158 185 220 262
#     4  10  20  32  45  64  93 125 154 187 229 271
#     4  10  19  31  49  69  88 115 154 193 230 272
#     4  10  19  32  48  68  91 120 156 189 222 268
#     4   8  15  29  46  65  90 120 152 188 231 272
#     4   9  18  31  47  67  94 125 154 187 228 271
#     4   9  18  32  48  67  91 116 148 191 234 272
#
# _framework density 7.9012349999999998
#
# number of rings (size 3 to 8) (size 9 to 14) (size 15 to 20)
#    0.000    2.500    1.250    2.250    0.000    6.000 
#    0.000    0.000    0.000    0.000    0.000    0.875 
#    0.000    0.000    0.000    0.000    0.000    0.000 
#
# Total GULP energy -178203.109210 kJ/mol
# GULP energy per Si atom -5568.847163 kJ/mol
# Density = 0.788325 g / cm^3
# Si number density = 7.901235 Si / 1000 Ang^3
#
#
#
# Elastic Constant Matrix: (Units=GPa)
#
#
# Indices 1 2 3 4 5 6 
#
# 1 48.7033 9.0522 -14.1935 0.0000 36.7691 0.0000
# 2 9.0522 -6.4753 11.8916 0.0000 16.3911 0.0000
# 3 -14.1935 11.8916 9.6455 0.0000 26.7570 0.0000
# 4 0.0000 0.0000 0.0000 11.0233 0.0000 -8.2445
# 5 36.7691 16.3911 26.7570 0.0000 3.6243 0.0000
# 6 0.0000 0.0000 0.0000 -8.2445 0.0000 25.8841
#
#
#
# Elastic Compliance Matrix: (Units=1/GPa)
#
#
# Indices 1 2 3 4 5 6 
#
# 1 0.008750 0.004393 -0.015854 0.000000 0.008405 0.000000
# 2 0.004393 -0.055818 0.025738 0.000000 0.017859 0.000000
# 3 -0.015854 0.025738 0.003833 0.000000 0.016143 0.000000
# 4 0.000000 0.000000 0.000000 0.119086 0.000000 0.037931
# 5 0.008405 0.017859 0.016143 0.000000 -0.009298 0.000000
# 6 0.000000 0.000000 0.000000 0.037931 0.000000 0.050715
#
#
# Mechanical properties :
#
#
# Convention : Reuss Voigt Hill
#
# Bulk Modulus (GPa) = -68.11512 7.26379 -30.42566
# Shear Modulus (GPa) = 59.65031 11.11456 35.38243
#
# Velocity S-wave (km/s) = 6.15056 2.65494 4.73699
# Velocity P-wave (km/s) = 2.69101 3.74231 3.25932
#
# Compressibility (1/GPa) = -0.01468103
#
# Stress axis : x y z
#
# Youngs Moduli (GPa) = 114.27947 -17.91541 260.90589
#
# Poissons Ratio (x) = 0.07870 4.13643
# Poissons Ratio (y) = -0.50199 -6.71526
# Poissons Ratio (z) = 1.81180 0.46111
#
# Static dielectric constant tensor:
#      x y z
#    x 1.513800 0.000000 0.027880 
#    y 0.000000 1.533520 0.000000 
#    z 0.027880 0.000000 1.596930 
# 
# From -- ./inp_files/248366.got.cif
#   From: 2010.05.17/outbox.ucp.g08.bks.cvg/sg12_125_cif.got.tgz:248366.got - 2010.06.11 11:47:21.
