data_PCOD9223659
_publ_section_title
;
Structure prediction by ZEFSAII (Michael W. Deem and Ramdas Pophale) SiO2 
 PCOD9223659
Probable space group: C 2/M
;
_chemical_formula_sum "Si O2"
_cell_formula_units_Z 28
_cell_length_a 18.000000
_cell_length_b 9.000000
_cell_length_c 21.000000
_cell_angle_alpha 90.000000
_cell_angle_beta 60.000000
_cell_angle_gamma 90.000000
_cell_volume 2946.218424
_symmetry_space_group_name_H-M "C 2/M"
_symmetry_group_IT_number 12
_symmetry_cell_setting 'monoclinic'
loop_
_space_group_symop_operation_xyz
x,y,z
-x,y,-z
-x,-y,-z
x,-y,z
1/2+x,1/2+y,z
1/2-x,1/2+y,-z
1/2-x,1/2-y,-z
1/2+x,1/2-y,z
loop_
_atom_site_type_symbol
_atom_site_label
_atom_site_fract_x
_atom_site_fract_y
_atom_site_fract_z
Si Si1 0.081982 0.180072 0.162104
Si Si2 0.621312 0.823424 0.556560
Si Si3 0.738222 0.324747 0.262969
Si Si4 0.535586 0.325820 0.320460
Si Si5 0.435422 0.680126 0.973213
Si Si6 0.746592 0.677742 0.606402
Si Si7 0.736441 0.321478 0.879805
O O1 0.027961 0.218400 0.248813
O O2 0.048897 0.227326 0.106565
O O3 0.175416 0.250745 0.132914
O O4 0.090243 0.000000 0.159242
O O5 0.524775 0.769638 0.608361
O O6 0.675365 0.740126 0.588331
O O7 0.664362 0.788961 0.469690
O O8 0.628821 0.000000 0.562471
O O9 0.758846 0.500000 0.253604
O O10 0.635470 0.310084 0.295641
O O11 0.758983 0.252760 0.322204
O O12 0.779935 0.243343 0.184045
O O13 0.512676 0.500000 0.335848
O O14 0.442256 0.500000 0.969560
O O15 0.500000 0.735684 0.000000
O O16 0.340237 0.716190 0.038902
O O17 0.738270 0.500000 0.616257
O O18 0.743620 0.500000 0.872718
#
# Coordination Sequence:
#
# PCOD9223659 Si02
#       7
#     8   8   8   8   8   8   8
#     4   9  18  34  54  75 104 141 176 213 259 311
#     4  10  21  36  55  79 108 141 176 218 264 311
#     4  10  21  37  56  79 108 140 175 218 267 316
#     4   9  19  34  53  77 105 141 180 218 262 313
#     4   9  18  32  51  77 106 136 174 216 258 308
#     4  10  21  37  56  78 106 141 179 217 261 315
#     4  10  19  32  54  79 102 135 176 217 262 312
#
# _framework density 9.5037079999999996
#
# number of rings (size 3 to 8) (size 9 to 14) (size 15 to 20)
#    0.000    2.429    0.000    3.000    0.000    6.286 
#    0.000    6.429    0.000    3.857    0.000    0.000 
#    0.000    0.000    0.000    0.000    0.000    0.000 
#
# Total GULP energy -156244.057897 kJ/mol
# GULP energy per Si atom -5580.144925 kJ/mol
# Density = 0.948208 g / cm^3
# Si number density = 9.503708 Si / 1000 Ang^3
#
#
#
# Elastic Constant Matrix: (Units=GPa)
#
#
# Indices 1 2 3 4 5 6 
#
# 1 14.1327 -4.0063 -12.3802 0.0000 15.3009 0.0000
# 2 -4.0063 36.4334 2.8091 0.0000 2.2689 0.0001
# 3 -12.3802 2.8091 28.3412 0.0000 17.2058 0.0000
# 4 0.0000 0.0000 0.0000 24.7331 0.0000 -0.2179
# 5 15.3009 2.2689 17.2058 0.0000 38.1471 0.0000
# 6 0.0000 0.0001 0.0000 -0.2179 0.0000 27.4249
#
#
#
# Elastic Compliance Matrix: (Units=1/GPa)
#
#
# Indices 1 2 3 4 5 6 
#
# 1 -0.096527 -0.008662 -0.089682 0.000000 0.079682 0.000000
# 2 -0.008662 0.026890 -0.010448 0.000000 0.006587 0.000000
# 3 -0.089682 -0.010448 -0.034525 0.000000 0.052165 0.000000
# 4 0.000000 0.000000 0.000000 0.040434 0.000000 0.000321
# 5 0.079682 0.006587 0.052165 0.000000 -0.029667 0.000000
# 6 0.000000 0.000000 0.000000 0.000321 0.000000 0.036466
#
#
# Mechanical properties :
#
#
# Convention : Reuss Voigt Hill
#
# Bulk Modulus (GPa) = -3.10805 5.75028 1.32112
# Shear Modulus (GPa) = 93.62005 24.22667 58.92336
#
# Velocity S-wave (km/s) = 7.02577 3.57401 5.57382
# Velocity P-wave (km/s) = 8.01102 4.47921 6.48998
#
# Compressibility (1/GPa) = -0.32174505
#
# Stress axis : x y z
#
# Youngs Moduli (GPa) = -10.35980 37.18819 -28.96480
#
# Poissons Ratio (x) = 0.32212 -2.59762
# Poissons Ratio (y) = -0.08973 -0.30263
# Poissons Ratio (z) = -0.92909 0.38855
#
# Static dielectric constant tensor:
#      x y z
#    x 1.670620 0.000000 -0.006410 
#    y 0.000000 1.633070 0.000000 
#    z -0.006410 0.000000 1.661480 
# 
# From -- ./inp_files/313703.got.cif
#   From: 2010.05.17/outbox.ucp.g08.bks.cvg/sg12_157_cif.got.tgz:313703.got - 2010.06.11 11:47:21.
