data_PCOD9223394
_publ_section_title
;
Structure prediction by ZEFSAII (Michael W. Deem and Ramdas Pophale) SiO2 
 PCOD9223394
Probable space group: C 2/M
;
_chemical_formula_sum "Si O2"
_cell_formula_units_Z 32
_cell_length_a 24.000000
_cell_length_b 9.000000
_cell_length_c 30.000000
_cell_angle_alpha 90.000000
_cell_angle_beta 30.000000
_cell_angle_gamma 90.000000
_cell_volume 3240.000000
_symmetry_space_group_name_H-M "C 2/M"
_symmetry_group_IT_number 12
_symmetry_cell_setting 'monoclinic'
loop_
_space_group_symop_operation_xyz
x,y,z
-x,y,-z
-x,-y,-z
x,-y,z
1/2+x,1/2+y,z
1/2-x,1/2+y,-z
1/2-x,1/2-y,-z
1/2+x,1/2-y,z
loop_
_atom_site_type_symbol
_atom_site_label
_atom_site_fract_x
_atom_site_fract_y
_atom_site_fract_z
Si Si1 0.862476 0.825081 0.908419
Si Si2 0.467775 0.825623 0.749274
Si Si3 0.422987 0.828851 0.590246
Si Si4 0.743283 0.330768 0.638706
Si Si5 0.267183 0.827768 0.440691
Si Si6 0.933836 0.178793 0.175712
Si Si7 0.856859 0.318802 0.734091
Si Si8 0.604743 0.318529 0.897775
O O1 0.912069 0.758991 0.828654
O O2 0.940743 0.799539 0.896990
O O3 0.851520 0.000000 0.909755
O O4 0.750000 0.750000 0.000000
O O5 0.600707 0.813966 0.659440
O O6 0.426937 0.772815 0.728648
O O7 0.437569 0.000000 0.773426
O O8 0.500000 0.749809 0.500000
O O9 0.313257 0.839087 0.636047
O O10 0.401175 0.768057 0.654629
O O11 0.466419 0.000000 0.566829
O O12 0.723469 0.500000 0.636918
O O13 0.789579 0.246457 0.563546
O O14 0.633655 0.257293 0.735479
O O15 0.250000 0.750000 0.500000
O O16 0.236156 0.000000 0.465244
O O17 0.906396 0.233118 0.145628
O O18 0.912198 0.000000 0.190845
O O19 0.859721 0.500000 0.729766
O O20 0.727470 0.275633 0.829358
O O21 0.601658 0.500000 0.899434
O O22 0.500000 0.269297 0.000000
#
# Coordination Sequence:
#
# PCOD9223394 Si02
#       8
#     8   8   8   8   8   8   8   8
#     4  11  23  38  58  83 114 149 188 229 278 335
#     4  10  22  38  57  83 115 148 187 233 280 331
#     4   9  17  28  50  81 110 140 178 228 281 327
#     4  10  18  34  58  82 110 143 186 234 281 332
#     4  11  24  39  57  83 114 150 193 234 281 338
#     4   9  17  31  51  78 108 140 179 226 274 321
#     4   9  17  30  47  76 112 139 173 226 277 324
#     4   9  16  26  45  75 107 137 171 218 275 323
#
# _framework density 9.8765429999999999
#
# number of rings (size 3 to 8) (size 9 to 14) (size 15 to 20)
#    0.000    2.250    2.500    0.750    3.500    0.500 
#    0.000    0.000    0.000    1.125    0.000    0.875 
#    0.000    0.000    0.000    0.000    0.000    0.000 
#
# Total GULP energy -178156.040508 kJ/mol
# GULP energy per Si atom -5567.376266 kJ/mol
# Density = 0.985406 g / cm^3
# Si number density = 9.876543 Si / 1000 Ang^3
#
#
#
# Elastic Constant Matrix: (Units=GPa)
#
#
# Indices 1 2 3 4 5 6 
#
# 1 87.5497 7.2230 -3.5106 -0.0007 14.0083 0.0014
# 2 7.2230 16.8042 -1.2308 -0.0014 0.3481 -0.0011
# 3 -3.5106 -1.2308 32.5134 0.0005 -1.9275 -0.0024
# 4 -0.0007 -0.0014 0.0005 17.1710 0.0006 5.8098
# 5 14.0083 0.3481 -1.9275 0.0006 26.4869 -0.0023
# 6 0.0014 -0.0011 -0.0024 5.8098 -0.0023 11.4289
#
#
#
# Elastic Compliance Matrix: (Units=1/GPa)
#
#
# Indices 1 2 3 4 5 6 
#
# 1 0.012975 -0.005379 0.000798 0.000002 -0.006734 -0.000004
# 2 -0.005379 0.061915 0.001892 0.000003 0.002169 0.000006
# 3 0.000798 0.001892 0.031022 -0.000004 0.001810 0.000009
# 4 0.000002 0.000003 -0.000004 0.070335 -0.000006 -0.035754
# 5 -0.006734 0.002169 0.001810 -0.000006 0.041419 0.000013
# 6 -0.000004 0.000006 0.000009 -0.035754 0.000013 0.105672
#
#
# Mechanical properties :
#
#
# Convention : Reuss Voigt Hill
#
# Bulk Modulus (GPa) = 9.94702 15.75894 12.85298
# Shear Modulus (GPa) = 13.80345 19.97641 16.88993
#
# Velocity S-wave (km/s) = 2.64635 3.18355 2.92730
# Velocity P-wave (km/s) = 3.79265 4.63774 4.23632
#
# Compressibility (1/GPa) = 0.10053266
#
# Stress axis : x y z
#
# Youngs Moduli (GPa) = 77.06949 16.15121 32.23552
#
# Poissons Ratio (x) = 0.08688 -0.02573
# Poissons Ratio (y) = 0.41458 -0.06098
# Poissons Ratio (z) = -0.06152 -0.03055
#
# Static dielectric constant tensor:
#      x y z
#    x 1.774670 0.000000 -0.124200 
#    y 0.000000 1.676420 0.000000 
#    z -0.124200 0.000000 1.834340 
# 
# From -- ./inp_files/382247.got.cif
#   From: 2010.05.17/outbox.ucp.g08.bks.cvg/sg12_192_cif.got.tgz:382247.got - 2010.06.11 11:47:21.
