data_PCOD9223575
_publ_section_title
;
Structure prediction by ZEFSAII (Michael W. Deem and Ramdas Pophale) SiO2 
 PCOD9223575
Probable space group: C 2/M
;
_chemical_formula_sum "Si O2"
_cell_formula_units_Z 24
_cell_length_a 30.000000
_cell_length_b 9.000000
_cell_length_c 18.000000
_cell_angle_alpha 90.000000
_cell_angle_beta 150.000000
_cell_angle_gamma 90.000000
_cell_volume 2430.000000
_symmetry_space_group_name_H-M "C 2/M"
_symmetry_group_IT_number 12
_symmetry_cell_setting 'monoclinic'
loop_
_space_group_symop_operation_xyz
x,y,z
-x,y,-z
-x,-y,-z
x,-y,z
1/2+x,1/2+y,z
1/2-x,1/2+y,-z
1/2-x,1/2-y,-z
1/2+x,1/2-y,z
loop_
_atom_site_type_symbol
_atom_site_label
_atom_site_fract_x
_atom_site_fract_y
_atom_site_fract_z
Si Si1 0.612744 0.178065 0.325563
Si Si2 0.279730 0.666460 0.267212
Si Si3 0.986514 0.830801 0.563410
Si Si4 0.466398 0.673067 0.211703
Si Si5 0.775535 0.679830 0.652994
Si Si6 0.260405 0.669322 0.936193
O O1 0.522200 0.244118 0.229103
O O2 0.691605 0.245693 0.490471
O O3 0.640223 0.213727 0.279436
O O4 0.611937 0.000000 0.330964
O O5 0.245297 0.500000 0.202180
O O6 0.383522 0.657375 0.437665
O O7 0.226958 0.725948 0.263598
O O8 0.287006 0.752170 0.200501
O O9 0.000000 0.767115 0.500000
O O10 0.025709 0.757515 0.693783
O O11 0.025547 0.000000 0.614786
O O12 0.497537 0.500000 0.258955
O O13 0.361203 0.670961 0.050516
O O14 0.764415 0.500000 0.637055
O O15 0.231698 0.500000 0.904554
O O16 0.250000 0.750000 0.000000
#
# Coordination Sequence:
#
# PCOD9223575 Si02
#       6
#     8   8   8   8   8   8
#     4  10  19  31  54  86 115 142 182 235 280 321
#     4  10  19  35  58  80 109 147 186 229 274 327
#     4   9  16  29  53  79 100 133 184 228 266 323
#     4  10  20  37  57  78 108 149 189 223 275 339
#     4   9  18  34  55  81 113 152 186 218 277 343
#     4  11  24  40  59  81 111 150 188 228 278 334
#
# _framework density 9.8765429999999999
#
# number of rings (size 3 to 8) (size 9 to 14) (size 15 to 20)
#    0.000    2.167    1.667    2.000    0.000    5.333 
#    0.000    0.833    0.000    7.000    0.000    0.000 
#    0.000    0.000    0.000    0.000    0.000    0.000 
#
# Total GULP energy -133606.818799 kJ/mol
# GULP energy per Si atom -5566.950783 kJ/mol
# Density = 0.985406 g / cm^3
# Si number density = 9.876543 Si / 1000 Ang^3
#
#
#
# Elastic Constant Matrix: (Units=GPa)
#
#
# Indices 1 2 3 4 5 6 
#
# 1 133.6677 24.2032 -1.2164 0.0000 0.3741 0.0000
# 2 24.2032 44.7198 5.4464 0.0000 -4.5959 0.0000
# 3 -1.2164 5.4464 28.2593 0.0000 0.2511 0.0000
# 4 0.0000 0.0000 0.0000 13.3855 0.0000 1.0128
# 5 0.3741 -4.5959 0.2511 0.0000 27.0632 0.0000
# 6 0.0000 0.0000 0.0000 1.0128 0.0000 37.4872
#
#
#
# Elastic Compliance Matrix: (Units=1/GPa)
#
#
# Indices 1 2 3 4 5 6 
#
# 1 0.008361 -0.004779 0.001289 0.000000 -0.000939 0.000000
# 2 -0.004779 0.026056 -0.005268 0.000000 0.004540 0.000000
# 3 0.001289 -0.005268 0.036468 0.000000 -0.001251 0.000000
# 4 0.000000 0.000000 0.000000 0.074861 0.000000 -0.002022
# 5 -0.000939 0.004540 -0.001251 0.000000 0.037746 0.000000
# 6 0.000000 0.000000 0.000000 -0.002022 0.000000 0.026730
#
#
# Mechanical properties :
#
#
# Convention : Reuss Voigt Hill
#
# Bulk Modulus (GPa) = 18.73680 29.27924 24.00802
# Shear Modulus (GPa) = 20.36437 27.46809 23.91623
#
# Velocity S-wave (km/s) = 3.21432 3.73308 3.48337
# Velocity P-wave (km/s) = 4.82513 5.78239 5.32531
#
# Compressibility (1/GPa) = 0.05337090
#
# Stress axis : x y z
#
# Youngs Moduli (GPa) = 119.60504 38.37914 27.42098
#
# Poissons Ratio (x) = 0.18340 -0.03535
# Poissons Ratio (y) = 0.57154 0.14445
# Poissons Ratio (z) = -0.15420 0.20217
#
# Static dielectric constant tensor:
#      x y z
#    x 1.698530 0.000000 0.001100 
#    y 0.000000 1.722580 0.000000 
#    z 0.001100 0.000000 1.792810 
# 
# From -- ./inp_files/280069.got.cif
#   From: 2010.05.17/outbox.ucp.g08.bks.cvg/sg12_141_cif.got.tgz:280069.got - 2010.06.11 11:47:21.
