data_PCOD9223664
_publ_section_title
;
Structure prediction by ZEFSAII (Michael W. Deem and Ramdas Pophale) SiO2 
 PCOD9223664
Probable space group: C 2/M
;
_chemical_formula_sum "Si O2"
_cell_formula_units_Z 28
_cell_length_a 30.000000
_cell_length_b 15.000000
_cell_length_c 9.000000
_cell_angle_alpha 90.000000
_cell_angle_beta 50.000000
_cell_angle_gamma 90.000000
_cell_volume 3102.479995
_symmetry_space_group_name_H-M "C 2/M"
_symmetry_group_IT_number 12
_symmetry_cell_setting 'monoclinic'
loop_
_space_group_symop_operation_xyz
x,y,z
-x,y,-z
-x,-y,-z
x,-y,z
1/2+x,1/2+y,z
1/2-x,1/2+y,-z
1/2-x,1/2-y,-z
1/2+x,1/2-y,z
loop_
_atom_site_type_symbol
_atom_site_label
_atom_site_fract_x
_atom_site_fract_y
_atom_site_fract_z
Si Si1 0.176902 0.393176 0.420370
Si Si2 0.858979 0.105981 0.503722
Si Si3 0.917034 0.269519 0.542700
Si Si4 0.551714 0.226098 0.177913
Si Si5 0.856630 0.605356 0.156791
Si Si6 0.248562 0.728246 0.678267
Si Si7 0.061276 0.898425 0.955688
O O1 0.186294 0.500000 0.367179
O O2 0.127249 0.344494 0.427167
O O3 0.155988 0.389002 0.638480
O O4 0.232498 0.324157 0.289991
O O5 0.894863 0.171471 0.536741
O O6 0.797352 0.155554 0.617873
O O7 0.889820 0.110747 0.276117
O O8 0.856193 0.000000 0.549635
O O9 0.923484 0.273844 0.707048
O O10 0.981893 0.283126 0.338382
O O11 0.581148 0.146179 0.021590
O O12 0.565551 0.319837 0.066060
O O13 0.850239 0.500000 0.130136
O O14 0.811773 0.674381 0.172260
O O15 0.250000 0.750000 0.500000
O O16 0.064006 0.000000 0.011047
O O17 0.000000 0.889922 0.000000
#
# Coordination Sequence:
#
# PCOD9223664 Si02
#       7
#     8   8   8   8   8   8   8
#     4   9  19  36  58  82 109 140 180 224 270 323
#     4  10  19  34  57  82 110 143 180 224 271 323
#     4  10  22  36  53  78 108 150 183 220 276 323
#     4  11  22  36  54  77 113 147 183 225 269 324
#     4  10  21  36  57  84 109 141 182 227 272 320
#     4   9  17  33  57  83 109 139 175 223 274 322
#     4  10  19  32  54  82 109 140 179 222 268 315
#
# _framework density 9.0250380000000003
#
# number of rings (size 3 to 8) (size 9 to 14) (size 15 to 20)
#    0.000    2.143    1.429    3.000    0.000    2.286 
#    0.000    7.857    0.000    1.714    0.000    0.000 
#    0.000    0.000    0.000    0.000    0.000    0.000 
#
# Total GULP energy -156083.047499 kJ/mol
# GULP energy per Si atom -5574.394554 kJ/mol
# Density = 0.900450 g / cm^3
# Si number density = 9.025038 Si / 1000 Ang^3
#
#
#
# Elastic Constant Matrix: (Units=GPa)
#
#
# Indices 1 2 3 4 5 6 
#
# 1 81.7829 43.1507 -2.0461 0.0000 -3.3237 0.0000
# 2 43.1507 173.8587 19.1889 0.0000 1.9370 0.0000
# 3 -2.0461 19.1889 22.6530 0.0000 -1.1290 0.0000
# 4 0.0000 0.0000 0.0000 18.4247 0.0000 -2.0898
# 5 -3.3237 1.9370 -1.1290 0.0000 19.8846 0.0000
# 6 0.0000 0.0000 0.0000 -2.0898 0.0000 31.6839
#
#
#
# Elastic Compliance Matrix: (Units=1/GPa)
#
#
# Indices 1 2 3 4 5 6 
#
# 1 0.014727 -0.004252 0.005090 0.000000 0.003165 0.000000
# 2 -0.004252 0.007590 -0.006905 0.000000 -0.001842 0.000000
# 3 0.005090 -0.006905 0.050672 0.000000 0.004401 0.000000
# 4 0.000000 0.000000 0.000000 0.054684 0.000000 0.003607
# 5 0.003165 -0.001842 0.004401 0.000000 0.051248 0.000000
# 6 0.000000 0.000000 0.000000 0.003607 0.000000 0.031800
#
#
# Mechanical properties :
#
#
# Convention : Reuss Voigt Hill
#
# Bulk Modulus (GPa) = 16.43265 44.32019 30.37642
# Shear Modulus (GPa) = 20.56421 28.53206 24.54814
#
# Velocity S-wave (km/s) = 3.37899 3.98014 3.69182
# Velocity P-wave (km/s) = 4.93428 6.76234 5.91931
#
# Compressibility (1/GPa) = 0.06085447
#
# Stress axis : x y z
#
# Youngs Moduli (GPa) = 67.90245 131.75570 19.73460
#
# Poissons Ratio (x) = 0.56025 -0.10045
# Poissons Ratio (y) = 0.28873 0.13627
# Poissons Ratio (z) = -0.34561 0.90978
#
# Static dielectric constant tensor:
#      x y z
#    x 1.637290 0.000000 -0.028340 
#    y 0.000000 1.614630 0.000000 
#    z -0.028340 0.000000 1.625270 
# 
# From -- ./inp_files/111572.got.cif
#   From: 2010.05.17/outbox.ucp.g08.bks.cvg/sg12_56_cif.got.tgz:111572.got - 2010.06.11 11:47:21.
