data_PCOD9223780
_publ_section_title
;
Structure prediction by ZEFSAII (Michael W. Deem and Ramdas Pophale) SiO2 
 PCOD9223780
Probable space group: C 2/M
;
_chemical_formula_sum "Si O2"
_cell_formula_units_Z 32
_cell_length_a 30.000000
_cell_length_b 9.000000
_cell_length_c 18.000000
_cell_angle_alpha 90.000000
_cell_angle_beta 40.000000
_cell_angle_gamma 90.000000
_cell_volume 3123.947783
_symmetry_space_group_name_H-M "C 2/M"
_symmetry_group_IT_number 12
_symmetry_cell_setting 'monoclinic'
loop_
_space_group_symop_operation_xyz
x,y,z
-x,y,-z
-x,-y,-z
x,-y,z
1/2+x,1/2+y,z
1/2-x,1/2+y,-z
1/2-x,1/2-y,-z
1/2+x,1/2-y,z
loop_
_atom_site_type_symbol
_atom_site_label
_atom_site_fract_x
_atom_site_fract_y
_atom_site_fract_z
Si Si1 0.335771 0.326647 0.842153
Si Si2 0.908853 0.826550 0.894492
Si Si3 0.811153 0.324256 0.373594
Si Si4 0.739451 0.670529 0.860411
Si Si5 0.079852 0.161054 0.417459
Si Si6 0.747835 0.327874 0.686416
Si Si7 0.944677 0.825941 0.270315
Si Si8 0.904793 0.334661 0.459229
O O1 0.320467 0.500000 0.879346
O O2 0.380946 0.262280 0.852147
O O3 0.267482 0.246798 0.898775
O O4 0.381173 0.319222 0.709544
O O5 0.977919 0.769246 0.844657
O O6 0.925772 0.000000 0.856274
O O7 0.843167 0.823887 0.031383
O O8 0.805176 0.500000 0.387100
O O9 0.750000 0.250000 0.500000
O O10 0.801055 0.269066 0.302247
O O11 0.884586 0.267009 0.309034
O O12 0.763636 0.500000 0.831941
O O13 0.759440 0.733747 0.754705
O O14 0.087201 0.293790 0.465458
O O15 0.000000 0.151790 0.500000
O O16 0.102323 0.000000 0.421202
O O17 0.723814 0.500000 0.723497
O O18 0.822468 0.332403 0.551773
O O19 0.938415 0.791517 0.366145
O O20 0.934937 0.000000 0.266182
O O21 0.931122 0.500000 0.408371
#
# Coordination Sequence:
#
# PCOD9223780 Si02
#       8
#     8   8   8   8   8   8   8   8
#     4  10  19  33  55  84 116 150 196 241 281 336
#     4   9  20  38  60  85 113 152 198 239 282 336
#     4  12  24  39  62  90 118 149 187 233 288 348
#     4  10  20  38  61  84 115 153 196 241 282 331
#     4  10  20  33  50  75 113 158 197 235 285 345
#     4  10  21  37  58  85 117 149 187 233 283 340
#     4  11  22  39  62  86 116 152 191 237 288 344
#     4  11  21  34  54  82 116 150 187 234 286 344
#
# _framework density 10.243449
#
# number of rings (size 3 to 8) (size 9 to 14) (size 15 to 20)
#    0.000    1.625    2.500    3.000    0.000    3.250 
#    0.000    4.375    0.000    3.750    0.000    0.000 
#    0.000    0.000    0.000    0.000    0.000    0.000 
#
# Total GULP energy -178361.656306 kJ/mol
# GULP energy per Si atom -5573.801760 kJ/mol
# Density = 1.022013 g / cm^3
# Si number density = 10.243449 Si / 1000 Ang^3
#
#
#
# Elastic Constant Matrix: (Units=GPa)
#
#
# Indices 1 2 3 4 5 6 
#
# 1 87.1995 31.3181 25.8585 -0.0032 -17.6965 0.0009
# 2 31.3181 60.8500 7.0786 -0.0061 -8.8277 0.0001
# 3 25.8585 7.0786 29.0033 -0.0070 -10.8375 -0.0003
# 4 -0.0032 -0.0061 -0.0070 13.5661 0.0016 1.9366
# 5 -17.6965 -8.8277 -10.8375 0.0016 31.6882 0.0007
# 6 0.0009 0.0001 -0.0003 1.9366 0.0007 26.9883
#
#
#
# Elastic Compliance Matrix: (Units=1/GPa)
#
#
# Indices 1 2 3 4 5 6 
#
# 1 0.019055 -0.007660 -0.013690 -0.000006 0.003826 0.000000
# 2 -0.007660 0.020398 0.002724 0.000009 0.002336 0.000000
# 3 -0.013690 0.002724 0.049812 0.000023 0.010150 -0.000001
# 4 -0.000006 0.000009 0.000023 0.074476 0.000003 -0.005344
# 5 0.003826 0.002336 0.010150 0.000003 0.037816 -0.000001
# 6 0.000000 0.000000 -0.000001 -0.005344 -0.000001 0.037437
#
#
# Mechanical properties :
#
#
# Convention : Reuss Voigt Hill
#
# Bulk Modulus (GPa) = 19.22569 33.95144 26.58856
# Shear Modulus (GPa) = 17.03092 21.96836 19.49964
#
# Velocity S-wave (km/s) = 2.88637 3.27817 3.08849
# Velocity P-wave (km/s) = 4.52912 5.56208 5.07197
#
# Compressibility (1/GPa) = 0.05201374
#
# Stress axis : x y z
#
# Youngs Moduli (GPa) = 52.47968 49.02392 20.07539
#
# Poissons Ratio (x) = 0.37551 0.27483
# Poissons Ratio (y) = 0.40198 -0.05468
# Poissons Ratio (z) = 0.71845 -0.13353
#
# Static dielectric constant tensor:
#      x y z
#    x 1.774300 -0.000010 -0.045370 
#    y -0.000010 1.756180 0.000020 
#    z -0.045370 0.000020 1.858620 
# 
# From -- ./inp_files/295516.got.cif
#   From: 2010.05.17/outbox.ucp.g08.bks.cvg/sg12_148_cif.got.tgz:295516.got - 2010.06.11 11:47:21.
