data_PCOD9223730
_publ_section_title
;
Structure prediction by ZEFSAII (Michael W. Deem and Ramdas Pophale) SiO2 
 PCOD9223730
Probable space group: C 2/M
;
_chemical_formula_sum "Si O2"
_cell_formula_units_Z 32
_cell_length_a 30.000000
_cell_length_b 15.000000
_cell_length_c 21.000000
_cell_angle_alpha 90.000000
_cell_angle_beta 160.000000
_cell_angle_gamma 90.000000
_cell_volume 3232.090354
_symmetry_space_group_name_H-M "C 2/M"
_symmetry_group_IT_number 12
_symmetry_cell_setting 'monoclinic'
loop_
_space_group_symop_operation_xyz
x,y,z
-x,y,-z
-x,-y,-z
x,-y,z
1/2+x,1/2+y,z
1/2-x,1/2+y,-z
1/2-x,1/2-y,-z
1/2+x,1/2-y,z
loop_
_atom_site_type_symbol
_atom_site_label
_atom_site_fract_x
_atom_site_fract_y
_atom_site_fract_z
Si Si1 0.301853 0.601499 0.888795
Si Si2 0.339535 0.237188 0.375978
Si Si3 0.871430 0.268233 0.558448
Si Si4 0.342183 0.398458 0.289197
Si Si5 0.070607 0.399363 0.678659
Si Si6 0.921366 0.100862 0.702520
Si Si7 0.116150 0.603609 0.886939
Si Si8 0.373662 0.601390 0.788757
O O1 0.315426 0.500000 0.884126
O O2 0.276982 0.667462 0.796561
O O3 0.179808 0.607074 0.772150
O O4 0.425290 0.619832 0.099609
O O5 0.379909 0.272774 0.499331
O O6 0.305111 0.321410 0.287591
O O7 0.465146 0.177190 0.527663
O O8 0.848433 0.185887 0.575121
O O9 0.751886 0.335297 0.383921
O O10 0.998874 0.327844 0.746907
O O11 0.500000 0.393185 0.500000
O O12 0.311064 0.500000 0.267031
O O13 0.253731 0.381219 0.107521
O O14 0.012019 0.500000 0.596878
O O15 0.128834 0.389697 0.827666
O O16 0.912171 0.098752 0.766231
O O17 0.888072 0.000000 0.634618
O O18 0.077026 0.500000 0.848183
O O19 0.338061 0.500000 0.760304
O O20 0.500000 0.628444 0.000000
#
# Coordination Sequence:
#
# PCOD9223730 Si02
#       8
#     8   8   8   8   8   8   8   8
#     4  10  19  33  54  79 109 141 174 221 277 326
#     4  11  21  32  50  78 109 142 181 221 266 321
#     4  11  22  36  58  82 110 144 175 219 270 320
#     4  10  21  36  52  71 105 153 196 230 259 299
#     4   9  18  32  52  78 107 139 176 224 278 325
#     4  10  22  38  56  80 109 141 178 217 261 320
#     4   9  19  35  54  79 107 140 186 228 267 316
#     4  10  21  39  63  88 110 133 168 219 277 330
#
# _framework density 9.9007129999999997
#
# number of rings (size 3 to 8) (size 9 to 14) (size 15 to 20)
#    0.000    2.000    0.000    3.750    0.000    5.000 
#    0.000    5.625    0.000    0.375    0.000    0.000 
#    0.000    0.000    0.000    0.000    0.000    0.000 
#
# Total GULP energy -178275.325714 kJ/mol
# GULP energy per Si atom -5571.103929 kJ/mol
# Density = 0.987818 g / cm^3
# Si number density = 9.900713 Si / 1000 Ang^3
#
#
#
# Elastic Constant Matrix: (Units=GPa)
#
#
# Indices 1 2 3 4 5 6 
#
# 1 48.4184 32.6120 22.0567 0.0001 -16.0032 0.0001
# 2 32.6120 94.0247 58.0083 0.0000 -23.9526 0.0000
# 3 22.0567 58.0083 113.4193 0.0001 -22.5372 0.0001
# 4 0.0001 0.0000 0.0001 25.8568 0.0001 -7.6561
# 5 -16.0032 -23.9526 -22.5372 0.0001 20.7385 0.0001
# 6 0.0001 0.0000 0.0001 -7.6561 0.0001 28.9800
#
#
#
# Elastic Compliance Matrix: (Units=1/GPa)
#
#
# Indices 1 2 3 4 5 6 
#
# 1 0.030304 -0.006878 0.000883 0.000000 0.016401 0.000000
# 2 -0.006878 0.019789 -0.006755 0.000000 0.010207 0.000000
# 3 0.000883 -0.006755 0.013628 0.000000 0.007689 0.000000
# 4 0.000000 0.000000 0.000000 0.041957 0.000000 0.011084
# 5 0.016401 0.010207 0.007689 0.000000 0.081021 0.000000
# 6 0.000000 0.000000 0.000000 0.011084 0.000000 0.037435
#
#
# Mechanical properties :
#
#
# Convention : Reuss Voigt Hill
#
# Bulk Modulus (GPa) = 26.16303 53.46847 39.81575
# Shear Modulus (GPa) = 19.05679 24.66076 21.85878
#
# Velocity S-wave (km/s) = 3.10561 3.53286 3.32610
# Velocity P-wave (km/s) = 5.10893 6.61078 5.90777
#
# Compressibility (1/GPa) = 0.03822187
#
# Stress axis : x y z
#
# Youngs Moduli (GPa) = 32.99873 50.53326 73.37844
#
# Poissons Ratio (x) = 0.34755 -0.06482
# Poissons Ratio (y) = 0.22696 0.49569
# Poissons Ratio (z) = -0.02915 0.34137
#
# Static dielectric constant tensor:
#      x y z
#    x 1.816310 0.000000 0.058610 
#    y 0.000000 1.725090 0.000000 
#    z 0.058610 0.000000 1.722830 
# 
# From -- ./inp_files/330420.got.cif
#   From: 2010.05.17/outbox.ucp.g08.bks.cvg/sg12_166_cif.got.tgz:330420.got - 2010.06.11 11:47:21.
