data_PCOD9223017
_publ_section_title
;
Structure prediction by ZEFSAII (Michael W. Deem and Ramdas Pophale) SiO2 
 PCOD9223017
Probable space group: C 2/M
;
_chemical_formula_sum "Si O2"
_cell_formula_units_Z 48
_cell_length_a 24.837273
_cell_length_b 7.309056
_cell_length_c 19.042855
_cell_angle_alpha 90.000000
_cell_angle_beta 34.211509
_cell_angle_gamma 90.000000
_cell_volume 1943.687046
_symmetry_space_group_name_H-M "C 2/M"
_symmetry_group_IT_number 12
_symmetry_cell_setting 'monoclinic'
loop_
_space_group_symop_operation_xyz
x,y,z
-x,y,-z
-x,-y,-z
x,-y,z
1/2+x,1/2+y,z
1/2-x,1/2+y,-z
1/2-x,1/2-y,-z
1/2+x,1/2-y,z
loop_
_atom_site_type_symbol
_atom_site_label
_atom_site_fract_x
_atom_site_fract_y
_atom_site_fract_z
Si Si1 0.085018 0.776408 0.458109
Si Si2 0.353487 0.784391 0.852377
Si Si3 0.761592 0.208552 0.810044
Si Si4 0.566923 0.225400 0.090436
Si Si5 0.848019 0.777461 0.470465
Si Si6 0.363836 0.205174 0.291631
O O1 0.183375 0.712855 0.315601
O O2 0.080828 0.723975 0.543956
O O3 0.000000 0.714345 0.500000
O O4 0.085408 0.000000 0.456620
O O5 0.339049 0.705577 0.790468
O O6 0.424129 0.715627 0.837307
O O7 0.367617 0.000000 0.828673
O O8 0.250000 0.750000 0.000000
O O9 0.738039 0.000000 0.817397
O O10 0.662538 0.287071 0.946680
O O11 0.467559 0.286344 0.162905
O O12 0.567476 0.000000 0.091334
O O13 0.740949 0.717108 0.609390
O O14 0.866545 0.699606 0.373954
O O15 0.846447 0.000000 0.465604
O O16 0.362758 0.000000 0.263220
#
# Coordination Sequence:
#
# PCOD9223017 Si02
#       6
#     8   8   8   8   8   8
#     4   9  18  31  47  68  96 126 156 194 235 278
#     4   9  16  27  43  65  94 123 152 187 228 274
#     4   9  17  30  46  65  92 125 156 190 232 276
#     4   8  15  27  44  66  91 118 148 187 235 275
#     4   9  18  32  49  70  92 120 160 195 228 278
#     4   9  17  31  50  69  93 121 151 196 241 275
#
# _framework density 24.695333999999999
#
# number of rings (size 3 to 8) (size 9 to 14) (size 15 to 20)
#    0.000    3.167    0.000    1.500    2.333    0.000 
#    0.000    5.000    0.000    6.000    0.000    0.000 
#    0.000   10.667    0.000    0.000    0.000    0.000 
#
# Total GULP energy -133926.282278 kJ/mol
# GULP energy per Si atom -5580.261762 kJ/mol
# Density = 2.463913 g / cm^3
# Si number density = 24.695334 Si / 1000 Ang^3
#
#
#
# Elastic Constant Matrix: (Units=GPa)
#
#
# Indices 1 2 3 4 5 6 
#
# 1 76.6577 -4.9581 9.7673 0.0004 -2.7363 -0.0025
# 2 -4.9581 111.8090 -1.4688 0.0039 -1.5611 0.0021
# 3 9.7673 -1.4688 83.8341 0.0201 -8.2349 0.0000
# 4 0.0004 0.0039 0.0201 -3.1228 -0.0049 -0.9871
# 5 -2.7363 -1.5611 -8.2349 -0.0049 45.1551 -0.0014
# 6 -0.0025 0.0021 0.0000 -0.9871 -0.0014 2.4931
#
#
#
# Elastic Compliance Matrix: (Units=1/GPa)
#
#
# Indices 1 2 3 4 5 6 
#
# 1 0.013291 0.000578 -0.001484 -0.000011 0.000555 0.000009
# 2 0.000578 0.008976 0.000126 0.000012 0.000368 -0.000002
# 3 -0.001484 0.000126 0.012316 0.000067 0.002160 0.000026
# 4 -0.000011 0.000012 0.000067 -0.284612 -0.000022 -0.112682
# 5 0.000555 0.000368 0.002160 -0.000022 0.022586 0.000004
# 6 0.000009 -0.000002 0.000026 -0.112682 0.000004 0.356497
#
#
# Mechanical properties :
#
#
# Convention : Reuss Voigt Hill
#
# Bulk Modulus (GPa) = 30.28206 30.99795 30.64000
# Shear Modulus (GPa) = 35.30519 26.83579 31.07049
#
# Velocity S-wave (km/s) = 3.78515 3.30005 3.55089
# Velocity P-wave (km/s) = 5.60286 5.20575 5.40795
#
# Compressibility (1/GPa) = 0.03302286
#
# Stress axis : x y z
#
# Youngs Moduli (GPa) = 75.23758 111.40528 81.19771
#
# Poissons Ratio (x) = -0.06435 0.12049
# Poissons Ratio (y) = -0.04346 -0.01024
# Poissons Ratio (z) = 0.11165 -0.01405
#
# Static dielectric constant tensor:
#      x y z
#    x 1.943020 -0.000010 -0.042050 
#    y -0.000010 1.936740 0.000000 
#    z -0.042050 0.000000 1.965260 
# 
# From -- ./inp_files/327183.got.cif
#   From: 2010.05.17/outbox.cif.g08.bks.cpg/sg12_164_cif.got.tgz:327183.got - 2010.06.03 13:09:07.
