data_PCOD9223309
_publ_section_title
;
Structure prediction by ZEFSAII (Michael W. Deem and Ramdas Pophale) SiO2 
 PCOD9223309
Probable space group: C 2/M
;
_chemical_formula_sum "Si O2"
_cell_formula_units_Z 28
_cell_length_a 27.000000
_cell_length_b 9.000000
_cell_length_c 15.000000
_cell_angle_alpha 90.000000
_cell_angle_beta 120.000000
_cell_angle_gamma 90.000000
_cell_volume 3156.662597
_symmetry_space_group_name_H-M "C 2/M"
_symmetry_group_IT_number 12
_symmetry_cell_setting 'monoclinic'
loop_
_space_group_symop_operation_xyz
x,y,z
-x,y,-z
-x,-y,-z
x,-y,z
1/2+x,1/2+y,z
1/2-x,1/2+y,-z
1/2-x,1/2-y,-z
1/2+x,1/2-y,z
loop_
_atom_site_type_symbol
_atom_site_label
_atom_site_fract_x
_atom_site_fract_y
_atom_site_fract_z
Si Si1 0.956680 0.172618 0.716154
Si Si2 0.639217 0.165289 0.053149
Si Si3 0.052833 0.320491 0.483954
Si Si4 0.443397 0.676527 0.898113
Si Si5 0.236570 0.169221 0.895743
Si Si6 0.137107 0.669807 0.704800
Si Si7 0.066102 0.335355 0.816184
O O1 0.946463 0.257649 0.614806
O O2 0.931370 0.231639 0.786762
O O3 0.023800 0.200945 0.794877
O O4 0.943036 0.000000 0.691648
O O5 0.608618 0.285540 0.085032
O O6 0.706565 0.176510 0.112013
O O7 0.621768 0.000000 0.068711
O O8 0.617923 0.175821 0.931779
O O9 0.050279 0.500000 0.478147
O O10 0.109856 0.276298 0.588734
O O11 0.000000 0.271494 0.500000
O O12 0.451629 0.500000 0.896144
O O13 0.500000 0.737222 0.000000
O O14 0.186145 0.236778 0.793386
O O15 0.223452 0.000000 0.906350
O O16 0.250000 0.250000 0.000000
O O17 0.156570 0.500000 0.711322
O O18 0.087104 0.667406 0.734084
O O19 0.039294 0.500000 0.807146
#
# Coordination Sequence:
#
# PCOD9223309 Si02
#       7
#     8   8   8   8   8   8   8
#     4  11  22  34  51  79 112 142 178 220 266 318
#     4  10  21  35  53  78 107 142 181 218 257 314
#     4  10  20  36  56  77 107 145 179 218 266 318
#     4  10  21  36  52  76 110 142 174 219 272 318
#     4  11  22  36  54  80 112 143 179 221 267 316
#     4  10  20  36  55  78 109 144 181 218 263 319
#     4  10  18  32  52  76 110 143 178 216 255 315
#
# _framework density 8.8701279999999993
#
# number of rings (size 3 to 8) (size 9 to 14) (size 15 to 20)
#    0.000    1.714    4.286    0.857    0.000    4.000 
#    0.000    0.000    0.000    0.857    0.000    0.000 
#    0.000    0.000    0.000    0.000    0.000    0.000 
#
# Total GULP energy -155945.510308 kJ/mol
# GULP energy per Si atom -5569.482511 kJ/mol
# Density = 0.884994 g / cm^3
# Si number density = 8.870128 Si / 1000 Ang^3
#
#
#
# Elastic Constant Matrix: (Units=GPa)
#
#
# Indices 1 2 3 4 5 6 
#
# 1 17.2284 16.8730 37.2510 0.0000 -4.0070 0.0000
# 2 16.8730 26.5720 45.1702 0.0000 5.3841 0.0000
# 3 37.2510 45.1702 118.0289 0.0000 -10.4242 0.0000
# 4 0.0000 0.0000 0.0000 27.2998 0.0000 0.5301
# 5 -4.0070 5.3841 -10.4242 0.0000 26.4812 0.0000
# 6 0.0000 0.0000 0.0000 0.5301 0.0000 20.8858
#
#
#
# Elastic Compliance Matrix: (Units=1/GPa)
#
#
# Indices 1 2 3 4 5 6 
#
# 1 0.247932 -0.122098 -0.026954 0.000000 0.051730 0.000000
# 2 -0.122098 0.231133 -0.057709 0.000000 -0.088185 0.000000
# 3 -0.026954 -0.057709 0.041172 0.000000 0.023862 0.000000
# 4 0.000000 0.000000 0.000000 0.036648 0.000000 -0.000930
# 5 0.051730 -0.088185 0.023862 0.000000 0.072913 0.000000
# 6 0.000000 0.000000 0.000000 -0.000930 0.000000 0.047903
#
#
# Mechanical properties :
#
#
# Convention : Reuss Voigt Hill
#
# Bulk Modulus (GPa) = 9.37056 40.04640 24.70848
# Shear Modulus (GPa) = 4.43736 19.10237 11.76987
#
# Velocity S-wave (km/s) = 1.58326 3.28499 2.57856
# Velocity P-wave (km/s) = 2.93868 6.08367 4.77739
#
# Compressibility (1/GPa) = 0.10671720
#
# Stress axis : x y z
#
# Youngs Moduli (GPa) = 4.03336 4.32651 24.28821
#
# Poissons Ratio (x) = 0.52826 0.65465
# Poissons Ratio (y) = 0.49246 1.40165
# Poissons Ratio (z) = 0.10871 0.24968
#
# Static dielectric constant tensor:
#      x y z
#    x 1.702300 0.000000 0.030530 
#    y 0.000000 1.648160 0.000000 
#    z 0.030530 0.000000 1.622680 
# 
# From -- ./inp_files/243625.got.cif
#   From: 2010.05.17/outbox.ucp.g08.bks.cvg/sg12_122_cif.got.tgz:243625.got - 2010.06.11 11:47:21.
