data_PCOD9223783
_publ_section_title
;
Structure prediction by ZEFSAII (Michael W. Deem and Ramdas Pophale) SiO2 
 PCOD9223783
Probable space group: C 2/M
;
_chemical_formula_sum "Si O2"
_cell_formula_units_Z 28
_cell_length_a 24.000000
_cell_length_b 9.000000
_cell_length_c 15.000000
_cell_angle_alpha 90.000000
_cell_angle_beta 60.000000
_cell_angle_gamma 90.000000
_cell_volume 2805.922308
_symmetry_space_group_name_H-M "C 2/M"
_symmetry_group_IT_number 12
_symmetry_cell_setting 'monoclinic'
loop_
_space_group_symop_operation_xyz
x,y,z
-x,y,-z
-x,-y,-z
x,-y,z
1/2+x,1/2+y,z
1/2-x,1/2+y,-z
1/2-x,1/2-y,-z
1/2+x,1/2-y,z
loop_
_atom_site_type_symbol
_atom_site_label
_atom_site_fract_x
_atom_site_fract_y
_atom_site_fract_z
Si Si1 0.818719 0.322259 0.796663
Si Si2 0.919625 0.825198 0.376061
Si Si3 0.820388 0.826940 0.120331
Si Si4 0.313359 0.324980 0.609705
Si Si5 0.462848 0.672050 0.939252
Si Si6 0.045308 0.323344 0.236981
Si Si7 0.829586 0.675913 0.302596
O O1 0.821233 0.500000 0.802607
O O2 0.744695 0.278305 0.879149
O O3 0.822259 0.271089 0.691154
O O4 0.882646 0.266808 0.796393
O O5 0.872021 0.802507 0.496758
O O6 0.880830 0.759366 0.322676
O O7 0.988084 0.749214 0.339235
O O8 0.929313 0.000000 0.354463
O O9 0.832532 0.728219 0.197785
O O10 0.810879 0.000000 0.155995
O O11 0.886234 0.822468 0.014134
O O12 0.309766 0.500000 0.637701
O O13 0.245446 0.289828 0.615943
O O14 0.481285 0.500000 0.905662
O O15 0.474897 0.776466 0.846398
O O16 0.500000 0.714692 0.000000
O O17 0.044318 0.500000 0.247293
O O18 0.840068 0.500000 0.302389
#
# Coordination Sequence:
#
# PCOD9223783 Si02
#       7
#     8   8   8   8   8   8   8
#     4   9  20  38  57  79 109 145 184 225 270 321
#     4  11  22  36  54  78 110 148 186 224 273 326
#     4   9  18  35  58  81 110 148 183 218 267 326
#     4   9  20  36  56  82 110 143 183 225 268 322
#     4  10  21  37  58  84 111 140 177 220 271 331
#     4  11  24  39  55  79 110 143 184 231 274 318
#     4  10  19  33  55  85 115 141 177 224 273 323
#
# _framework density 9.9788940000000004
#
# number of rings (size 3 to 8) (size 9 to 14) (size 15 to 20)
#    0.000    2.143    0.000    2.571    0.000    6.000 
#    0.000    2.857    0.000    0.000    0.000    0.000 
#    0.000    0.000    0.000    0.000    0.000    0.000 
#
# Total GULP energy -156183.756932 kJ/mol
# GULP energy per Si atom -5577.991319 kJ/mol
# Density = 0.995618 g / cm^3
# Si number density = 9.978894 Si / 1000 Ang^3
#
#
#
# Elastic Constant Matrix: (Units=GPa)
#
#
# Indices 1 2 3 4 5 6 
#
# 1 112.1123 21.1573 15.6170 0.0000 -15.7848 0.0000
# 2 21.1573 27.6942 10.4975 0.0000 -9.0800 0.0000
# 3 15.6170 10.4975 38.4602 0.0000 -17.6713 0.0000
# 4 0.0000 0.0000 0.0000 23.0806 0.0000 -1.2271
# 5 -15.7848 -9.0800 -17.6713 0.0000 27.0894 0.0000
# 6 0.0000 0.0000 0.0000 -1.2271 0.0000 25.0305
#
#
#
# Elastic Compliance Matrix: (Units=1/GPa)
#
#
# Indices 1 2 3 4 5 6 
#
# 1 0.010812 -0.006777 -0.000985 0.000000 0.003386 0.000000
# 2 -0.006777 0.046134 -0.006497 0.000000 0.007277 0.000000
# 3 -0.000985 -0.006497 0.038428 0.000000 0.022316 0.000000
# 4 0.000000 0.000000 0.000000 0.043440 0.000000 0.002130
# 5 0.003386 0.007277 0.022316 0.000000 0.055885 0.000000
# 6 0.000000 0.000000 0.000000 0.002130 0.000000 0.040056
#
#
# Mechanical properties :
#
#
# Convention : Reuss Voigt Hill
#
# Bulk Modulus (GPa) = 14.95716 30.31223 22.63469
# Shear Modulus (GPa) = 17.50963 23.77310 20.64136
#
# Velocity S-wave (km/s) = 2.96519 3.45508 3.21947
# Velocity P-wave (km/s) = 4.38564 5.58013 5.01855
#
# Compressibility (1/GPa) = 0.06685760
#
# Stress axis : x y z
#
# Youngs Moduli (GPa) = 92.48579 21.67587 26.02290
#
# Poissons Ratio (x) = 0.14689 0.02563
# Poissons Ratio (y) = 0.62675 0.16907
# Poissons Ratio (z) = 0.09108 0.14083
#
# Static dielectric constant tensor:
#      x y z
#    x 1.703170 0.000000 -0.052230 
#    y 0.000000 1.686090 0.000000 
#    z -0.052230 0.000000 1.749360 
# 
# From -- ./inp_files/238364.got.cif
#   From: 2010.05.17/outbox.ucp.g08.bks.cvg/sg12_120_cif.got.tgz:238364.got - 2010.06.11 11:47:21.
