data_PCOD9223097
_publ_section_title
;
Structure prediction by ZEFSAII (Michael W. Deem and Ramdas Pophale) SiO2 
 PCOD9223097
Probable space group: C 2/M
;
_chemical_formula_sum "Si O2"
_cell_formula_units_Z 64
_cell_length_a 24.575849
_cell_length_b 7.312049
_cell_length_c 15.045912
_cell_angle_alpha 90.000000
_cell_angle_beta 103.788557
_cell_angle_gamma 90.000000
_cell_volume 2625.830692
_symmetry_space_group_name_H-M "C 2/M"
_symmetry_group_IT_number 12
_symmetry_cell_setting 'monoclinic'
loop_
_space_group_symop_operation_xyz
x,y,z
-x,y,-z
-x,-y,-z
x,-y,z
1/2+x,1/2+y,z
1/2-x,1/2+y,-z
1/2-x,1/2-y,-z
1/2+x,1/2-y,z
loop_
_atom_site_type_symbol
_atom_site_label
_atom_site_fract_x
_atom_site_fract_y
_atom_site_fract_z
Si Si1 0.674778 0.793459 0.549845
Si Si2 0.388261 0.776540 0.311375
Si Si3 0.586611 0.222295 0.279008
Si Si4 0.946274 0.723465 0.922850
Si Si5 0.206007 0.278735 0.366478
Si Si6 0.203924 0.281083 0.864298
Si Si7 0.491377 0.222216 0.598166
Si Si8 0.173793 0.717306 0.050190
O O1 0.629567 0.711674 0.597433
O O2 0.732677 0.796177 0.628346
O O3 0.690668 0.714556 0.460986
O O4 0.656192 0.000000 0.522373
O O5 0.342547 0.713371 0.222828
O O6 0.452835 0.729505 0.324425
O O7 0.385460 0.000000 0.311960
O O8 0.551492 0.277900 0.179572
O O9 0.651420 0.274766 0.290652
O O10 0.561221 0.283262 0.363273
O O11 0.586509 0.000000 0.281577
O O12 0.946336 0.500000 0.924730
O O13 0.885863 0.784682 0.937383
O O14 0.000000 0.783188 0.000000
O O15 0.211373 0.500000 0.367134
O O16 0.199070 0.500000 0.864172
O O17 0.269331 0.242893 0.870778
O O18 0.188830 0.211744 0.957392
O O19 0.500000 0.283867 0.500000
O O20 0.488260 0.000000 0.592359
O O21 0.166847 0.500000 0.040063
#
# Coordination Sequence:
#
# PCOD9223097 Si02
#       8
#     8   8   8   8   8   8   8   8
#     4   9  17  29  44  65  93 122 149 182 225 271
#     4   9  17  27  43  65  92 122 153 188 230 277
#     4   9  17  27  42  65  91 119 151 188 231 274
#     4   9  18  29  44  66  94 123 150 187 234 279
#     4   9  17  29  45  66  93 120 149 185 224 271
#     4   9  18  31  48  70  94 123 155 191 231 274
#     4   9  16  26  42  64  91 122 154 191 234 275
#     4   9  18  32  49  69  95 123 154 191 232 275
#
# _framework density 24.373241
#
# number of rings (size 3 to 8) (size 9 to 14) (size 15 to 20)
#    0.000    3.000    0.000    0.750    3.500    3.000 
#    0.000    0.000    0.000    0.375    0.000    1.750 
#    0.000    6.500    0.000    0.000    0.000    0.000 
#
# Total GULP energy -178698.389013 kJ/mol
# GULP energy per Si atom -5584.324657 kJ/mol
# Density = 2.431777 g / cm^3
# Si number density = 24.373241 Si / 1000 Ang^3
#
#
#
# Elastic Constant Matrix: (Units=GPa)
#
#
# Indices 1 2 3 4 5 6 
#
# 1 137.2488 -3.7558 38.9339 0.0000 13.3571 0.0000
# 2 -3.7558 100.3162 -3.5630 0.0000 -1.6047 0.0000
# 3 38.9339 -3.5630 98.5365 0.0000 22.3875 0.0000
# 4 0.0000 0.0000 0.0000 -3.9881 0.0000 8.8993
# 5 13.3571 -1.6047 22.3875 0.0000 38.8957 0.0000
# 6 0.0000 0.0000 0.0000 8.8993 0.0000 4.0612
#
#
#
# Elastic Compliance Matrix: (Units=1/GPa)
#
#
# Indices 1 2 3 4 5 6 
#
# 1 0.008250 0.000185 -0.003004 0.000000 -0.001096 0.000000
# 2 0.000185 0.009987 0.000240 0.000000 0.000210 0.000000
# 3 -0.003004 0.000240 0.012779 0.000000 -0.006314 0.000000
# 4 0.000000 0.000000 0.000000 -0.042573 0.000000 0.093290
# 5 -0.001096 0.000210 -0.006314 0.000000 0.029729 0.000000
# 6 0.000000 0.000000 0.000000 0.093290 0.000000 0.041807
#
#
# Mechanical properties :
#
#
# Convention : Reuss Voigt Hill
#
# Bulk Modulus (GPa) = 38.67269 44.37019 41.52144
# Shear Modulus (GPa) = 67.79088 28.09283 47.94186
#
# Velocity S-wave (km/s) = 5.27959 3.39869 4.43988
# Velocity P-wave (km/s) = 7.28469 5.80047 6.58453
#
# Compressibility (1/GPa) = 0.02585804
#
# Stress axis : x y z
#
# Youngs Moduli (GPa) = 121.21303 100.12718 78.25593
#
# Poissons Ratio (x) = -0.01849 0.23508
# Poissons Ratio (y) = -0.02238 -0.01881
# Poissons Ratio (z) = 0.36412 -0.02407
#
# Static dielectric constant tensor:
#      x y z
#    x 1.892880 0.000000 0.017220 
#    y 0.000000 1.980610 0.000000 
#    z 0.017220 0.000000 1.945730 
# 
# From -- ./inp_files/239623.got.cif
#   From: 2010.05.17/outbox.cif.g08.bks.cpg/sg12_120_cif.got.tgz:239623.got - 2010.06.03 13:09:07.
