data_PCOD9223692
_publ_section_title
;
Structure prediction by ZEFSAII (Michael W. Deem and Ramdas Pophale) SiO2 
 PCOD9223692
Probable space group: C 2/M
;
_chemical_formula_sum "Si O2"
_cell_formula_units_Z 32
_cell_length_a 24.000000
_cell_length_b 21.000000
_cell_length_c 18.000000
_cell_angle_alpha 90.000000
_cell_angle_beta 20.000000
_cell_angle_gamma 90.000000
_cell_volume 3102.806740
_symmetry_space_group_name_H-M "C 2/M"
_symmetry_group_IT_number 12
_symmetry_cell_setting 'monoclinic'
loop_
_space_group_symop_operation_xyz
x,y,z
-x,y,-z
-x,-y,-z
x,-y,z
1/2+x,1/2+y,z
1/2-x,1/2+y,-z
1/2-x,1/2-y,-z
1/2+x,1/2-y,z
loop_
_atom_site_type_symbol
_atom_site_label
_atom_site_fract_x
_atom_site_fract_y
_atom_site_fract_z
Si Si1 0.819946 0.181559 0.546341
Si Si2 0.891719 0.174408 0.030171
Si Si3 0.315413 0.685203 0.877600
Si Si4 0.336109 0.928663 0.746456
Si Si5 0.442446 0.923872 0.158040
Si Si6 0.698842 0.182594 0.868679
Si Si7 0.249127 0.830597 0.625790
Si Si8 0.948903 0.574357 0.772089
O O1 0.713163 0.124594 0.643229
O O2 0.768710 0.179931 0.697797
O O3 0.793491 0.255762 0.554374
O O4 0.011883 0.169106 0.302728
O O5 0.794869 0.127102 0.097918
O O6 0.897416 0.250056 0.006310
O O7 0.797760 0.167479 0.227403
O O8 0.078419 0.153653 0.801063
O O9 0.329677 0.693136 0.770272
O O10 0.250000 0.750000 0.000000
O O11 0.191730 0.625886 0.032505
O O12 0.500000 0.908288 0.500000
O O13 0.399683 0.935513 0.749098
O O14 0.283436 0.000000 0.785643
O O15 0.420299 0.000000 0.205974
O O16 0.500000 0.925662 0.000000
O O17 0.584414 0.880898 0.019551
O O18 0.384914 0.883055 0.433868
O O19 0.956191 0.500000 0.793602
#
# Coordination Sequence:
#
# PCOD9223692 Si02
#       8
#     8   8   8   8   8   8   8   8
#     4  10  20  39  63  92 118 152 203 255 308 364
#     4  10  19  32  61  91 117 148 197 247 291 352
#     4  12  24  39  60  88 122 164 205 248 305 365
#     4  10  20  36  57  84 116 156 201 243 291 349
#     4   9  18  37  64  91 120 152 192 254 322 368
#     4  10  21  37  62  93 120 151 200 256 304 364
#     4  10  19  35  57  89 121 150 190 247 299 353
#     4  11  24  41  57  81 124 166 199 245 303 359
#
# _framework density 10.313243
#
# number of rings (size 3 to 8) (size 9 to 14) (size 15 to 20)
#    0.000    1.750    3.750    1.125    0.000    1.500 
#    0.000    5.000    0.000    3.750    0.000    0.000 
#    0.000    0.000    0.000    0.000    0.000    0.000 
#
# Total GULP energy -178264.761078 kJ/mol
# GULP energy per Si atom -5570.773784 kJ/mol
# Density = 1.028977 g / cm^3
# Si number density = 10.313243 Si / 1000 Ang^3
#
#
#
# Elastic Constant Matrix: (Units=GPa)
#
#
# Indices 1 2 3 4 5 6 
#
# 1 70.0694 24.6550 17.9027 -0.0022 -12.3085 0.0011
# 2 24.6550 191.3047 67.7515 0.0058 -25.3236 -0.0026
# 3 17.9027 67.7515 102.1825 0.0004 -26.7226 -0.0001
# 4 -0.0022 0.0058 0.0004 36.2296 0.0026 -8.2219
# 5 -12.3085 -25.3236 -26.7226 0.0026 22.7429 -0.0013
# 6 0.0011 -0.0026 -0.0001 -8.2219 -0.0013 21.8031
#
#
#
# Elastic Compliance Matrix: (Units=1/GPa)
#
#
# Indices 1 2 3 4 5 6 
#
# 1 0.015959 -0.001018 -0.000229 0.000001 0.007234 0.000000
# 2 -0.001018 0.007072 -0.003747 -0.000001 0.002921 0.000001
# 3 -0.000229 -0.003747 0.016150 -0.000001 0.014680 0.000000
# 4 0.000001 -0.000001 -0.000001 0.030185 -0.000004 0.011383
# 5 0.007234 0.002921 0.014680 -0.000004 0.068386 0.000003
# 6 0.000000 0.000001 0.000000 0.011383 0.000003 0.050157
#
#
# Mechanical properties :
#
#
# Convention : Reuss Voigt Hill
#
# Bulk Modulus (GPa) = 34.25464 64.90831 49.58147
# Shear Modulus (GPa) = 24.08141 33.03827 28.55984
#
# Velocity S-wave (km/s) = 3.42058 4.00652 3.72508
# Velocity P-wave (km/s) = 5.67835 7.27596 6.52623
#
# Compressibility (1/GPa) = 0.02919313
#
# Stress axis : x y z
#
# Youngs Moduli (GPa) = 62.66015 141.40075 61.91969
#
# Poissons Ratio (x) = 0.14394 0.01419
# Poissons Ratio (y) = 0.06379 0.23200
# Poissons Ratio (z) = 0.01436 0.52980
#
# Static dielectric constant tensor:
#      x y z
#    x 1.765190 0.000000 0.020510 
#    y 0.000000 1.740270 0.000000 
#    z 0.020510 0.000000 1.737170 
# 
# From -- ./inp_files/290883.got.cif
#   From: 2010.05.17/outbox.ucp.g08.bks.cvg/sg12_146_cif.got.tgz:290883.got - 2010.06.11 11:47:21.
