data_PCOD9223953
_publ_section_title
;
Structure prediction by ZEFSAII (Michael W. Deem and Ramdas Pophale) SiO2 
 PCOD9223953
Probable space group: C 2/M
;
_chemical_formula_sum "Si O2"
_cell_formula_units_Z 32
_cell_length_a 18.000000
_cell_length_b 9.000000
_cell_length_c 30.000000
_cell_angle_alpha 90.000000
_cell_angle_beta 40.000000
_cell_angle_gamma 90.000000
_cell_volume 3123.947783
_symmetry_space_group_name_H-M "C 2/M"
_symmetry_group_IT_number 12
_symmetry_cell_setting 'monoclinic'
loop_
_space_group_symop_operation_xyz
x,y,z
-x,y,-z
-x,-y,-z
x,-y,z
1/2+x,1/2+y,z
1/2-x,1/2+y,-z
1/2-x,1/2-y,-z
1/2+x,1/2-y,z
loop_
_atom_site_type_symbol
_atom_site_label
_atom_site_fract_x
_atom_site_fract_y
_atom_site_fract_z
Si Si1 0.430410 0.668550 0.661621
Si Si2 0.569711 0.320358 0.512955
Si Si3 0.551751 0.678920 0.022872
Si Si4 0.294056 0.672438 0.902575
Si Si5 0.949464 0.818584 0.749387
Si Si6 0.281676 0.326369 0.379223
Si Si7 0.477675 0.327982 0.149303
Si Si8 0.206143 0.665226 0.709539
O O1 0.477437 0.500000 0.647807
O O2 0.509166 0.733231 0.586215
O O3 0.418830 0.740294 0.714870
O O4 0.302194 0.653892 0.702853
O O5 0.500000 0.274595 0.500000
O O6 0.566671 0.500000 0.514464
O O7 0.700344 0.262550 0.449905
O O8 0.553080 0.500000 0.023630
O O9 0.473585 0.725942 0.100593
O O10 0.500000 0.729526 0.000000
O O11 0.681132 0.737509 0.966174
O O12 0.261920 0.500000 0.909465
O O13 0.363618 0.732795 0.827412
O O14 0.388754 0.674434 0.897957
O O15 0.084995 0.781394 0.688480
O O16 0.943741 0.000000 0.755481
O O17 0.275090 0.500000 0.391516
O O18 0.238851 0.280265 0.350227
O O19 0.438014 0.500000 0.171878
O O20 0.407597 0.227724 0.215457
O O21 0.192036 0.500000 0.695950
#
# Coordination Sequence:
#
# PCOD9223953 Si02
#       8
#     8   8   8   8   8   8   8   8
#     4   9  19  35  55  79 111 148 185 232 283 328
#     4  10  19  35  56  80 111 147 189 234 279 328
#     4  10  23  40  57  83 121 153 179 223 285 334
#     4  10  20  37  61  83 109 148 194 232 268 327
#     4   9  19  36  56  81 113 148 182 228 286 330
#     4  11  21  36  58  83 115 148 184 230 283 337
#     4  10  21  39  59  82 114 151 185 227 281 328
#     4  11  21  35  59  87 110 143 193 235 275 328
#
# _framework density 10.243449
#
# number of rings (size 3 to 8) (size 9 to 14) (size 15 to 20)
#    0.000    2.000    2.500    1.125    1.750    2.000 
#    0.000    0.000    0.000    4.500    0.000    0.000 
#    0.000    0.000    0.000    0.000    0.000    0.000 
#
# Total GULP energy -178186.916881 kJ/mol
# GULP energy per Si atom -5568.341153 kJ/mol
# Density = 1.022013 g / cm^3
# Si number density = 10.243449 Si / 1000 Ang^3
#
#
#
# Elastic Constant Matrix: (Units=GPa)
#
#
# Indices 1 2 3 4 5 6 
#
# 1 20.6482 -5.0377 -6.7474 0.0000 8.4476 0.0002
# 2 -5.0377 -13.7566 -12.1510 -0.0002 -12.6080 0.0008
# 3 -6.7474 -12.1510 40.3934 0.0000 -20.3736 0.0000
# 4 0.0000 -0.0002 0.0000 20.7139 0.0000 -6.5464
# 5 8.4476 -12.6080 -20.3736 0.0000 14.3003 0.0000
# 6 0.0002 0.0008 0.0000 -6.5464 0.0000 8.2297
#
#
#
# Elastic Compliance Matrix: (Units=1/GPa)
#
#
# Indices 1 2 3 4 5 6 
#
# 1 0.063395 0.009946 -0.003141 -0.000001 -0.033155 -0.000003
# 2 0.009946 -0.007995 -0.025808 0.000000 -0.049693 0.000000
# 3 -0.003141 -0.025808 0.021065 0.000001 0.009113 0.000003
# 4 -0.000001 0.000000 0.000001 0.064489 0.000002 0.051298
# 5 -0.033155 -0.049693 0.009113 0.000002 0.058685 0.000008
# 6 -0.000003 0.000000 0.000003 0.051298 0.000008 0.162316
#
#
# Mechanical properties :
#
#
# Convention : Reuss Voigt Hill
#
# Bulk Modulus (GPa) = 26.00154 -0.06523 12.96816
# Shear Modulus (GPa) = 12.11300 13.39685 12.75493
#
# Velocity S-wave (km/s) = 2.43421 2.55997 2.49788
# Velocity P-wave (km/s) = 4.54091 2.95059 3.82922
#
# Compressibility (1/GPa) = 0.03845926
#
# Stress axis : x y z
#
# Youngs Moduli (GPa) = 15.77408 -125.07572 47.47262
#
# Poissons Ratio (x) = 1.24405 0.14912
# Poissons Ratio (y) = -0.15689 1.22517
# Poissons Ratio (z) = 0.04955 -3.22793
#
# Static dielectric constant tensor:
#      x y z
#    x 1.838490 0.000000 0.012020 
#    y 0.000000 1.772360 0.000000 
#    z 0.012020 0.000000 1.732420 
# 
# From -- ./inp_files/378095.got.cif
#   From: 2010.05.17/outbox.ucp.g08.bks.cvg/sg12_190_cif.got.tgz:378095.got - 2010.06.11 11:47:21.
