data_PCOD9223894
_publ_section_title
;
Structure prediction by ZEFSAII (Michael W. Deem and Ramdas Pophale) SiO2 
 PCOD9223894
Probable space group: C 2/M
;
_chemical_formula_sum "Si O2"
_cell_formula_units_Z 28
_cell_length_a 21.000000
_cell_length_b 9.000000
_cell_length_c 21.000000
_cell_angle_alpha 90.000000
_cell_angle_beta 50.000000
_cell_angle_gamma 90.000000
_cell_volume 3040.430395
_symmetry_space_group_name_H-M "C 2/M"
_symmetry_group_IT_number 12
_symmetry_cell_setting 'monoclinic'
loop_
_space_group_symop_operation_xyz
x,y,z
-x,y,-z
-x,-y,-z
x,-y,z
1/2+x,1/2+y,z
1/2-x,1/2+y,-z
1/2-x,1/2-y,-z
1/2+x,1/2-y,z
loop_
_atom_site_type_symbol
_atom_site_label
_atom_site_fract_x
_atom_site_fract_y
_atom_site_fract_z
Si Si1 0.815363 0.319655 0.267168
Si Si2 0.940850 0.164776 0.977147
Si Si3 0.990229 0.180064 0.602280
Si Si4 0.272148 0.325611 0.159470
Si Si5 0.861800 0.819430 0.574663
Si Si6 0.000017 0.327070 0.823289
Si Si7 0.605085 0.322225 0.214517
O O1 0.816075 0.500000 0.261476
O O2 0.801480 0.252313 0.205920
O O3 0.733371 0.272322 0.359223
O O4 0.903607 0.275345 0.240908
O O5 0.971971 0.296037 0.913068
O O6 0.948646 0.000000 0.941042
O O7 0.847408 0.184390 0.061147
O O8 0.000000 0.161325 0.000000
O O9 0.916174 0.224782 0.601665
O O10 0.963758 0.223259 0.688995
O O11 0.079922 0.232131 0.520604
O O12 0.991693 0.000000 0.598385
O O13 0.256284 0.500000 0.182188
O O14 0.191145 0.248866 0.182090
O O15 0.860282 0.000000 0.574961
O O16 0.996837 0.500000 0.808422
O O17 0.933015 0.237684 0.825662
O O18 0.613878 0.500000 0.208486
#
# Coordination Sequence:
#
# PCOD9223894 Si02
#       7
#     8   8   8   8   8   8   8
#     4  10  19  34  57  84 112 145 186 227 271 328
#     4  10  21  39  60  83 110 144 184 227 276 329
#     4   8  14  26  51  82 108 140 182 228 267 318
#     4  11  22  36  59  85 112 142 181 231 278 327
#     4   8  13  26  51  83 110 135 182 231 267 315
#     4  11  24  38  56  83 115 149 184 228 281 329
#     4  11  22  38  58  81 113 151 189 226 275 332
#
# _framework density 9.2092220000000005
#
# number of rings (size 3 to 8) (size 9 to 14) (size 15 to 20)
#    0.000    2.143    2.857    2.143    0.000    2.571 
#    0.000    0.714    0.000    2.571    0.000    0.000 
#    0.000    0.000    0.000    0.000    0.000    0.000 
#
# Total GULP energy -156012.291118 kJ/mol
# GULP energy per Si atom -5571.867540 kJ/mol
# Density = 0.918826 g / cm^3
# Si number density = 9.209222 Si / 1000 Ang^3
#
#
#
# Elastic Constant Matrix: (Units=GPa)
#
#
# Indices 1 2 3 4 5 6 
#
# 1 56.6417 19.1178 1.7375 0.0001 -9.5168 0.0003
# 2 19.1178 30.2173 9.1350 0.0001 -8.0822 0.0002
# 3 1.7375 9.1350 40.4491 0.0002 -13.2094 0.0004
# 4 0.0001 0.0001 0.0002 34.9212 -0.0001 48.6122
# 5 -9.5168 -8.0822 -13.2094 -0.0001 22.1653 -0.0001
# 6 0.0003 0.0002 0.0004 48.6122 -0.0001 131.5538
#
#
#
# Elastic Compliance Matrix: (Units=1/GPa)
#
#
# Indices 1 2 3 4 5 6 
#
# 1 0.023647 -0.014322 0.004754 0.000000 0.007764 0.000000
# 2 -0.014322 0.046130 -0.007844 0.000000 0.005997 0.000000
# 3 0.004754 -0.007844 0.032310 0.000000 0.018436 0.000000
# 4 0.000000 0.000000 0.000000 0.058970 0.000000 -0.021791
# 5 0.007764 0.005997 0.018436 0.000000 0.061623 0.000000
# 6 0.000000 0.000000 0.000000 -0.021791 0.000000 0.015654
#
#
# Mechanical properties :
#
#
# Convention : Reuss Voigt Hill
#
# Bulk Modulus (GPa) = 14.86683 20.80987 17.83835
# Shear Modulus (GPa) = 16.91594 44.21592 30.56593
#
# Velocity S-wave (km/s) = 3.03384 4.90494 4.07815
# Velocity P-wave (km/s) = 4.51237 6.58793 5.64634
#
# Compressibility (1/GPa) = 0.06726384
#
# Stress axis : x y z
#
# Youngs Moduli (GPa) = 42.28796 21.67788 30.94973
#
# Poissons Ratio (x) = 0.31046 -0.14714
# Poissons Ratio (y) = 0.60564 0.24278
# Poissons Ratio (z) = -0.20104 0.17005
#
# Static dielectric constant tensor:
#      x y z
#    x 1.624630 0.000000 0.007080 
#    y 0.000000 1.635230 0.000000 
#    z 0.007080 0.000000 1.678880 
# 
# From -- ./inp_files/275214.got.cif
#   From: 2010.05.17/outbox.ucp.g08.bks.cvg/sg12_138_cif.got.tgz:275214.got - 2010.06.11 11:47:21.
