data_PCOD9223819
_publ_section_title
;
Structure prediction by ZEFSAII (Michael W. Deem and Ramdas Pophale) SiO2 
 PCOD9223819
Probable space group: C 2/M
;
_chemical_formula_sum "Si O2"
_cell_formula_units_Z 28
_cell_length_a 15.000000
_cell_length_b 9.000000
_cell_length_c 21.000000
_cell_angle_alpha 90.000000
_cell_angle_beta 90.000000
_cell_angle_gamma 90.000000
_cell_volume 2835.000000
_symmetry_space_group_name_H-M "C 2/M"
_symmetry_group_IT_number 12
_symmetry_cell_setting 'monoclinic'
loop_
_space_group_symop_operation_xyz
x,y,z
-x,y,-z
-x,-y,-z
x,-y,z
1/2+x,1/2+y,z
1/2-x,1/2+y,-z
1/2-x,1/2-y,-z
1/2+x,1/2-y,z
loop_
_atom_site_type_symbol
_atom_site_label
_atom_site_fract_x
_atom_site_fract_y
_atom_site_fract_z
Si Si1 0.833566 0.824851 0.576200
Si Si2 0.498870 0.822972 0.784431
Si Si3 0.370045 0.174452 0.443083
Si Si4 0.499531 0.324764 0.345994
Si Si5 0.604597 0.323317 0.010114
Si Si6 0.646484 0.177149 0.881817
Si Si7 0.339764 0.677321 0.847790
O O1 0.728643 0.802146 0.586442
O O2 0.862616 0.727429 0.515854
O O3 0.897832 0.792730 0.635162
O O4 0.845529 0.000000 0.559871
O O5 0.529038 0.761094 0.716926
O O6 0.561871 0.768008 0.842013
O O7 0.400920 0.763054 0.798910
O O8 0.501727 0.000000 0.784140
O O9 0.440907 0.270377 0.405023
O O10 0.391934 0.000000 0.439843
O O11 0.490088 0.500000 0.336256
O O12 0.618710 0.500000 0.006303
O O13 0.653358 0.247057 0.951354
O O14 0.500000 0.292228 0.000000
O O15 0.633441 0.275845 0.080377
O O16 0.735356 0.206237 0.841868
O O17 0.639225 0.000000 0.890241
O O18 0.355587 0.500000 0.842182
#
# Coordination Sequence:
#
# PCOD9223819 Si02
#       7
#     8   8   8   8   8   8   8
#     4   9  20  38  59  85 117 151 185 223 275 334
#     4  11  24  40  56  80 111 146 190 236 276 324
#     4  10  20  36  60  89 118 146 182 231 277 322
#     4  11  23  39  59  81 112 154 191 226 276 333
#     4  10  19  33  58  87 113 141 179 230 279 330
#     4  10  22  38  58  82 111 147 184 227 281 337
#     4  10  21  39  59  81 111 147 184 225 281 339
#
# _framework density 9.8765429999999999
#
# number of rings (size 3 to 8) (size 9 to 14) (size 15 to 20)
#    0.000    1.857    1.429    2.143    0.000    6.571 
#    0.000    5.714    0.000    0.000    0.000    0.000 
#    0.000    0.000    0.000    0.000    0.000    0.000 
#
# Total GULP energy -156362.094856 kJ/mol
# GULP energy per Si atom -5584.360531 kJ/mol
# Density = 0.985406 g / cm^3
# Si number density = 9.876543 Si / 1000 Ang^3
#
#
#
# Elastic Constant Matrix: (Units=GPa)
#
#
# Indices 1 2 3 4 5 6 
#
# 1 36.1068 27.2290 16.8812 0.0000 -0.8637 0.0000
# 2 27.2290 16.7367 8.1733 0.0000 0.3932 0.0000
# 3 16.8812 8.1733 18.6346 0.0000 12.0949 0.0000
# 4 0.0000 0.0000 0.0000 32.5076 0.0000 -6.2917
# 5 -0.8637 0.3932 12.0949 0.0000 4.3022 0.0000
# 6 0.0000 0.0000 0.0000 -6.2917 0.0000 22.1926
#
#
#
# Elastic Compliance Matrix: (Units=1/GPa)
#
#
# Indices 1 2 3 4 5 6 
#
# 1 -0.183648 0.333105 -0.077545 0.000000 0.150696 0.000000
# 2 0.333105 -0.554074 0.163705 0.000000 -0.342721 0.000000
# 3 -0.077545 0.163705 -0.087211 0.000000 0.214652 0.000000
# 4 0.000000 0.000000 0.000000 0.032548 0.000000 0.009228
# 5 0.150696 -0.342721 0.214652 0.000000 -0.309444 0.000000
# 6 0.000000 0.000000 0.000000 0.009228 0.000000 0.047676
#
#
# Mechanical properties :
#
#
# Convention : Reuss Voigt Hill
#
# Bulk Modulus (GPa) = 73.54414 19.56055 46.55235
# Shear Modulus (GPa) = -2.64809 13.08012 5.21601
#
# Velocity S-wave (km/s) = -1.15910 2.57608 1.62676
# Velocity P-wave (km/s) = 5.95997 4.33270 5.21025
#
# Compressibility (1/GPa) = 0.01359728
#
# Stress axis : x y z
#
# Youngs Moduli (GPa) = -5.44521 -1.80481 -11.46643
#
# Poissons Ratio (x) = 0.60119 -0.88917
# Poissons Ratio (y) = 1.81383 1.87711
# Poissons Ratio (z) = -0.42225 0.29546
#
# Static dielectric constant tensor:
#      x y z
#    x 1.723560 0.000000 0.010920 
#    y 0.000000 1.653910 0.000000 
#    z 0.010920 0.000000 1.686640 
# 
# From -- ./inp_files/308910.got.cif
#   From: 2010.05.17/outbox.ucp.g08.bks.cvg/sg12_155_cif.got.tgz:308910.got - 2010.06.11 11:47:21.
