data_PCOD9223175
_publ_section_title
;
Structure prediction by ZEFSAII (Michael W. Deem and Ramdas Pophale) SiO2 
 PCOD9223175
Probable space group: C 2/M
;
_chemical_formula_sum "Si O2"
_cell_formula_units_Z 32
_cell_length_a 30.000000
_cell_length_b 9.000000
_cell_length_c 15.000000
_cell_angle_alpha 90.000000
_cell_angle_beta 50.000000
_cell_angle_gamma 90.000000
_cell_volume 3102.479995
_symmetry_space_group_name_H-M "C 2/M"
_symmetry_group_IT_number 12
_symmetry_cell_setting 'monoclinic'
loop_
_space_group_symop_operation_xyz
x,y,z
-x,y,-z
-x,-y,-z
x,-y,z
1/2+x,1/2+y,z
1/2-x,1/2+y,-z
1/2-x,1/2-y,-z
1/2+x,1/2-y,z
loop_
_atom_site_type_symbol
_atom_site_label
_atom_site_fract_x
_atom_site_fract_y
_atom_site_fract_z
Si Si1 0.251107 0.821262 0.400096
Si Si2 0.636196 0.677507 0.221862
Si Si3 0.953517 0.680020 0.285638
Si Si4 0.013717 0.679340 0.380142
Si Si5 0.382884 0.179718 0.217201
Si Si6 0.430808 0.179296 0.972470
Si Si7 0.180683 0.822005 0.976475
Si Si8 0.295397 0.177958 0.712628
O O1 0.250000 0.750000 0.500000
O O2 0.316455 0.785661 0.281515
O O3 0.209425 0.750145 0.378996
O O4 0.244007 0.000000 0.414252
O O5 0.636026 0.500000 0.233323
O O6 0.572806 0.738274 0.277654
O O7 0.679089 0.715400 0.083957
O O8 0.653950 0.757077 0.290590
O O9 0.949556 0.500000 0.293423
O O10 0.900923 0.735633 0.291866
O O11 0.963853 0.725668 0.373991
O O12 0.010995 0.720662 0.154799
O O13 0.021944 0.500000 0.362341
O O14 0.000000 0.713882 0.500000
O O15 0.424967 0.228355 0.083066
O O16 0.386874 0.000000 0.214924
O O17 0.428965 0.000000 0.974078
O O18 0.374494 0.241788 0.995639
O O19 0.173006 0.000000 0.980475
O O20 0.237786 0.784990 0.845807
O O21 0.300265 0.000000 0.698091
#
# Coordination Sequence:
#
# PCOD9223175 Si02
#       8
#     8   8   8   8   8   8   8   8
#     4  11  23  40  61  86 118 156 200 246 293 346
#     4  11  23  39  60  87 120 155 193 242 300 361
#     4   9  17  31  54  84 114 143 183 235 287 339
#     4  10  21  37  58  84 114 153 200 243 286 343
#     4   9  18  32  54  85 114 145 187 237 287 338
#     4  10  17  30  57  85 110 144 187 235 288 348
#     4  10  21  36  57  86 120 153 187 236 300 360
#     4  11  23  40  62  87 117 154 197 245 296 354
#
# _framework density 10.314329000000001
#
# number of rings (size 3 to 8) (size 9 to 14) (size 15 to 20)
#    0.000    1.875    2.500    1.875    0.000    3.750 
#    0.000    2.500    0.000    5.250    0.000    0.000 
#    0.000    0.000    0.000    0.000    0.000    0.000 
#
# Total GULP energy -178619.911934 kJ/mol
# GULP energy per Si atom -5581.872248 kJ/mol
# Density = 1.029085 g / cm^3
# Si number density = 10.314329 Si / 1000 Ang^3
#
#
#
# Elastic Constant Matrix: (Units=GPa)
#
#
# Indices 1 2 3 4 5 6 
#
# 1 110.3532 11.5010 8.0780 0.0000 37.0815 -0.0001
# 2 11.5010 16.4849 14.2129 0.0000 9.4633 -0.0003
# 3 8.0780 14.2129 54.3205 0.0000 34.3367 0.0000
# 4 0.0000 0.0000 0.0000 22.5836 0.0000 4.3178
# 5 37.0815 9.4633 34.3367 0.0000 40.4228 0.0000
# 6 -0.0001 -0.0003 0.0000 4.3178 0.0000 21.9329
#
#
#
# Elastic Compliance Matrix: (Units=1/GPa)
#
#
# Indices 1 2 3 4 5 6 
#
# 1 0.020503 -0.013775 0.022472 0.000000 -0.034672 0.000000
# 2 -0.013775 0.087663 -0.034344 0.000000 0.021287 0.000001
# 3 0.022472 -0.034344 0.069110 0.000000 -0.071279 0.000000
# 4 0.000000 0.000000 0.000000 0.046012 0.000000 -0.009058
# 5 -0.034672 0.021287 -0.071279 0.000000 0.112108 0.000000
# 6 0.000000 0.000001 0.000000 -0.009058 0.000000 0.047377
#
#
# Mechanical properties :
#
#
# Convention : Reuss Voigt Hill
#
# Bulk Modulus (GPa) = 7.93775 27.63804 17.78789
# Shear Modulus (GPa) = 10.50286 26.81231 18.65758
#
# Velocity S-wave (km/s) = 2.25886 3.60913 3.01067
# Velocity P-wave (km/s) = 3.26489 5.54930 4.55271
#
# Compressibility (1/GPa) = 0.12598032
#
# Stress axis : x y z
#
# Youngs Moduli (GPa) = 48.77289 11.40738 14.46971
#
# Poissons Ratio (x) = 0.15714 -0.32516
# Poissons Ratio (y) = 0.67186 0.49695
# Poissons Ratio (z) = -1.09602 0.39178
#
# Static dielectric constant tensor:
#      x y z
#    x 1.757110 0.000000 0.004800 
#    y 0.000000 1.675150 0.000000 
#    z 0.004800 0.000000 1.762070 
# 
# From -- ./inp_files/249740.got.cif
#   From: 2010.05.17/outbox.ucp.g08.bks.cvg/sg12_125_cif.got.tgz:249740.got - 2010.06.11 11:47:21.
