data_PCOD9223315
_publ_section_title
;
Structure prediction by ZEFSAII (Michael W. Deem and Ramdas Pophale) SiO2 
 PCOD9223315
Probable space group: C 2/M
;
_chemical_formula_sum "Si O2"
_cell_formula_units_Z 32
_cell_length_a 24.000000
_cell_length_b 9.000000
_cell_length_c 21.000000
_cell_angle_alpha 90.000000
_cell_angle_beta 130.000000
_cell_angle_gamma 90.000000
_cell_volume 3474.777594
_symmetry_space_group_name_H-M "C 2/M"
_symmetry_group_IT_number 12
_symmetry_cell_setting 'monoclinic'
loop_
_space_group_symop_operation_xyz
x,y,z
-x,y,-z
-x,-y,-z
x,-y,z
1/2+x,1/2+y,z
1/2-x,1/2+y,-z
1/2-x,1/2-y,-z
1/2+x,1/2-y,z
loop_
_atom_site_type_symbol
_atom_site_label
_atom_site_fract_x
_atom_site_fract_y
_atom_site_fract_z
Si Si1 0.774096 0.319385 0.332134
Si Si2 0.962771 0.680662 0.670224
Si Si3 0.360889 0.328080 0.020792
Si Si4 0.477266 0.327308 0.911930
Si Si5 0.371912 0.179351 0.729821
Si Si6 0.122867 0.321554 0.833933
Si Si7 0.249067 0.179451 0.167643
Si Si8 0.935604 0.680795 0.502302
O O1 0.769332 0.500000 0.331562
O O2 0.708796 0.246903 0.324148
O O3 0.758542 0.270915 0.247366
O O4 0.855295 0.278619 0.416279
O O5 0.962906 0.500000 0.668155
O O6 0.908172 0.721845 0.688071
O O7 0.946785 0.728759 0.584991
O O8 0.042715 0.728922 0.753236
O O9 0.338064 0.500000 0.013069
O O10 0.446506 0.325290 0.069284
O O11 0.350630 0.242432 0.079203
O O12 0.318042 0.270695 0.926603
O O13 0.452169 0.500000 0.901026
O O14 0.419354 0.241678 0.824940
O O15 0.500000 0.273678 0.000000
O O16 0.370913 0.000000 0.732826
O O17 0.120632 0.500000 0.838150
O O18 0.179496 0.283064 0.820276
O O19 0.243110 0.000000 0.167246
O O20 0.938181 0.500000 0.504918
O O21 0.000000 0.727938 0.500000
#
# Coordination Sequence:
#
# PCOD9223315 Si02
#       8
#     8   8   8   8   8   8   8   8
#     4  10  20  36  58  82 107 138 184 231 271 319
#     4   9  18  32  51  78 111 142 176 225 274 318
#     4  10  19  31  48  74 106 136 174 221 268 316
#     4  10  20  35  55  76 105 146 190 234 271 312
#     4  11  22  36  53  77 113 150 181 220 275 335
#     4  10  18  32  53  75 105 142 176 213 266 325
#     4   9  18  32  52  77 104 137 176 222 271 315
#     4   9  17  32  58  88 110 135 180 231 274 323
#
# _framework density 9.2092220000000005
#
# number of rings (size 3 to 8) (size 9 to 14) (size 15 to 20)
#    0.000    2.250    1.250    2.250    0.000    5.750 
#    0.000    2.500    0.000    1.875    0.000    0.000 
#    0.000    0.000    0.000    0.000    0.000    0.000 
#
# Total GULP energy -178419.439783 kJ/mol
# GULP energy per Si atom -5575.607493 kJ/mol
# Density = 0.918826 g / cm^3
# Si number density = 9.209222 Si / 1000 Ang^3
#
#
#
# Elastic Constant Matrix: (Units=GPa)
#
#
# Indices 1 2 3 4 5 6 
#
# 1 116.9003 20.6352 69.5527 0.0000 3.0613 0.0000
# 2 20.6352 21.4112 21.7845 0.0000 1.8308 0.0000
# 3 69.5527 21.7845 160.4757 0.0000 0.0971 0.0000
# 4 0.0000 0.0000 0.0000 22.6709 0.0000 -0.3959
# 5 3.0613 1.8308 0.0971 0.0000 40.8616 0.0000
# 6 0.0000 0.0000 0.0000 -0.3959 0.0000 23.6396
#
#
#
# Elastic Compliance Matrix: (Units=1/GPa)
#
#
# Indices 1 2 3 4 5 6 
#
# 1 0.012520 -0.007536 -0.004403 0.000000 -0.000590 0.000000
# 2 -0.007536 0.058963 -0.004737 0.000000 -0.002066 0.000000
# 3 -0.004403 -0.004737 0.008782 0.000000 0.000521 0.000000
# 4 0.000000 0.000000 0.000000 0.044122 0.000000 0.000739
# 5 -0.000590 -0.002066 0.000521 0.000000 0.024608 0.000000
# 6 0.000000 0.000000 0.000000 0.000739 0.000000 0.042314
#
#
# Mechanical properties :
#
#
# Convention : Reuss Voigt Hill
#
# Bulk Modulus (GPa) = 21.31542 58.08134 39.69838
# Shear Modulus (GPa) = 20.80738 29.88875 25.34807
#
# Velocity S-wave (km/s) = 3.36475 4.03272 3.71379
# Velocity P-wave (km/s) = 5.16657 7.29977 6.32376
#
# Compressibility (1/GPa) = 0.04691440
#
# Stress axis : x y z
#
# Youngs Moduli (GPa) = 79.87522 16.95967 113.86363
#
# Poissons Ratio (x) = 0.12780 0.50132
# Poissons Ratio (y) = 0.60192 0.53936
# Poissons Ratio (z) = 0.35168 0.08034
#
# Static dielectric constant tensor:
#      x y z
#    x 1.658290 0.000000 0.004040 
#    y 0.000000 1.631590 0.000000 
#    z 0.004040 0.000000 1.632990 
# 
# From -- ./inp_files/324316.got.cif
#   From: 2010.05.17/outbox.ucp.g08.bks.cvg/sg12_163_cif.got.tgz:324316.got - 2010.06.11 11:47:21.
