data_PCOD9223164
_publ_section_title
;
Structure prediction by ZEFSAII (Michael W. Deem and Ramdas Pophale) SiO2 
 PCOD9223164
Probable space group: C 2/M
;
_chemical_formula_sum "Si O2"
_cell_formula_units_Z 24
_cell_length_a 24.000000
_cell_length_b 9.000000
_cell_length_c 21.000000
_cell_angle_alpha 90.000000
_cell_angle_beta 140.000000
_cell_angle_gamma 90.000000
_cell_volume 2915.684598
_symmetry_space_group_name_H-M "C 2/M"
_symmetry_group_IT_number 12
_symmetry_cell_setting 'monoclinic'
loop_
_space_group_symop_operation_xyz
x,y,z
-x,y,-z
-x,-y,-z
x,-y,z
1/2+x,1/2+y,z
1/2-x,1/2+y,-z
1/2-x,1/2-y,-z
1/2+x,1/2-y,z
loop_
_atom_site_type_symbol
_atom_site_label
_atom_site_fract_x
_atom_site_fract_y
_atom_site_fract_z
Si Si1 0.354976 0.821976 0.657943
Si Si2 0.877343 0.176924 0.217656
Si Si3 0.320855 0.175702 0.481948
Si Si4 0.974771 0.170820 0.550643
Si Si5 0.950245 0.320645 0.152188
Si Si6 0.214303 0.178804 0.035144
O O1 0.349766 0.775938 0.578768
O O2 0.270473 0.750315 0.614720
O O3 0.448716 0.783094 0.768338
O O4 0.347762 0.000000 0.653777
O O5 0.923494 0.255932 0.197906
O O6 0.784437 0.255501 0.145391
O O7 0.941045 0.196314 0.332414
O O8 0.866258 0.000000 0.195285
O O9 0.397253 0.223514 0.502785
O O10 0.309830 0.000000 0.473594
O O11 0.000000 0.187696 0.500000
O O12 0.946627 0.000000 0.537529
O O13 0.939787 0.500000 0.142789
O O14 0.882568 0.243456 0.044966
O O15 0.215522 0.000000 0.033850
O O16 0.250000 0.250000 0.000000
#
# Coordination Sequence:
#
# PCOD9223164 Si02
#       6
#     8   8   8   8   8   8
#     4   9  18  30  46  68  96 127 154 188 234 282
#     4  10  18  29  45  64  90 123 157 193 233 274
#     4  10  19  31  47  69  94 123 159 196 234 277
#     4  10  21  35  50  68  93 127 164 199 235 277
#     4  10  17  28  45  67  95 123 154 187 229 280
#     4  10  18  27  41  63  92 122 153 187 230 280
#
# _framework density 8.2313430000000007
#
# number of rings (size 3 to 8) (size 9 to 14) (size 15 to 20)
#    0.000    2.167    1.667    5.000    0.000    3.000 
#    0.000    0.000    0.000    0.000    0.000    1.167 
#    0.000    9.333    0.000    0.000    0.000    0.000 
#
# Total GULP energy -133732.039996 kJ/mol
# GULP energy per Si atom -5572.168333 kJ/mol
# Density = 0.821261 g / cm^3
# Si number density = 8.231343 Si / 1000 Ang^3
#
#
#
# Elastic Constant Matrix: (Units=GPa)
#
#
# Indices 1 2 3 4 5 6 
#
# 1 15.0778 23.1809 41.2905 0.0000 18.5959 0.0000
# 2 23.1809 74.0309 46.8868 0.0000 22.2589 0.0000
# 3 41.2905 46.8868 93.2019 0.0000 40.2020 0.0000
# 4 0.0000 0.0000 0.0000 22.4435 0.0000 8.7308
# 5 18.5959 22.2589 40.2020 0.0000 30.0533 0.0000
# 6 0.0000 0.0000 0.0000 8.7308 0.0000 21.4822
#
#
#
# Elastic Compliance Matrix: (Units=1/GPa)
#
#
# Indices 1 2 3 4 5 6 
#
# 1 -0.296965 0.013529 0.117775 0.000000 0.016185 0.000000
# 2 0.013529 0.019337 -0.014026 0.000000 -0.003931 0.000000
# 3 0.117775 -0.014026 -0.017585 0.000000 -0.038964 0.000000
# 4 0.000000 0.000000 0.000000 0.052924 0.000000 -0.021509
# 5 0.016185 -0.003931 -0.038964 0.000000 0.078292 0.000000
# 6 0.000000 0.000000 0.000000 -0.021509 0.000000 0.055292
#
#
# Mechanical properties :
#
#
# Convention : Reuss Voigt Hill
#
# Bulk Modulus (GPa) = -16.48615 45.00301 14.25843
# Shear Modulus (GPa) = -13.75591 19.52594 2.88501
#
# Velocity S-wave (km/s) = -2.89378 3.44768 1.32524
# Velocity P-wave (km/s) = 4.60448 6.57604 3.31987
#
# Compressibility (1/GPa) = -0.06065697
#
# Stress axis : x y z
#
# Youngs Moduli (GPa) = -3.36740 51.71558 -56.86745
#
# Poissons Ratio (x) = -0.69966 6.69755
# Poissons Ratio (y) = 0.04556 -0.79761
# Poissons Ratio (z) = 0.39659 0.72535
#
# Static dielectric constant tensor:
#      x y z
#    x 1.532780 0.000000 0.024380 
#    y 0.000000 1.553630 0.000000 
#    z 0.024380 0.000000 1.603670 
# 
# From -- ./inp_files/323854.got.cif
#   From: 2010.05.17/outbox.ucp.g08.bks.cvg/sg12_162_cif.got.tgz:323854.got - 2010.06.11 11:47:21.
