data_PCOD9223235
_publ_section_title
;
Structure prediction by ZEFSAII (Michael W. Deem and Ramdas Pophale) SiO2 
 PCOD9223235
Probable space group: C 2/M
;
_chemical_formula_sum "Si O2"
_cell_formula_units_Z 24
_cell_length_a 21.000000
_cell_length_b 9.000000
_cell_length_c 15.000000
_cell_angle_alpha 90.000000
_cell_angle_beta 110.000000
_cell_angle_gamma 90.000000
_cell_volume 2664.028580
_symmetry_space_group_name_H-M "C 2/M"
_symmetry_group_IT_number 12
_symmetry_cell_setting 'monoclinic'
loop_
_space_group_symop_operation_xyz
x,y,z
-x,y,-z
-x,-y,-z
x,-y,z
1/2+x,1/2+y,z
1/2-x,1/2+y,-z
1/2-x,1/2-y,-z
1/2+x,1/2-y,z
loop_
_atom_site_type_symbol
_atom_site_label
_atom_site_fract_x
_atom_site_fract_y
_atom_site_fract_z
Si Si1 0.374155 0.320789 0.399626
Si Si2 0.888679 0.819156 0.609974
Si Si3 0.784548 0.177658 0.885718
Si Si4 0.227338 0.178392 0.316845
Si Si5 0.651614 0.678993 0.903532
Si Si6 0.465561 0.318882 0.276829
O O1 0.369870 0.500000 0.393232
O O2 0.394283 0.278411 0.509352
O O3 0.300351 0.253102 0.349598
O O4 0.427546 0.273954 0.349877
O O5 0.820829 0.767335 0.626668
O O6 0.957378 0.768062 0.689925
O O7 0.886682 0.000000 0.612694
O O8 0.805860 0.209993 0.795311
O O9 0.714011 0.255853 0.877027
O O10 0.774008 0.000000 0.886771
O O11 0.836540 0.221011 0.988269
O O12 0.235660 0.000000 0.328921
O O13 0.654708 0.500000 0.898421
O O14 0.581668 0.729207 0.826926
O O15 0.467132 0.500000 0.278213
#
# Coordination Sequence:
#
# PCOD9223235 Si02
#       6
#     8   8   8   8   8   8
#     4  10  18  30  50  70  87 117 160 194 218 255
#     4   9  18  30  45  67  95 122 149 186 229 268
#     4   9  17  28  44  67  93 117 144 181 226 270
#     4  10  19  31  46  67  96 124 147 180 230 276
#     4   9  16  28  47  69  88 112 150 189 220 258
#     4   9  16  28  47  70  91 114 152 194 224 257
#
# _framework density 9.0089120000000005
#
# number of rings (size 3 to 8) (size 9 to 14) (size 15 to 20)
#    0.000    2.667    1.667    1.000    0.000    2.000 
#    0.000    0.833    0.000   10.000    0.000    0.000 
#    0.000    6.667    0.000    0.000    0.000    0.000 
#
# Total GULP energy -133678.844591 kJ/mol
# GULP energy per Si atom -5569.951858 kJ/mol
# Density = 0.898841 g / cm^3
# Si number density = 9.008912 Si / 1000 Ang^3
#
#
#
# Elastic Constant Matrix: (Units=GPa)
#
#
# Indices 1 2 3 4 5 6 
#
# 1 34.9474 -2.2436 -3.5763 0.0000 5.3418 0.0000
# 2 -2.2436 -7.8418 5.9643 0.0000 1.2504 0.0000
# 3 -3.5763 5.9643 50.5066 0.0000 25.4425 0.0000
# 4 0.0000 0.0000 0.0000 11.2209 0.0000 2.5414
# 5 5.3418 1.2504 25.4425 0.0000 -2.6285 0.0000
# 6 0.0000 0.0000 0.0000 2.5414 0.0000 14.5290
#
#
#
# Elastic Compliance Matrix: (Units=1/GPa)
#
#
# Indices 1 2 3 4 5 6 
#
# 1 0.025754 -0.008123 -0.003682 0.000000 0.012834 0.000000
# 2 -0.008123 -0.117243 0.008455 0.000000 0.009558 0.000000
# 3 -0.003682 0.008455 0.003452 0.000000 0.029952 0.000000
# 4 0.000000 0.000000 0.000000 0.092796 0.000000 -0.016232
# 5 0.012834 0.009558 0.029952 0.000000 -0.059895 0.000000
# 6 0.000000 0.000000 0.000000 -0.016232 0.000000 0.071667
#
#
# Mechanical properties :
#
#
# Convention : Reuss Voigt Hill
#
# Bulk Modulus (GPa) = -10.55562 8.65569 -0.94997
# Shear Modulus (GPa) = -598.87676 9.78880 -294.54398
#
# Velocity S-wave (km/s) = -18.25107 2.33337 -12.79955
# Velocity P-wave (km/s) = 21.21336 3.47475 14.79751
#
# Compressibility (1/GPa) = -0.09473627
#
# Stress axis : x y z
#
# Youngs Moduli (GPa) = 38.82822 -8.52926 289.68847
#
# Poissons Ratio (x) = -0.06928 1.06669
# Poissons Ratio (y) = 0.31538 -2.44935
# Poissons Ratio (z) = 0.14297 0.07212
#
# Static dielectric constant tensor:
#      x y z
#    x 1.582740 0.000000 0.014750 
#    y 0.000000 1.600240 0.000000 
#    z 0.014750 0.000000 1.677880 
# 
# From -- ./inp_files/153657.got.cif
#   From: 2010.05.17/outbox.ucp.g08.bks.cvg/sg12_77_cif.got.tgz:153657.got - 2010.06.11 11:47:21.
