data_PCOD9223289
_publ_section_title
;
Structure prediction by ZEFSAII (Michael W. Deem and Ramdas Pophale) SiO2 
 PCOD9223289
Probable space group: C 2/M
;
_chemical_formula_sum "Si O2"
_cell_formula_units_Z 32
_cell_length_a 15.000000
_cell_length_b 18.000000
_cell_length_c 24.000000
_cell_angle_alpha 90.000000
_cell_angle_beta 30.000000
_cell_angle_gamma 90.000000
_cell_volume 3240.000000
_symmetry_space_group_name_H-M "C 2/M"
_symmetry_group_IT_number 12
_symmetry_cell_setting 'monoclinic'
loop_
_space_group_symop_operation_xyz
x,y,z
-x,y,-z
-x,-y,-z
x,-y,z
1/2+x,1/2+y,z
1/2-x,1/2+y,-z
1/2-x,1/2-y,-z
1/2+x,1/2-y,z
loop_
_atom_site_type_symbol
_atom_site_label
_atom_site_fract_x
_atom_site_fract_y
_atom_site_fract_z
Si Si1 0.396391 0.686495 0.253887
Si Si2 0.645023 0.271248 0.471158
Si Si3 0.914909 0.580676 0.107056
Si Si4 0.894415 0.318572 0.852635
Si Si5 0.195456 0.266738 0.867431
Si Si6 0.296063 0.588200 0.959970
Si Si7 0.893593 0.667751 0.675104
Si Si8 0.612786 0.912149 0.646434
O O1 0.304584 0.718359 0.360529
O O2 0.469324 0.765076 0.187134
O O3 0.554634 0.625587 0.160528
O O4 0.226921 0.650793 0.313270
O O5 0.500000 0.280690 0.500000
O O6 0.541645 0.228293 0.576149
O O7 0.726040 0.351849 0.442575
O O8 0.834154 0.500000 0.165736
O O9 0.789256 0.652223 0.169469
O O10 0.000000 0.574084 0.000000
O O11 0.091904 0.593157 0.047973
O O12 0.822577 0.254951 0.849762
O O13 0.998959 0.381814 0.761403
O O14 0.729975 0.358188 0.972475
O O15 0.250293 0.205002 0.793746
O O16 0.000000 0.262267 0.000000
O O17 0.332063 0.500000 0.949891
O O18 0.993225 0.604115 0.656119
O O19 0.654581 0.000000 0.628650
#
# Coordination Sequence:
#
# PCOD9223289 Si02
#       8
#     8   8   8   8   8   8   8   8
#     4  10  19  34  55  77 104 143 184 218 257 312
#     4   9  20  38  59  81 103 135 179 223 262 307
#     4   9  18  32  49  74 110 144 175 216 265 311
#     4  10  20  34  54  80 109 141 179 218 263 317
#     4  10  18  31  53  79 106 140 178 216 263 318
#     4  11  21  33  53  81 112 141 174 221 268 313
#     4  10  20  35  56  78 107 141 178 219 258 312
#     4  10  21  37  57  81 110 140 171 216 271 319
#
# _framework density 9.8765429999999999
#
# number of rings (size 3 to 8) (size 9 to 14) (size 15 to 20)
#    0.000    2.125    0.000    4.125    0.000    0.750 
#    0.000    1.250    0.000    9.375    0.000    0.000 
#    0.000    0.000    0.000    0.000    0.000    0.000 
#
# Total GULP energy -178162.242284 kJ/mol
# GULP energy per Si atom -5567.570071 kJ/mol
# Density = 0.985406 g / cm^3
# Si number density = 9.876543 Si / 1000 Ang^3
#
#
#
# Elastic Constant Matrix: (Units=GPa)
#
#
# Indices 1 2 3 4 5 6 
#
# 1 52.2435 23.4565 -3.5441 0.0014 -7.3557 0.0007
# 2 23.4565 113.6141 27.3961 0.0027 -8.7574 -0.0001
# 3 -3.5441 27.3961 77.1123 0.0033 -0.9569 -0.0064
# 4 0.0014 0.0027 0.0033 28.2358 -0.0018 -6.0170
# 5 -7.3557 -8.7574 -0.9569 -0.0018 16.3402 0.0007
# 6 0.0007 -0.0001 -0.0064 -6.0170 0.0007 22.8810
#
#
#
# Elastic Compliance Matrix: (Units=1/GPa)
#
#
# Indices 1 2 3 4 5 6 
#
# 1 0.022554 -0.004736 0.002816 -0.000001 0.007780 0.000000
# 2 -0.004736 0.011040 -0.004096 0.000000 0.003545 -0.000001
# 3 0.002816 -0.004096 0.014552 -0.000001 -0.000076 0.000004
# 4 -0.000001 0.000000 -0.000001 0.037519 0.000003 0.009866
# 5 0.007780 0.003545 -0.000076 0.000003 0.066596 -0.000001
# 6 0.000000 -0.000001 0.000004 0.009866 -0.000001 0.046299
#
#
# Mechanical properties :
#
#
# Convention : Reuss Voigt Hill
#
# Bulk Modulus (GPa) = 27.69038 37.50967 32.60002
# Shear Modulus (GPa) = 22.45881 26.53551 24.49716
#
# Velocity S-wave (km/s) = 3.37557 3.66916 3.52542
# Velocity P-wave (km/s) = 5.40752 6.08119 5.75422
#
# Compressibility (1/GPa) = 0.03611363
#
# Stress axis : x y z
#
# Youngs Moduli (GPa) = 44.33865 90.57647 68.72011
#
# Poissons Ratio (x) = 0.42894 -0.19349
# Poissons Ratio (y) = 0.20997 0.28148
# Poissons Ratio (z) = -0.12484 0.37100
#
# Static dielectric constant tensor:
#      x y z
#    x 1.993430 0.000000 0.043320 
#    y 0.000000 1.704250 0.000000 
#    z 0.043320 0.000000 1.741680 
# 
# From -- ./inp_files/340833.got.cif
#   From: 2010.05.17/outbox.ucp.g08.bks.cvg/sg12_171_cif.got.tgz:340833.got - 2010.06.11 11:47:21.
