data_PCOD9223611
_publ_section_title
;
Structure prediction by ZEFSAII (Michael W. Deem and Ramdas Pophale) SiO2 
 PCOD9223611
Probable space group: C 2/M
;
_chemical_formula_sum "Si O2"
_cell_formula_units_Z 28
_cell_length_a 30.000000
_cell_length_b 9.000000
_cell_length_c 18.000000
_cell_angle_alpha 90.000000
_cell_angle_beta 40.000000
_cell_angle_gamma 90.000000
_cell_volume 3123.947783
_symmetry_space_group_name_H-M "C 2/M"
_symmetry_group_IT_number 12
_symmetry_cell_setting 'monoclinic'
loop_
_space_group_symop_operation_xyz
x,y,z
-x,y,-z
-x,-y,-z
x,-y,z
1/2+x,1/2+y,z
1/2-x,1/2+y,-z
1/2-x,1/2-y,-z
1/2+x,1/2-y,z
loop_
_atom_site_type_symbol
_atom_site_label
_atom_site_fract_x
_atom_site_fract_y
_atom_site_fract_z
Si Si1 0.218228 0.678067 0.965743
Si Si2 0.109975 0.669480 0.408524
Si Si3 0.385926 0.179330 0.140903
Si Si4 0.929623 0.173328 0.846643
Si Si5 0.011695 0.321293 0.865722
Si Si6 0.954854 0.328321 0.666529
Si Si7 0.244061 0.177893 0.247402
O O1 0.221064 0.500000 0.970137
O O2 0.253972 0.722015 0.842297
O O3 0.250000 0.750000 0.000000
O O4 0.139893 0.731996 0.051223
O O5 0.135319 0.500000 0.376556
O O6 0.089970 0.707031 0.349098
O O7 0.169276 0.767996 0.369172
O O8 0.035814 0.673426 0.543000
O O9 0.419694 0.227269 0.176346
O O10 0.311374 0.234611 0.207022
O O11 0.381318 0.000000 0.151542
O O12 0.445450 0.209253 0.003803
O O13 0.992665 0.237511 0.814873
O O14 0.942947 0.207299 0.743890
O O15 0.918601 0.000000 0.875792
O O16 0.014652 0.500000 0.850330
O O17 0.937832 0.500000 0.711343
O O18 0.247902 0.000000 0.244367
#
# Coordination Sequence:
#
# PCOD9223611 Si02
#       7
#     8   8   8   8   8   8   8
#     4  11  22  35  50  72 106 142 173 205 250 305
#     4   9  19  35  55  77  98 129 173 217 257 300
#     4   8  15  30  53  76  97 131 176 209 247 308
#     4  12  23  33  49  77 108 136 170 211 258 305
#     4   9  16  32  55  73  97 135 175 211 248 304
#     4   9  19  37  56  72  97 135 178 215 251 301
#     4  10  19  32  51  76 104 133 165 206 254 307
#
# _framework density 8.9630179999999999
#
# number of rings (size 3 to 8) (size 9 to 14) (size 15 to 20)
#    0.000    2.286    1.429    4.286    0.000    4.571 
#    0.000    3.571    0.000    0.857    0.000    0.000 
#    0.000    0.000    0.000    0.000    0.000    0.000 
#
# Total GULP energy -155994.107168 kJ/mol
# GULP energy per Si atom -5571.218113 kJ/mol
# Density = 0.894262 g / cm^3
# Si number density = 8.963018 Si / 1000 Ang^3
#
#
#
# Elastic Constant Matrix: (Units=GPa)
#
#
# Indices 1 2 3 4 5 6 
#
# 1 -17.7776 -9.9788 1.9053 -0.0081 -46.2339 0.0054
# 2 -9.9788 12.2005 1.5398 -0.0072 -7.2305 0.0042
# 3 1.9053 1.5398 23.0152 -0.0029 -15.7126 0.0021
# 4 -0.0081 -0.0072 -0.0029 18.9872 -0.0008 -5.5749
# 5 -46.2339 -7.2305 -15.7126 -0.0008 24.5391 0.0011
# 6 0.0054 0.0042 0.0021 -5.5749 0.0011 23.3745
#
#
#
# Elastic Compliance Matrix: (Units=1/GPa)
#
#
# Indices 1 2 3 4 5 6 
#
# 1 -0.003818 -0.012359 -0.011113 -0.000008 -0.017951 0.000003
# 2 -0.012359 0.067143 -0.010411 0.000017 -0.010168 -0.000004
# 3 -0.011113 -0.010411 0.050951 -0.000001 0.008620 -0.000001
# 4 -0.000008 0.000017 -0.000001 0.056633 -0.000009 0.013507
# 5 -0.017951 -0.010168 0.008620 -0.000009 0.009452 0.000003
# 6 0.000003 -0.000004 -0.000001 0.013507 0.000003 0.046003
#
#
# Mechanical properties :
#
#
# Convention : Reuss Voigt Hill
#
# Bulk Modulus (GPa) = 21.50081 0.48564 10.99323
# Shear Modulus (GPa) = 16.14817 14.97827 15.56322
#
# Velocity S-wave (km/s) = 3.00463 2.89374 2.94970
# Velocity P-wave (km/s) = 4.90482 3.38179 4.21270
#
# Compressibility (1/GPa) = 0.04650988
#
# Stress axis : x y z
#
# Youngs Moduli (GPa) = -261.89096 14.89356 19.62686
#
# Poissons Ratio (x) = 0.18407 0.21810
# Poissons Ratio (y) = -3.23678 0.20433
# Poissons Ratio (z) = -2.91026 0.15506
#
# Static dielectric constant tensor:
#      x y z
#    x 1.626720 0.000000 0.009770 
#    y 0.000000 1.610080 0.000000 
#    z 0.009770 0.000000 1.664910 
# 
# From -- ./inp_files/295061.got.cif
#   From: 2010.05.17/outbox.ucp.g08.bks.cvg/sg12_148_cif.got.tgz:295061.got - 2010.06.11 11:47:21.
