data_PCOD9223457
_publ_section_title
;
Structure prediction by ZEFSAII (Michael W. Deem and Ramdas Pophale) SiO2 
 PCOD9223457
Probable space group: C 2/M
;
_chemical_formula_sum "Si O2"
_cell_formula_units_Z 32
_cell_length_a 24.000000
_cell_length_b 9.000000
_cell_length_c 30.000000
_cell_angle_alpha 90.000000
_cell_angle_beta 30.000000
_cell_angle_gamma 90.000000
_cell_volume 3240.000000
_symmetry_space_group_name_H-M "C 2/M"
_symmetry_group_IT_number 12
_symmetry_cell_setting 'monoclinic'
loop_
_space_group_symop_operation_xyz
x,y,z
-x,y,-z
-x,-y,-z
x,-y,z
1/2+x,1/2+y,z
1/2-x,1/2+y,-z
1/2-x,1/2-y,-z
1/2+x,1/2-y,z
loop_
_atom_site_type_symbol
_atom_site_label
_atom_site_fract_x
_atom_site_fract_y
_atom_site_fract_z
Si Si1 0.339287 0.167111 0.361097
Si Si2 0.767005 0.826282 0.719955
Si Si3 0.090987 0.821926 0.295285
Si Si4 0.580422 0.820223 0.792207
Si Si5 0.136234 0.330047 0.527351
Si Si6 0.594259 0.167188 0.205577
Si Si7 0.374193 0.841288 0.571749
Si Si8 0.864470 0.827534 0.911587
O O1 0.360432 0.224037 0.295818
O O2 0.260689 0.268834 0.444996
O O3 0.460419 0.157181 0.298590
O O4 0.291546 0.000000 0.391124
O O5 0.842160 0.767276 0.707463
O O6 0.645242 0.769075 0.791335
O O7 0.827704 0.796299 0.631260
O O8 0.756599 0.000000 0.735697
O O9 0.137733 0.730154 0.221502
O O10 0.962068 0.776263 0.388831
O O11 0.100152 0.000000 0.283783
O O12 0.459617 0.752753 0.873593
O O13 0.575696 0.000000 0.794008
O O14 0.123528 0.500000 0.551922
O O15 0.125866 0.328904 0.480773
O O16 0.614706 0.289243 0.154172
O O17 0.634663 0.000000 0.166587
O O18 0.500000 0.851096 0.500000
O O19 0.317941 0.000000 0.623235
O O20 0.863804 0.000000 0.920796
O O21 0.750000 0.750000 0.000000
#
# Coordination Sequence:
#
# PCOD9223457 Si02
#       8
#     8   8   8   8   8   8   8   8
#     4   9  18  33  53  74 101 140 186 235 283 327
#     4  10  20  33  52  76 107 147 188 230 275 323
#     4  11  23  36  52  76 107 150 197 233 273 327
#     4   9  18  34  55  83 116 145 178 224 276 324
#     4  11  21  31  47  72 104 145 191 240 288 326
#     4  10  22  41  60  80 110 145 181 225 277 330
#     4  10  19  30  44  68 102 140 188 241 283 319
#     4  11  22  39  66  96 119 140 170 211 264 325
#
# _framework density 9.8765429999999999
#
# number of rings (size 3 to 8) (size 9 to 14) (size 15 to 20)
#    0.000    1.875    2.500    3.000    0.000    4.750 
#    0.000    0.000    0.000    0.750    0.000    5.250 
#    0.000    0.000    0.000    0.000    0.000    0.000 
#
# Total GULP energy -178166.435977 kJ/mol
# GULP energy per Si atom -5567.701124 kJ/mol
# Density = 0.985406 g / cm^3
# Si number density = 9.876543 Si / 1000 Ang^3
#
#
#
# Elastic Constant Matrix: (Units=GPa)
#
#
# Indices 1 2 3 4 5 6 
#
# 1 42.7276 10.6498 34.2286 0.0002 2.3757 -0.0001
# 2 10.6498 22.6327 10.9997 -0.0002 -8.9114 -0.0023
# 3 34.2286 10.9997 39.3068 -0.0008 -23.8999 0.0004
# 4 0.0002 -0.0002 -0.0008 33.3425 0.0007 -17.9625
# 5 2.3757 -8.9114 -23.8999 0.0007 4.5987 0.0000
# 6 -0.0001 -0.0023 0.0004 -17.9625 0.0000 48.7702
#
#
#
# Elastic Compliance Matrix: (Units=1/GPa)
#
#
# Indices 1 2 3 4 5 6 
#
# 1 0.015105 0.003102 0.006996 -0.000001 0.034566 0.000000
# 2 0.003102 0.050507 -0.019306 0.000002 -0.004062 0.000003
# 3 0.006996 -0.019306 0.000089 0.000000 -0.040561 -0.000001
# 4 -0.000001 0.000002 0.000000 0.037416 -0.000001 0.013781
# 5 0.034566 -0.004062 -0.040561 -0.000001 -0.019074 0.000000
# 6 0.000000 0.000003 -0.000001 0.013781 0.000000 0.025580
#
#
# Mechanical properties :
#
#
# Convention : Reuss Voigt Hill
#
# Bulk Modulus (GPa) = 21.14784 24.04705 22.59744
# Shear Modulus (GPa) = 34.77047 20.59488 27.68268
#
# Velocity S-wave (km/s) = 4.20009 3.23246 3.74764
# Velocity P-wave (km/s) = 5.85238 5.11194 5.49465
#
# Compressibility (1/GPa) = 0.04728616
#
# Stress axis : x y z
#
# Youngs Moduli (GPa) = 66.20416 19.79915 11203.68921
#
# Poissons Ratio (x) = -0.06143 -78.37686
# Poissons Ratio (y) = -0.20539 216.29386
# Poissons Ratio (z) = -0.46314 0.38223
#
# Static dielectric constant tensor:
#      x y z
#    x 1.717850 0.000000 -0.064150 
#    y 0.000000 1.730890 0.000000 
#    z -0.064150 0.000000 1.638280 
# 
# From -- ./inp_files/382278.got.cif
#   From: 2010.05.17/outbox.ucp.g08.bks.cvg/sg12_192_cif.got.tgz:382278.got - 2010.06.11 11:47:21.
