data_PCOD9223696
_publ_section_title
;
Structure prediction by ZEFSAII (Michael W. Deem and Ramdas Pophale) SiO2 
 PCOD9223696
Probable space group: C 2/M
;
_chemical_formula_sum "Si O2"
_cell_formula_units_Z 24
_cell_length_a 27.000000
_cell_length_b 9.000000
_cell_length_c 24.000000
_cell_angle_alpha 90.000000
_cell_angle_beta 30.000000
_cell_angle_gamma 90.000000
_cell_volume 2916.000000
_symmetry_space_group_name_H-M "C 2/M"
_symmetry_group_IT_number 12
_symmetry_cell_setting 'monoclinic'
loop_
_space_group_symop_operation_xyz
x,y,z
-x,y,-z
-x,-y,-z
x,-y,z
1/2+x,1/2+y,z
1/2-x,1/2+y,-z
1/2-x,1/2-y,-z
1/2+x,1/2-y,z
loop_
_atom_site_type_symbol
_atom_site_label
_atom_site_fract_x
_atom_site_fract_y
_atom_site_fract_z
Si Si1 0.155753 0.179109 0.379056
Si Si2 0.627652 0.176478 0.070463
Si Si3 0.644930 0.323275 0.837092
Si Si4 0.356372 0.678506 0.834238
Si Si5 0.453094 0.822456 0.969969
Si Si6 0.544314 0.319923 0.373716
O O1 0.256194 0.266924 0.288285
O O2 0.109453 0.218913 0.363944
O O3 0.069449 0.220841 0.506005
O O4 0.171845 0.000000 0.364900
O O5 0.595271 0.261219 0.156875
O O6 0.564502 0.205581 0.077427
O O7 0.628055 0.000000 0.080522
O O8 0.740956 0.222194 0.947181
O O9 0.639731 0.500000 0.847143
O O10 0.551043 0.258848 0.895566
O O11 0.635655 0.244741 0.906556
O O12 0.359628 0.500000 0.830580
O O13 0.409049 0.737344 0.728093
O O14 0.458386 0.000000 0.974180
O O15 0.545722 0.500000 0.371282
#
# Coordination Sequence:
#
# PCOD9223696 Si02
#       6
#     8   8   8   8   8   8
#     4   9  16  30  50  69  92 123 158 189 221 266
#     4   9  18  30  46  69  93 119 152 186 222 269
#     4  11  21  31  45  70  99 120 146 187 236 279
#     4   9  16  28  46  69  96 121 147 183 228 270
#     4  10  19  33  51  67  88 122 160 190 220 267
#     4   8  15  28  49  72  91 120 160 193 218 261
#
# _framework density 8.2304530000000007
#
# number of rings (size 3 to 8) (size 9 to 14) (size 15 to 20)
#    0.000    2.667    0.000    5.000    0.000    4.000 
#    0.000    6.667    0.000    1.000    0.000    0.000 
#    0.000    0.000    0.000    0.000    0.000    0.000 
#
# Total GULP energy -133681.970080 kJ/mol
# GULP energy per Si atom -5570.082087 kJ/mol
# Density = 0.821172 g / cm^3
# Si number density = 8.230453 Si / 1000 Ang^3
#
#
#
# Elastic Constant Matrix: (Units=GPa)
#
#
# Indices 1 2 3 4 5 6 
#
# 1 43.4302 15.1207 30.0677 -0.0011 13.9542 0.0006
# 2 15.1207 34.9433 20.8170 -0.0025 0.8570 0.0012
# 3 30.0677 20.8170 84.9236 -0.0022 12.8400 0.0009
# 4 -0.0011 -0.0025 -0.0022 0.7604 0.0015 5.2438
# 5 13.9542 0.8570 12.8400 0.0015 23.9782 -0.0002
# 6 0.0006 0.0012 0.0009 5.2438 -0.0002 19.9613
#
#
#
# Elastic Compliance Matrix: (Units=1/GPa)
#
#
# Indices 1 2 3 4 5 6 
#
# 1 0.038176 -0.011256 -0.008116 -0.000040 -0.017468 0.000010
# 2 -0.011256 0.037100 -0.006418 -0.000100 0.008662 0.000025
# 3 -0.008116 -0.006418 0.016837 -0.000031 -0.004063 0.000008
# 4 -0.000040 -0.000100 -0.000031 -1.620464 0.000149 0.425691
# 5 -0.017468 0.008662 -0.004063 0.000149 0.053736 -0.000038
# 6 0.000010 0.000025 0.000008 0.425691 -0.000038 -0.061731
#
#
# Mechanical properties :
#
#
# Convention : Reuss Voigt Hill
#
# Bulk Modulus (GPa) = 24.67251 32.81198 28.74225
# Shear Modulus (GPa) = -3.39846 15.42611 6.01383
#
# Velocity S-wave (km/s) = -1.43842 3.06459 1.91346
# Velocity P-wave (km/s) = 3.50177 5.70077 4.73081
#
# Compressibility (1/GPa) = 0.04053093
#
# Stress axis : x y z
#
# Youngs Moduli (GPa) = 26.19459 26.95432 59.39475
#
# Poissons Ratio (x) = 0.30340 0.48206
# Poissons Ratio (y) = 0.29485 0.38122
# Poissons Ratio (z) = 0.21260 0.17301
#
# Static dielectric constant tensor:
#      x y z
#    x 1.555240 0.000000 0.011600 
#    y 0.000000 1.540540 0.000000 
#    z 0.011600 0.000000 1.581660 
# 
# From -- ./inp_files/351054.got.cif
#   From: 2010.05.17/outbox.ucp.g08.bks.cvg/sg12_176_cif.got.tgz:351054.got - 2010.06.11 11:47:21.
