data_PCOD9223674
_publ_section_title
;
Structure prediction by ZEFSAII (Michael W. Deem and Ramdas Pophale) SiO2 
 PCOD9223674
Probable space group: C 2/M
;
_chemical_formula_sum "Si O2"
_cell_formula_units_Z 22
_cell_length_a 21.000000
_cell_length_b 9.000000
_cell_length_c 15.000000
_cell_angle_alpha 90.000000
_cell_angle_beta 120.000000
_cell_angle_gamma 90.000000
_cell_volume 2455.182020
_symmetry_space_group_name_H-M "C 2/M"
_symmetry_group_IT_number 12
_symmetry_cell_setting 'monoclinic'
loop_
_space_group_symop_operation_xyz
x,y,z
-x,y,-z
-x,-y,-z
x,-y,z
1/2+x,1/2+y,z
1/2-x,1/2+y,-z
1/2-x,1/2-y,-z
1/2+x,1/2-y,z
loop_
_atom_site_type_symbol
_atom_site_label
_atom_site_fract_x
_atom_site_fract_y
_atom_site_fract_z
Si Si1 0.401684 0.320828 0.196617
Si Si2 0.712700 0.681230 0.383299
Si Si3 0.343115 0.331403 0.963817
Si Si4 0.225721 0.178545 0.754959
Si Si5 0.051196 0.327222 0.234514
Si Si6 0.000000 0.247416 0.000000
O O1 0.412654 0.500000 0.202474
O O2 0.351537 0.285390 0.248192
O O3 0.481125 0.243094 0.238509
O O4 0.354109 0.283346 0.074259
O O5 0.712830 0.500000 0.387162
O O6 0.750000 0.750000 0.500000
O O7 0.757895 0.739232 0.327461
O O8 0.628080 0.740460 0.308466
O O9 0.313905 0.500000 0.941145
O O10 0.290532 0.227834 0.868498
O O11 0.425656 0.333024 0.980636
O O12 0.228456 0.000000 0.743502
O O13 0.061152 0.500000 0.265690
O O14 0.028470 0.322487 0.112760
#
# Coordination Sequence:
#
# PCOD9223674 Si02
#       6
#     8   8   8   8   8   4
#     4   9  21  38  57  87 128 167 202 247 305 366
#     4  12  26  45  68  91 120 159 208 261 309 365
#     4  10  19  32  54  85 124 167 208 247 299 364
#     4  11  22  38  60  88 124 162 205 254 306 363
#     4  11  22  38  62  93 127 162 206 254 305 366
#     4  10  20  32  56  90 130 164 202 250 306 366
#
# _framework density 8.9606390000000005
#
# number of rings (size 3 to 8) (size 9 to 14) (size 15 to 20)
#    0.000    1.455    1.818    3.818    0.000    5.818 
#    0.000    0.909    0.000    5.455    0.000    0.000 
#    0.000    0.000    0.000    0.000    0.000    0.000 
#
# Total GULP energy -122740.274773 kJ/mol
# GULP energy per Si atom -5579.103399 kJ/mol
# Density = 0.894024 g / cm^3
# Si number density = 8.960639 Si / 1000 Ang^3
#
#
#
# Elastic Constant Matrix: (Units=GPa)
#
#
# Indices 1 2 3 4 5 6 
#
# 1 154.7044 58.2192 65.6383 0.0000 -13.2724 0.0000
# 2 58.2192 126.9579 56.0965 0.0000 -3.0300 0.0000
# 3 65.6383 56.0965 118.3133 0.0000 -5.0272 0.0000
# 4 0.0000 0.0000 0.0000 28.7404 0.0000 0.8497
# 5 -13.2724 -3.0300 -5.0272 0.0000 32.5328 0.0000
# 6 0.0000 0.0000 0.0000 0.8497 0.0000 30.4972
#
#
#
# Elastic Compliance Matrix: (Units=1/GPa)
#
#
# Indices 1 2 3 4 5 6 
#
# 1 0.009286 -0.002488 -0.003846 0.000000 0.002962 0.000000
# 2 -0.002488 0.010632 -0.003686 0.000000 -0.000594 0.000000
# 3 -0.003846 -0.003686 0.012333 0.000000 -0.000007 0.000000
# 4 0.000000 0.000000 0.000000 0.034823 0.000000 -0.000970
# 5 0.002962 -0.000594 -0.000007 0.000000 0.031890 0.000000
# 6 0.000000 0.000000 0.000000 -0.000970 0.000000 0.032817
#
#
# Mechanical properties :
#
#
# Convention : Reuss Voigt Hill
#
# Bulk Modulus (GPa) = 81.89363 84.43149 83.16256
# Shear Modulus (GPa) = 32.07322 33.02218 32.54770
#
# Velocity S-wave (km/s) = 4.23504 4.29724 4.26625
# Velocity P-wave (km/s) = 8.34923 8.47563 8.41267
#
# Compressibility (1/GPa) = 0.01221096
#
# Stress axis : x y z
#
# Youngs Moduli (GPa) = 107.68425 94.05486 81.08127
#
# Poissons Ratio (x) = 0.23404 0.31186
# Poissons Ratio (y) = 0.26795 0.29885
# Poissons Ratio (z) = 0.41418 0.34667
#
# Static dielectric constant tensor:
#      x y z
#    x 1.624740 0.000000 -0.016330 
#    y 0.000000 1.624380 0.000000 
#    z -0.016330 0.000000 1.598720 
# 
# From -- ./inp_files/230553.got.cif
#   From: 2010.05.17/outbox.ucp.g08.bks.cvg/sg12_116_cif.got.tgz:230553.got - 2010.06.11 11:47:21.
