data_PCOD9223636
_publ_section_title
;
Structure prediction by ZEFSAII (Michael W. Deem and Ramdas Pophale) SiO2 
 PCOD9223636
Probable space group: C 2/M
;
_chemical_formula_sum "Si O2"
_cell_formula_units_Z 28
_cell_length_a 30.000000
_cell_length_b 9.000000
_cell_length_c 18.000000
_cell_angle_alpha 90.000000
_cell_angle_beta 40.000000
_cell_angle_gamma 90.000000
_cell_volume 3123.947783
_symmetry_space_group_name_H-M "C 2/M"
_symmetry_group_IT_number 12
_symmetry_cell_setting 'monoclinic'
loop_
_space_group_symop_operation_xyz
x,y,z
-x,y,-z
-x,-y,-z
x,-y,z
1/2+x,1/2+y,z
1/2-x,1/2+y,-z
1/2-x,1/2-y,-z
1/2+x,1/2-y,z
loop_
_atom_site_type_symbol
_atom_site_label
_atom_site_fract_x
_atom_site_fract_y
_atom_site_fract_z
Si Si1 0.704418 0.177532 0.122946
Si Si2 0.292803 0.678877 0.512511
Si Si3 0.319780 0.175619 0.229135
Si Si4 0.674291 0.322598 0.935176
Si Si5 0.047257 0.823627 0.704103
Si Si6 0.916572 0.677320 0.817437
Si Si7 0.946625 0.175372 0.134786
O O1 0.745846 0.215062 0.144434
O O2 0.626080 0.218817 0.202736
O O3 0.709048 0.000000 0.109737
O O4 0.750000 0.250000 0.000000
O O5 0.290371 0.500000 0.507019
O O6 0.250000 0.750000 0.500000
O O7 0.253088 0.716284 0.639570
O O8 0.373106 0.723352 0.407608
O O9 0.337092 0.261230 0.131836
O O10 0.379532 0.224028 0.209696
O O11 0.321273 0.000000 0.213962
O O12 0.663918 0.500000 0.950481
O O13 0.625316 0.248665 0.059705
O O14 0.025509 0.798911 0.818011
O O15 0.993621 0.738560 0.721356
O O16 0.042892 0.000000 0.696083
O O17 0.916123 0.500000 0.826330
O O18 0.927633 0.000000 0.154711
O O19 0.000000 0.205743 0.000000
#
# Coordination Sequence:
#
# PCOD9223636 Si02
#       7
#     8   8   8   8   8   8   8
#     4   8  16  30  49  74 103 134 167 203 246 302
#     4  10  21  37  55  73  97 133 176 218 255 298
#     4  11  22  34  51  76 102 129 170 219 257 292
#     4  10  19  33  53  76 105 140 171 201 251 313
#     4  10  20  34  51  73 103 137 172 207 251 309
#     4  10  19  32  52  80 109 133 165 211 256 298
#     4  10  20  33  50  72 100 135 169 201 248 308
#
# _framework density 8.9630179999999999
#
# number of rings (size 3 to 8) (size 9 to 14) (size 15 to 20)
#    0.000    2.143    1.429    2.143    0.000    4.286 
#    0.000    0.000    0.000    0.857    0.000    6.000 
#    0.000    0.000    0.000    0.000    0.000    0.000 
#
# Total GULP energy -156069.344068 kJ/mol
# GULP energy per Si atom -5573.905145 kJ/mol
# Density = 0.894262 g / cm^3
# Si number density = 8.963018 Si / 1000 Ang^3
#
#
#
# Elastic Constant Matrix: (Units=GPa)
#
#
# Indices 1 2 3 4 5 6 
#
# 1 76.3303 23.2136 2.5128 -0.0042 -29.6795 0.0011
# 2 23.2136 16.9508 12.3158 -0.0077 -12.6918 0.0037
# 3 2.5128 12.3158 46.0964 -0.0086 -21.1110 0.0031
# 4 -0.0042 -0.0077 -0.0086 17.1826 0.0029 -8.0467
# 5 -29.6795 -12.6918 -21.1110 0.0029 26.6101 -0.0011
# 6 0.0011 0.0037 0.0031 -8.0467 -0.0011 23.1411
#
#
#
# Elastic Compliance Matrix: (Units=1/GPa)
#
#
# Indices 1 2 3 4 5 6 
#
# 1 0.057006 -0.056701 0.045196 0.000001 0.072394 0.000004
# 2 -0.056701 0.149635 -0.052093 0.000031 -0.033200 -0.000005
# 3 0.045196 -0.052093 0.070453 0.000011 0.081458 0.000005
# 4 0.000001 0.000031 0.000011 0.069519 0.000018 0.024173
# 5 0.072394 -0.033200 0.081458 0.000018 0.167113 0.000005
# 6 0.000004 -0.000005 0.000005 0.024173 0.000005 0.051619
#
#
# Mechanical properties :
#
#
# Convention : Reuss Voigt Hill
#
# Bulk Modulus (GPa) = 6.67117 23.94022 15.30569
# Shear Modulus (GPa) = 6.73395 20.14244 13.43819
#
# Velocity S-wave (km/s) = 1.94028 3.35571 2.74094
# Velocity P-wave (km/s) = 2.95789 5.32902 4.30973
#
# Compressibility (1/GPa) = 0.14989877
#
# Stress axis : x y z
#
# Youngs Moduli (GPa) = 17.54198 6.68295 14.19381
#
# Poissons Ratio (x) = 0.37893 -0.64151
# Poissons Ratio (y) = 0.99465 0.73939
# Poissons Ratio (z) = -0.79283 0.34813
#
# Static dielectric constant tensor:
#      x y z
#    x 1.642880 -0.000020 -0.033150 
#    y -0.000020 0.262530 -0.000010 
#    z -0.033150 -0.000010 1.603040 
# 
# From -- ./inp_files/287405.got.cif
#   From: 2010.05.17/outbox.ucp.g08.bks.cvg/sg12_144_cif.got.tgz:287405.got - 2010.06.11 11:47:21.
