data_PCOD9223240
_publ_section_title
;
Structure prediction by ZEFSAII (Michael W. Deem and Ramdas Pophale) SiO2 
 PCOD9223240
Probable space group: C 2/M
;
_chemical_formula_sum "Si O2"
_cell_formula_units_Z 28
_cell_length_a 18.000000
_cell_length_b 9.000000
_cell_length_c 27.000000
_cell_angle_alpha 90.000000
_cell_angle_beta 40.000000
_cell_angle_gamma 90.000000
_cell_volume 2811.553005
_symmetry_space_group_name_H-M "C 2/M"
_symmetry_group_IT_number 12
_symmetry_cell_setting 'monoclinic'
loop_
_space_group_symop_operation_xyz
x,y,z
-x,y,-z
-x,-y,-z
x,-y,z
1/2+x,1/2+y,z
1/2-x,1/2+y,-z
1/2-x,1/2-y,-z
1/2+x,1/2-y,z
loop_
_atom_site_type_symbol
_atom_site_label
_atom_site_fract_x
_atom_site_fract_y
_atom_site_fract_z
Si Si1 0.287637 0.674484 0.057527
Si Si2 0.371709 0.332780 0.443163
Si Si3 0.107136 0.323406 0.338604
Si Si4 0.813034 0.830096 0.803071
Si Si5 0.067633 0.158764 0.702665
Si Si6 0.176413 0.673164 0.727217
Si Si7 0.934593 0.323568 0.901178
O O1 0.297721 0.500000 0.061381
O O2 0.280643 0.760831 0.112834
O O3 0.168079 0.696877 0.087039
O O4 0.390688 0.734279 0.970907
O O5 0.358818 0.500000 0.470259
O O6 0.250000 0.250000 0.500000
O O7 0.480038 0.247427 0.412512
O O8 0.409587 0.345594 0.366840
O O9 0.097523 0.500000 0.344285
O O10 0.155826 0.266964 0.260561
O O11 0.206949 0.263485 0.323554
O O12 0.930238 0.832107 0.775696
O O13 0.787310 0.000000 0.801363
O O14 0.131747 0.294156 0.694953
O O15 0.106003 0.000000 0.705381
O O16 0.197837 0.500000 0.725090
O O17 0.062926 0.719908 0.817202
O O18 0.937934 0.500000 0.909791
#
# Coordination Sequence:
#
# PCOD9223240 Si02
#       7
#     8   8   8   8   8   8   8
#     4  10  18  30  50  78 107 142 189 236 282 332
#     4  10  21  40  64  91 118 147 182 223 270 324
#     4  11  23  38  58  83 114 149 185 227 277 331
#     4  10  19  34  55  79 109 145 188 236 281 330
#     4   9  19  34  56  84 112 144 183 224 270 325
#     4  11  21  36  56  81 114 148 187 230 278 333
#     4   9  19  32  48  75 109 146 184 231 284 331
#
# _framework density 9.9589090000000002
#
# number of rings (size 3 to 8) (size 9 to 14) (size 15 to 20)
#    0.000    2.000    1.429    3.857    0.000    4.571 
#    0.000    1.429    0.000    8.571    0.000    0.000 
#    0.000    0.000    0.000    0.000    0.000    0.000 
#
# Total GULP energy -156079.021486 kJ/mol
# GULP energy per Si atom -5574.250767 kJ/mol
# Density = 0.993624 g / cm^3
# Si number density = 9.958909 Si / 1000 Ang^3
#
#
#
# Elastic Constant Matrix: (Units=GPa)
#
#
# Indices 1 2 3 4 5 6 
#
# 1 26.9694 0.8406 -12.6434 0.0000 -7.7218 0.0000
# 2 0.8406 57.3730 8.1735 0.0000 -0.8484 0.0003
# 3 -12.6434 8.1735 24.9572 0.0000 -15.0221 0.0000
# 4 0.0000 0.0000 0.0000 27.2113 0.0000 -3.7452
# 5 -7.7218 -0.8484 -15.0221 0.0000 18.6106 0.0000
# 6 0.0000 0.0003 0.0000 -3.7452 0.0000 25.4355
#
#
#
# Elastic Compliance Matrix: (Units=1/GPa)
#
#
# Indices 1 2 3 4 5 6 
#
# 1 -0.153804 0.033410 -0.245754 0.000000 -0.260660 0.000000
# 2 0.033410 0.011623 0.042364 0.000000 0.048588 0.000000
# 3 -0.245754 0.042364 -0.308313 0.000000 -0.348899 0.000000
# 4 0.000000 0.000000 0.000000 0.037510 0.000000 0.005523
# 5 -0.260660 0.048588 -0.348899 0.000000 -0.333828 0.000000
# 6 0.000000 0.000000 0.000000 0.005523 0.000000 0.040128
#
#
# Mechanical properties :
#
#
# Convention : Reuss Voigt Hill
#
# Bulk Modulus (GPa) = -1.26510 11.33790 5.03640
# Shear Modulus (GPa) = -7.93388 21.78008 6.92310
#
# Velocity S-wave (km/s) = -1.99799 3.31039 1.86638
# Velocity P-wave (km/s) = 2.44114 4.50736 2.67929
#
# Compressibility (1/GPa) = -0.79045416
#
# Stress axis : x y z
#
# Youngs Moduli (GPa) = -6.50177 86.03320 -3.24346
#
# Poissons Ratio (x) = -2.87435 -0.79709
# Poissons Ratio (y) = 0.21722 0.13741
# Poissons Ratio (z) = -1.59784 -3.64475
#
# Static dielectric constant tensor:
#      x y z
#    x 1.715400 0.000000 0.005010 
#    y 0.000000 1.678290 0.000000 
#    z 0.005010 0.000000 1.718110 
# 
# From -- ./inp_files/275022.got.cif
#   From: 2010.05.17/outbox.ucp.g08.bks.cvg/sg12_138_cif.got.tgz:275022.got - 2010.06.11 11:47:21.
