data_PCOD9223820
_publ_section_title
;
Structure prediction by ZEFSAII (Michael W. Deem and Ramdas Pophale) SiO2 
 PCOD9223820
Probable space group: C 2/M
;
_chemical_formula_sum "Si O2"
_cell_formula_units_Z 24
_cell_length_a 21.000000
_cell_length_b 9.000000
_cell_length_c 24.000000
_cell_angle_alpha 90.000000
_cell_angle_beta 140.000000
_cell_angle_gamma 90.000000
_cell_volume 2915.684598
_symmetry_space_group_name_H-M "C 2/M"
_symmetry_group_IT_number 12
_symmetry_cell_setting 'monoclinic'
loop_
_space_group_symop_operation_xyz
x,y,z
-x,y,-z
-x,-y,-z
x,-y,z
1/2+x,1/2+y,z
1/2-x,1/2+y,-z
1/2-x,1/2-y,-z
1/2+x,1/2-y,z
loop_
_atom_site_type_symbol
_atom_site_label
_atom_site_fract_x
_atom_site_fract_y
_atom_site_fract_z
Si Si1 0.061505 0.819804 0.724792
Si Si2 0.794769 0.679548 0.272401
Si Si3 0.882880 0.178861 0.931215
Si Si4 0.885407 0.179191 0.442827
Si Si5 0.240333 0.179744 0.930695
Si Si6 0.645470 0.182404 0.453776
O O1 0.124740 0.752676 0.715569
O O2 0.133458 0.790210 0.827346
O O3 0.951606 0.745332 0.645625
O O4 0.052076 0.000000 0.713428
O O5 0.807733 0.500000 0.283878
O O6 0.687722 0.707930 0.170532
O O7 0.815781 0.751362 0.347242
O O8 0.825677 0.256457 0.945401
O O9 0.880910 0.000000 0.939320
O O10 0.000000 0.220064 0.000000
O O11 0.867917 0.257663 0.491220
O O12 0.000000 0.202226 0.500000
O O13 0.870019 0.000000 0.437236
O O14 0.249684 0.000000 0.940784
O O15 0.250000 0.250000 0.000000
O O16 0.750000 0.250000 0.500000
O O17 0.646785 0.000000 0.453250
#
# Coordination Sequence:
#
# PCOD9223820 Si02
#       6
#     8   8   8   8   8   8
#     4  10  20  37  59  84 114 151 191 236 288 340
#     4  10  19  33  58  88 113 148 194 237 283 337
#     4   9  19  37  59  84 117 152 185 232 290 341
#     4  11  22  37  60  86 116 151 190 235 281 336
#     4  10  21  37  60  86 114 150 192 238 283 339
#     4  12  25  41  61  85 117 152 190 235 288 343
#
# _framework density 8.2313430000000007
#
# number of rings (size 3 to 8) (size 9 to 14) (size 15 to 20)
#    0.000    1.667    1.667    3.500    0.000    3.667 
#    3.000    0.000    0.000    0.000    0.000    0.000 
#    0.000    0.000    0.000    0.000    0.000    0.000 
#
# Total GULP energy -133837.696225 kJ/mol
# GULP energy per Si atom -5576.570676 kJ/mol
# Density = 0.821261 g / cm^3
# Si number density = 8.231343 Si / 1000 Ang^3
#
#
#
# Elastic Constant Matrix: (Units=GPa)
#
#
# Indices 1 2 3 4 5 6 
#
# 1 121.2763 55.2277 78.6001 0.0000 3.4068 0.0000
# 2 55.2277 132.8931 66.0115 0.0000 -0.7699 0.0000
# 3 78.6001 66.0115 169.7372 0.0000 1.9993 0.0000
# 4 0.0000 0.0000 0.0000 38.2844 0.0000 -2.1508
# 5 3.4068 -0.7699 1.9993 0.0000 45.3365 0.0000
# 6 0.0000 0.0000 0.0000 -2.1508 0.0000 36.6335
#
#
#
# Elastic Compliance Matrix: (Units=1/GPa)
#
#
# Indices 1 2 3 4 5 6 
#
# 1 0.012653 -0.002922 -0.004714 0.000000 -0.000793 0.000000
# 2 -0.002922 0.010006 -0.002544 0.000000 0.000502 0.000000
# 3 -0.004714 -0.002544 0.009065 0.000000 -0.000089 0.000000
# 4 0.000000 0.000000 0.000000 0.026207 0.000000 0.001539
# 5 -0.000793 0.000502 -0.000089 0.000000 0.022129 0.000000
# 6 0.000000 0.000000 0.000000 0.001539 0.000000 0.027388
#
#
# Mechanical properties :
#
#
# Convention : Reuss Voigt Hill
#
# Bulk Modulus (GPa) = 87.99319 91.50947 89.75133
# Shear Modulus (GPa) = 37.99525 38.98871 38.49198
#
# Velocity S-wave (km/s) = 4.80934 4.87181 4.84067
# Velocity P-wave (km/s) = 9.18726 9.34626 9.26710
#
# Compressibility (1/GPa) = 0.01136452
#
# Stress axis : x y z
#
# Youngs Moduli (GPa) = 79.02977 99.94291 110.31650
#
# Poissons Ratio (x) = 0.29199 0.52002
# Poissons Ratio (y) = 0.23089 0.28067
# Poissons Ratio (z) = 0.37254 0.25428
#
# Static dielectric constant tensor:
#      x y z
#    x 1.540300 0.000000 0.002210 
#    y 0.000000 1.559680 0.000000 
#    z 0.002210 0.000000 1.579200 
# 
# From -- ./inp_files/345705.got.cif
#   From: 2010.05.17/outbox.ucp.g08.bks.cvg/sg12_173_cif.got.tgz:345705.got - 2010.06.11 11:47:21.
