data_PCOD9223564
_publ_section_title
;
Structure prediction by ZEFSAII (Michael W. Deem and Ramdas Pophale) SiO2 
 PCOD9223564
Probable space group: C 2/M
;
_chemical_formula_sum "Si O2"
_cell_formula_units_Z 32
_cell_length_a 21.000000
_cell_length_b 9.000000
_cell_length_c 21.000000
_cell_angle_alpha 90.000000
_cell_angle_beta 120.000000
_cell_angle_gamma 90.000000
_cell_volume 3437.254828
_symmetry_space_group_name_H-M "C 2/M"
_symmetry_group_IT_number 12
_symmetry_cell_setting 'monoclinic'
loop_
_space_group_symop_operation_xyz
x,y,z
-x,y,-z
-x,-y,-z
x,-y,z
1/2+x,1/2+y,z
1/2-x,1/2+y,-z
1/2-x,1/2-y,-z
1/2+x,1/2-y,z
loop_
_atom_site_type_symbol
_atom_site_label
_atom_site_fract_x
_atom_site_fract_y
_atom_site_fract_z
Si Si1 0.851006 0.673130 0.144296
Si Si2 0.868843 0.821093 0.575033
Si Si3 0.292242 0.177296 0.888980
Si Si4 0.722191 0.670983 0.254231
Si Si5 0.428386 0.826104 0.044380
Si Si6 0.001283 0.677938 0.714916
Si Si7 0.953626 0.829948 0.820837
Si Si8 0.738003 0.678763 0.594254
O O1 0.831380 0.500000 0.145202
O O2 0.778486 0.772111 0.106249
O O3 0.888515 0.681962 0.093528
O O4 0.911788 0.714814 0.229280
O O5 0.807973 0.749277 0.591928
O O6 0.834055 0.791520 0.486834
O O7 0.948830 0.755032 0.635390
O O8 0.870566 0.000000 0.584555
O O9 0.272653 0.245622 0.810428
O O10 0.296478 0.000000 0.886694
O O11 0.368986 0.225558 0.961612
O O12 0.748279 0.500000 0.263390
O O13 0.633972 0.667713 0.218652
O O14 0.759770 0.751372 0.333770
O O15 0.503248 0.735539 0.096194
O O16 0.445938 0.000000 0.040957
O O17 0.996220 0.500000 0.705073
O O18 0.969125 0.729133 0.766958
O O19 0.979315 0.000000 0.822885
O O20 0.746423 0.500000 0.602048
#
# Coordination Sequence:
#
# PCOD9223564 Si02
#       8
#     8   8   8   8   8   8   8   8
#     4   9  19  36  56  79 106 136 176 223 269 313
#     4  10  19  31  51  82 113 140 175 215 261 313
#     4  11  23  37  55  78 103 140 184 221 267 321
#     4  11  23  37  53  75 109 146 180 220 264 317
#     4   9  20  37  56  79 106 136 174 222 273 321
#     4  10  19  32  54  81 110 142 174 217 269 316
#     4  10  20  33  52  78 106 139 178 219 266 316
#     4  10  20  33  52  78 110 145 177 215 260 311
#
# _framework density 9.3097549999999991
#
# number of rings (size 3 to 8) (size 9 to 14) (size 15 to 20)
#    0.000    2.000    1.250    3.375    0.000    7.000 
#    0.000    2.500    0.000    0.750    0.000    5.250 
#    0.000    0.000    0.000    0.000    0.000    0.000 
#
# Total GULP energy -178422.614345 kJ/mol
# GULP energy per Si atom -5575.706698 kJ/mol
# Density = 0.928857 g / cm^3
# Si number density = 9.309755 Si / 1000 Ang^3
#
#
#
# Elastic Constant Matrix: (Units=GPa)
#
#
# Indices 1 2 3 4 5 6 
#
# 1 19.9182 9.4826 15.2111 0.0000 4.8360 0.0000
# 2 9.4826 79.0114 49.1851 0.0000 6.8505 0.0000
# 3 15.2111 49.1851 157.2155 0.0000 15.0017 0.0000
# 4 0.0000 0.0000 0.0000 38.6736 0.0000 8.4000
# 5 4.8360 6.8505 15.0017 0.0000 27.6710 0.0000
# 6 0.0000 0.0000 0.0000 8.4000 0.0000 22.3627
#
#
#
# Elastic Compliance Matrix: (Units=1/GPa)
#
#
# Indices 1 2 3 4 5 6 
#
# 1 0.056502 -0.003959 -0.003564 0.000000 -0.006963 0.000000
# 2 -0.003959 0.016039 -0.004558 0.000000 -0.000808 0.000000
# 3 -0.003564 -0.004558 0.008399 0.000000 -0.002802 0.000000
# 4 0.000000 0.000000 0.000000 0.028154 0.000000 -0.010576
# 5 -0.006963 -0.000808 -0.002802 0.000000 0.039075 0.000000
# 6 0.000000 0.000000 0.000000 -0.010576 0.000000 0.048690
#
#
# Mechanical properties :
#
#
# Convention : Reuss Voigt Hill
#
# Bulk Modulus (GPa) = 17.61218 44.87806 31.24512
# Shear Modulus (GPa) = 20.83805 29.89257 25.36531
#
# Velocity S-wave (km/s) = 3.34900 4.01115 3.69494
# Velocity P-wave (km/s) = 4.94307 6.75333 5.91783
#
# Compressibility (1/GPa) = 0.05677890
#
# Stress axis : x y z
#
# Youngs Moduli (GPa) = 17.69845 62.34915 119.06547
#
# Poissons Ratio (x) = 0.24684 0.42433
# Poissons Ratio (y) = 0.07007 0.54265
# Poissons Ratio (z) = 0.06307 0.28416
#
# Static dielectric constant tensor:
#      x y z
#    x 1.685310 0.000000 -0.002330 
#    y 0.000000 1.641290 0.000000 
#    z -0.002330 0.000000 1.650350 
# 
# From -- ./inp_files/319985.got.cif
#   From: 2010.05.17/outbox.ucp.g08.bks.cvg/sg12_160_cif.got.tgz:319985.got - 2010.06.11 11:47:21.
