data_PCOD9223116
_publ_section_title
;
Structure prediction by ZEFSAII (Michael W. Deem and Ramdas Pophale) SiO2 
 PCOD9223116
Probable space group: C 2/M
;
_chemical_formula_sum "Si O2"
_cell_formula_units_Z 64
_cell_length_a 14.876381
_cell_length_b 7.340693
_cell_length_c 26.565080
_cell_angle_alpha 90.000000
_cell_angle_beta 106.150908
_cell_angle_gamma 90.000000
_cell_volume 2786.490013
_symmetry_space_group_name_H-M "C 2/M"
_symmetry_group_IT_number 12
_symmetry_cell_setting 'monoclinic'
loop_
_space_group_symop_operation_xyz
x,y,z
-x,y,-z
-x,-y,-z
x,-y,z
1/2+x,1/2+y,z
1/2-x,1/2+y,-z
1/2-x,1/2-y,-z
1/2+x,1/2-y,z
loop_
_atom_site_type_symbol
_atom_site_label
_atom_site_fract_x
_atom_site_fract_y
_atom_site_fract_z
Si Si1 0.390010 0.705904 0.988390
Si Si2 0.705706 0.720281 0.418523
Si Si3 0.995094 0.788045 0.789465
Si Si4 0.199840 0.794196 0.123767
Si Si5 0.101867 0.713184 0.502512
Si Si6 0.393120 0.723303 0.101624
Si Si7 0.193164 0.720249 0.767680
Si Si8 0.682324 0.722563 0.300874
O O1 0.348334 0.500000 0.983265
O O2 0.378691 0.785825 0.042110
O O3 0.500000 0.689383 0.000000
O O4 0.355262 0.793967 0.931196
O O5 0.708062 0.500000 0.418704
O O6 0.807070 0.787250 0.453971
O O7 0.628579 0.772345 0.447939
O O8 0.685214 0.782788 0.358904
O O9 0.019082 0.719113 0.849851
O O10 0.091831 0.778587 0.772232
O O11 0.909760 0.713017 0.743603
O O12 0.973177 0.000000 0.793512
O O13 0.304394 0.795008 0.117750
O O14 0.222576 0.716039 0.181965
O O15 0.161378 0.000000 0.124139
O O16 0.098246 0.500000 0.515549
O O17 0.000000 0.790320 0.500000
O O18 0.392966 0.500000 0.100626
O O19 0.193304 0.500000 0.770967
O O20 0.225713 0.772939 0.717105
O O21 0.679607 0.500000 0.301403
#
# Coordination Sequence:
#
# PCOD9223116 Si02
#       8
#     8   8   8   8   8   8   8   8
#     4   9  17  26  41  67  89 108 146 193 231 275
#     4   9  18  33  51  74 102 131 166 200 234 281
#     4   9  18  32  49  69  94 125 162 200 241 288
#     4   9  17  29  46  65  87 115 148 190 234 281
#     4   9  18  33  53  76 103 133 162 197 240 281
#     4   9  17  29  46  64  85 115 148 188 235 282
#     4   9  18  32  50  71  95 126 163 200 242 289
#     4   9  18  32  51  72  98 132 164 198 238 283
#
# _framework density 22.967963999999998
#
# number of rings (size 3 to 8) (size 9 to 14) (size 15 to 20)
#    0.000    3.000    0.000    0.375    1.750    1.250 
#    0.000    3.125    0.000    1.500    0.000    0.000 
#    0.000    0.000    0.000    0.000    0.000    0.000 
#
# Total GULP energy -178416.889480 kJ/mol
# GULP energy per Si atom -5575.527796 kJ/mol
# Density = 2.291569 g / cm^3
# Si number density = 22.967964 Si / 1000 Ang^3
#
#
#
# Elastic Constant Matrix: (Units=GPa)
#
#
# Indices 1 2 3 4 5 6 
#
# 1 98.6592 -1.5206 51.3593 0.0000 -10.4386 0.0000
# 2 -1.5206 89.4992 -0.1110 0.0000 5.2580 0.0000
# 3 51.3593 -0.1110 135.8540 0.0000 -19.3139 0.0000
# 4 0.0000 0.0000 0.0000 7.1019 0.0000 -1.0070
# 5 -10.4386 5.2580 -19.3139 0.0000 23.7223 0.0000
# 6 0.0000 0.0000 0.0000 -1.0070 0.0000 -5.0679
#
#
#
# Elastic Compliance Matrix: (Units=1/GPa)
#
#
# Indices 1 2 3 4 5 6 
#
# 1 0.012695 0.000100 -0.004533 0.000000 0.001874 0.000000
# 2 0.000100 0.011340 -0.000429 0.000000 -0.002819 0.000000
# 3 -0.004533 -0.000429 0.009957 0.000000 0.006207 0.000000
# 4 0.000000 0.000000 0.000000 0.136948 0.000000 -0.027213
# 5 0.001874 -0.002819 0.006207 0.000000 0.048657 0.000000
# 6 0.000000 0.000000 0.000000 -0.027213 0.000000 -0.191913
#
#
# Mechanical properties :
#
#
# Convention : Reuss Voigt Hill
#
# Bulk Modulus (GPa) = 41.20755 47.05200 44.12977
# Shear Modulus (GPa) = 109.89412 23.43690 66.66551
#
# Velocity S-wave (km/s) = 6.92463 3.19786 5.39337
# Velocity P-wave (km/s) = 9.05065 5.84513 7.61839
#
# Compressibility (1/GPa) = 0.02426740
#
# Stress axis : x y z
#
# Youngs Moduli (GPa) = 78.76832 88.18290 100.43588
#
# Poissons Ratio (x) = -0.00882 0.45528
# Poissons Ratio (y) = -0.00788 0.04312
# Poissons Ratio (z) = 0.35706 0.03786
#
# Static dielectric constant tensor:
#      x y z
#    x 1.834960 0.000000 -0.003710 
#    y 0.000000 2.281730 0.000000 
#    z -0.003710 0.000000 1.929420 
# 
# From -- ./inp_files/359968.got.cif
#   From: 2010.05.17/outbox.cif.g08.bks.cpg/sg12_180_cif.got.tgz:359968.got - 2010.06.03 13:09:07.
