data_PCOD9223586
_publ_section_title
;
Structure prediction by ZEFSAII (Michael W. Deem and Ramdas Pophale) SiO2 
 PCOD9223586
Probable space group: C 2/M
;
_chemical_formula_sum "Si O2"
_cell_formula_units_Z 28
_cell_length_a 24.000000
_cell_length_b 15.000000
_cell_length_c 9.000000
_cell_angle_alpha 90.000000
_cell_angle_beta 60.000000
_cell_angle_gamma 90.000000
_cell_volume 2805.922308
_symmetry_space_group_name_H-M "C 2/M"
_symmetry_group_IT_number 12
_symmetry_cell_setting 'monoclinic'
loop_
_space_group_symop_operation_xyz
x,y,z
-x,y,-z
-x,-y,-z
x,-y,z
1/2+x,1/2+y,z
1/2-x,1/2+y,-z
1/2-x,1/2-y,-z
1/2+x,1/2-y,z
loop_
_atom_site_type_symbol
_atom_site_label
_atom_site_fract_x
_atom_site_fract_y
_atom_site_fract_z
Si Si1 0.101831 0.602852 0.661952
Si Si2 0.341274 0.398021 0.015095
Si Si3 0.597830 0.099514 0.316054
Si Si4 0.773306 0.397016 0.049478
Si Si5 0.977710 0.290546 0.807041
Si Si6 0.013532 0.899082 0.305050
Si Si7 0.846693 0.275380 0.170403
O O1 0.111744 0.500000 0.697826
O O2 0.108670 0.607248 0.475794
O O3 0.146910 0.674927 0.682158
O O4 0.029490 0.636986 0.787072
O O5 0.328195 0.500000 0.076991
O O6 0.336546 0.329601 0.158183
O O7 0.289477 0.371362 0.959597
O O8 0.411012 0.395888 0.842104
O O9 0.552318 0.174679 0.307965
O O10 0.570485 0.000000 0.321229
O O11 0.665928 0.104532 0.142583
O O12 0.765910 0.500000 0.111217
O O13 0.792497 0.329029 0.152057
O O14 0.009753 0.192503 0.743363
O O15 0.916460 0.288859 0.997419
O O16 0.000000 0.892055 0.500000
O O17 0.990750 0.000000 0.290826
#
# Coordination Sequence:
#
# PCOD9223586 Si02
#       7
#     8   8   8   8   8   8   8
#     4  11  21  32  48  73 104 132 161 204 253 292
#     4   9  18  33  53  73  96 131 169 202 240 292
#     4   9  18  31  49  73 100 132 167 201 239 291
#     4   9  17  32  53  74  98 131 168 200 238 293
#     4  10  19  32  50  71  99 135 168 197 240 299
#     4   9  17  30  50  76 100 121 156 207 249 280
#     4  10  20  32  48  74 103 128 162 207 249 288
#
# _framework density 9.9788940000000004
#
# number of rings (size 3 to 8) (size 9 to 14) (size 15 to 20)
#    0.000    2.429    0.000    3.000    0.000    3.429 
#    0.000    1.429    0.000    4.286    0.000    6.000 
#    0.000    0.000    0.000    0.000    0.000    0.000 
#
# Total GULP energy -156137.032411 kJ/mol
# GULP energy per Si atom -5576.322586 kJ/mol
# Density = 0.995618 g / cm^3
# Si number density = 9.978894 Si / 1000 Ang^3
#
#
#
# Elastic Constant Matrix: (Units=GPa)
#
#
# Indices 1 2 3 4 5 6 
#
# 1 50.5281 32.1026 0.0176 0.0000 13.2701 0.0000
# 2 32.1026 100.9259 15.3673 0.0000 24.4554 0.0000
# 3 0.0176 15.3673 15.0114 0.0000 13.3008 0.0000
# 4 0.0000 0.0000 0.0000 19.7162 0.0000 0.8679
# 5 13.2701 24.4554 13.3008 0.0000 17.2566 0.0000
# 6 0.0000 0.0000 0.0000 0.8679 0.0000 23.3761
#
#
#
# Elastic Compliance Matrix: (Units=1/GPa)
#
#
# Indices 1 2 3 4 5 6 
#
# 1 0.055908 -0.005113 0.116195 0.000000 -0.125306 0.000000
# 2 -0.005113 0.016161 0.000855 0.000000 -0.019630 0.000000
# 3 0.116195 0.000855 0.459992 0.000000 -0.445109 0.000000
# 4 0.000000 0.000000 0.000000 0.050803 0.000000 -0.001886
# 5 -0.125306 -0.019630 -0.445109 0.000000 0.525200 0.000000
# 6 0.000000 0.000000 0.000000 -0.001886 0.000000 0.042849
#
#
# Mechanical properties :
#
#
# Convention : Reuss Voigt Hill
#
# Bulk Modulus (GPa) = 1.32286 29.04893 15.18590
# Shear Modulus (GPa) = 4.24083 20.00164 12.12124
#
# Velocity S-wave (km/s) = 1.45929 3.16918 2.46711
# Velocity P-wave (km/s) = 1.87180 5.28946 3.96750
#
# Compressibility (1/GPa) = 0.75593586
#
# Stress axis : x y z
#
# Youngs Moduli (GPa) = 17.88661 61.87810 2.17395
#
# Poissons Ratio (x) = 0.31635 -0.25260
# Poissons Ratio (y) = 0.09145 -0.00186
# Poissons Ratio (z) = -2.07834 -0.05292
#
# Static dielectric constant tensor:
#      x y z
#    x 1.705940 0.000000 0.011660 
#    y 0.000000 1.751440 0.000000 
#    z 0.011660 0.000000 1.695530 
# 
# From -- ./inp_files/96776.got.cif
#   From: 2010.05.17/outbox.ucp.g08.bks.cvg/sg12_49_cif.got.tgz:96776.got - 2010.06.11 11:47:21.
