data_PCOD9223989
_publ_section_title
;
Structure prediction by ZEFSAII (Michael W. Deem and Ramdas Pophale) SiO2 
 PCOD9223989
Probable space group: C 2/M
;
_chemical_formula_sum "Si O2"
_cell_formula_units_Z 32
_cell_length_a 30.000000
_cell_length_b 9.000000
_cell_length_c 15.000000
_cell_angle_alpha 90.000000
_cell_angle_beta 130.000000
_cell_angle_gamma 90.000000
_cell_volume 3102.479995
_symmetry_space_group_name_H-M "C 2/M"
_symmetry_group_IT_number 12
_symmetry_cell_setting 'monoclinic'
loop_
_space_group_symop_operation_xyz
x,y,z
-x,y,-z
-x,-y,-z
x,-y,z
1/2+x,1/2+y,z
1/2-x,1/2+y,-z
1/2-x,1/2-y,-z
1/2+x,1/2-y,z
loop_
_atom_site_type_symbol
_atom_site_label
_atom_site_fract_x
_atom_site_fract_y
_atom_site_fract_z
Si Si1 0.704486 0.679051 0.137718
Si Si2 0.889730 0.178692 0.487541
Si Si3 0.635166 0.323487 0.204635
Si Si4 0.188952 0.179593 0.449614
Si Si5 0.041581 0.662092 0.971110
Si Si6 0.622620 0.321650 0.870408
Si Si7 0.498744 0.822069 0.726418
Si Si8 0.165484 0.678544 0.751010
O O1 0.699651 0.500000 0.130531
O O2 0.691762 0.726557 0.222087
O O3 0.769598 0.714683 0.196946
O O4 0.657428 0.729614 0.003640
O O5 0.837060 0.217264 0.487721
O O6 0.947974 0.237380 0.610063
O O7 0.878627 0.260693 0.380219
O O8 0.891935 0.000000 0.479422
O O9 0.631329 0.500000 0.206434
O O10 0.641935 0.268734 0.313867
O O11 0.586641 0.274255 0.072306
O O12 0.250000 0.250000 0.500000
O O13 0.194110 0.000000 0.452086
O O14 0.068228 0.500000 0.982051
O O15 0.003308 0.711299 0.838161
O O16 0.000000 0.640833 0.000000
O O17 0.614775 0.500000 0.863965
O O18 0.561517 0.239126 0.778644
O O19 0.658726 0.269140 0.832668
O O20 0.493087 0.000000 0.707136
O O21 0.159337 0.500000 0.754896
#
# Coordination Sequence:
#
# PCOD9223989 Si02
#       8
#     8   8   8   8   8   8   8   8
#     4   9  19  36  61  91 124 157 195 245 303 362
#     4  11  24  42  61  89 124 163 209 256 305 361
#     4  10  19  35  58  86 117 155 198 238 290 355
#     4  10  22  38  60  89 124 163 207 252 300 358
#     4  10  21  36  55  84 119 153 193 242 295 349
#     4  11  22  40  64  92 124 159 199 252 309 364
#     4  11  23  40  62  89 122 162 205 251 304 365
#     4  11  23  41  64  90 120 160 205 254 308 367
#
# _framework density 10.314329000000001
#
# number of rings (size 3 to 8) (size 9 to 14) (size 15 to 20)
#    0.000    1.625    1.250    3.375    0.000    3.750 
#    0.000    5.625    0.000    0.000    0.000    0.000 
#    0.000    0.000    0.000    0.000    0.000    0.000 
#
# Total GULP energy -178372.188592 kJ/mol
# GULP energy per Si atom -5574.130894 kJ/mol
# Density = 1.029085 g / cm^3
# Si number density = 10.314329 Si / 1000 Ang^3
#
#
#
# Elastic Constant Matrix: (Units=GPa)
#
#
# Indices 1 2 3 4 5 6 
#
# 1 20.1112 3.4273 -10.2925 0.0000 -5.5232 0.0000
# 2 3.4273 16.6507 3.1292 0.0000 -1.1913 0.0000
# 3 -10.2925 3.1292 57.5315 0.0000 -1.1134 0.0000
# 4 0.0000 0.0000 0.0000 28.7242 0.0000 5.2411
# 5 -5.5232 -1.1913 -1.1134 0.0000 35.0813 0.0000
# 6 0.0000 0.0000 0.0000 5.2411 0.0000 23.3161
#
#
#
# Elastic Compliance Matrix: (Units=1/GPa)
#
#
# Indices 1 2 3 4 5 6 
#
# 1 0.060766 -0.014052 0.011819 0.000000 0.009465 0.000000
# 2 -0.014052 0.064062 -0.006003 0.000000 -0.000227 0.000000
# 3 0.011819 -0.006003 0.019867 0.000000 0.002287 0.000000
# 4 0.000000 0.000000 0.000000 0.036303 0.000000 -0.008160
# 5 0.009465 -0.000227 0.002287 0.000000 0.030060 0.000000
# 6 0.000000 0.000000 0.000000 -0.008160 0.000000 0.044723
#
#
# Mechanical properties :
#
#
# Convention : Reuss Voigt Hill
#
# Bulk Modulus (GPa) = 7.79890 9.64682 8.72286
# Shear Modulus (GPa) = 15.87334 23.95961 19.91648
#
# Velocity S-wave (km/s) = 2.77696 3.41173 3.11058
# Velocity P-wave (km/s) = 3.75111 4.49516 4.13989
#
# Compressibility (1/GPa) = 0.12822315
#
# Stress axis : x y z
#
# Youngs Moduli (GPa) = 16.45660 15.60991 50.33494
#
# Poissons Ratio (x) = 0.21935 -0.59489
# Poissons Ratio (y) = 0.23124 0.30214
# Poissons Ratio (z) = -0.19449 0.09370
#
# Static dielectric constant tensor:
#      x y z
#    x 1.824630 0.000000 0.031400 
#    y 0.000000 1.805120 0.000000 
#    z 0.031400 0.000000 1.670070 
# 
# From -- ./inp_files/243774.got.cif
#   From: 2010.05.17/outbox.ucp.g08.bks.cvg/sg12_122_cif.got.tgz:243774.got - 2010.06.11 11:47:21.
