data_PCOD9223793
_publ_section_title
;
Structure prediction by ZEFSAII (Michael W. Deem and Ramdas Pophale) SiO2 
 PCOD9223793
Probable space group: C 2/M
;
_chemical_formula_sum "Si O2"
_cell_formula_units_Z 32
_cell_length_a 24.000000
_cell_length_b 9.000000
_cell_length_c 30.000000
_cell_angle_alpha 90.000000
_cell_angle_beta 30.000000
_cell_angle_gamma 90.000000
_cell_volume 3240.000000
_symmetry_space_group_name_H-M "C 2/M"
_symmetry_group_IT_number 12
_symmetry_cell_setting 'monoclinic'
loop_
_space_group_symop_operation_xyz
x,y,z
-x,y,-z
-x,-y,-z
x,-y,z
1/2+x,1/2+y,z
1/2-x,1/2+y,-z
1/2-x,1/2-y,-z
1/2+x,1/2-y,z
loop_
_atom_site_type_symbol
_atom_site_label
_atom_site_fract_x
_atom_site_fract_y
_atom_site_fract_z
Si Si1 0.736630 0.678524 0.922162
Si Si2 0.934838 0.329358 0.901161
Si Si3 0.659081 0.179224 0.790159
Si Si4 0.599483 0.671960 0.402702
Si Si5 0.858791 0.173068 0.405543
Si Si6 0.924863 0.168011 0.684364
Si Si7 0.979306 0.670201 0.765943
Si Si8 0.201298 0.826655 0.851470
O O1 0.746730 0.500000 0.918029
O O2 0.862285 0.738897 0.830453
O O3 0.668695 0.714386 0.924330
O O4 0.671399 0.738581 0.009479
O O5 0.918188 0.500000 0.927515
O O6 0.958881 0.331790 0.832481
O O7 0.047264 0.267026 0.844764
O O8 0.774601 0.234565 0.687544
O O9 0.654380 0.228810 0.844461
O O10 0.663273 0.000000 0.784906
O O11 0.500000 0.743149 0.500000
O O12 0.611664 0.500000 0.410147
O O13 0.559452 0.668649 0.379475
O O14 0.750000 0.250000 0.500000
O O15 0.960041 0.191623 0.370358
O O16 0.911282 0.244279 0.324904
O O17 0.837281 0.000000 0.414016
O O18 0.833503 0.292718 0.757498
O O19 0.882854 0.000000 0.724878
O O20 0.990088 0.500000 0.742290
O O21 0.178494 0.000000 0.859959
#
# Coordination Sequence:
#
# PCOD9223793 Si02
#       8
#     8   8   8   8   8   8   8   8
#     4  10  21  36  57  83 112 147 189 237 289 345
#     4  10  22  37  57  82 112 152 191 237 289 339
#     4   9  19  35  52  78 112 144 184 233 284 336
#     4   8  14  27  51  77 100 130 173 223 271 320
#     4  11  23  37  57  85 115 151 191 234 286 336
#     4   9  18  33  53  78 106 140 183 229 273 327
#     4  10  21  40  60  82 114 149 191 240 287 339
#     4  10  19  33  56  81 107 145 182 226 284 335
#
# _framework density 9.8765429999999999
#
# number of rings (size 3 to 8) (size 9 to 14) (size 15 to 20)
#    0.000    2.375    1.250    1.875    0.000    4.500 
#    0.000    6.250    0.000    6.000    0.000    0.000 
#    0.000    0.000    0.000    0.000    0.000    0.000 
#
# Total GULP energy -178252.063868 kJ/mol
# GULP energy per Si atom -5570.376996 kJ/mol
# Density = 0.985406 g / cm^3
# Si number density = 9.876543 Si / 1000 Ang^3
#
#
#
# Elastic Constant Matrix: (Units=GPa)
#
#
# Indices 1 2 3 4 5 6 
#
# 1 41.5224 -3.7713 11.8300 -0.0001 -1.4607 0.0028
# 2 -3.7713 0.0004 6.6877 0.0017 5.8777 -0.0046
# 3 11.8300 6.6877 67.5923 0.0023 18.8794 -0.0055
# 4 -0.0001 0.0017 0.0023 26.4062 -0.0011 3.8092
# 5 -1.4607 5.8777 18.8794 -0.0011 12.9591 0.0020
# 6 0.0028 -0.0046 -0.0055 3.8092 0.0020 14.8085
#
#
#
# Elastic Compliance Matrix: (Units=1/GPa)
#
#
# Indices 1 2 3 4 5 6 
#
# 1 0.025848 -0.023056 -0.010078 0.000007 0.028053 -0.000021
# 2 -0.023056 -0.342646 -0.008001 0.000050 0.164469 -0.000141
# 3 -0.010078 -0.008001 0.028080 -0.000006 -0.038415 0.000017
# 4 0.000007 0.000050 -0.000006 0.039329 -0.000008 -0.010117
# 5 0.028053 0.164469 -0.038415 -0.000008 0.061697 0.000026
# 6 -0.000021 -0.000141 0.000017 -0.010117 0.000026 0.070131
#
#
# Mechanical properties :
#
#
# Convention : Reuss Voigt Hill
#
# Bulk Modulus (GPa) = -2.69550 15.40086 6.35268
# Shear Modulus (GPa) = -31.45564 17.12600 -7.16482
#
# Velocity S-wave (km/s) = -3.99487 2.94769 -1.90658
# Velocity P-wave (km/s) = 4.75880 4.40440 1.27425
#
# Compressibility (1/GPa) = -0.37098881
#
# Stress axis : x y z
#
# Youngs Moduli (GPa) = 38.68843 -2.91846 35.61259
#
# Poissons Ratio (x) = -0.06729 0.35891
# Poissons Ratio (y) = 0.89199 0.28494
# Poissons Ratio (z) = 0.38991 -0.02335
#
# Static dielectric constant tensor:
#      x y z
#    x 1.773640 0.000000 0.002620 
#    y 0.000000 1.769450 0.000000 
#    z 0.002620 0.000000 1.691840 
# 
# From -- ./inp_files/382390.got.cif
#   From: 2010.05.17/outbox.ucp.g08.bks.cvg/sg12_192_cif.got.tgz:382390.got - 2010.06.11 11:47:21.
