data_PCOD9223901
_publ_section_title
;
Structure prediction by ZEFSAII (Michael W. Deem and Ramdas Pophale) SiO2 
 PCOD9223901
Probable space group: C 2/M
;
_chemical_formula_sum "Si O2"
_cell_formula_units_Z 32
_cell_length_a 30.000000
_cell_length_b 9.000000
_cell_length_c 24.000000
_cell_angle_alpha 90.000000
_cell_angle_beta 30.000000
_cell_angle_gamma 90.000000
_cell_volume 3240.000000
_symmetry_space_group_name_H-M "C 2/M"
_symmetry_group_IT_number 12
_symmetry_cell_setting 'monoclinic'
loop_
_space_group_symop_operation_xyz
x,y,z
-x,y,-z
-x,-y,-z
x,-y,z
1/2+x,1/2+y,z
1/2-x,1/2+y,-z
1/2-x,1/2-y,-z
1/2+x,1/2-y,z
loop_
_atom_site_type_symbol
_atom_site_label
_atom_site_fract_x
_atom_site_fract_y
_atom_site_fract_z
Si Si1 0.187096 0.671167 0.263767
Si Si2 0.338904 0.829532 0.266295
Si Si3 0.905288 0.827874 0.728836
Si Si4 0.943108 0.333594 0.492647
Si Si5 0.670325 0.830328 0.496728
Si Si6 0.496333 0.322221 0.263448
Si Si7 0.641324 0.824332 0.881612
Si Si8 0.032971 0.328537 0.107470
O O1 0.217937 0.500000 0.232914
O O2 0.164609 0.720134 0.225352
O O3 0.104403 0.681694 0.396610
O O4 0.258866 0.786149 0.208894
O O5 0.264853 0.746029 0.382854
O O6 0.363124 0.768381 0.177809
O O7 0.429987 0.831458 0.201485
O O8 0.307225 0.000000 0.292122
O O9 0.991294 0.796914 0.596627
O O10 0.936519 0.790131 0.757455
O O11 0.878543 0.000000 0.755377
O O12 0.986109 0.500000 0.443531
O O13 0.871289 0.333683 0.520624
O O14 0.598621 0.748873 0.614383
O O15 0.680724 0.000000 0.504921
O O16 0.485974 0.500000 0.271062
O O17 0.534909 0.258723 0.163799
O O18 0.620345 0.000000 0.901158
O O19 0.583430 0.767847 0.997301
O O20 0.063335 0.500000 0.083478
#
# Coordination Sequence:
#
# PCOD9223901 Si02
#       8
#     8   8   8   8   8   8   8   8
#     4  11  21  34  54  83 116 148 185 228 280 337
#     4  10  20  36  60  88 117 146 183 232 286 341
#     4  10  21  35  54  81 111 146 189 231 277 334
#     4   9  18  32  50  78 116 150 180 221 276 336
#     4  10  19  34  57  85 118 153 186 228 281 337
#     4  10  22  40  59  82 114 151 193 238 281 330
#     4  10  21  38  60  85 116 149 186 233 283 336
#     4  10  22  40  61  84 110 149 194 235 283 337
#
# _framework density 9.8765429999999999
#
# number of rings (size 3 to 8) (size 9 to 14) (size 15 to 20)
#    0.000    2.000    1.250    2.250    0.000    7.500 
#    0.000    0.625    0.000    2.250    0.000    0.000 
#    0.000    0.000    0.000    0.000    0.000    0.000 
#
# Total GULP energy -178377.546732 kJ/mol
# GULP energy per Si atom -5574.298335 kJ/mol
# Density = 0.985406 g / cm^3
# Si number density = 9.876543 Si / 1000 Ang^3
#
#
#
# Elastic Constant Matrix: (Units=GPa)
#
#
# Indices 1 2 3 4 5 6 
#
# 1 45.4406 7.5233 0.3438 -0.0022 7.5561 0.0001
# 2 7.5233 31.5610 -2.1419 0.0001 10.7888 -0.0047
# 3 0.3438 -2.1419 8.8379 -0.0046 14.8671 -0.0008
# 4 -0.0022 0.0001 -0.0046 27.1823 -0.0014 4.5475
# 5 7.5561 10.7888 14.8671 -0.0014 19.6075 0.0011
# 6 0.0001 -0.0047 -0.0008 4.5475 0.0011 17.2188
#
#
#
# Elastic Compliance Matrix: (Units=1/GPa)
#
#
# Indices 1 2 3 4 5 6 
#
# 1 0.022447 -0.008475 -0.013720 0.000000 0.006416 -0.000004
# 2 -0.008475 0.017612 -0.055919 -0.000009 0.035975 0.000002
# 3 -0.013720 -0.055919 -0.143290 -0.000013 0.144703 -0.000028
# 4 0.000000 -0.000009 -0.000013 0.038489 0.000018 -0.010165
# 5 0.006416 0.035975 0.144703 0.000018 -0.080986 0.000017
# 6 -0.000004 0.000002 -0.000028 -0.010165 0.000017 0.060761
#
#
# Mechanical properties :
#
#
# Convention : Reuss Voigt Hill
#
# Bulk Modulus (GPa) = -3.85417 10.80998 3.47790
# Shear Modulus (GPa) = -328.42020 18.14268 -155.13876
#
# Velocity S-wave (km/s) = -12.90828 3.03392 -8.87184
# Velocity P-wave (km/s) = 14.97065 4.21394 10.15783
#
# Compressibility (1/GPa) = -0.25945932
#
# Stress axis : x y z
#
# Youngs Moduli (GPa) = 44.54968 56.77921 -6.97888
#
# Poissons Ratio (x) = 0.48121 -0.09575
# Poissons Ratio (y) = 0.37756 -0.39025
# Poissons Ratio (z) = 0.61122 3.17506
#
# Static dielectric constant tensor:
#      x y z
#    x 1.725420 0.000000 -0.033210 
#    y 0.000000 1.701960 0.000000 
#    z -0.033210 0.000000 1.692090 
# 
# From -- ./inp_files/353397.got.cif
#   From: 2010.05.17/outbox.ucp.g08.bks.cvg/sg12_177_cif.got.tgz:353397.got - 2010.06.11 11:47:21.
