data_PCOD9223589
_publ_section_title
;
Structure prediction by ZEFSAII (Michael W. Deem and Ramdas Pophale) SiO2 
 PCOD9223589
Probable space group: C 2/M
;
_chemical_formula_sum "Si O2"
_cell_formula_units_Z 32
_cell_length_a 30.000000
_cell_length_b 9.000000
_cell_length_c 12.000000
_cell_angle_alpha 90.000000
_cell_angle_beta 90.000000
_cell_angle_gamma 90.000000
_cell_volume 3240.000000
_symmetry_space_group_name_H-M "C 2/M"
_symmetry_group_IT_number 12
_symmetry_cell_setting 'monoclinic'
loop_
_space_group_symop_operation_xyz
x,y,z
-x,y,-z
-x,-y,-z
x,-y,z
1/2+x,1/2+y,z
1/2-x,1/2+y,-z
1/2-x,1/2-y,-z
1/2+x,1/2-y,z
loop_
_atom_site_type_symbol
_atom_site_label
_atom_site_fract_x
_atom_site_fract_y
_atom_site_fract_z
Si Si1 0.596578 0.680739 0.272126
Si Si2 0.238074 0.176274 0.256341
Si Si3 0.425484 0.678400 0.204456
Si Si4 0.113032 0.819537 0.018303
Si Si5 0.827188 0.178759 0.558740
Si Si6 0.704854 0.177264 0.045787
Si Si7 0.001368 0.818514 0.371896
Si Si8 0.171892 0.178568 0.695695
O O1 0.599807 0.500000 0.270414
O O2 0.601433 0.726957 0.143915
O O3 0.634039 0.734095 0.358845
O O4 0.548530 0.720782 0.318954
O O5 0.219448 0.205669 0.379805
O O6 0.206546 0.267009 0.173316
O O7 0.287988 0.234724 0.246406
O O8 0.234528 0.000000 0.233041
O O9 0.432143 0.500000 0.201342
O O10 0.462237 0.736647 0.290332
O O11 0.376326 0.704850 0.252706
O O12 0.422724 0.726497 0.075518
O O13 0.160904 0.747995 0.992447
O O14 0.117261 0.000000 0.014761
O O15 0.829485 0.230621 0.432712
O O16 0.832814 0.000000 0.552398
O O17 0.705625 0.000000 0.035747
O O18 0.750000 0.250000 0.000000
O O19 0.000000 0.768029 0.500000
O O20 0.998407 0.000000 0.375299
O O21 0.180743 0.000000 0.701170
#
# Coordination Sequence:
#
# PCOD9223589 Si02
#       8
#     8   8   8   8   8   8   8   8
#     4   9  16  28  49  74 106 147 183 226 284 335
#     4  11  21  35  53  77 109 142 183 229 278 333
#     4   9  18  30  47  74 107 142 179 224 273 325
#     4  10  19  34  53  76 112 148 181 225 279 331
#     4   9  17  30  49  73 105 144 181 226 280 330
#     4  12  24  38  57  80 108 145 188 230 273 328
#     4   9  16  27  46  77 112 143 180 225 276 332
#     4  10  19  32  50  74 107 145 187 232 280 328
#
# _framework density 9.8765429999999999
#
# number of rings (size 3 to 8) (size 9 to 14) (size 15 to 20)
#    0.000    2.125    1.250    3.375    0.000    4.500 
#    0.000    3.125    0.000    0.000    0.000    2.625 
#    0.000    3.500    0.000    0.000    0.000    0.000 
#
# Total GULP energy -178487.783820 kJ/mol
# GULP energy per Si atom -5577.743244 kJ/mol
# Density = 0.985406 g / cm^3
# Si number density = 9.876543 Si / 1000 Ang^3
#
#
#
# Elastic Constant Matrix: (Units=GPa)
#
#
# Indices 1 2 3 4 5 6 
#
# 1 96.9315 13.6003 49.4822 0.0000 23.8395 0.0000
# 2 13.6003 27.0897 6.7950 0.0000 -2.3439 0.0000
# 3 49.4822 6.7950 118.7218 0.0000 9.7492 0.0000
# 4 0.0000 0.0000 0.0000 12.6003 0.0000 2.0628
# 5 23.8395 -2.3439 9.7492 0.0000 27.2767 0.0000
# 6 0.0000 0.0000 0.0000 2.0628 0.0000 16.2481
#
#
#
# Elastic Compliance Matrix: (Units=1/GPa)
#
#
# Indices 1 2 3 4 5 6 
#
# 1 0.018118 -0.008883 -0.005852 0.000000 -0.014507 0.000000
# 2 -0.008883 0.042259 0.000359 0.000000 0.011267 0.000000
# 3 -0.005852 0.000359 0.010734 0.000000 0.001309 0.000000
# 4 0.000000 0.000000 0.000000 0.081048 0.000000 -0.010289
# 5 -0.014507 0.011267 0.001309 0.000000 0.049840 0.000000
# 6 0.000000 0.000000 0.000000 -0.010289 0.000000 0.062852
#
#
# Mechanical properties :
#
#
# Convention : Reuss Voigt Hill
#
# Bulk Modulus (GPa) = 23.60825 42.49978 33.05401
# Shear Modulus (GPa) = 16.24836 22.74940 19.49888
#
# Velocity S-wave (km/s) = 2.87116 3.39734 3.14527
# Velocity P-wave (km/s) = 4.79261 6.07877 5.47359
#
# Compressibility (1/GPa) = 0.04235808
#
# Stress axis : x y z
#
# Youngs Moduli (GPa) = 55.19366 23.66351 93.16174
#
# Poissons Ratio (x) = 0.21021 0.54516
# Poissons Ratio (y) = 0.49031 -0.03341
# Poissons Ratio (z) = 0.32298 -0.00849
#
# Static dielectric constant tensor:
#      x y z
#    x 1.690340 0.000000 -0.007680 
#    y 0.000000 1.649450 0.000000 
#    z -0.007680 0.000000 1.781320 
# 
# From -- ./inp_files/187536.got.cif
#   From: 2010.05.17/outbox.ucp.g08.bks.cvg/sg12_94_cif.got.tgz:187536.got - 2010.06.11 11:47:21.
