data_PCOD9223861
_publ_section_title
;
Structure prediction by ZEFSAII (Michael W. Deem and Ramdas Pophale) SiO2 
 PCOD9223861
Probable space group: C 2/M
;
_chemical_formula_sum "Si O2"
_cell_formula_units_Z 28
_cell_length_a 30.000000
_cell_length_b 9.000000
_cell_length_c 12.000000
_cell_angle_alpha 90.000000
_cell_angle_beta 110.000000
_cell_angle_gamma 90.000000
_cell_volume 3044.604091
_symmetry_space_group_name_H-M "C 2/M"
_symmetry_group_IT_number 12
_symmetry_cell_setting 'monoclinic'
loop_
_space_group_symop_operation_xyz
x,y,z
-x,y,-z
-x,-y,-z
x,-y,z
1/2+x,1/2+y,z
1/2-x,1/2+y,-z
1/2-x,1/2-y,-z
1/2+x,1/2-y,z
loop_
_atom_site_type_symbol
_atom_site_label
_atom_site_fract_x
_atom_site_fract_y
_atom_site_fract_z
Si Si1 0.055239 0.677626 0.916123
Si Si2 0.359009 0.669637 0.723808
Si Si3 0.306060 0.172980 0.858864
Si Si4 0.803293 0.174495 0.288955
Si Si5 0.851757 0.674337 0.127201
Si Si6 0.297478 0.830167 0.504021
Si Si7 0.950601 0.321764 0.823567
O O1 0.059724 0.500000 0.912720
O O2 0.099702 0.734794 0.885586
O O3 0.003223 0.715581 0.828650
O O4 0.053824 0.704818 0.047011
O O5 0.346467 0.500000 0.686428
O O6 0.341974 0.711460 0.833281
O O7 0.332026 0.796167 0.633315
O O8 0.412939 0.707457 0.744644
O O9 0.252524 0.207564 0.778285
O O10 0.317398 0.000000 0.838353
O O11 0.312830 0.180934 0.996326
O O12 0.833909 0.231321 0.213786
O O13 0.818308 0.257444 0.412466
O O14 0.807182 0.000000 0.307305
O O15 0.857126 0.500000 0.162974
O O16 0.250000 0.750000 0.500000
O O17 0.287529 0.000000 0.476756
O O18 0.941820 0.500000 0.798327
#
# Coordination Sequence:
#
# PCOD9223861 Si02
#       7
#     8   8   8   8   8   8   8
#     4   8  15  29  55  82 107 144 187 225 270 325
#     4  12  23  34  54  83 114 146 180 224 279 329
#     4  10  20  35  55  77 110 151 188 224 266 320
#     4  11  23  37  54  80 112 150 188 224 271 326
#     4  10  19  34  55  81 112 150 189 225 268 324
#     4  12  24  40  60  81 106 142 185 231 274 320
#     4   9  16  32  55  80 109 144 184 228 273 323
#
# _framework density 9.1965979999999998
#
# number of rings (size 3 to 8) (size 9 to 14) (size 15 to 20)
#    0.000    1.714    2.857    4.286    0.000    1.143 
#    0.000    2.143    0.000    0.857    0.000    6.000 
#    0.000    0.000    0.000    0.000    0.000    0.000 
#
# Total GULP energy -155934.550212 kJ/mol
# GULP energy per Si atom -5569.091079 kJ/mol
# Density = 0.917567 g / cm^3
# Si number density = 9.196598 Si / 1000 Ang^3
#
#
#
# Elastic Constant Matrix: (Units=GPa)
#
#
# Indices 1 2 3 4 5 6 
#
# 1 34.5604 23.7247 13.0834 0.0000 -1.5946 0.0000
# 2 23.7247 16.6510 7.0769 0.0000 -14.8284 0.0000
# 3 13.0834 7.0769 30.6885 0.0000 -17.7862 0.0000
# 4 0.0000 0.0000 0.0000 18.2865 0.0000 -5.8927
# 5 -1.5946 -14.8284 -17.7862 0.0000 7.8627 0.0000
# 6 0.0000 0.0000 0.0000 -5.8927 0.0000 25.5707
#
#
#
# Elastic Compliance Matrix: (Units=1/GPa)
#
#
# Indices 1 2 3 4 5 6 
#
# 1 0.023177 0.002075 0.017255 0.000000 0.047647 0.000000
# 2 0.002075 0.016298 -0.043127 0.000000 -0.066400 0.000000
# 3 0.017255 -0.043127 0.031943 0.000000 -0.005575 0.000000
# 4 0.000000 0.000000 0.000000 0.059072 0.000000 0.013613
# 5 0.047647 -0.066400 -0.005575 0.000000 -0.000990 0.000000
# 6 0.000000 0.000000 0.000000 0.013613 0.000000 0.042244
#
#
# Mechanical properties :
#
#
# Convention : Reuss Voigt Hill
#
# Bulk Modulus (GPa) = 41.97330 18.85222 30.41276
# Shear Modulus (GPa) = 21.99938 12.87829 17.43884
#
# Velocity S-wave (km/s) = 3.46216 2.64894 3.08249
# Velocity P-wave (km/s) = 6.23311 4.43031 5.40737
#
# Compressibility (1/GPa) = 0.02382467
#
# Stress axis : x y z
#
# Youngs Moduli (GPa) = 43.14664 61.35860 31.30530
#
# Poissons Ratio (x) = -0.12730 -0.54018
# Poissons Ratio (y) = -0.08952 1.35009
# Poissons Ratio (z) = -0.74451 2.64619
#
# Static dielectric constant tensor:
#      x y z
#    x 1.622250 0.000000 0.035820 
#    y 0.000000 1.616810 0.000000 
#    z 0.035820 0.000000 1.668440 
# 
# From -- ./inp_files/186822.got.cif
#   From: 2010.05.17/outbox.ucp.g08.bks.cvg/sg12_94_cif.got.tgz:186822.got - 2010.06.11 11:47:21.
