data_PCOD9223924
_publ_section_title
;
Structure prediction by ZEFSAII (Michael W. Deem and Ramdas Pophale) SiO2 
 PCOD9223924
Probable space group: C 2/M
;
_chemical_formula_sum "Si O2"
_cell_formula_units_Z 28
_cell_length_a 18.000000
_cell_length_b 18.000000
_cell_length_c 27.000000
_cell_angle_alpha 90.000000
_cell_angle_beta 160.000000
_cell_angle_gamma 90.000000
_cell_volume 2991.992214
_symmetry_space_group_name_H-M "C 2/M"
_symmetry_group_IT_number 12
_symmetry_cell_setting 'monoclinic'
loop_
_space_group_symop_operation_xyz
x,y,z
-x,y,-z
-x,-y,-z
x,-y,z
1/2+x,1/2+y,z
1/2-x,1/2+y,-z
1/2-x,1/2-y,-z
1/2+x,1/2-y,z
loop_
_atom_site_type_symbol
_atom_site_label
_atom_site_fract_x
_atom_site_fract_y
_atom_site_fract_z
Si Si1 0.593279 0.685488 0.162063
Si Si2 0.249434 0.215065 0.650931
Si Si3 0.938227 0.174465 0.698250
Si Si4 0.318999 0.084237 0.757218
Si Si5 0.301706 0.817171 0.842727
Si Si6 0.835835 0.086250 0.068972
Si Si7 0.006296 0.587125 0.443538
O O1 0.619297 0.744684 0.222916
O O2 0.611771 0.737991 0.125408
O O3 0.395278 0.632998 0.056429
O O4 0.798887 0.630834 0.293224
O O5 0.354656 0.246362 0.667135
O O6 0.252178 0.128915 0.666120
O O7 0.000000 0.240232 0.500000
O O8 0.720878 0.125647 0.555895
O O9 0.093958 0.185632 0.748864
O O10 0.060985 0.130153 0.819694
O O11 0.253104 0.130503 0.764975
O O12 0.239614 0.000000 0.709418
O O13 0.580484 0.083712 0.918620
O O14 0.500000 0.848264 0.000000
O O15 0.916690 0.000000 0.116972
O O16 0.000858 0.500000 0.428548
O O17 0.000000 0.593345 0.500000
#
# Coordination Sequence:
#
# PCOD9223924 Si02
#       7
#     8   8   8   8   8   8   8
#     4  10  20  35  56  85 112 143 184 225 279 327
#     4  10  19  37  59  82 108 143 188 234 268 319
#     4  11  20  34  57  85 112 145 179 226 281 331
#     4  10  23  38  56  82 110 148 189 226 276 330
#     4  11  24  37  55  81 114 151 180 228 278 333
#     4  10  19  34  59  85 110 139 182 237 279 317
#     4  11  19  33  58  89 113 140 182 231 279 323
#
# _framework density 9.3583130000000008
#
# number of rings (size 3 to 8) (size 9 to 14) (size 15 to 20)
#    0.000    1.571    5.714    0.857    2.000    4.000 
#    0.000    0.000    0.000    3.429    0.000    0.000 
#    0.000    0.000    0.000    0.000    0.000    0.000 
#
# Total GULP energy -156131.608783 kJ/mol
# GULP energy per Si atom -5576.128885 kJ/mol
# Density = 0.933701 g / cm^3
# Si number density = 9.358313 Si / 1000 Ang^3
#
#
#
# Elastic Constant Matrix: (Units=GPa)
#
#
# Indices 1 2 3 4 5 6 
#
# 1 114.2229 60.8209 9.1381 0.0082 39.6740 0.0021
# 2 60.8209 128.6425 3.8586 -0.0006 -1.2135 -0.0062
# 3 9.1381 3.8586 17.0946 -0.0069 16.2563 -0.0129
# 4 0.0082 -0.0006 -0.0069 25.2598 -0.0080 1.9111
# 5 39.6740 -1.2135 16.2563 -0.0080 24.9876 0.0016
# 6 0.0021 -0.0062 -0.0129 1.9111 0.0016 23.2191
#
#
#
# Elastic Compliance Matrix: (Units=1/GPa)
#
#
# Indices 1 2 3 4 5 6 
#
# 1 -0.027869 0.016605 -0.083121 0.000022 0.099132 -0.000048
# 2 0.016605 -0.001910 0.043832 -0.000013 -0.054973 0.000027
# 3 -0.083121 0.043832 -0.090445 0.000068 0.192945 -0.000050
# 4 0.000022 -0.000013 0.000068 0.039837 -0.000066 -0.003279
# 5 0.099132 -0.054973 0.192945 -0.000066 -0.245572 0.000105
# 6 -0.000048 0.000027 -0.000050 -0.003279 0.000105 0.043338
#
#
# Mechanical properties :
#
#
# Convention : Reuss Voigt Hill
#
# Bulk Modulus (GPa) = -6.03887 45.28835 19.62474
# Shear Modulus (GPa) = -17.09685 27.10280 5.00297
#
# Velocity S-wave (km/s) = -3.02563 3.80947 1.63671
# Velocity P-wave (km/s) = 3.92929 6.60294 3.75229
#
# Compressibility (1/GPa) = -0.16559386
#
# Stress axis : x y z
#
# Youngs Moduli (GPa) = -35.88168 -523.47061 -11.05640
#
# Poissons Ratio (x) = 8.69206 -0.91902
# Poissons Ratio (y) = 0.59580 0.48462
# Poissons Ratio (z) = -2.98251 22.94455
#
# Static dielectric constant tensor:
#      x y z
#    x 1.641060 0.000000 0.008560 
#    y 0.000000 1.690810 -0.000020 
#    z 0.008560 -0.000020 1.689120 
# 
# From -- ./inp_files/158216.got.cif
#   From: 2010.05.17/outbox.ucp.g08.bks.cvg/sg12_80_cif.got.tgz:158216.got - 2010.06.11 11:47:21.
