data_PCOD9223543
_publ_section_title
;
Structure prediction by ZEFSAII (Michael W. Deem and Ramdas Pophale) SiO2 
 PCOD9223543
Probable space group: C 2/M
;
_chemical_formula_sum "Si O2"
_cell_formula_units_Z 32
_cell_length_a 18.000000
_cell_length_b 9.000000
_cell_length_c 30.000000
_cell_angle_alpha 90.000000
_cell_angle_beta 140.000000
_cell_angle_gamma 90.000000
_cell_volume 3123.947783
_symmetry_space_group_name_H-M "C 2/M"
_symmetry_group_IT_number 12
_symmetry_cell_setting 'monoclinic'
loop_
_space_group_symop_operation_xyz
x,y,z
-x,y,-z
-x,-y,-z
x,-y,z
1/2+x,1/2+y,z
1/2-x,1/2+y,-z
1/2-x,1/2-y,-z
1/2+x,1/2-y,z
loop_
_atom_site_type_symbol
_atom_site_label
_atom_site_fract_x
_atom_site_fract_y
_atom_site_fract_z
Si Si1 0.088976 0.672296 0.793485
Si Si2 0.477675 0.331396 0.658778
Si Si3 0.601627 0.171823 0.214835
Si Si4 0.744615 0.171836 0.428793
Si Si5 0.568736 0.329519 0.925321
Si Si6 0.738398 0.829627 0.065417
Si Si7 0.227239 0.328633 0.648251
Si Si8 0.487557 0.668103 0.426073
O O1 0.118556 0.500000 0.802536
O O2 0.198091 0.762050 0.862606
O O3 0.039109 0.734302 0.724475
O O4 0.990572 0.683705 0.786710
O O5 0.473393 0.500000 0.673324
O O6 0.347893 0.274482 0.589660
O O7 0.535692 0.328602 0.637290
O O8 0.535224 0.229455 0.140790
O O9 0.706891 0.276820 0.277208
O O10 0.636687 0.000000 0.227027
O O11 0.729565 0.220361 0.370772
O O12 0.877893 0.192519 0.502430
O O13 0.714951 0.000000 0.421879
O O14 0.533281 0.500000 0.915041
O O15 0.665517 0.327180 0.930251
O O16 0.631801 0.264613 0.997603
O O17 0.705290 0.000000 0.057337
O O18 0.249787 0.500000 0.648652
O O19 0.092319 0.292262 0.589546
O O20 0.457912 0.500000 0.428627
#
# Coordination Sequence:
#
# PCOD9223543 Si02
#       8
#     8   8   8   8   8   8   8   8
#     4  10  19  31  50  75 105 143 181 221 270 323
#     4  11  22  37  58  83 110 142 182 228 274 327
#     4  10  19  32  51  74 105 143 181 221 270 325
#     4  11  22  39  61  82 108 143 180 224 277 333
#     4   9  16  26  42  68 103 138 176 220 267 319
#     4   9  16  26  42  67 102 140 177 219 267 318
#     4  12  24  37  57  83 110 142 184 230 275 325
#     4  10  24  42  58  79 110 145 181 224 278 332
#
# _framework density 10.243449
#
# number of rings (size 3 to 8) (size 9 to 14) (size 15 to 20)
#    0.000    1.750    1.250    4.125    0.000    7.500 
#    0.000    0.000    0.000    0.000    0.000    0.875 
#    0.000    7.000    0.000    0.000    0.000    0.000 
#
# Total GULP energy -178678.922927 kJ/mol
# GULP energy per Si atom -5583.716341 kJ/mol
# Density = 1.022013 g / cm^3
# Si number density = 10.243449 Si / 1000 Ang^3
#
#
#
# Elastic Constant Matrix: (Units=GPa)
#
#
# Indices 1 2 3 4 5 6 
#
# 1 14.5146 6.0898 -0.2947 0.0000 -0.8053 0.0000
# 2 6.0898 53.0974 23.4619 0.0000 -11.6213 0.0000
# 3 -0.2947 23.4619 98.4529 0.0000 -12.8954 0.0000
# 4 0.0000 0.0000 0.0000 35.0001 0.0000 4.0103
# 5 -0.8053 -11.6213 -12.8954 0.0000 6.6483 0.0000
# 6 0.0000 0.0000 0.0000 4.0103 0.0000 10.6797
#
#
#
# Elastic Compliance Matrix: (Units=1/GPa)
#
#
# Indices 1 2 3 4 5 6 
#
# 1 0.073022 -0.010485 0.001978 0.000000 -0.005647 0.000000
# 2 -0.010485 0.032020 -0.000666 0.000000 0.053408 0.000000
# 3 0.001978 -0.000666 0.013675 0.000000 0.025599 0.000000
# 4 0.000000 0.000000 0.000000 0.029856 0.000000 -0.011211
# 5 -0.005647 0.053408 0.025599 0.000000 0.292743 0.000000
# 6 0.000000 0.000000 0.000000 -0.011211 0.000000 0.097846
#
#
# Mechanical properties :
#
#
# Convention : Reuss Voigt Hill
#
# Bulk Modulus (GPa) = 9.96321 24.95319 17.45820
# Shear Modulus (GPa) = 8.46074 19.58613 14.02344
#
# Velocity S-wave (km/s) = 2.03440 3.09533 2.61915
# Velocity P-wave (km/s) = 3.22369 4.99813 4.20556
#
# Compressibility (1/GPa) = 0.10036930
#
# Stress axis : x y z
#
# Youngs Moduli (GPa) = 13.69455 31.23088 73.12668
#
# Poissons Ratio (x) = 0.32744 -0.14461
# Poissons Ratio (y) = 0.14358 0.04873
# Poissons Ratio (z) = -0.02708 0.02081
#
# Static dielectric constant tensor:
#      x y z
#    x 1.773830 0.000000 -0.001180 
#    y 0.000000 1.684170 0.000000 
#    z -0.001180 0.000000 1.720870 
# 
# From -- ./inp_files/378393.got.cif
#   From: 2010.05.17/outbox.ucp.g08.bks.cvg/sg12_190_cif.got.tgz:378393.got - 2010.06.11 11:47:21.
