data_PCOD9223468
_publ_section_title
;
Structure prediction by ZEFSAII (Michael W. Deem and Ramdas Pophale) SiO2 
 PCOD9223468
Probable space group: C 2/M
;
_chemical_formula_sum "Si O2"
_cell_formula_units_Z 24
_cell_length_a 21.000000
_cell_length_b 9.000000
_cell_length_c 30.000000
_cell_angle_alpha 90.000000
_cell_angle_beta 30.000000
_cell_angle_gamma 90.000000
_cell_volume 2835.000000
_symmetry_space_group_name_H-M "C 2/M"
_symmetry_group_IT_number 12
_symmetry_cell_setting 'monoclinic'
loop_
_space_group_symop_operation_xyz
x,y,z
-x,y,-z
-x,-y,-z
x,-y,z
1/2+x,1/2+y,z
1/2-x,1/2+y,-z
1/2-x,1/2-y,-z
1/2+x,1/2-y,z
loop_
_atom_site_type_symbol
_atom_site_label
_atom_site_fract_x
_atom_site_fract_y
_atom_site_fract_z
Si Si1 0.573355 0.823641 0.897240
Si Si2 0.716727 0.678598 0.568832
Si Si3 0.944877 0.323970 0.742409
Si Si4 0.154416 0.828553 0.284997
Si Si5 0.939981 0.825770 0.489766
Si Si6 0.668316 0.321706 0.932737
O O1 0.698467 0.799385 0.790983
O O2 0.627437 0.760306 0.911557
O O3 0.548649 0.000000 0.915203
O O4 0.441100 0.739250 0.967822
O O5 0.717923 0.500000 0.564080
O O6 0.750000 0.750000 0.500000
O O7 0.576298 0.735232 0.668731
O O8 0.822957 0.735346 0.539459
O O9 0.969921 0.500000 0.730362
O O10 0.895449 0.281109 0.722935
O O11 0.818521 0.289398 0.848922
O O12 0.056033 0.820463 0.384594
O O13 0.151963 0.000000 0.268926
O O14 0.000000 0.773217 0.500000
O O15 0.901542 0.000000 0.518139
O O16 0.655985 0.500000 0.935194
#
# Coordination Sequence:
#
# PCOD9223468 Si02
#       6
#     8   8   8   8   8   8
#     4   9  15  23  38  61  91 126 161 195 240 292
#     4  12  23  35  53  76 102 133 171 211 255 303
#     4  10  19  30  47  71  98 130 165 204 251 299
#     4   9  17  29  46  69  97 131 167 204 247 298
#     4  10  21  37  55  75 102 136 173 211 252 300
#     4   9  16  25  38  61  93 125 158 196 243 294
#
# _framework density 8.4656079999999996
#
# number of rings (size 3 to 8) (size 9 to 14) (size 15 to 20)
#    0.000    2.167    1.667    4.000    0.000    3.000 
#    0.000    0.000    0.000    0.000    0.000    1.167 
#    0.000    0.000    0.000    0.000    0.000    0.000 
#
# Total GULP energy -133634.548174 kJ/mol
# GULP energy per Si atom -5568.106174 kJ/mol
# Density = 0.844634 g / cm^3
# Si number density = 8.465608 Si / 1000 Ang^3
#
#
#
# Elastic Constant Matrix: (Units=GPa)
#
#
# Indices 1 2 3 4 5 6 
#
# 1 69.3246 34.7593 39.0893 0.0001 -23.1076 -0.0008
# 2 34.7593 101.7564 51.7680 0.0002 -23.6326 -0.0007
# 3 39.0893 51.7680 125.5271 -0.0005 -47.7089 0.0005
# 4 0.0001 0.0002 -0.0005 25.4169 0.0000 -9.5110
# 5 -23.1076 -23.6326 -47.7089 0.0000 23.0225 0.0002
# 6 -0.0008 -0.0007 0.0005 -9.5110 0.0002 19.3341
#
#
#
# Elastic Compliance Matrix: (Units=1/GPa)
#
#
# Indices 1 2 3 4 5 6 
#
# 1 0.024168 -0.003744 0.008366 0.000000 0.037751 0.000000
# 2 -0.003744 0.013533 -0.002654 0.000000 0.004634 0.000000
# 3 0.008366 -0.002654 0.040546 0.000000 0.089696 -0.000002
# 4 0.000000 0.000000 0.000000 0.048220 0.000000 0.023721
# 5 0.037751 0.004634 0.089696 0.000000 0.271958 -0.000003
# 6 0.000000 0.000000 -0.000002 0.023721 -0.000003 0.063391
#
#
# Mechanical properties :
#
#
# Convention : Reuss Voigt Hill
#
# Bulk Modulus (GPa) = 12.16794 60.87127 36.51960
# Shear Modulus (GPa) = 10.30342 24.95412 17.62877
#
# Velocity S-wave (km/s) = 2.46955 3.84324 3.23026
# Velocity P-wave (km/s) = 3.91585 7.46486 5.96062
#
# Compressibility (1/GPa) = 0.08218321
#
# Stress axis : x y z
#
# Youngs Moduli (GPa) = 41.37630 73.89492 24.66319
#
# Poissons Ratio (x) = 0.27669 -0.20634
# Poissons Ratio (y) = 0.15493 0.06545
# Poissons Ratio (z) = -0.34616 0.19611
#
# Static dielectric constant tensor:
#      x y z
#    x 1.541600 0.000000 -0.008010 
#    y 0.000000 1.579250 0.000000 
#    z -0.008010 0.000000 1.664770 
# 
# From -- ./inp_files/380135.got.cif
#   From: 2010.05.17/outbox.ucp.g08.bks.cvg/sg12_191_cif.got.tgz:380135.got - 2010.06.11 11:47:21.
