data_PCOD9223866
_publ_section_title
;
Structure prediction by ZEFSAII (Michael W. Deem and Ramdas Pophale) SiO2 
 PCOD9223866
Probable space group: C 2/M
;
_chemical_formula_sum "Si O2"
_cell_formula_units_Z 32
_cell_length_a 30.000000
_cell_length_b 9.000000
_cell_length_c 12.000000
_cell_angle_alpha 90.000000
_cell_angle_beta 90.000000
_cell_angle_gamma 90.000000
_cell_volume 3240.000000
_symmetry_space_group_name_H-M "C 2/M"
_symmetry_group_IT_number 12
_symmetry_cell_setting 'monoclinic'
loop_
_space_group_symop_operation_xyz
x,y,z
-x,y,-z
-x,-y,-z
x,-y,z
1/2+x,1/2+y,z
1/2-x,1/2+y,-z
1/2-x,1/2-y,-z
1/2+x,1/2-y,z
loop_
_atom_site_type_symbol
_atom_site_label
_atom_site_fract_x
_atom_site_fract_y
_atom_site_fract_z
Si Si1 0.105491 0.819119 0.011007
Si Si2 0.164878 0.177785 0.694205
Si Si3 0.077208 0.322661 0.793033
Si Si4 0.256836 0.325538 0.722050
Si Si5 0.495314 0.322011 0.369988
Si Si6 0.794635 0.172646 0.959624
Si Si7 0.832073 0.180426 0.565774
Si Si8 0.591675 0.321236 0.265416
O O1 0.074349 0.747453 0.917122
O O2 0.103144 0.000000 0.003164
O O3 0.157642 0.773693 0.996837
O O4 0.094538 0.771730 0.137438
O O5 0.125193 0.264700 0.752285
O O6 0.212823 0.229585 0.738925
O O7 0.162698 0.217801 0.563012
O O8 0.159383 0.000000 0.707459
O O9 0.074929 0.500000 0.797623
O O10 0.041759 0.259392 0.704000
O O11 0.244415 0.500000 0.711266
O O12 0.291136 0.316818 0.825493
O O13 0.284568 0.272786 0.615317
O O14 0.500000 0.278500 0.500000
O O15 0.485786 0.500000 0.367984
O O16 0.543008 0.294070 0.314149
O O17 0.791776 0.000000 0.989894
O O18 0.750000 0.250000 0.000000
O O19 0.871283 0.235695 0.647354
O O20 0.832477 0.000000 0.571294
O O21 0.598083 0.500000 0.260825
#
# Coordination Sequence:
#
# PCOD9223866 Si02
#       8
#     8   8   8   8   8   8   8   8
#     4  10  20  38  62  86 114 152 200 246 289 347
#     4  11  22  36  57  85 117 156 203 249 291 349
#     4  12  26  42  59  83 120 159 195 243 301 352
#     4  10  19  34  55  83 119 155 191 237 300 358
#     4  10  21  40  68  98 122 150 193 240 288 351
#     4  10  20  33  53  79 111 153 197 242 288 339
#     4   9  17  33  58  87 119 152 191 241 295 351
#     4   9  17  34  63  92 117 150 194 244 295 346
#
# _framework density 9.8765429999999999
#
# number of rings (size 3 to 8) (size 9 to 14) (size 15 to 20)
#    0.000    1.875    1.250    3.375    0.000    5.750 
#    0.000    3.750    0.000    2.250    0.000    0.000 
#    0.000    0.000    0.000    0.000    0.000    0.000 
#
# Total GULP energy -178667.946176 kJ/mol
# GULP energy per Si atom -5583.373318 kJ/mol
# Density = 0.985406 g / cm^3
# Si number density = 9.876543 Si / 1000 Ang^3
#
#
#
# Elastic Constant Matrix: (Units=GPa)
#
#
# Indices 1 2 3 4 5 6 
#
# 1 56.0067 30.3438 45.8801 0.0000 27.9838 0.0000
# 2 30.3438 47.2055 26.4697 0.0000 9.7870 0.0000
# 3 45.8801 26.4697 99.6787 0.0000 12.7378 0.0000
# 4 0.0000 0.0000 0.0000 16.8951 0.0000 6.7508
# 5 27.9838 9.7870 12.7378 0.0000 34.7950 0.0000
# 6 0.0000 0.0000 0.0000 6.7508 0.0000 24.9874
#
#
#
# Elastic Compliance Matrix: (Units=1/GPa)
#
#
# Indices 1 2 3 4 5 6 
#
# 1 0.065869 -0.023494 -0.019045 0.000000 -0.039394 0.000000
# 2 -0.023494 0.034060 0.000607 0.000000 0.009092 0.000000
# 3 -0.019045 0.000607 0.017521 0.000000 0.008732 0.000000
# 4 0.000000 0.000000 0.000000 0.066352 0.000000 -0.017926
# 5 -0.039394 0.009092 0.008732 0.000000 0.054669 0.000000
# 6 0.000000 0.000000 0.000000 -0.017926 0.000000 0.044863
#
#
# Mechanical properties :
#
#
# Convention : Reuss Voigt Hill
#
# Bulk Modulus (GPa) = 29.77364 45.36424 37.56894
# Shear Modulus (GPa) = 13.21379 22.01533 17.61456
#
# Velocity S-wave (km/s) = 2.58921 3.34207 2.98944
# Velocity P-wave (km/s) = 4.90350 6.15696 5.56563
#
# Compressibility (1/GPa) = 0.03358675
#
# Stress axis : x y z
#
# Youngs Moduli (GPa) = 15.18173 29.35977 57.07352
#
# Poissons Ratio (x) = 0.68977 1.08697
# Poissons Ratio (y) = 0.35667 -0.03465
# Poissons Ratio (z) = 0.28914 -0.01782
#
# Static dielectric constant tensor:
#      x y z
#    x 1.685470 0.000000 -0.025920 
#    y 0.000000 1.660930 0.000000 
#    z -0.025920 0.000000 1.751640 
# 
# From -- ./inp_files/187512.got.cif
#   From: 2010.05.17/outbox.ucp.g08.bks.cvg/sg12_94_cif.got.tgz:187512.got - 2010.06.11 11:47:21.
