data_PCOD9223578
_publ_section_title
;
Structure prediction by ZEFSAII (Michael W. Deem and Ramdas Pophale) SiO2 
 PCOD9223578
Probable space group: C 2/M
;
_chemical_formula_sum "Si O2"
_cell_formula_units_Z 24
_cell_length_a 30.000000
_cell_length_b 9.000000
_cell_length_c 21.000000
_cell_angle_alpha 90.000000
_cell_angle_beta 30.000000
_cell_angle_gamma 90.000000
_cell_volume 2835.000000
_symmetry_space_group_name_H-M "C 2/M"
_symmetry_group_IT_number 12
_symmetry_cell_setting 'monoclinic'
loop_
_space_group_symop_operation_xyz
x,y,z
-x,y,-z
-x,-y,-z
x,-y,z
1/2+x,1/2+y,z
1/2-x,1/2+y,-z
1/2-x,1/2-y,-z
1/2+x,1/2-y,z
loop_
_atom_site_type_symbol
_atom_site_label
_atom_site_fract_x
_atom_site_fract_y
_atom_site_fract_z
Si Si1 0.140669 0.322179 0.998158
Si Si2 0.016330 0.176544 0.052111
Si Si3 0.693834 0.321317 0.127348
Si Si4 0.965663 0.679331 0.739929
Si Si5 0.655183 0.168508 0.685155
Si Si6 0.667787 0.170403 0.515960
O O1 0.134155 0.500000 0.999778
O O2 0.079280 0.281450 0.135884
O O3 0.098845 0.247734 0.987881
O O4 0.243354 0.285766 0.889475
O O5 0.926161 0.224171 0.198988
O O6 0.027411 0.000000 0.038518
O O7 0.000000 0.227614 0.000000
O O8 0.691264 0.500000 0.124442
O O9 0.595313 0.254673 0.238985
O O10 0.750000 0.250000 0.000000
O O11 0.959564 0.500000 0.741938
O O12 0.070398 0.719301 0.611520
O O13 0.663018 0.166377 0.598852
O O14 0.746921 0.227119 0.602608
O O15 0.635439 0.000000 0.730183
O O16 0.683565 0.000000 0.475038
#
# Coordination Sequence:
#
# PCOD9223578 Si02
#       6
#     8   8   8   8   8   8
#     4   9  17  31  46  64  92 124 158 195 231 275
#     4  11  23  35  48  68  93 124 163 202 238 278
#     4   9  17  27  41  64  93 122 154 189 228 278
#     4   9  16  28  45  68  97 125 153 185 228 280
#     4  10  19  32  48  68  93 124 160 194 233 280
#     4   9  17  30  47  69  98 126 153 190 232 278
#
# _framework density 8.4656079999999996
#
# number of rings (size 3 to 8) (size 9 to 14) (size 15 to 20)
#    0.000    2.500    1.667    2.500    0.000    6.000 
#    0.000    0.000    0.000    0.000    0.000    1.167 
#    0.000    9.333    0.000    0.000    0.000    0.000 
#
# Total GULP energy -133659.548720 kJ/mol
# GULP energy per Si atom -5569.147863 kJ/mol
# Density = 0.844634 g / cm^3
# Si number density = 8.465608 Si / 1000 Ang^3
#
#
#
# Elastic Constant Matrix: (Units=GPa)
#
#
# Indices 1 2 3 4 5 6 
#
# 1 140.4960 46.7721 31.5543 0.0000 -43.5457 -0.0001
# 2 46.7721 27.5919 9.3057 -0.0050 -13.2925 0.0012
# 3 31.5543 9.3057 17.4563 -0.0071 -26.9212 0.0006
# 4 0.0000 -0.0050 -0.0071 14.3438 0.0010 -9.3835
# 5 -43.5457 -13.2925 -26.9212 0.0010 39.6761 0.0004
# 6 -0.0001 0.0012 0.0006 -9.3835 0.0004 31.3491
#
#
#
# Elastic Compliance Matrix: (Units=1/GPa)
#
#
# Indices 1 2 3 4 5 6 
#
# 1 0.019561 -0.027686 0.038674 0.000009 0.038434 0.000003
# 2 -0.027686 0.082216 -0.039531 0.000012 -0.029665 0.000001
# 3 0.038674 -0.039531 -1.152138 -0.000640 -0.752552 -0.000160
# 4 0.000009 0.000012 -0.000640 0.086692 -0.000423 0.025949
# 5 0.038434 -0.029665 -0.752552 -0.000423 -0.453177 -0.000106
# 6 0.000003 0.000001 -0.000160 0.025949 -0.000106 0.039666
#
#
# Mechanical properties :
#
#
# Convention : Reuss Voigt Hill
#
# Bulk Modulus (GPa) = -0.90298 40.08983 19.59342
# Shear Modulus (GPa) = -2.95991 23.60125 10.32067
#
# Velocity S-wave (km/s) = -1.32363 3.73761 2.47161
# Velocity P-wave (km/s) = 1.69425 6.50813 4.44327
#
# Compressibility (1/GPa) = -1.10744777
#
# Stress axis : x y z
#
# Youngs Moduli (GPa) = 51.12134 12.16309 -0.86795
#
# Poissons Ratio (x) = 0.33675 0.03357
# Poissons Ratio (y) = 1.41536 -0.03431
# Poissons Ratio (z) = -1.97705 0.48082
#
# Static dielectric constant tensor:
#      x y z
#    x 1.589780 0.000000 -0.012670 
#    y 0.000000 1.572930 0.000000 
#    z -0.012670 0.000000 1.581290 
# 
# From -- ./inp_files/291695.got.cif
#   From: 2010.05.17/outbox.ucp.g08.bks.cvg/sg12_146_cif.got.tgz:291695.got - 2010.06.11 11:47:21.
