data_PCOD9223552
_publ_section_title
;
Structure prediction by ZEFSAII (Michael W. Deem and Ramdas Pophale) SiO2 
 PCOD9223552
Probable space group: C 2/M
;
_chemical_formula_sum "Si O2"
_cell_formula_units_Z 28
_cell_length_a 30.000000
_cell_length_b 9.000000
_cell_length_c 12.000000
_cell_angle_alpha 90.000000
_cell_angle_beta 60.000000
_cell_angle_gamma 90.000000
_cell_volume 2805.922308
_symmetry_space_group_name_H-M "C 2/M"
_symmetry_group_IT_number 12
_symmetry_cell_setting 'monoclinic'
loop_
_space_group_symop_operation_xyz
x,y,z
-x,y,-z
-x,-y,-z
x,-y,z
1/2+x,1/2+y,z
1/2-x,1/2+y,-z
1/2-x,1/2-y,-z
1/2+x,1/2-y,z
loop_
_atom_site_type_symbol
_atom_site_label
_atom_site_fract_x
_atom_site_fract_y
_atom_site_fract_z
Si Si1 0.870820 0.324505 0.606321
Si Si2 0.951980 0.320497 0.315211
Si Si3 0.759384 0.169933 0.800610
Si Si4 0.346344 0.677730 0.015391
Si Si5 0.568441 0.174914 0.243996
Si Si6 0.105838 0.823423 0.802819
Si Si7 0.292506 0.831950 0.377732
O O1 0.858140 0.500000 0.608333
O O2 0.904416 0.273581 0.456414
O O3 0.816287 0.244546 0.709218
O O4 0.913721 0.313281 0.650319
O O5 0.950587 0.500000 0.312832
O O6 0.940412 0.254752 0.206566
O O7 0.009350 0.279119 0.289374
O O8 0.711691 0.253248 0.924450
O O9 0.731811 0.161955 0.714629
O O10 0.766440 0.000000 0.833530
O O11 0.340331 0.500000 0.022206
O O12 0.377396 0.717463 0.091564
O O13 0.386731 0.734718 0.874192
O O14 0.572409 0.000000 0.207730
O O15 0.157046 0.766964 0.677745
O O16 0.098989 0.000000 0.806550
O O17 0.250000 0.750000 0.500000
O O18 0.303565 0.000000 0.400976
#
# Coordination Sequence:
#
# PCOD9223552 Si02
#       7
#     8   8   8   8   8   8   8
#     4  10  21  38  60  86 116 150 189 234 285 339
#     4  10  21  38  61  87 115 150 191 234 284 340
#     4  10  21  36  56  83 114 148 188 234 282 337
#     4  10  22  40  60  84 115 152 192 233 283 340
#     4  10  22  40  61  84 113 151 194 239 282 332
#     4  10  21  36  55  81 114 149 187 233 283 336
#     4  10  19  31  50  78 112 148 186 229 280 338
#
# _framework density 9.9788940000000004
#
# number of rings (size 3 to 8) (size 9 to 14) (size 15 to 20)
#    0.000    2.000    0.000    3.000    0.000   10.286 
#    0.000    2.857    0.000    2.571    0.000    0.000 
#    0.000    0.000    0.000    0.000    0.000    0.000 
#
# Total GULP energy -156030.364615 kJ/mol
# GULP energy per Si atom -5572.513022 kJ/mol
# Density = 0.995618 g / cm^3
# Si number density = 9.978894 Si / 1000 Ang^3
#
#
#
# Elastic Constant Matrix: (Units=GPa)
#
#
# Indices 1 2 3 4 5 6 
#
# 1 115.1672 16.0758 3.6567 0.0000 -10.1595 0.0000
# 2 16.0758 26.1314 11.9166 0.0000 -3.1428 0.0000
# 3 3.6567 11.9166 56.1845 0.0000 -9.5426 0.0000
# 4 0.0000 0.0000 0.0000 24.6414 0.0000 -4.1486
# 5 -10.1595 -3.1428 -9.5426 0.0000 31.4806 0.0000
# 6 0.0000 0.0000 0.0000 -4.1486 0.0000 31.9232
#
#
#
# Elastic Compliance Matrix: (Units=1/GPa)
#
#
# Indices 1 2 3 4 5 6 
#
# 1 0.009765 -0.006193 0.001168 0.000000 0.002887 0.000000
# 2 -0.006193 0.046369 -0.009473 0.000000 -0.000241 0.000000
# 3 0.001168 -0.009473 0.020701 0.000000 0.005706 0.000000
# 4 0.000000 0.000000 0.000000 0.041490 0.000000 0.005392
# 5 0.002887 -0.000241 0.005706 0.000000 0.034403 0.000000
# 6 0.000000 0.000000 0.000000 0.005392 0.000000 0.032026
#
#
# Mechanical properties :
#
#
# Convention : Reuss Voigt Hill
#
# Bulk Modulus (GPa) = 20.90287 28.97570 24.93929
# Shear Modulus (GPa) = 21.76805 28.66466 25.21636
#
# Velocity S-wave (km/s) = 3.30616 3.79392 3.55841
# Velocity P-wave (km/s) = 5.00705 5.80877 5.42275
#
# Compressibility (1/GPa) = 0.04784031
#
# Stress axis : x y z
#
# Youngs Moduli (GPa) = 102.40574 21.56624 48.30736
#
# Poissons Ratio (x) = 0.13356 -0.05644
# Poissons Ratio (y) = 0.63419 0.45760
# Poissons Ratio (z) = -0.11965 0.20429
#
# Static dielectric constant tensor:
#      x y z
#    x 1.700080 0.000000 0.052080 
#    y 0.000000 1.710590 0.000000 
#    z 0.052080 0.000000 1.762020 
# 
# From -- ./inp_files/187190.got.cif
#   From: 2010.05.17/outbox.ucp.g08.bks.cvg/sg12_94_cif.got.tgz:187190.got - 2010.06.11 11:47:21.
