data_PCOD9223082
_publ_section_title
;
Structure prediction by ZEFSAII (Michael W. Deem and Ramdas Pophale) SiO2 
 PCOD9223082
Probable space group: C 2/M
;
_chemical_formula_sum "Si O2"
_cell_formula_units_Z 64
_cell_length_a 26.141980
_cell_length_b 7.362062
_cell_length_c 15.209248
_cell_angle_alpha 90.000000
_cell_angle_beta 102.585637
_cell_angle_gamma 90.000000
_cell_volume 2856.819413
_symmetry_space_group_name_H-M "C 2/M"
_symmetry_group_IT_number 12
_symmetry_cell_setting 'monoclinic'
loop_
_space_group_symop_operation_xyz
x,y,z
-x,y,-z
-x,-y,-z
x,-y,z
1/2+x,1/2+y,z
1/2-x,1/2+y,-z
1/2-x,1/2-y,-z
1/2+x,1/2-y,z
loop_
_atom_site_type_symbol
_atom_site_label
_atom_site_fract_x
_atom_site_fract_y
_atom_site_fract_z
Si Si1 0.549322 0.778497 0.731523
Si Si2 0.662672 0.216277 0.308069
Si Si3 0.893147 0.278516 0.423875
Si Si4 0.062666 0.277981 0.379523
Si Si5 0.279181 0.216919 0.354202
Si Si6 0.275352 0.780618 0.149729
Si Si7 0.879266 0.722419 0.085498
Si Si8 0.341752 0.789622 0.892380
O O1 0.586516 0.723035 0.664228
O O2 0.490644 0.719234 0.687008
O O3 0.573553 0.720619 0.833406
O O4 0.549572 0.000000 0.732271
O O5 0.614767 0.283149 0.348326
O O6 0.721219 0.242613 0.367479
O O7 0.659128 0.289537 0.206452
O O8 0.656628 0.000000 0.300591
O O9 0.893495 0.500000 0.423799
O O10 0.931009 0.221943 0.516860
O O11 0.833149 0.219043 0.417848
O O12 0.061864 0.500000 0.378777
O O13 0.280215 0.280313 0.252958
O O14 0.282549 0.000000 0.353830
O O15 0.325253 0.721537 0.112920
O O16 0.218439 0.717914 0.096899
O O17 0.274981 0.000000 0.149397
O O18 0.879215 0.500000 0.083678
O O19 0.877234 0.786217 0.984025
O O20 0.356690 0.000000 0.888051
#
# Coordination Sequence:
#
# PCOD9223082 Si02
#       8
#     8   8   8   8   8   8   8   8
#     4   9  15  25  41  63  88 111 140 182 224 254
#     4   9  18  31  42  60  93 122 144 171 206 255
#     4   9  15  25  42  65  88 108 139 183 224 257
#     4   9  17  27  41  60  86 119 146 173 215 260
#     4   9  16  27  45  67  88 112 142 179 217 253
#     4   9  15  25  41  62  87 110 138 177 215 249
#     4   9  15  24  39  60  84 110 140 176 215 252
#     4   9  17  27  40  59  87 119 143 166 205 255
#
# _framework density 22.402536999999999
#
# number of rings (size 3 to 8) (size 9 to 14) (size 15 to 20)
#    0.000    3.000    1.250    0.750    0.000    2.000 
#    0.000    0.625    0.000    3.750    0.000    2.625 
#    0.000    6.000    0.000    0.000    0.000    0.000 
#
# Total GULP energy -178597.056740 kJ/mol
# GULP energy per Si atom -5581.158023 kJ/mol
# Density = 2.235155 g / cm^3
# Si number density = 22.402537 Si / 1000 Ang^3
#
#
#
# Elastic Constant Matrix: (Units=GPa)
#
#
# Indices 1 2 3 4 5 6 
#
# 1 89.4009 -4.0975 26.3099 0.0000 22.1094 0.0000
# 2 -4.0975 80.1206 0.0920 0.0000 -0.7171 0.0000
# 3 26.3099 0.0920 81.3834 0.0000 39.1229 0.0000
# 4 0.0000 0.0000 0.0000 -6.3024 0.0000 3.0521
# 5 22.1094 -0.7171 39.1229 0.0000 29.7585 0.0000
# 6 0.0000 0.0000 0.0000 3.0521 0.0000 11.6125
#
#
#
# Elastic Compliance Matrix: (Units=1/GPa)
#
#
# Indices 1 2 3 4 5 6 
#
# 1 0.013780 0.000597 0.001248 0.000000 -0.011864 0.000000
# 2 0.000597 0.012515 -0.000377 0.000000 0.000354 0.000000
# 3 0.001248 -0.000377 0.033518 0.000000 -0.045001 0.000000
# 4 0.000000 0.000000 0.000000 -0.140755 0.000000 0.036994
# 5 -0.011864 0.000354 -0.045001 0.000000 0.101589 0.000000
# 6 0.000000 0.000000 0.000000 0.036994 0.000000 0.076391
#
#
# Mechanical properties :
#
#
# Convention : Reuss Voigt Hill
#
# Bulk Modulus (GPa) = 15.93688 32.83485 24.38586
# Shear Modulus (GPa) = 43.47115 22.25375 32.86245
#
# Velocity S-wave (km/s) = 4.40984 3.15518 3.83418
# Velocity P-wave (km/s) = 5.74963 5.28792 5.52360
#
# Compressibility (1/GPa) = 0.06274753
#
# Stress axis : x y z
#
# Youngs Moduli (GPa) = 72.57033 79.90204 29.83512
#
# Poissons Ratio (x) = -0.04771 -0.03723
# Poissons Ratio (y) = -0.04333 0.01126
# Poissons Ratio (z) = -0.09055 0.03016
#
# Static dielectric constant tensor:
#      x y z
#    x 1.797020 0.000000 0.006560 
#    y 0.000000 1.900800 0.000000 
#    z 0.006560 0.000000 1.829880 
# 
# From -- ./inp_files/239699.got.cif
#   From: 2010.05.17/outbox.cif.g08.bks.cpg/sg12_120_cif.got.tgz:239699.got - 2010.06.03 13:09:07.
