data_PCOD9223549
_publ_section_title
;
Structure prediction by ZEFSAII (Michael W. Deem and Ramdas Pophale) SiO2 
 PCOD9223549
Probable space group: C 2/M
;
_chemical_formula_sum "Si O2"
_cell_formula_units_Z 32
_cell_length_a 30.000000
_cell_length_b 9.000000
_cell_length_c 24.000000
_cell_angle_alpha 90.000000
_cell_angle_beta 30.000000
_cell_angle_gamma 90.000000
_cell_volume 3240.000000
_symmetry_space_group_name_H-M "C 2/M"
_symmetry_group_IT_number 12
_symmetry_cell_setting 'monoclinic'
loop_
_space_group_symop_operation_xyz
x,y,z
-x,y,-z
-x,-y,-z
x,-y,z
1/2+x,1/2+y,z
1/2-x,1/2+y,-z
1/2-x,1/2-y,-z
1/2+x,1/2-y,z
loop_
_atom_site_type_symbol
_atom_site_label
_atom_site_fract_x
_atom_site_fract_y
_atom_site_fract_z
Si Si1 0.797684 0.175556 0.319588
Si Si2 0.343154 0.324494 0.387728
Si Si3 0.104878 0.820951 0.377468
Si Si4 0.268235 0.679663 0.141875
Si Si5 0.399096 0.319100 0.099194
Si Si6 0.499757 0.318965 0.704214
Si Si7 0.123941 0.821835 0.479875
Si Si8 0.824418 0.179548 0.956987
O O1 0.862408 0.196739 0.301715
O O2 0.844241 0.223665 0.213020
O O3 0.706619 0.264117 0.425612
O O4 0.776545 0.000000 0.339324
O O5 0.334666 0.500000 0.406979
O O6 0.250000 0.250000 0.500000
O O7 0.420296 0.268056 0.343065
O O8 0.170896 0.747369 0.261359
O O9 0.141236 0.771992 0.398528
O O10 0.000000 0.785381 0.500000
O O11 0.109342 0.000000 0.365354
O O12 0.260573 0.500000 0.152769
O O13 0.341954 0.728548 0.107615
O O14 0.305938 0.722308 0.040678
O O15 0.402716 0.500000 0.092723
O O16 0.500000 0.266905 0.000000
O O17 0.496040 0.500000 0.707494
O O18 0.530374 0.273743 0.609020
O O19 0.413109 0.267795 0.829723
O O20 0.123275 0.000000 0.479852
O O21 0.823349 0.000000 0.956833
O O22 0.750000 0.250000 0.000000
#
# Coordination Sequence:
#
# PCOD9223549 Si02
#       8
#     8   8   8   8   8   8   8   8
#     4  10  19  31  51  79 109 140 175 221 273 321
#     4  10  19  31  50  77 107 140 176 215 265 321
#     4  10  22  37  58  84 108 142 185 225 273 334
#     4  10  21  38  59  86 115 144 183 230 283 330
#     4   9  18  32  53  80 111 144 178 220 270 326
#     4   9  19  35  55  78 108 145 185 227 269 323
#     4  10  19  34  55  78 106 143 182 221 272 327
#     4  10  23  41  61  82 108 147 192 236 278 327
#
# _framework density 9.8765429999999999
#
# number of rings (size 3 to 8) (size 9 to 14) (size 15 to 20)
#    0.000    2.250    2.500    0.000    3.500    0.750 
#    0.000    1.250    0.000    1.500    0.000    0.000 
#    0.000    0.000    0.000    0.000    0.000    0.000 
#
# Total GULP energy -178142.050255 kJ/mol
# GULP energy per Si atom -5566.939070 kJ/mol
# Density = 0.985406 g / cm^3
# Si number density = 9.876543 Si / 1000 Ang^3
#
#
#
# Elastic Constant Matrix: (Units=GPa)
#
#
# Indices 1 2 3 4 5 6 
#
# 1 27.8110 2.9393 29.1394 -0.0108 5.6326 0.0051
# 2 2.9393 -11.3066 9.8536 -0.0094 5.5766 0.0070
# 3 29.1394 9.8536 145.6989 -0.0209 3.1307 0.0143
# 4 -0.0108 -0.0094 -0.0209 18.0457 0.0055 -2.9517
# 5 5.6326 5.5766 3.1307 0.0055 35.4957 -0.0029
# 6 0.0051 0.0070 0.0143 -2.9517 -0.0029 16.1983
#
#
#
# Elastic Compliance Matrix: (Units=1/GPa)
#
#
# Indices 1 2 3 4 5 6 
#
# 1 0.046994 0.000773 -0.009306 0.000019 -0.006758 -0.000005
# 2 0.000773 -0.078201 0.004882 -0.000034 0.011733 0.000025
# 3 -0.009306 0.004882 0.008395 0.000006 -0.000031 -0.000006
# 4 0.000019 -0.000034 0.000006 0.057117 -0.000006 0.010408
# 5 -0.006758 0.011733 -0.000031 -0.000006 0.027404 0.000001
# 6 -0.000005 0.000025 -0.000006 0.010408 0.000001 0.063631
#
#
# Mechanical properties :
#
#
# Convention : Reuss Voigt Hill
#
# Bulk Modulus (GPa) = -33.20834 27.34088 -2.93373
# Shear Modulus (GPa) = 40.78175 21.96601 31.37388
#
# Velocity S-wave (km/s) = 4.54869 3.33833 3.98968
# Velocity P-wave (km/s) = 3.27708 5.36009 4.44240
#
# Compressibility (1/GPa) = -0.03011292
#
# Stress axis : x y z
#
# Youngs Moduli (GPa) = 21.27922 -12.78748 119.11713
#
# Poissons Ratio (x) = 0.00989 1.10848
# Poissons Ratio (y) = -0.01646 -0.58153
# Poissons Ratio (z) = 0.19802 0.06243
#
# Static dielectric constant tensor:
#      x y z
#    x 1.766210 0.000000 0.015430 
#    y 0.000000 1.670070 0.000010 
#    z 0.015430 0.000010 1.688110 
# 
# From -- ./inp_files/353324.got.cif
#   From: 2010.05.17/outbox.ucp.g08.bks.cvg/sg12_177_cif.got.tgz:353324.got - 2010.06.11 11:47:21.
