data_PCOD9223889
_publ_section_title
;
Structure prediction by ZEFSAII (Michael W. Deem and Ramdas Pophale) SiO2 
 PCOD9223889
Probable space group: C 2/M
;
_chemical_formula_sum "Si O2"
_cell_formula_units_Z 32
_cell_length_a 18.000000
_cell_length_b 12.000000
_cell_length_c 21.000000
_cell_angle_alpha 90.000000
_cell_angle_beta 130.000000
_cell_angle_gamma 90.000000
_cell_volume 3474.777594
_symmetry_space_group_name_H-M "C 2/M"
_symmetry_group_IT_number 12
_symmetry_cell_setting 'monoclinic'
loop_
_space_group_symop_operation_xyz
x,y,z
-x,y,-z
-x,-y,-z
x,-y,z
1/2+x,1/2+y,z
1/2-x,1/2+y,-z
1/2-x,1/2-y,-z
1/2+x,1/2-y,z
loop_
_atom_site_type_symbol
_atom_site_label
_atom_site_fract_x
_atom_site_fract_y
_atom_site_fract_z
Si Si1 0.832129 0.374065 0.032663
Si Si2 0.219642 0.129136 0.413957
Si Si3 0.954306 0.131050 0.769699
Si Si4 0.607560 0.697944 0.478586
Si Si5 0.163437 0.779997 0.860138
Si Si6 0.219117 0.367178 0.192850
Si Si7 0.016214 0.240378 0.081402
Si Si8 0.101868 0.871981 0.620042
O O1 0.857778 0.500000 0.034581
O O2 0.833736 0.342362 0.107881
O O3 0.915239 0.299854 0.045393
O O4 0.724834 0.350246 0.946493
O O5 0.144599 0.173269 0.318373
O O6 0.321808 0.194426 0.474642
O O7 0.158357 0.139299 0.446161
O O8 0.239937 0.000000 0.412343
O O9 0.960576 0.155026 0.848634
O O10 0.052325 0.182845 0.794030
O O11 0.957788 0.000000 0.759543
O O12 0.489482 0.703090 0.405707
O O13 0.612005 0.637599 0.549528
O O14 0.224931 0.801322 0.831671
O O15 0.218033 0.500000 0.178764
O O16 0.109010 0.323614 0.135348
O O17 0.292012 0.348718 0.292281
O O18 0.000000 0.199414 0.000000
O O19 0.076721 0.000000 0.623654
#
# Coordination Sequence:
#
# PCOD9223889 Si02
#       8
#     8   8   8   8   8   8   8   8
#     4  10  20  35  53  75 106 142 181 226 271 315
#     4  10  20  35  57  82 108 142 179 218 268 325
#     4  10  21  37  55  77 108 144 185 225 262 316
#     4  10  19  34  57  82 109 137 172 226 269 320
#     4  10  20  33  53  78 101 138 187 224 259 314
#     4  11  21  34  55  81 110 145 183 224 269 317
#     4  11  22  35  53  80 111 144 182 225 275 321
#     4  10  20  34  55  83 112 141 177 223 270 316
#
# _framework density 9.2092220000000005
#
# number of rings (size 3 to 8) (size 9 to 14) (size 15 to 20)
#    0.000    1.750    1.250    4.500    0.000    2.750 
#    0.000    1.875    0.000   17.250    0.000    0.000 
#    0.000    0.000    0.000    0.000    0.000    0.000 
#
# Total GULP energy -178270.795622 kJ/mol
# GULP energy per Si atom -5570.962363 kJ/mol
# Density = 0.918826 g / cm^3
# Si number density = 9.209222 Si / 1000 Ang^3
#
#
#
# Elastic Constant Matrix: (Units=GPa)
#
#
# Indices 1 2 3 4 5 6 
#
# 1 77.9165 6.3016 23.1339 0.0000 13.4670 0.0000
# 2 6.3016 28.0534 16.8725 0.0000 11.0719 0.0000
# 3 23.1339 16.8725 93.0594 0.0000 13.4810 0.0000
# 4 0.0000 0.0000 0.0000 14.9961 0.0000 5.7785
# 5 13.4670 11.0719 13.4810 0.0000 34.9826 0.0000
# 6 0.0000 0.0000 0.0000 5.7785 0.0000 16.6931
#
#
#
# Elastic Compliance Matrix: (Units=1/GPa)
#
#
# Indices 1 2 3 4 5 6 
#
# 1 0.014481 0.000341 -0.003006 0.000000 -0.004524 0.000000
# 2 0.000341 0.043982 -0.006380 0.000000 -0.011593 0.000000
# 3 -0.003006 -0.006380 0.012910 0.000000 -0.001799 0.000000
# 4 0.000000 0.000000 0.000000 0.076948 0.000000 -0.026636
# 5 -0.004524 -0.011593 -0.001799 0.000000 0.034689 0.000000
# 6 0.000000 0.000000 0.000000 -0.026636 0.000000 0.069126
#
#
# Mechanical properties :
#
#
# Convention : Reuss Voigt Hill
#
# Bulk Modulus (GPa) = 18.76759 32.40502 25.58631
# Shear Modulus (GPa) = 17.36181 23.51578 20.43879
#
# Velocity S-wave (km/s) = 3.07356 3.57704 3.33482
# Velocity P-wave (km/s) = 4.77571 5.89002 5.36189
#
# Compressibility (1/GPa) = 0.05328334
#
# Stress axis : x y z
#
# Youngs Moduli (GPa) = 69.05488 22.73649 77.45669
#
# Poissons Ratio (x) = -0.00775 0.23286
# Poissons Ratio (y) = -0.02353 0.49415
# Poissons Ratio (z) = 0.20760 0.14505
#
# Static dielectric constant tensor:
#      x y z
#    x 1.625180 0.000000 -0.020470 
#    y 0.000000 1.626980 0.000000 
#    z -0.020470 0.000000 1.690190 
# 
# From -- ./inp_files/315745.got.cif
#   From: 2010.05.17/outbox.ucp.g08.bks.cvg/sg12_158_cif.got.tgz:315745.got - 2010.06.11 11:47:21.
