data_PCOD9223580
_publ_section_title
;
Structure prediction by ZEFSAII (Michael W. Deem and Ramdas Pophale) SiO2 
 PCOD9223580
Probable space group: C 2/M
;
_chemical_formula_sum "Si O2"
_cell_formula_units_Z 32
_cell_length_a 24.000000
_cell_length_b 27.000000
_cell_length_c 18.000000
_cell_angle_alpha 90.000000
_cell_angle_beta 160.000000
_cell_angle_gamma 90.000000
_cell_volume 3989.322952
_symmetry_space_group_name_H-M "C 2/M"
_symmetry_group_IT_number 12
_symmetry_cell_setting 'monoclinic'
loop_
_space_group_symop_operation_xyz
x,y,z
-x,y,-z
-x,-y,-z
x,-y,z
1/2+x,1/2+y,z
1/2-x,1/2+y,-z
1/2-x,1/2-y,-z
1/2+x,1/2-y,z
loop_
_atom_site_type_symbol
_atom_site_label
_atom_site_fract_x
_atom_site_fract_y
_atom_site_fract_z
Si Si1 0.392828 0.730056 0.124454
Si Si2 0.810202 0.755310 0.256179
Si Si3 0.220480 0.633875 0.089516
Si Si4 0.520050 0.554405 0.614518
Si Si5 0.321829 0.097143 0.795464
Si Si6 0.821684 0.780407 0.754980
Si Si7 0.274386 0.316590 0.437043
Si Si8 0.601431 0.171310 0.371301
O O1 0.529334 0.691505 0.324056
O O2 0.509604 0.775935 0.251442
O O3 0.250000 0.750000 0.000000
O O4 0.291681 0.718074 0.923814
O O5 0.746163 0.748277 0.258541
O O6 0.000000 0.744753 0.500000
O O7 0.785573 0.810583 0.190947
O O8 0.053653 0.635650 0.833271
O O9 0.355961 0.600008 0.219505
O O10 0.180743 0.611706 0.120928
O O11 0.500000 0.553090 0.500000
O O12 0.580009 0.500000 0.713400
O O13 0.339581 0.564509 0.419722
O O14 0.293920 0.145639 0.709577
O O15 0.500000 0.075912 0.000000
O O16 0.818461 0.736023 0.690572
O O17 0.705173 0.823114 0.576579
O O18 0.000000 0.798090 0.000000
O O19 0.223435 0.334712 0.455003
#
# Coordination Sequence:
#
# PCOD9223580 Si02
#       8
#     8   8   8   8   8   8   8   8
#     4  10  21  30  42  63  90 125 167 209 236 267
#     4  11  19  29  43  64  89 125 165 202 226 267
#     4  10  19  32  49  67  93 125 166 199 242 290
#     4   9  20  35  51  71  95 122 154 199 253 304
#     4  11  19  30  50  72  90 125 162 198 238 290
#     4  11  19  29  44  62  90 129 164 203 230 266
#     4  11  19  31  43  64  92 126 167 202 236 277
#     4  10  20  31  44  64  92 125 165 201 239 275
#
# _framework density 8.0214110000000005
#
# number of rings (size 3 to 8) (size 9 to 14) (size 15 to 20)
#    0.000    1.625    2.500    6.750    3.500    0.250 
#    0.000    0.000    0.000    0.000    0.000    0.000 
#    0.000    0.500    0.000    6.125    0.000    0.500 
#
# Total GULP energy -178174.883774 kJ/mol
# GULP energy per Si atom -5567.965118 kJ/mol
# Density = 0.800315 g / cm^3
# Si number density = 8.021411 Si / 1000 Ang^3
#
#
#
# Elastic Constant Matrix: (Units=GPa)
#
#
# Indices 1 2 3 4 5 6 
#
# 1 54.5323 16.0500 32.1908 0.0000 14.4592 0.0000
# 2 16.0500 40.2427 28.7517 0.0000 2.5650 0.0000
# 3 32.1908 28.7517 142.8223 0.0000 5.8302 0.0000
# 4 0.0000 0.0000 0.0000 10.9888 0.0000 0.2692
# 5 14.4592 2.5650 5.8302 0.0000 28.8852 0.0000
# 6 0.0000 0.0000 0.0000 0.2692 0.0000 4.0230
#
#
#
# Elastic Compliance Matrix: (Units=1/GPa)
#
#
# Indices 1 2 3 4 5 6 
#
# 1 0.025690 -0.006672 -0.003979 0.000000 -0.011464 0.000000
# 2 -0.006672 0.030814 -0.004763 0.000000 0.001565 0.000000
# 3 -0.003979 -0.004763 0.008832 0.000000 0.000632 0.000000
# 4 0.000000 0.000000 0.000000 0.091151 0.000000 -0.006099
# 5 -0.011464 0.001565 0.000632 0.000000 0.040092 0.000000
# 6 0.000000 0.000000 0.000000 -0.006099 0.000000 0.248979
#
#
# Mechanical properties :
#
#
# Convention : Reuss Voigt Hill
#
# Bulk Modulus (GPa) = 28.98035 43.50917 36.24476
# Shear Modulus (GPa) = 10.24822 19.48637 14.86729
#
# Velocity S-wave (km/s) = 2.53020 3.48896 3.04752
# Velocity P-wave (km/s) = 5.16134 6.58862 5.91817
#
# Compressibility (1/GPa) = 0.03450614
#
# Stress axis : x y z
#
# Youngs Moduli (GPa) = 38.92536 32.45310 113.22940
#
# Poissons Ratio (x) = 0.21654 0.45055
# Poissons Ratio (y) = 0.25973 0.53933
# Poissons Ratio (z) = 0.15489 0.15458
#
# Static dielectric constant tensor:
#      x y z
#    x 1.574890 0.000000 -0.001050 
#    y 0.000000 1.554710 0.000000 
#    z -0.001050 0.000000 1.584500 
# 
# From -- ./inp_files/291209.got.cif
#   From: 2010.05.17/outbox.ucp.g08.bks.cvg/sg12_146_cif.got.tgz:291209.got - 2010.06.11 11:47:21.
