data_PCOD9223127
_publ_section_title
;
Structure prediction by ZEFSAII (Michael W. Deem and Ramdas Pophale) SiO2 
 PCOD9223127
Probable space group: C 2/M
;
_chemical_formula_sum "Si O2"
_cell_formula_units_Z 64
_cell_length_a 14.781619
_cell_length_b 7.309276
_cell_length_c 23.424519
_cell_angle_alpha 90.000000
_cell_angle_beta 96.866162
_cell_angle_gamma 90.000000
_cell_volume 2512.702757
_symmetry_space_group_name_H-M "C 2/M"
_symmetry_group_IT_number 12
_symmetry_cell_setting 'monoclinic'
loop_
_space_group_symop_operation_xyz
x,y,z
-x,y,-z
-x,-y,-z
x,-y,z
1/2+x,1/2+y,z
1/2-x,1/2+y,-z
1/2-x,1/2-y,-z
1/2+x,1/2-y,z
loop_
_atom_site_type_symbol
_atom_site_label
_atom_site_fract_x
_atom_site_fract_y
_atom_site_fract_z
Si Si1 0.399313 0.788967 0.980948
Si Si2 0.280553 0.722267 0.084638
Si Si3 0.403179 0.721114 0.757667
Si Si4 0.579554 0.276465 0.547514
Si Si5 0.461833 0.709842 0.637949
Si Si6 0.593473 0.276617 0.802746
Si Si7 0.769493 0.278954 0.590906
Si Si8 0.288956 0.709385 0.288379
O O1 0.341648 0.780732 0.035207
O O2 0.415025 0.000000 0.965375
O O3 0.500000 0.708596 0.000000
O O4 0.324112 0.713204 0.930604
O O5 0.278190 0.500000 0.083906
O O6 0.336202 0.783305 0.144007
O O7 0.397296 0.500000 0.757245
O O8 0.431824 0.788525 0.696162
O O9 0.488120 0.775526 0.803385
O O10 0.301182 0.788746 0.758438
O O11 0.500000 0.212912 0.500000
O O12 0.578831 0.500000 0.546667
O O13 0.545197 0.216968 0.607735
O O14 0.683826 0.219627 0.546177
O O15 0.483588 0.500000 0.652128
O O16 0.372080 0.712488 0.590699
O O17 0.595394 0.500000 0.802024
O O18 0.630301 0.214002 0.743835
O O19 0.774355 0.500000 0.590448
O O20 0.741902 0.213834 0.653089
O O21 0.312516 0.500000 0.302999
#
# Coordination Sequence:
#
# PCOD9223127 Si02
#       8
#     8   8   8   8   8   8   8   8
#     4   9  18  33  51  69  92 122 153 187 227 267
#     4   9  18  32  49  70  93 119 154 189 222 265
#     4   9  17  30  47  67  91 119 151 185 223 268
#     4   9  17  29  46  67  89 117 154 189 223 270
#     4   9  17  30  48  67  88 117 151 186 225 269
#     4   9  17  30  48  68  93 123 151 183 223 268
#     4   9  17  30  48  68  90 118 152 188 224 266
#     4   9  17  30  48  69  92 120 153 185 222 270
#
# _framework density 25.470582
#
# number of rings (size 3 to 8) (size 9 to 14) (size 15 to 20)
#    0.000    3.000    0.000    0.750    0.000    4.750 
#    0.000    3.750    0.000    6.750    0.000    0.000 
#    0.000    0.000    0.000    0.000    0.000    0.000 
#
# Total GULP energy -178700.927602 kJ/mol
# GULP energy per Si atom -5584.403988 kJ/mol
# Density = 2.541261 g / cm^3
# Si number density = 25.470582 Si / 1000 Ang^3
#
#
#
# Elastic Constant Matrix: (Units=GPa)
#
#
# Indices 1 2 3 4 5 6 
#
# 1 193.8237 -2.2085 17.5068 0.0000 50.6043 0.0000
# 2 -2.2085 112.2009 -6.9274 0.0000 5.6224 0.0000
# 3 17.5068 -6.9274 51.1589 0.0000 32.2239 0.0000
# 4 0.0000 0.0000 0.0000 2.3828 0.0000 3.3703
# 5 50.6043 5.6224 32.2239 0.0000 45.3872 0.0000
# 6 0.0000 0.0000 0.0000 3.3703 0.0000 -5.3537
#
#
#
# Elastic Compliance Matrix: (Units=1/GPa)
#
#
# Indices 1 2 3 4 5 6 
#
# 1 0.008121 0.001180 0.005745 0.000000 -0.013280 0.000000
# 2 0.001180 0.009492 0.004434 0.000000 -0.005639 0.000000
# 3 0.005745 0.004434 0.040814 0.000000 -0.035932 0.000000
# 4 0.000000 0.000000 0.000000 0.222002 0.000000 0.139757
# 5 -0.013280 -0.005639 -0.035932 0.000000 0.063048 0.000000
# 6 0.000000 0.000000 0.000000 0.139757 0.000000 -0.098805
#
#
# Mechanical properties :
#
#
# Convention : Reuss Voigt Hill
#
# Bulk Modulus (GPa) = 12.32363 41.54727 26.93545
# Shear Modulus (GPa) = 20.08009 31.73742 25.90875
#
# Velocity S-wave (km/s) = 2.81083 3.53376 3.19282
# Velocity P-wave (km/s) = 3.92214 5.74432 4.91836
#
# Compressibility (1/GPa) = 0.08114494
#
# Stress axis : x y z
#
# Youngs Moduli (GPa) = 123.13848 105.35050 24.50135
#
# Poissons Ratio (x) = -0.12432 -0.14077
# Poissons Ratio (y) = -0.14531 -0.10863
# Poissons Ratio (z) = -0.70747 -0.46708
#
# Static dielectric constant tensor:
#      x y z
#    x 1.979860 0.000000 0.061320 
#    y 0.000000 1.970140 0.000000 
#    z 0.061320 0.000000 2.046920 
# 
# From -- ./inp_files/335177.got.cif
#   From: 2010.05.17/outbox.cif.g08.bks.cpg/sg12_168_cif.got.tgz:335177.got - 2010.06.03 13:09:07.
