data_PCOD9223018
_publ_section_title
;
Structure prediction by ZEFSAII (Michael W. Deem and Ramdas Pophale) SiO2 
 PCOD9223018
Probable space group: C 2/M
;
_chemical_formula_sum "Si O2"
_cell_formula_units_Z 48
_cell_length_a 8.768865
_cell_length_b 19.845569
_cell_length_c 12.649125
_cell_angle_alpha 90.000000
_cell_angle_beta 73.632055
_cell_angle_gamma 90.000000
_cell_volume 2112.027805
_symmetry_space_group_name_H-M "C 2/M"
_symmetry_group_IT_number 12
_symmetry_cell_setting 'monoclinic'
loop_
_space_group_symop_operation_xyz
x,y,z
-x,y,-z
-x,-y,-z
x,-y,z
1/2+x,1/2+y,z
1/2-x,1/2+y,-z
1/2-x,1/2-y,-z
1/2+x,1/2-y,z
loop_
_atom_site_type_symbol
_atom_site_label
_atom_site_fract_x
_atom_site_fract_y
_atom_site_fract_z
Si Si1 0.350536 0.193821 0.915534
Si Si2 0.113821 0.227594 0.802835
Si Si3 0.820400 0.073821 0.708467
Si Si4 0.572685 0.684917 0.587711
Si Si5 0.383987 0.605303 0.932567
Si Si6 0.838433 0.578171 0.467254
O O1 0.286357 0.208876 0.810547
O O2 0.537198 0.206847 0.873573
O O3 0.250000 0.250000 0.000000
O O4 0.274648 0.126464 0.973519
O O5 0.115593 0.231291 0.677471
O O6 0.995872 0.168387 0.869793
O O7 0.821205 0.074414 0.835488
O O8 0.667032 0.081646 0.661092
O O9 0.935471 0.134064 0.653470
O O10 0.887602 0.000000 0.665975
O O11 0.500000 0.721171 0.500000
O O12 0.715296 0.634695 0.529914
O O13 0.500000 0.573727 0.000000
O O14 0.791059 0.500000 0.501624
O O15 0.000000 0.588988 0.500000
#
# Coordination Sequence:
#
# PCOD9223018 Si02
#       6
#     8   8   8   8   8   8
#     4   9  16  30  48  66  90 121 157 199 240 281
#     4   9  17  30  48  68  91 119 158 199 238 285
#     4   9  16  27  47  73  98 128 163 195 232 281
#     4   9  17  31  48  68  96 126 158 198 239 282
#     4   8  15  27  45  69  98 125 157 200 239 280
#     4   9  17  30  48  71  99 128 158 194 238 287
#
# _framework density 22.726974999999999
#
# number of rings (size 3 to 8) (size 9 to 14) (size 15 to 20)
#    0.000    3.167    0.000    2.000    0.000    2.333 
#    0.000    9.167    0.000    0.000    0.000    0.000 
#    0.000   62.667    0.000    0.000    0.000    0.000 
#
# Total GULP energy -133615.920530 kJ/mol
# GULP energy per Si atom -5567.330022 kJ/mol
# Density = 2.267525 g / cm^3
# Si number density = 22.726975 Si / 1000 Ang^3
#
#
#
# Elastic Constant Matrix: (Units=GPa)
#
#
# Indices 1 2 3 4 5 6 
#
# 1 105.7910 11.1952 56.0376 0.0000 35.4752 0.0000
# 2 11.1952 33.7904 13.0594 0.0000 1.7432 0.0000
# 3 56.0376 13.0594 139.9946 0.0000 47.7792 0.0000
# 4 0.0000 0.0000 0.0000 33.8314 0.0000 3.2237
# 5 35.4752 1.7432 47.7792 0.0000 36.6906 0.0000
# 6 0.0000 0.0000 0.0000 3.2237 0.0000 9.7614
#
#
#
# Elastic Compliance Matrix: (Units=1/GPa)
#
#
# Indices 1 2 3 4 5 6 
#
# 1 0.014666 -0.003708 -0.001341 0.000000 -0.012257 0.000000
# 2 -0.003708 0.031983 -0.003968 0.000000 0.007233 0.000000
# 3 -0.001341 -0.003968 0.013578 0.000000 -0.016196 0.000000
# 4 0.000000 0.000000 0.000000 0.030519 0.000000 -0.010079
# 5 -0.012257 0.007233 -0.016196 0.000000 0.059853 0.000000
# 6 0.000000 0.000000 0.000000 -0.010079 0.000000 0.105772
#
#
# Mechanical properties :
#
#
# Convention : Reuss Voigt Hill
#
# Bulk Modulus (GPa) = 23.70109 48.90670 36.30390
# Shear Modulus (GPa) = 17.33291 29.34228 23.33760
#
# Velocity S-wave (km/s) = 2.76462 3.59705 3.20795
# Velocity P-wave (km/s) = 4.54336 6.23038 5.45251
#
# Compressibility (1/GPa) = 0.04219215
#
# Stress axis : x y z
#
# Youngs Moduli (GPa) = 68.18628 31.26655 73.65054
#
# Poissons Ratio (x) = 0.11594 0.09878
# Poissons Ratio (y) = 0.25285 0.29222
# Poissons Ratio (z) = 0.09145 0.12405
#
# Static dielectric constant tensor:
#      x y z
#    x 1.887320 0.000000 0.058660 
#    y 0.000000 1.859790 0.000000 
#    z 0.058660 0.000000 1.895210 
# 
# From -- ./inp_files/121960.got.cif
#   From: 2010.05.17/outbox.cif.g08.bks.cpg/sg12_61_cif.got.tgz:121960.got - 2010.06.03 13:09:07.
