data_PCOD9223537
_publ_section_title
;
Structure prediction by ZEFSAII (Michael W. Deem and Ramdas Pophale) SiO2 
 PCOD9223537
Probable space group: C 2/M
;
_chemical_formula_sum "Si O2"
_cell_formula_units_Z 28
_cell_length_a 12.000000
_cell_length_b 21.000000
_cell_length_c 12.000000
_cell_angle_alpha 90.000000
_cell_angle_beta 90.000000
_cell_angle_gamma 90.000000
_cell_volume 3024.000000
_symmetry_space_group_name_H-M "C 2/M"
_symmetry_group_IT_number 12
_symmetry_cell_setting 'monoclinic'
loop_
_space_group_symop_operation_xyz
x,y,z
-x,y,-z
-x,-y,-z
x,-y,z
1/2+x,1/2+y,z
1/2-x,1/2+y,-z
1/2-x,1/2-y,-z
1/2+x,1/2-y,z
loop_
_atom_site_type_symbol
_atom_site_label
_atom_site_fract_x
_atom_site_fract_y
_atom_site_fract_z
Si Si1 0.780079 0.803646 0.093470
Si Si2 0.093958 0.687215 0.289053
Si Si3 0.271238 0.323588 0.464975
Si Si4 0.909005 0.924149 0.601228
Si Si5 0.515246 0.929049 0.815849
Si Si6 0.963620 0.817594 0.278797
Si Si7 0.810096 0.429865 0.993472
O O1 0.683169 0.803141 0.188239
O O2 0.897072 0.803406 0.162556
O O3 0.769684 0.871700 0.032767
O O4 0.750000 0.750000 0.000000
O O5 0.160192 0.660725 0.395632
O O6 0.004472 0.633327 0.256952
O O7 0.039158 0.756150 0.305739
O O8 0.250000 0.250000 0.500000
O O9 0.309677 0.377243 0.554793
O O10 0.370025 0.321557 0.374296
O O11 0.000000 0.925865 0.500000
O O12 0.965390 0.883095 0.702755
O O13 0.882534 0.000000 0.624248
O O14 0.410280 0.929047 0.902008
O O15 0.515920 0.000000 0.763230
O O16 0.626333 0.922424 0.889445
O O17 0.757904 0.500000 0.988188
#
# Coordination Sequence:
#
# PCOD9223537 Si02
#       7
#     8   8   8   8   8   8   8
#     4  10  20  31  47  75 104 132 174 213 253 299
#     4  10  19  31  50  74 103 133 166 209 259 305
#     4  10  19  33  53  76 102 131 168 208 261 313
#     4   9  18  33  53  78 106 134 170 217 262 309
#     4   8  14  25  43  67  93 124 160 198 246 297
#     4  10  20  32  51  77 101 135 171 207 260 308
#     4   8  14  26  43  63  92 127 159 201 250 289
#
# _framework density 9.2592590000000001
#
# number of rings (size 3 to 8) (size 9 to 14) (size 15 to 20)
#    0.000    2.714    1.429    1.714    0.000    2.857 
#    0.000    5.714    0.000    1.714    0.000    4.000 
#    0.000    0.000    0.000    0.000    0.000    0.000 
#
# Total GULP energy -155873.465813 kJ/mol
# GULP energy per Si atom -5566.909493 kJ/mol
# Density = 0.923818 g / cm^3
# Si number density = 9.259259 Si / 1000 Ang^3
#
#
#
# Elastic Constant Matrix: (Units=GPa)
#
#
# Indices 1 2 3 4 5 6 
#
# 1 50.0578 40.5109 17.2989 0.0000 32.0751 0.0000
# 2 40.5109 165.4470 35.0330 0.0000 35.3586 0.0000
# 3 17.2989 35.0330 48.2360 0.0000 32.8260 0.0000
# 4 0.0000 0.0000 0.0000 32.0420 0.0000 9.9198
# 5 32.0751 35.3586 32.8260 0.0000 22.3223 0.0000
# 6 0.0000 0.0000 0.0000 9.9198 0.0000 31.7993
#
#
#
# Elastic Compliance Matrix: (Units=1/GPa)
#
#
# Indices 1 2 3 4 5 6 
#
# 1 0.002671 -0.004635 -0.031527 0.000000 0.049866 0.000000
# 2 -0.004635 0.008169 -0.003432 0.000000 -0.001233 0.000000
# 3 -0.031527 -0.003432 -0.003006 0.000000 0.055158 0.000000
# 4 0.000000 0.000000 0.000000 0.034545 0.000000 -0.010776
# 5 0.049866 -0.001233 0.055158 0.000000 -0.106015 0.000000
# 6 0.000000 0.000000 0.000000 -0.010776 0.000000 0.034809
#
#
# Mechanical properties :
#
#
# Convention : Reuss Voigt Hill
#
# Bulk Modulus (GPa) = -14.01458 49.93627 17.96085
# Shear Modulus (GPa) = 188.13112 28.62591 108.37851
#
# Velocity S-wave (km/s) = 10.09016 3.93593 7.65842
# Velocity P-wave (km/s) = 11.32096 6.90504 9.37666
#
# Compressibility (1/GPa) = -0.07135428
#
# Stress axis : x y z
#
# Youngs Moduli (GPa) = 374.40956 122.40763 -332.65414
#
# Poissons Ratio (x) = 0.56742 -10.48749
# Poissons Ratio (y) = 1.73557 -1.14168
# Poissons Ratio (z) = 11.80391 0.42011
#
# Static dielectric constant tensor:
#      x y z
#    x 1.652510 0.000000 0.013720 
#    y 0.000000 1.645090 0.000000 
#    z 0.013720 0.000000 1.673950 
# 
# From -- ./inp_files/133246.got.cif
#   From: 2010.05.17/outbox.ucp.g08.bks.cvg/sg12_67_cif.got.tgz:133246.got - 2010.06.11 11:47:21.
