data_PCOD9223208
_publ_section_title
;
Structure prediction by ZEFSAII (Michael W. Deem and Ramdas Pophale) SiO2 
 PCOD9223208
Probable space group: C 2/M
;
_chemical_formula_sum "Si O2"
_cell_formula_units_Z 32
_cell_length_a 24.000000
_cell_length_b 9.000000
_cell_length_c 30.000000
_cell_angle_alpha 90.000000
_cell_angle_beta 30.000000
_cell_angle_gamma 90.000000
_cell_volume 3240.000000
_symmetry_space_group_name_H-M "C 2/M"
_symmetry_group_IT_number 12
_symmetry_cell_setting 'monoclinic'
loop_
_space_group_symop_operation_xyz
x,y,z
-x,y,-z
-x,-y,-z
x,-y,z
1/2+x,1/2+y,z
1/2-x,1/2+y,-z
1/2-x,1/2-y,-z
1/2+x,1/2-y,z
loop_
_atom_site_type_symbol
_atom_site_label
_atom_site_fract_x
_atom_site_fract_y
_atom_site_fract_z
Si Si1 0.497059 0.179841 0.163351
Si Si2 0.956028 0.680702 0.383806
Si Si3 0.996554 0.670149 0.742446
Si Si4 0.838052 0.179845 0.129568
Si Si5 0.633169 0.180546 0.330275
Si Si6 0.563916 0.321009 0.028127
Si Si7 0.252945 0.678201 0.334648
Si Si8 0.234029 0.171233 0.439578
O O1 0.535001 0.231358 0.186899
O O2 0.567655 0.240392 0.072897
O O3 0.372418 0.245038 0.243148
O O4 0.492604 0.000000 0.166697
O O5 0.945338 0.500000 0.388741
O O6 0.025224 0.730949 0.291993
O O7 0.837732 0.757840 0.471442
O O8 0.020749 0.723396 0.383916
O O9 0.955387 0.500000 0.770815
O O10 0.132048 0.670550 0.647928
O O11 0.731876 0.233886 0.229670
O O12 0.946552 0.212846 0.084440
O O13 0.833991 0.000000 0.130601
O O14 0.849260 0.226685 0.070400
O O15 0.664479 0.224539 0.358365
O O16 0.634711 0.000000 0.328981
O O17 0.569539 0.500000 0.030782
O O18 0.267765 0.500000 0.322628
O O19 0.214190 0.729903 0.409668
O O20 0.201613 0.000000 0.455467
#
# Coordination Sequence:
#
# PCOD9223208 Si02
#       8
#     8   8   8   8   8   8   8   8
#     4  10  18  29  46  71 101 125 150 191 236 277
#     4  10  19  33  52  70  87 119 163 198 231 274
#     4   8  17  32  49  68  91 120 156 196 234 269
#     4   8  14  26  45  71  97 121 151 193 231 265
#     4   9  17  29  49  72  94 118 155 200 231 267
#     4   9  15  26  48  71  95 124 155 189 229 272
#     4  10  18  31  50  71  94 122 157 191 231 278
#     4  10  20  34  49  69  97 122 150 194 240 279
#
# _framework density 9.8765429999999999
#
# number of rings (size 3 to 8) (size 9 to 14) (size 15 to 20)
#    0.000    2.750    1.250    3.000    0.000    0.500 
#    0.000    8.125    0.000    0.750    0.000    0.000 
#    0.000    0.000    0.000    0.000    0.000    0.500 
#
# Total GULP energy -178168.186307 kJ/mol
# GULP energy per Si atom -5567.755822 kJ/mol
# Density = 0.985406 g / cm^3
# Si number density = 9.876543 Si / 1000 Ang^3
#
#
#
# Elastic Constant Matrix: (Units=GPa)
#
#
# Indices 1 2 3 4 5 6 
#
# 1 60.3653 7.8425 -6.5023 0.0000 18.5727 -0.0008
# 2 7.8425 33.6814 -0.0255 0.0007 5.2385 -0.0013
# 3 -6.5023 -0.0255 24.2801 0.0001 15.8295 -0.0002
# 4 0.0000 0.0007 0.0001 17.2104 -0.0002 7.5574
# 5 18.5727 5.2385 15.8295 -0.0002 32.6871 0.0001
# 6 -0.0008 -0.0013 -0.0002 7.5574 0.0001 15.2594
#
#
#
# Elastic Compliance Matrix: (Units=1/GPa)
#
#
# Indices 1 2 3 4 5 6 
#
# 1 0.028434 -0.002170 0.026186 -0.000002 -0.028489 0.000003
# 2 -0.002170 0.030985 0.002755 -0.000003 -0.005067 0.000004
# 3 0.026186 0.002755 0.085038 -0.000003 -0.056502 0.000005
# 4 -0.000002 -0.000003 -0.000003 0.074253 0.000004 -0.036775
# 5 -0.028489 -0.005067 -0.056502 0.000004 0.074955 -0.000005
# 6 0.000003 0.000004 0.000005 -0.036775 -0.000005 0.083747
#
#
# Mechanical properties :
#
#
# Convention : Reuss Voigt Hill
#
# Bulk Modulus (GPa) = 5.05054 13.43958 9.24506
# Shear Modulus (GPa) = 12.82482 20.83218 16.82850
#
# Velocity S-wave (km/s) = 2.55082 3.25103 2.92197
# Velocity P-wave (km/s) = 3.35230 4.57283 4.00929
#
# Compressibility (1/GPa) = 0.19799880
#
# Stress axis : x y z
#
# Youngs Moduli (GPa) = 35.16958 32.27327 11.75945
#
# Poissons Ratio (x) = 0.07003 -0.30793
# Poissons Ratio (y) = 0.07631 -0.03239
# Poissons Ratio (z) = -0.92095 -0.08891
#
# Static dielectric constant tensor:
#      x y z
#    x 1.765180 0.000000 -0.000520 
#    y 0.000000 1.659600 0.000000 
#    z -0.000520 0.000000 1.719950 
# 
# From -- ./inp_files/382225.got.cif
#   From: 2010.05.17/outbox.ucp.g08.bks.cvg/sg12_192_cif.got.tgz:382225.got - 2010.06.11 11:47:21.
