data_PCOD9223829
_publ_section_title
;
Structure prediction by ZEFSAII (Michael W. Deem and Ramdas Pophale) SiO2 
 PCOD9223829
Probable space group: C 2/M
;
_chemical_formula_sum "Si O2"
_cell_formula_units_Z 32
_cell_length_a 24.000000
_cell_length_b 9.000000
_cell_length_c 30.000000
_cell_angle_alpha 90.000000
_cell_angle_beta 30.000000
_cell_angle_gamma 90.000000
_cell_volume 3240.000000
_symmetry_space_group_name_H-M "C 2/M"
_symmetry_group_IT_number 12
_symmetry_cell_setting 'monoclinic'
loop_
_space_group_symop_operation_xyz
x,y,z
-x,y,-z
-x,-y,-z
x,-y,z
1/2+x,1/2+y,z
1/2-x,1/2+y,-z
1/2-x,1/2-y,-z
1/2+x,1/2-y,z
loop_
_atom_site_type_symbol
_atom_site_label
_atom_site_fract_x
_atom_site_fract_y
_atom_site_fract_z
Si Si1 0.841413 0.679130 0.823171
Si Si2 0.543682 0.830857 0.345216
Si Si3 0.946780 0.319382 0.844527
Si Si4 0.922029 0.320215 0.511632
Si Si5 0.803930 0.674440 0.305383
Si Si6 0.926252 0.339921 0.094481
Si Si7 0.640420 0.170735 0.004281
Si Si8 0.232477 0.159832 0.755297
O O1 0.835658 0.500000 0.823522
O O2 0.908108 0.735664 0.733631
O O3 0.903789 0.720518 0.825726
O O4 0.718776 0.742254 0.916215
O O5 0.455273 0.759131 0.439708
O O6 0.646148 0.841654 0.308742
O O7 0.506710 0.000000 0.359707
O O8 0.944253 0.500000 0.849728
O O9 0.074680 0.275152 0.762914
O O10 0.870834 0.264117 0.938150
O O11 0.929878 0.500000 0.505145
O O12 0.797183 0.268498 0.605505
O O13 0.000000 0.272869 0.500000
O O14 0.791642 0.500000 0.323088
O O15 0.790815 0.708103 0.262184
O O16 0.865890 0.500000 0.137022
O O17 0.849043 0.197154 0.148126
O O18 0.000000 0.340439 0.000000
O O19 0.014746 0.332266 0.073195
O O20 0.680211 0.000000 0.978514
O O21 0.209588 0.000000 0.750068
#
# Coordination Sequence:
#
# PCOD9223829 Si02
#       8
#     8   8   8   8   8   8   8   8
#     4  10  20  36  57  79 102 140 186 220 262 315
#     4   9  19  35  55  79 109 139 171 218 272 321
#     4   9  19  36  56  76 107 144 178 221 266 311
#     4  10  19  36  58  80 110 141 172 216 270 321
#     4  11  21  36  56  81 109 138 177 221 265 320
#     4  10  20  33  49  73 110 150 179 213 270 325
#     4  10  19  34  52  75 109 143 177 220 267 308
#     4  11  20  33  53  78 108 142 178 220 267 316
#
# _framework density 9.8765429999999999
#
# number of rings (size 3 to 8) (size 9 to 14) (size 15 to 20)
#    0.000    2.000    2.500    1.875    0.000    1.000 
#    0.000    3.125    0.000    0.000    0.000    0.000 
#    0.000    0.000    0.000    0.000    0.000    0.000 
#
# Total GULP energy -178148.822891 kJ/mol
# GULP energy per Si atom -5567.150715 kJ/mol
# Density = 0.985406 g / cm^3
# Si number density = 9.876543 Si / 1000 Ang^3
#
#
#
# Elastic Constant Matrix: (Units=GPa)
#
#
# Indices 1 2 3 4 5 6 
#
# 1 37.1444 3.9226 26.5261 -0.4226 12.2082 0.1579
# 2 3.9226 11.4670 17.7658 -2.2181 4.0616 0.8275
# 3 26.5261 17.7658 111.1458 0.2055 32.6075 -0.0762
# 4 -0.4226 -2.2181 0.2055-2535.8791 0.1976 943.6136
# 5 12.2082 4.0616 32.6075 0.1976 25.5274 -0.0742
# 6 0.1579 0.8275 -0.0762 943.6136 -0.0742 -337.1434
#
#
#
# Elastic Compliance Matrix: (Units=1/GPa)
#
#
# Indices 1 2 3 4 5 6 
#
# 1 0.033799 -0.000008 -0.005315 -0.000008 -0.009373 -0.000002
# 2 -0.000008 0.117009 -0.021176 -0.000110 0.008437 -0.000017
# 3 -0.005315 -0.021176 0.019058 0.000020 -0.018433 0.000002
# 4 -0.000008 -0.000110 0.000020 0.009510 -0.000001 0.026617
# 5 -0.009373 0.008437 -0.018433 -0.000001 0.065859 0.000003
# 6 -0.000002 -0.000017 0.000002 0.026617 0.000003 0.071530
#
#
# Mechanical properties :
#
#
# Convention : Reuss Voigt Hill
#
# Bulk Modulus (GPa) = 8.55668 28.46512 18.51090
# Shear Modulus (GPa) = 12.23328 -562.06281 -274.91476
#
# Velocity S-wave (km/s) = 2.49129 -16.88674 -11.81007
# Velocity P-wave (km/s) = 3.55199 19.12523 13.28830
#
# Compressibility (1/GPa) = 0.11686771
#
# Stress axis : x y z
#
# Youngs Moduli (GPa) = 29.58644 8.54635 52.47035
#
# Poissons Ratio (x) = 0.00007 0.27890
# Poissons Ratio (y) = 0.00024 1.11111
# Poissons Ratio (z) = 0.15726 0.18098
#
# Static dielectric constant tensor:
#      x y z
#    x 1.797400 0.000000 0.067050 
#    y 0.000000 1.729160 0.000000 
#    z 0.067050 0.000000 1.795920 
# 
# From -- ./inp_files/382308.got.cif
#   From: 2010.05.17/outbox.ucp.g08.bks.cvg/sg12_192_cif.got.tgz:382308.got - 2010.06.11 11:47:21.
