data_PCOD9223605
_publ_section_title
;
Structure prediction by ZEFSAII (Michael W. Deem and Ramdas Pophale) SiO2 
 PCOD9223605
Probable space group: C 2/M
;
_chemical_formula_sum "Si O2"
_cell_formula_units_Z 26
_cell_length_a 18.000000
_cell_length_b 27.000000
_cell_length_c 12.000000
_cell_angle_alpha 90.000000
_cell_angle_beta 150.000000
_cell_angle_gamma 90.000000
_cell_volume 2916.000000
_symmetry_space_group_name_H-M "C 2/M"
_symmetry_group_IT_number 12
_symmetry_cell_setting 'monoclinic'
loop_
_space_group_symop_operation_xyz
x,y,z
-x,y,-z
-x,-y,-z
x,-y,z
1/2+x,1/2+y,z
1/2-x,1/2+y,-z
1/2-x,1/2-y,-z
1/2+x,1/2-y,z
loop_
_atom_site_type_symbol
_atom_site_label
_atom_site_fract_x
_atom_site_fract_y
_atom_site_fract_z
Si Si1 0.276256 0.634068 0.872279
Si Si2 0.444279 0.705379 0.747665
Si Si3 0.524146 0.442195 0.166158
Si Si4 0.000000 0.688079 0.500000
Si Si5 0.278742 0.130793 0.453741
Si Si6 0.029379 0.683281 0.909984
Si Si7 0.860688 0.211973 0.387726
O O1 0.122247 0.655201 0.725260
O O2 0.213908 0.620982 0.668057
O O3 0.500000 0.560571 0.000000
O O4 0.384400 0.587169 0.040253
O O5 0.603340 0.678425 0.964435
O O6 0.330447 0.678199 0.680516
O O7 0.460187 0.762666 0.796108
O O8 0.377534 0.697809 0.537914
O O9 0.531064 0.500000 0.206246
O O10 0.679251 0.412207 0.383502
O O11 0.104345 0.728429 0.571057
O O12 0.435449 0.144844 0.712996
O O13 0.207075 0.693521 0.134121
O O14 0.000000 0.669886 0.000000
O O15 0.000000 0.190524 0.500000
#
# Coordination Sequence:
#
# PCOD9223605 Si02
#       7
#     8   8   8   4   8   8   8
#     4  10  19  32  51  75 100 139 169 209 260 304
#     4  11  19  32  48  69 102 139 175 212 240 301
#     4   8  16  33  55  79 100 122 159 215 276 316
#     4  10  20  34  41  68 110 140 181 198 240 298
#     4  10  20  31  53  76 101 127 172 217 258 305
#     4  12  21  31  49  72 102 139 177 213 246 293
#     4  10  23  34  45  68 102 151 177 205 246 287
#
# _framework density 8.9163239999999995
#
# number of rings (size 3 to 8) (size 9 to 14) (size 15 to 20)
#    0.462    1.385    3.077    3.692    0.000    3.692 
#    0.000    0.385    0.000    0.462    0.000    0.000 
#    0.000   10.462    0.000    0.000    0.000    0.000 
#
# Total GULP energy -144737.428977 kJ/mol
# GULP energy per Si atom -5566.824191 kJ/mol
# Density = 0.889603 g / cm^3
# Si number density = 8.916324 Si / 1000 Ang^3
#
#
#
# Elastic Constant Matrix: (Units=GPa)
#
#
# Indices 1 2 3 4 5 6 
#
# 1 33.7056 11.4199 27.4303 0.0000 15.7087 0.0000
# 2 11.4199 91.5003 43.7850 0.0000 10.9286 0.0000
# 3 27.4303 43.7850 132.2398 0.0000 23.5583 0.0000
# 4 0.0000 0.0000 0.0000 20.0561 0.0000 2.5615
# 5 15.7087 10.9286 23.5583 0.0000 36.1579 0.0000
# 6 0.0000 0.0000 0.0000 2.5615 0.0000 10.0072
#
#
#
# Elastic Compliance Matrix: (Units=1/GPa)
#
#
# Indices 1 2 3 4 5 6 
#
# 1 0.041101 -0.000685 -0.005831 0.000000 -0.013850 0.000000
# 2 -0.000685 0.013050 -0.003992 0.000000 -0.001045 0.000000
# 3 -0.005831 -0.003992 0.010665 0.000000 -0.003209 0.000000
# 4 0.000000 0.000000 0.000000 0.051545 0.000000 -0.013194
# 5 -0.013850 -0.001045 -0.003209 0.000000 0.036080 0.000000
# 6 0.000000 0.000000 0.000000 -0.013194 0.000000 0.103305
#
#
# Mechanical properties :
#
#
# Convention : Reuss Voigt Hill
#
# Bulk Modulus (GPa) = 22.83190 46.96845 34.90018
# Shear Modulus (GPa) = 17.16068 24.89828 21.02948
#
# Velocity S-wave (km/s) = 3.10549 3.74066 3.43777
# Velocity P-wave (km/s) = 5.06853 6.71210 5.94736
#
# Compressibility (1/GPa) = 0.04379837
#
# Stress axis : x y z
#
# Youngs Moduli (GPa) = 24.33008 76.62963 93.76327
#
# Poissons Ratio (x) = 0.05250 0.54677
# Poissons Ratio (y) = 0.01667 0.37435
# Poissons Ratio (z) = 0.14188 0.30594
#
# Static dielectric constant tensor:
#      x y z
#    x 1.697440 0.000000 0.024150 
#    y 0.000000 1.614470 0.000000 
#    z 0.024150 0.000000 1.630620 
# 
# From -- ./inp_files/160825.got.cif
#   From: 2010.05.17/outbox.ucp.g08.bks.cvg/sg12_81_cif.got.tgz:160825.got - 2010.06.11 11:47:21.
