data_PCOD9223595
_publ_section_title
;
Structure prediction by ZEFSAII (Michael W. Deem and Ramdas Pophale) SiO2 
 PCOD9223595
Probable space group: C 2/M
;
_chemical_formula_sum "Si O2"
_cell_formula_units_Z 32
_cell_length_a 24.000000
_cell_length_b 9.000000
_cell_length_c 21.000000
_cell_angle_alpha 90.000000
_cell_angle_beta 60.000000
_cell_angle_gamma 90.000000
_cell_volume 3928.291232
_symmetry_space_group_name_H-M "C 2/M"
_symmetry_group_IT_number 12
_symmetry_cell_setting 'monoclinic'
loop_
_space_group_symop_operation_xyz
x,y,z
-x,y,-z
-x,-y,-z
x,-y,z
1/2+x,1/2+y,z
1/2-x,1/2+y,-z
1/2-x,1/2-y,-z
1/2+x,1/2-y,z
loop_
_atom_site_type_symbol
_atom_site_label
_atom_site_fract_x
_atom_site_fract_y
_atom_site_fract_z
Si Si1 0.559914 0.821352 0.708785
Si Si2 0.353979 0.674643 0.436289
Si Si3 0.180437 0.822974 0.880357
Si Si4 0.057520 0.320993 0.013898
Si Si5 0.668530 0.824505 0.750884
Si Si6 0.213453 0.320540 0.080951
Si Si7 0.933361 0.680371 0.846276
Si Si8 0.745797 0.675899 0.412106
O O1 0.586262 0.760345 0.627288
O O2 0.609693 0.779757 0.737511
O O3 0.488842 0.768276 0.767059
O O4 0.561298 0.000000 0.705823
O O5 0.365204 0.500000 0.424872
O O6 0.325901 0.708478 0.522486
O O7 0.294869 0.723915 0.424418
O O8 0.123375 0.751456 0.953817
O O9 0.173154 0.762630 0.813419
O O10 0.247036 0.783770 0.877777
O O11 0.174379 0.000000 0.884107
O O12 0.063344 0.500000 0.006928
O O13 0.045822 0.280536 0.093833
O O14 0.000000 0.275665 0.000000
O O15 0.733438 0.804590 0.672341
O O16 0.659828 0.000000 0.769472
O O17 0.214012 0.500000 0.073100
O O18 0.139361 0.269876 0.124706
O O19 0.250000 0.250000 0.000000
O O20 0.932685 0.500000 0.843629
O O21 0.758406 0.500000 0.419808
#
# Coordination Sequence:
#
# PCOD9223595 Si02
#       8
#     8   8   8   8   8   8   8   8
#     4   9  17  30  47  68  93 121 155 189 222 270
#     4   9  15  24  41  66  95 123 149 183 227 268
#     4  11  22  32  45  69  96 118 146 192 243 276
#     4  10  19  32  51  69  86 118 159 186 215 274
#     4   9  17  30  47  66  92 125 157 185 217 270
#     4  10  20  35  52  68  87 116 155 196 236 275
#     4   9  17  31  50  67  86 117 155 191 224 265
#     4   8  15  27  42  62  90 125 160 185 211 263
#
# _framework density 8.1460360000000005
#
# number of rings (size 3 to 8) (size 9 to 14) (size 15 to 20)
#    0.000    2.625    1.250    2.250    0.000    5.250 
#    0.000    1.250    0.000    0.000    0.000    0.875 
#    0.000    7.000    0.000    0.000    0.000    0.000 
#
# Total GULP energy -178182.489695 kJ/mol
# GULP energy per Si atom -5568.202803 kJ/mol
# Density = 0.812749 g / cm^3
# Si number density = 8.146036 Si / 1000 Ang^3
#
#
#
# Elastic Constant Matrix: (Units=GPa)
#
#
# Indices 1 2 3 4 5 6 
#
# 1 61.3161 10.9124 22.0278 0.0000 -27.1695 0.0000
# 2 10.9124 7.4927 15.6972 0.0001 -7.2116 -0.0001
# 3 22.0278 15.6972 85.6723 0.0001 -39.1639 0.0000
# 4 0.0000 0.0001 0.0001 22.8286 -0.0001 -6.2122
# 5 -27.1695 -7.2116 -39.1639 -0.0001 20.7612 0.0001
# 6 0.0000 -0.0001 0.0000 -6.2122 0.0001 9.4737
#
#
#
# Elastic Compliance Matrix: (Units=1/GPa)
#
#
# Indices 1 2 3 4 5 6 
#
# 1 -0.017770 0.025646 -0.048587 0.000000 -0.106001 0.000001
# 2 0.025646 0.179620 0.031670 0.000000 0.155697 0.000002
# 3 -0.048587 0.031670 -0.041229 0.000000 -0.130358 0.000002
# 4 0.000000 0.000000 0.000000 0.053319 0.000000 0.034963
# 5 -0.106001 0.155697 -0.130358 0.000000 -0.282377 0.000005
# 6 0.000001 0.000002 0.000002 0.034963 0.000005 0.128481
#
#
# Mechanical properties :
#
#
# Convention : Reuss Voigt Hill
#
# Bulk Modulus (GPa) = 7.24228 27.97290 17.60759
# Shear Modulus (GPa) = 102.85441 17.66896 60.26168
#
# Velocity S-wave (km/s) = 7.95416 3.29677 6.08840
# Velocity P-wave (km/s) = 9.42407 5.63014 7.76246
#
# Compressibility (1/GPa) = 0.13807805
#
# Stress axis : x y z
#
# Youngs Moduli (GPa) = -56.27419 5.56732 -24.25479
#
# Poissons Ratio (x) = -0.14278 -1.17847
# Poissons Ratio (y) = 1.44319 0.76815
# Poissons Ratio (z) = -2.73419 -0.17632
#
# Static dielectric constant tensor:
#      x y z
#    x 1.533130 0.000000 -0.026180 
#    y 0.000000 1.549500 0.000000 
#    z -0.026180 0.000000 1.577930 
# 
# From -- ./inp_files/323681.got.cif
#   From: 2010.05.17/outbox.ucp.g08.bks.cvg/sg12_162_cif.got.tgz:323681.got - 2010.06.11 11:47:21.
