data_PCOD9223878
_publ_section_title
;
Structure prediction by ZEFSAII (Michael W. Deem and Ramdas Pophale) SiO2 
 PCOD9223878
Probable space group: C 2/M
;
_chemical_formula_sum "Si O2"
_cell_formula_units_Z 28
_cell_length_a 15.000000
_cell_length_b 9.000000
_cell_length_c 21.000000
_cell_angle_alpha 90.000000
_cell_angle_beta 90.000000
_cell_angle_gamma 90.000000
_cell_volume 2835.000000
_symmetry_space_group_name_H-M "C 2/M"
_symmetry_group_IT_number 12
_symmetry_cell_setting 'monoclinic'
loop_
_space_group_symop_operation_xyz
x,y,z
-x,y,-z
-x,-y,-z
x,-y,z
1/2+x,1/2+y,z
1/2-x,1/2+y,-z
1/2-x,1/2-y,-z
1/2+x,1/2-y,z
loop_
_atom_site_type_symbol
_atom_site_label
_atom_site_fract_x
_atom_site_fract_y
_atom_site_fract_z
Si Si1 0.174423 0.324164 0.880456
Si Si2 0.024277 0.676488 0.780922
Si Si3 0.601719 0.819202 0.012278
Si Si4 0.124053 0.320958 0.653912
Si Si5 0.652402 0.820361 0.156021
Si Si6 0.530059 0.673569 0.426481
Si Si7 0.222701 0.319427 0.431143
O O1 0.194935 0.500000 0.881919
O O2 0.079429 0.306780 0.846001
O O3 0.248915 0.243952 0.838289
O O4 0.162626 0.267787 0.952988
O O5 0.014234 0.500000 0.768764
O O6 0.087118 0.729415 0.723282
O O7 0.924171 0.733515 0.794985
O O8 0.627792 0.775004 0.083429
O O9 0.604008 0.000000 0.010271
O O10 0.500000 0.773567 0.000000
O O11 0.138743 0.500000 0.653783
O O12 0.209429 0.238599 0.623413
O O13 0.042697 0.272576 0.608990
O O14 0.653908 0.000000 0.158665
O O15 0.500000 0.671186 0.500000
O O16 0.531934 0.500000 0.405075
O O17 0.625158 0.752249 0.418316
O O18 0.223469 0.500000 0.434261
O O19 0.250000 0.250000 0.500000
#
# Coordination Sequence:
#
# PCOD9223878 Si02
#       7
#     8   8   8   8   8   8   8
#     4  10  19  34  56  82 112 148 193 238 287 340
#     4   9  20  38  58  80 112 155 196 232 277 346
#     4   9  15  28  55  82 105 146 194 237 283 340
#     4  11  23  40  62  89 121 157 198 243 293 350
#     4  10  19  34  56  82 112 147 193 240 286 338
#     4  11  23  40  64  92 121 153 192 239 292 347
#     4  12  24  40  64  93 122 154 191 237 292 349
#
# _framework density 9.8765429999999999
#
# number of rings (size 3 to 8) (size 9 to 14) (size 15 to 20)
#    0.000    1.714    2.857    2.571    0.000    1.714 
#    0.000    6.429    0.000    0.857    0.000    0.000 
#    0.000    0.000    0.000    0.000    0.000    0.000 
#
# Total GULP energy -156204.774212 kJ/mol
# GULP energy per Si atom -5578.741936 kJ/mol
# Density = 0.985406 g / cm^3
# Si number density = 9.876543 Si / 1000 Ang^3
#
#
#
# Elastic Constant Matrix: (Units=GPa)
#
#
# Indices 1 2 3 4 5 6 
#
# 1 128.0417 22.1154 15.0370 0.0000 -42.4367 0.0000
# 2 22.1154 60.8070 9.5228 0.0000 -16.2875 0.0000
# 3 15.0370 9.5228 69.6698 0.0000 -35.4434 0.0000
# 4 0.0000 0.0000 0.0000 16.8668 0.0000 -10.4615
# 5 -42.4367 -16.2875 -35.4434 0.0000 40.2371 0.0000
# 6 0.0000 0.0000 0.0000 -10.4615 0.0000 22.5616
#
#
#
# Elastic Compliance Matrix: (Units=1/GPa)
#
#
# Indices 1 2 3 4 5 6 
#
# 1 0.014242 -0.000567 0.008205 0.000000 0.022019 0.000000
# 2 -0.000567 0.018676 0.002014 0.000000 0.008736 0.000000
# 3 0.008205 0.002014 0.031029 0.000000 0.036802 0.000000
# 4 0.000000 0.000000 0.000000 0.083223 0.000000 0.038589
# 5 0.022019 0.008736 0.036802 0.000000 0.084028 0.000000
# 6 0.000000 0.000000 0.000000 0.038589 0.000000 0.062217
#
#
# Mechanical properties :
#
#
# Convention : Reuss Voigt Hill
#
# Bulk Modulus (GPa) = 12.01174 39.09656 25.55415
# Shear Modulus (GPa) = 16.56387 30.05599 23.30993
#
# Velocity S-wave (km/s) = 2.89891 3.90498 3.43893
# Velocity P-wave (km/s) = 4.15921 6.33778 5.36034
#
# Compressibility (1/GPa) = 0.08325192
#
# Stress axis : x y z
#
# Youngs Moduli (GPa) = 70.21549 53.54399 32.22744
#
# Poissons Ratio (x) = 0.03036 -0.26443
# Poissons Ratio (y) = 0.03981 -0.06490
# Poissons Ratio (z) = -0.57614 -0.10783
#
# Static dielectric constant tensor:
#      x y z
#    x 1.710010 0.000000 0.015740 
#    y 0.000000 1.663070 0.000000 
#    z 0.015740 0.000000 1.716800 
# 
# From -- ./inp_files/309040.got.cif
#   From: 2010.05.17/outbox.ucp.g08.bks.cvg/sg12_155_cif.got.tgz:309040.got - 2010.06.11 11:47:21.
