data_PCOD9223799
_publ_section_title
;
Structure prediction by ZEFSAII (Michael W. Deem and Ramdas Pophale) SiO2 
 PCOD9223799
Probable space group: C 2/M
;
_chemical_formula_sum "Si O2"
_cell_formula_units_Z 28
_cell_length_a 27.000000
_cell_length_b 9.000000
_cell_length_c 18.000000
_cell_angle_alpha 90.000000
_cell_angle_beta 40.000000
_cell_angle_gamma 90.000000
_cell_volume 2811.553005
_symmetry_space_group_name_H-M "C 2/M"
_symmetry_group_IT_number 12
_symmetry_cell_setting 'monoclinic'
loop_
_space_group_symop_operation_xyz
x,y,z
-x,y,-z
-x,-y,-z
x,-y,z
1/2+x,1/2+y,z
1/2-x,1/2+y,-z
1/2-x,1/2-y,-z
1/2+x,1/2-y,z
loop_
_atom_site_type_symbol
_atom_site_label
_atom_site_fract_x
_atom_site_fract_y
_atom_site_fract_z
Si Si1 0.020113 0.172053 0.651785
Si Si2 0.055056 0.827332 0.788660
Si Si3 0.216241 0.321857 0.614750
Si Si4 0.110900 0.820991 0.019145
Si Si5 0.725633 0.820496 0.186907
Si Si6 0.633805 0.822751 0.153413
Si Si7 0.165306 0.679254 0.410092
O O1 0.040020 0.174667 0.716970
O O2 0.092405 0.240380 0.528020
O O3 0.947956 0.277011 0.717852
O O4 0.004500 0.000000 0.650752
O O5 0.127106 0.724727 0.722768
O O6 0.972335 0.773935 0.914871
O O7 0.070342 0.000000 0.792446
O O8 0.226473 0.500000 0.601449
O O9 0.250000 0.250000 0.500000
O O10 0.262426 0.245632 0.628499
O O11 0.129099 0.759022 0.080158
O O12 0.105926 0.000000 0.029736
O O13 0.188160 0.776978 0.888113
O O14 0.697711 0.767223 0.138460
O O15 0.670330 0.782299 0.317563
O O16 0.725814 0.000000 0.180771
O O17 0.640428 0.000000 0.135286
O O18 0.163037 0.500000 0.421413
#
# Coordination Sequence:
#
# PCOD9223799 Si02
#       7
#     8   8   8   8   8   8   8
#     4  10  20  35  54  80 113 145 183 226 276 329
#     4   9  18  33  56  82 108 139 180 227 273 319
#     4  12  23  36  57  83 111 141 179 224 277 331
#     4   9  18  36  59  82 111 144 186 230 270 321
#     4   9  20  37  56  80 111 150 187 226 273 328
#     4  10  19  33  56  84 112 143 187 231 274 322
#     4  11  22  37  57  80 110 146 186 227 276 330
#
# _framework density 9.9589090000000002
#
# number of rings (size 3 to 8) (size 9 to 14) (size 15 to 20)
#    0.000    2.000    1.429    3.857    0.000    2.857 
#    0.000    8.571    0.000    4.286    0.000    0.000 
#    0.000    0.000    0.000    0.000    0.000    0.000 
#
# Total GULP energy -156121.739318 kJ/mol
# GULP energy per Si atom -5575.776404 kJ/mol
# Density = 0.993624 g / cm^3
# Si number density = 9.958909 Si / 1000 Ang^3
#
#
#
# Elastic Constant Matrix: (Units=GPa)
#
#
# Indices 1 2 3 4 5 6 
#
# 1 -1.2781 -46.8792 -4.5587 -0.0039 -6.6468 0.0026
# 2 -46.8792 -12.9762 -17.8114 -0.0051 9.7021 0.0031
# 3 -4.5587 -17.8114 33.4968 -0.0040 -20.9411 0.0024
# 4 -0.0039 -0.0051 -0.0040 12.4903 0.0014 -4.9053
# 5 -6.6468 9.7021 -20.9411 0.0014 26.9639 -0.0009
# 6 0.0026 0.0031 0.0024 -4.9053 -0.0009 23.6400
#
#
#
# Elastic Compliance Matrix: (Units=1/GPa)
#
#
# Indices 1 2 3 4 5 6 
#
# 1 0.009661 -0.021501 -0.007372 -0.000008 0.004393 0.000001
# 2 -0.021501 0.003592 -0.009986 -0.000006 -0.014348 0.000001
# 3 -0.007372 -0.009986 0.047914 0.000005 0.038988 0.000000
# 4 -0.000008 -0.000006 0.000005 0.087165 0.000000 0.018087
# 5 0.004393 -0.014348 0.038988 0.000000 0.073612 0.000000
# 6 0.000001 0.000001 0.000000 0.018087 0.000000 0.046054
#
#
# Mechanical properties :
#
#
# Convention : Reuss Voigt Hill
#
# Bulk Modulus (GPa) = -60.42287 -13.25070 -36.83678
# Shear Modulus (GPa) = 14.69729 18.51831 16.60780
#
# Velocity S-wave (km/s) = 2.71937 3.05246 2.89072
# Velocity P-wave (km/s) = 4.53232 2.39922 2.71898
#
# Compressibility (1/GPa) = -0.01655003
#
# Stress axis : x y z
#
# Youngs Moduli (GPa) = 103.50481 278.42388 20.87062
#
# Poissons Ratio (x) = 5.98635 0.15385
# Poissons Ratio (y) = 2.22544 0.20842
# Poissons Ratio (z) = 0.76299 2.78043
#
# Static dielectric constant tensor:
#      x y z
#    x 1.718280 0.000000 -0.056450 
#    y 0.000000 1.649780 0.000000 
#    z -0.056450 0.000000 1.819760 
# 
# From -- ./inp_files/292366.got.cif
#   From: 2010.05.17/outbox.ucp.g08.bks.cvg/sg12_147_cif.got.tgz:292366.got - 2010.06.11 11:47:21.
