data_PCOD9223120
_publ_section_title
;
Structure prediction by ZEFSAII (Michael W. Deem and Ramdas Pophale) SiO2 
 PCOD9223120
Probable space group: C 2/M
;
_chemical_formula_sum "Si O2"
_cell_formula_units_Z 56
_cell_length_a 15.817938
_cell_length_b 34.034409
_cell_length_c 7.575790
_cell_angle_alpha 90.000000
_cell_angle_beta 118.615974
_cell_angle_gamma 90.000000
_cell_volume 3580.272375
_symmetry_space_group_name_H-M "C 2/M"
_symmetry_group_IT_number 12
_symmetry_cell_setting 'monoclinic'
loop_
_space_group_symop_operation_xyz
x,y,z
-x,y,-z
-x,-y,-z
x,-y,z
1/2+x,1/2+y,z
1/2-x,1/2+y,-z
1/2-x,1/2-y,-z
1/2+x,1/2-y,z
loop_
_atom_site_type_symbol
_atom_site_label
_atom_site_fract_x
_atom_site_fract_y
_atom_site_fract_z
Si Si1 0.383077 0.044751 0.883077
Si Si2 0.608317 0.728969 0.394459
Si Si3 0.391683 0.271031 0.177825
Si Si4 0.884167 0.393281 0.591274
Si Si5 0.803508 0.310768 0.511243
Si Si6 0.303508 0.189232 0.095772
Si Si7 0.884167 0.606719 0.177060
O O1 0.355512 0.070007 0.683563
O O2 0.347721 0.000000 0.847721
O O3 0.500000 0.043161 0.000000
O O4 0.355512 0.070007 0.027461
O O5 0.609453 0.729820 0.609453
O O6 0.500000 0.719993 0.228471
O O7 0.690993 0.698790 0.420958
O O8 0.640838 0.772338 0.362100
O O9 0.359162 0.227662 0.080424
O O10 0.309007 0.301210 0.038973
O O11 0.836539 0.352928 0.612281
O O12 0.860439 0.399262 0.360439
O O13 1.000000 0.388521 0.718760
O O14 0.826714 0.312110 0.326714
O O15 0.336539 0.147072 0.060797
#
# Coordination Sequence:
#
# PCOD9223120 Si02
#       7
#     8   8   8   8   8   8   8
#     4   9  18  30  44  66  91 115 147 183 220 266
#     4   9  17  28  41  58  84 116 147 183 221 254
#     4   9  17  28  41  58  84 116 147 183 221 254
#     4   9  17  29  45  64  88 118 148 180 217 260
#     4   9  17  28  42  60  83 114 150 183 215 255
#     4   9  17  28  42  60  83 114 150 183 215 255
#     4   9  17  29  45  64  88 118 148 180 217 260
#
# _framework density 15.641268
#
# number of rings (size 3 to 8) (size 9 to 14) (size 15 to 20)
#    0.000    3.000    0.000    0.857    2.000    4.571 
#    0.000    2.857    0.000    0.000    0.000    0.000 
#    0.000    2.286    0.000    6.286    0.000    0.286 
#
# Total GULP energy -155990.069429 kJ/mol
# GULP energy per Si atom -5571.073908 kJ/mol
# Density = 1.560567 g / cm^3
# Si number density = 15.641268 Si / 1000 Ang^3
#
#
#
# Elastic Constant Matrix: (Units=GPa)
#
#
# Indices 1 2 3 4 5 6 
#
# 1 39.6778 34.2647 9.5837 0.0000 -1.7078 0.0000
# 2 34.2647 139.2302 41.2257 0.0000 -6.0284 0.0000
# 3 9.5837 41.2257 49.6546 0.0000 -6.9324 0.0000
# 4 0.0000 0.0000 0.0000 17.7475 0.0000 0.9500
# 5 -1.7078 -6.0284 -6.9324 0.0000 20.5577 0.0000
# 6 0.0000 0.0000 0.0000 0.9500 0.0000 18.8446
#
#
#
# Elastic Compliance Matrix: (Units=1/GPa)
#
#
# Indices 1 2 3 4 5 6 
#
# 1 0.032018 -0.008021 0.000548 0.000000 0.000493 0.000000
# 2 -0.008021 0.011533 -0.008026 0.000000 0.000009 0.000000
# 3 0.000548 -0.008026 0.027678 0.000000 0.007025 0.000000
# 4 0.000000 0.000000 0.000000 0.056498 0.000000 -0.002848
# 5 0.000493 0.000009 0.007025 0.000000 0.051056 0.000000
# 6 0.000000 0.000000 0.000000 -0.002848 0.000000 0.053209
#
#
# Mechanical properties :
#
#
# Convention : Reuss Voigt Hill
#
# Bulk Modulus (GPa) = 24.85577 44.30120 34.57848
# Shear Modulus (GPa) = 18.08966 20.99586 19.54276
#
# Velocity S-wave (km/s) = 3.40448 3.66777 3.53857
# Velocity P-wave (km/s) = 5.60175 6.80599 6.23302
#
# Compressibility (1/GPa) = 0.04023211
#
# Stress axis : x y z
#
# Youngs Moduli (GPa) = 31.23212 86.70665 36.13013
#
# Poissons Ratio (x) = 0.69545 -0.01981
# Poissons Ratio (y) = 0.25050 0.28998
# Poissons Ratio (z) = -0.01712 0.69591
#
# Static dielectric constant tensor:
#      x y z
#    x 1.521660 0.000000 -0.033830 
#    y 0.000000 1.516620 0.000000 
#    z -0.033830 0.000000 1.560730 
# 
# From -- ./inp_files/79580.got.cif
#   From: 2010.05.17/outbox.cif.g08.bks.cpg/sg12_40_cif.got.tgz:79580.got - 2010.06.03 13:09:07.
