data_PCOD9223821
_publ_section_title
;
Structure prediction by ZEFSAII (Michael W. Deem and Ramdas Pophale) SiO2 
 PCOD9223821
Probable space group: C 2/M
;
_chemical_formula_sum "Si O2"
_cell_formula_units_Z 32
_cell_length_a 30.000000
_cell_length_b 9.000000
_cell_length_c 24.000000
_cell_angle_alpha 90.000000
_cell_angle_beta 30.000000
_cell_angle_gamma 90.000000
_cell_volume 3240.000000
_symmetry_space_group_name_H-M "C 2/M"
_symmetry_group_IT_number 12
_symmetry_cell_setting 'monoclinic'
loop_
_space_group_symop_operation_xyz
x,y,z
-x,y,-z
-x,-y,-z
x,-y,z
1/2+x,1/2+y,z
1/2-x,1/2+y,-z
1/2-x,1/2-y,-z
1/2+x,1/2-y,z
loop_
_atom_site_type_symbol
_atom_site_label
_atom_site_fract_x
_atom_site_fract_y
_atom_site_fract_z
Si Si1 0.340059 0.820570 0.479306
Si Si2 0.234824 0.178286 0.231114
Si Si3 0.896668 0.177834 0.721698
Si Si4 0.847437 0.321936 0.889455
Si Si5 0.643571 0.322213 0.717315
Si Si6 0.480747 0.821345 0.231354
Si Si7 0.103453 0.178186 0.887009
Si Si8 0.406895 0.678550 0.521076
O O1 0.236245 0.773300 0.587873
O O2 0.408304 0.774982 0.356981
O O3 0.375590 0.754551 0.498313
O O4 0.340827 0.000000 0.480921
O O5 0.190499 0.213766 0.219987
O O6 0.329790 0.249999 0.141001
O O7 0.159942 0.225764 0.357586
O O8 0.243197 0.000000 0.225697
O O9 0.892119 0.267986 0.783543
O O10 0.987253 0.209613 0.589046
O O11 0.896649 0.000000 0.733170
O O12 0.839027 0.500000 0.899316
O O13 0.919513 0.277850 0.858709
O O14 0.750000 0.250000 0.000000
O O15 0.636929 0.500000 0.719075
O O16 0.557674 0.248678 0.782823
O O17 0.644381 0.286399 0.781893
O O18 0.478567 0.000000 0.230343
O O19 0.104104 0.000000 0.893308
O O20 0.000000 0.226687 0.000000
O O21 0.398948 0.500000 0.525314
#
# Coordination Sequence:
#
# PCOD9223821 Si02
#       8
#     8   8   8   8   8   8   8   8
#     4  10  19  35  57  84 117 148 184 234 287 342
#     4  10  21  37  59  88 119 152 191 235 286 343
#     4  10  21  38  60  88 121 153 189 235 287 344
#     4  11  24  42  62  85 115 153 197 243 289 338
#     4  10  21  36  58  85 115 150 187 232 287 344
#     4  10  22  38  58  84 115 147 186 236 285 340
#     4  10  22  40  59  81 112 150 194 242 288 336
#     4  10  19  33  58  88 118 153 188 229 285 346
#
# _framework density 9.8765429999999999
#
# number of rings (size 3 to 8) (size 9 to 14) (size 15 to 20)
#    0.000    1.875    2.500    1.125    0.000    5.750 
#    0.000    2.500    0.000    2.250    0.000    0.000 
#    0.000    0.000    0.000    0.000    0.000    0.000 
#
# Total GULP energy -178657.864434 kJ/mol
# GULP energy per Si atom -5583.058264 kJ/mol
# Density = 0.985406 g / cm^3
# Si number density = 9.876543 Si / 1000 Ang^3
#
#
#
# Elastic Constant Matrix: (Units=GPa)
#
#
# Indices 1 2 3 4 5 6 
#
# 1 96.9087 21.6864 6.9171 0.0043 -40.6112 0.0002
# 2 21.6864 4.9527 12.6099 0.0142 -12.7055 -0.0019
# 3 6.9171 12.6099 64.1165 0.0182 -36.3267 -0.0014
# 4 0.0043 0.0142 0.0182 25.7967 -0.0058 -4.2754
# 5 -40.6112 -12.7055 -36.3267 -0.0058 38.1150 -0.0026
# 6 0.0002 -0.0019 -0.0014 -4.2754 -0.0026 27.4942
#
#
#
# Elastic Compliance Matrix: (Units=1/GPa)
#
#
# Indices 1 2 3 4 5 6 
#
# 1 -0.011480 0.140699 -0.014761 -0.000060 0.020600 0.000002
# 2 0.140699 -0.313778 0.156970 0.000085 0.194922 0.000017
# 3 -0.014761 0.156970 0.015331 -0.000082 0.051209 0.000004
# 4 -0.000060 0.000085 -0.000082 0.039790 -0.000108 0.006187
# 5 0.020600 0.194922 0.051209 -0.000108 0.161968 0.000014
# 6 0.000002 0.000017 0.000004 0.006187 0.000014 0.037333
#
#
# Mechanical properties :
#
#
# Convention : Reuss Voigt Hill
#
# Bulk Modulus (GPa) = 3.90796 27.60054 15.75425
# Shear Modulus (GPa) = -9.06857 26.59881 8.76512
#
# Velocity S-wave (km/s) = -2.14498 3.67354 2.10879
# Velocity P-wave (km/s) = 2.03761 5.65653 3.73125
#
# Compressibility (1/GPa) = 0.25588818
#
# Stress axis : x y z
#
# Youngs Moduli (GPa) = -87.10475 -3.18697 65.22668
#
# Poissons Ratio (x) = 0.44840 0.96284
# Poissons Ratio (y) = 12.25557 -10.23863
# Poissons Ratio (z) = -1.28579 0.50026
#
# Static dielectric constant tensor:
#      x y z
#    x 1.695340 0.000000 0.000010 
#    y 0.000000 1.655470 0.000000 
#    z 0.000010 0.000000 1.706390 
# 
# From -- ./inp_files/243866.got.cif
#   From: 2010.05.17/outbox.ucp.g08.bks.cvg/sg12_122_cif.got.tgz:243866.got - 2010.06.11 11:47:21.
