data_PCOD9223020
_publ_section_title
;
Structure prediction by ZEFSAII (Michael W. Deem and Ramdas Pophale) SiO2 
 PCOD9223020
Probable space group: C 2/M
;
_chemical_formula_sum "Si O2"
_cell_formula_units_Z 32
_cell_length_a 13.076075
_cell_length_b 22.504481
_cell_length_c 8.739885
_cell_angle_alpha 90.000000
_cell_angle_beta 148.779152
_cell_angle_gamma 90.000000
_cell_volume 1333.108047
_symmetry_space_group_name_H-M "C 2/M"
_symmetry_group_IT_number 12
_symmetry_cell_setting 'monoclinic'
loop_
_space_group_symop_operation_xyz
x,y,z
-x,y,-z
-x,-y,-z
x,-y,z
1/2+x,1/2+y,z
1/2-x,1/2+y,-z
1/2-x,1/2-y,-z
1/2+x,1/2-y,z
loop_
_atom_site_type_symbol
_atom_site_label
_atom_site_fract_x
_atom_site_fract_y
_atom_site_fract_z
Si Si1 0.512570 0.348723 0.698252
Si Si2 0.669118 0.249506 0.098547
Si Si3 0.875648 0.331305 0.584448
Si Si4 0.705070 0.432555 0.166610
O O1 0.500000 0.346390 0.500000
O O2 0.647037 0.295325 0.932435
O O3 0.299658 0.341245 0.512717
O O4 0.629776 0.406146 0.909585
O O5 0.574555 0.186060 0.929021
O O6 0.500000 0.271482 0.000000
O O7 0.845797 0.273963 0.432024
O O8 0.853251 0.388476 0.446479
O O9 0.774669 0.500000 0.247200
O O10 0.500000 0.431488 0.000000
#
# Coordination Sequence:
#
# PCOD9223020 Si02
#       4
#     8   8   8   8
#     4   9  16  25  40  66  90 107 135 178 216 244
#     4   9  16  29  44  61  88 116 140 168 208 257
#     4   9  17  30  46  63  86 116 143 170 207 254
#     4   8  15  28  43  58  80 113 146 171 203 249
#
# _framework density 24.004055000000001
#
# number of rings (size 3 to 8) (size 9 to 14) (size 15 to 20)
#    0.000    3.250    0.000    6.000    0.000    0.500 
#    0.000   20.000    0.000    0.750    0.000    7.000 
#    0.000    9.000    0.000    2.000    0.000    6.000 
#
# Total GULP energy -89156.125955 kJ/mol
# GULP energy per Si atom -5572.257872 kJ/mol
# Density = 2.394942 g / cm^3
# Si number density = 24.004055 Si / 1000 Ang^3
#
#
#
# Elastic Constant Matrix: (Units=GPa)
#
#
# Indices 1 2 3 4 5 6 
#
# 1 150.4755 31.0074 49.1192 0.0000 -20.1003 0.0000
# 2 31.0074 168.1865 62.4438 0.0000 -25.4495 0.0000
# 3 49.1192 62.4438 151.8960 0.0000 -42.1856 0.0000
# 4 0.0000 0.0000 0.0000 34.9506 0.0000 -12.7272
# 5 -20.1003 -25.4495 -42.1856 0.0000 48.8105 0.0000
# 6 0.0000 0.0000 0.0000 -12.7272 0.0000 7.1704
#
#
#
# Elastic Compliance Matrix: (Units=1/GPa)
#
#
# Indices 1 2 3 4 5 6 
#
# 1 0.007528 -0.000503 -0.001894 0.000000 0.001201 0.000000
# 2 -0.000503 0.007139 -0.002363 0.000000 0.001473 0.000000
# 3 -0.001894 -0.002363 0.010012 0.000000 0.006641 0.000000
# 4 0.000000 0.000000 0.000000 0.080903 0.000000 0.143599
# 5 0.001201 0.001473 0.006641 0.000000 0.027489 0.000000
# 6 0.000000 0.000000 0.000000 0.143599 0.000000 0.394343
#
#
# Mechanical properties :
#
#
# Convention : Reuss Voigt Hill
#
# Bulk Modulus (GPa) = 65.97116 83.96654 74.96885
# Shear Modulus (GPa) = 9.22533 40.05216 24.63874
#
# Velocity S-wave (km/s) = 1.96254 4.08923 3.20729
# Velocity P-wave (km/s) = 5.71651 7.57310 6.70933
#
# Compressibility (1/GPa) = 0.01515814
#
# Stress axis : x y z
#
# Youngs Moduli (GPa) = 132.83884 140.08179 99.88298
#
# Poissons Ratio (x) = 0.07045 0.18919
# Poissons Ratio (y) = 0.06681 0.23603
# Poissons Ratio (z) = 0.25161 0.33102
#
# Static dielectric constant tensor:
#      x y z
#    x 2.132220 0.000000 -0.120210 
#    y 0.000000 1.900310 0.000000 
#    z -0.120210 0.000000 2.146100 
# 
# From -- ./inp_files/63879.got.cif
#   From: 2010.05.17/outbox.cif.g08.bks.cpg/sg12_32_cif.got.tgz:63879.got - 2010.06.03 13:09:07.
