data_PCOD9223610
_publ_section_title
;
Structure prediction by ZEFSAII (Michael W. Deem and Ramdas Pophale) SiO2 
 PCOD9223610
Probable space group: C 2/M
;
_chemical_formula_sum "Si O2"
_cell_formula_units_Z 28
_cell_length_a 21.000000
_cell_length_b 9.000000
_cell_length_c 18.000000
_cell_angle_alpha 90.000000
_cell_angle_beta 120.000000
_cell_angle_gamma 90.000000
_cell_volume 2946.218424
_symmetry_space_group_name_H-M "C 2/M"
_symmetry_group_IT_number 12
_symmetry_cell_setting 'monoclinic'
loop_
_space_group_symop_operation_xyz
x,y,z
-x,y,-z
-x,-y,-z
x,-y,z
1/2+x,1/2+y,z
1/2-x,1/2+y,-z
1/2-x,1/2-y,-z
1/2+x,1/2-y,z
loop_
_atom_site_type_symbol
_atom_site_label
_atom_site_fract_x
_atom_site_fract_y
_atom_site_fract_z
Si Si1 0.710571 0.179677 0.197407
Si Si2 0.609412 0.820629 0.273386
Si Si3 0.814463 0.318899 0.988266
Si Si4 0.538713 0.179053 0.648079
Si Si5 0.844004 0.179524 0.383180
Si Si6 0.439114 0.179227 0.175098
Si Si7 0.122989 0.821535 0.433547
O O1 0.645589 0.218806 0.216237
O O2 0.781710 0.226159 0.287301
O O3 0.714262 0.000000 0.195179
O O4 0.696452 0.229956 0.104294
O O5 0.524096 0.776192 0.218354
O O6 0.646114 0.747461 0.367625
O O7 0.613840 0.000000 0.285352
O O8 0.811583 0.500000 0.987373
O O9 0.887937 0.271759 0.076908
O O10 0.750000 0.250000 0.000000
O O11 0.583276 0.241766 0.604833
O O12 0.580038 0.220283 0.750484
O O13 0.458660 0.253493 0.603162
O O14 0.531839 0.000000 0.641637
O O15 0.833424 0.215197 0.464576
O O16 0.851008 0.000000 0.383201
O O17 0.437090 0.000000 0.171693
O O18 0.120121 0.000000 0.425616
#
# Coordination Sequence:
#
# PCOD9223610 Si02
#       7
#     8   8   8   8   8   8   8
#     4   9  19  34  53  75 100 133 169 205 245 295
#     4   9  18  35  54  73  99 130 169 210 246 291
#     4  10  19  33  53  77 103 130 162 199 246 299
#     4  10  19  32  51  76 103 130 166 208 249 296
#     4  10  20  33  48  71 103 135 167 205 251 297
#     4   8  16  30  50  75 100 126 159 204 247 285
#     4  10  20  33  50  72 100 133 167 207 253 298
#
# _framework density 9.5037079999999996
#
# number of rings (size 3 to 8) (size 9 to 14) (size 15 to 20)
#    0.000    2.571    0.000    3.000    0.000    4.000 
#    0.000    7.143    0.000    0.000    0.000    5.000 
#    0.000    0.000    0.000    0.000    0.000    0.000 
#
# Total GULP energy -155978.137491 kJ/mol
# GULP energy per Si atom -5570.647768 kJ/mol
# Density = 0.948208 g / cm^3
# Si number density = 9.503708 Si / 1000 Ang^3
#
#
#
# Elastic Constant Matrix: (Units=GPa)
#
#
# Indices 1 2 3 4 5 6 
#
# 1 82.0734 12.3702 62.8008 0.0000 -20.2032 0.0000
# 2 12.3702 22.9698 28.8954 0.0000 -4.7116 0.0000
# 3 62.8008 28.8954 188.1322 0.0000 -28.9748 0.0000
# 4 0.0000 0.0000 0.0000 27.9704 0.0000 -5.9863
# 5 -20.2032 -4.7116 -28.9748 0.0000 34.7642 0.0000
# 6 0.0000 0.0000 0.0000 -5.9863 0.0000 16.9569
#
#
#
# Elastic Compliance Matrix: (Units=1/GPa)
#
#
# Indices 1 2 3 4 5 6 
#
# 1 0.017521 -0.002490 -0.004532 0.000000 0.006068 0.000000
# 2 -0.002490 0.054322 -0.007573 0.000000 -0.000397 0.000000
# 3 -0.004532 -0.007573 0.008521 0.000000 0.003442 0.000000
# 4 0.000000 0.000000 0.000000 0.038674 0.000000 0.013653
# 5 0.006068 -0.000397 0.003442 0.000000 0.035107 0.000000
# 6 0.000000 0.000000 0.000000 0.013653 0.000000 0.063793
#
#
# Mechanical properties :
#
#
# Convention : Reuss Voigt Hill
#
# Bulk Modulus (GPa) = 19.54118 55.70091 37.62104
# Shear Modulus (GPa) = 18.92602 28.54557 23.73579
#
# Velocity S-wave (km/s) = 3.15892 3.87953 3.53762
# Velocity P-wave (km/s) = 4.85883 7.03108 6.04335
#
# Compressibility (1/GPa) = 0.05117398
#
# Stress axis : x y z
#
# Youngs Moduli (GPa) = 57.07544 18.40869 117.35042
#
# Poissons Ratio (x) = 0.04584 0.53179
# Poissons Ratio (y) = 0.14214 0.88872
# Poissons Ratio (z) = 0.25864 0.13941
#
# Static dielectric constant tensor:
#      x y z
#    x 1.708440 0.000000 0.018810 
#    y 0.000000 1.625860 0.000000 
#    z 0.018810 0.000000 1.689420 
# 
# From -- ./inp_files/281717.got.cif
#   From: 2010.05.17/outbox.ucp.g08.bks.cvg/sg12_141_cif.got.tgz:281717.got - 2010.06.11 11:47:21.
