data_PCOD9223594
_publ_section_title
;
Structure prediction by ZEFSAII (Michael W. Deem and Ramdas Pophale) SiO2 
 PCOD9223594
Probable space group: C 2/M
;
_chemical_formula_sum "Si O2"
_cell_formula_units_Z 32
_cell_length_a 30.000000
_cell_length_b 15.000000
_cell_length_c 12.000000
_cell_angle_alpha 90.000000
_cell_angle_beta 140.000000
_cell_angle_gamma 90.000000
_cell_volume 3471.053092
_symmetry_space_group_name_H-M "C 2/M"
_symmetry_group_IT_number 12
_symmetry_cell_setting 'monoclinic'
loop_
_space_group_symop_operation_xyz
x,y,z
-x,y,-z
-x,-y,-z
x,-y,z
1/2+x,1/2+y,z
1/2-x,1/2+y,-z
1/2-x,1/2-y,-z
1/2+x,1/2-y,z
loop_
_atom_site_type_symbol
_atom_site_label
_atom_site_fract_x
_atom_site_fract_y
_atom_site_fract_z
Si Si1 0.728261 0.349147 0.724076
Si Si2 0.077189 0.709066 0.656566
Si Si3 0.584555 0.276537 0.424941
Si Si4 0.721268 0.898842 0.937488
Si Si5 0.283814 0.647840 0.822601
Si Si6 0.426461 0.727740 0.096160
Si Si7 0.650151 0.100652 0.438260
Si Si8 0.637885 0.899942 0.148864
O O1 0.649010 0.344270 0.529442
O O2 0.736804 0.376120 0.869735
O O3 0.756440 0.248714 0.773963
O O4 0.785024 0.399145 0.757638
O O5 0.078975 0.768963 0.548713
O O6 0.079320 0.755120 0.781661
O O7 0.000000 0.663397 0.500000
O O8 0.149518 0.655464 0.790181
O O9 0.507328 0.296195 0.230716
O O10 0.609231 0.179666 0.424034
O O11 0.698988 0.000000 0.904154
O O12 0.767562 0.887875 0.915387
O O13 0.230464 0.603714 0.633258
O O14 0.365512 0.656365 0.951547
O O15 0.405690 0.820460 0.993332
O O16 0.643943 0.115473 0.293429
O O17 0.624189 0.000000 0.413665
O O18 0.608467 0.000000 0.074556
#
# Coordination Sequence:
#
# PCOD9223594 Si02
#       8
#     8   8   8   8   8   8   8   8
#     4  10  19  33  55  76 105 138 181 217 255 303
#     4  10  19  32  50  79 114 139 161 204 261 314
#     4  10  21  35  55  79 107 141 174 212 263 313
#     4  12  20  31  54  81 106 141 179 213 257 311
#     4  10  19  33  55  76 105 138 181 217 255 303
#     4  10  21  35  55  79 107 141 174 212 263 313
#     4  10  21  36  54  78 107 138 174 218 266 313
#     4  10  21  36  54  78 107 138 174 218 266 313
#
# _framework density 9.2191039999999997
#
# number of rings (size 3 to 8) (size 9 to 14) (size 15 to 20)
#    0.000    1.750    5.000    1.875    0.000    5.750 
#    0.000    3.750    0.000    3.750    0.000    1.750 
#    0.000    0.000    0.000    0.000    0.000    0.000 
#
# Total GULP energy -178271.043941 kJ/mol
# GULP energy per Si atom -5570.970123 kJ/mol
# Density = 0.919812 g / cm^3
# Si number density = 9.219104 Si / 1000 Ang^3
#
#
#
# Elastic Constant Matrix: (Units=GPa)
#
#
# Indices 1 2 3 4 5 6 
#
# 1 38.7700 -8.5799 31.9089 0.0000 3.4872 0.0000
# 2 -8.5799 5.6767 -15.4075 0.0000 -5.4060 0.0000
# 3 31.9089 -15.4075 77.9639 0.0000 19.6841 0.0000
# 4 0.0000 0.0000 0.0000 24.9471 0.0000 -3.8987
# 5 3.4872 -5.4060 19.6841 0.0000 50.5842 0.0000
# 6 0.0000 0.0000 0.0000 -3.8987 0.0000 14.5853
#
#
#
# Elastic Compliance Matrix: (Units=1/GPa)
#
#
# Indices 1 2 3 4 5 6 
#
# 1 0.043529 0.040903 -0.011176 0.000000 0.005719 0.000000
# 2 0.040903 0.425818 0.062804 0.000000 0.018249 0.000000
# 3 -0.011176 0.062804 0.030965 0.000000 -0.004567 0.000000
# 4 0.000000 0.000000 0.000000 0.041832 0.000000 0.011182
# 5 0.005719 0.018249 -0.004567 0.000000 0.023102 0.000000
# 6 0.000000 0.000000 0.000000 0.011182 0.000000 0.071551
#
#
# Mechanical properties :
#
#
# Convention : Reuss Voigt Hill
#
# Bulk Modulus (GPa) = 1.45906 15.36150 8.41028
# Shear Modulus (GPa) = 7.35085 25.65592 16.50339
#
# Velocity S-wave (km/s) = 1.99885 3.73427 2.99501
# Velocity P-wave (km/s) = 2.47391 5.19061 4.06587
#
# Compressibility (1/GPa) = 0.68537444
#
# Stress axis : x y z
#
# Youngs Moduli (GPa) = 22.97335 2.34842 32.29438
#
# Poissons Ratio (x) = -0.09606 0.36092
# Poissons Ratio (y) = -0.93969 -2.02821
# Poissons Ratio (z) = 0.25675 -0.14749
#
# Static dielectric constant tensor:
#      x y z
#    x 1.660790 0.000000 0.014070 
#    y 0.000000 1.657530 0.000000 
#    z 0.014070 0.000000 1.671720 
# 
# From -- ./inp_files/189504.got.cif
#   From: 2010.05.17/outbox.ucp.g08.bks.cvg/sg12_95_cif.got.tgz:189504.got - 2010.06.11 11:47:21.
