data_PCOD9223184
_publ_section_title
;
Structure prediction by ZEFSAII (Michael W. Deem and Ramdas Pophale) SiO2 
 PCOD9223184
Probable space group: C 2/M
;
_chemical_formula_sum "Si O2"
_cell_formula_units_Z 32
_cell_length_a 30.000000
_cell_length_b 15.000000
_cell_length_c 21.000000
_cell_angle_alpha 90.000000
_cell_angle_beta 160.000000
_cell_angle_gamma 90.000000
_cell_volume 3232.090354
_symmetry_space_group_name_H-M "C 2/M"
_symmetry_group_IT_number 12
_symmetry_cell_setting 'monoclinic'
loop_
_space_group_symop_operation_xyz
x,y,z
-x,y,-z
-x,-y,-z
x,-y,z
1/2+x,1/2+y,z
1/2-x,1/2+y,-z
1/2-x,1/2-y,-z
1/2+x,1/2-y,z
loop_
_atom_site_type_symbol
_atom_site_label
_atom_site_fract_x
_atom_site_fract_y
_atom_site_fract_z
Si Si1 0.556446 0.294158 0.423232
Si Si2 0.700027 0.395837 0.503053
Si Si3 0.646316 0.901676 0.670410
Si Si4 0.587326 0.902837 0.441825
Si Si5 0.039471 0.710547 0.121668
Si Si6 0.886987 0.898023 0.293824
Si Si7 0.731232 0.220301 0.175611
Si Si8 0.850970 0.098873 0.714702
O O1 0.607787 0.348808 0.431346
O O2 0.519317 0.193843 0.351231
O O3 0.441915 0.343327 0.307694
O O4 0.675008 0.289468 0.635331
O O5 0.717324 0.500000 0.543073
O O6 0.835823 0.342613 0.686663
O O7 0.651687 0.392461 0.365344
O O8 0.500000 0.882233 0.500000
O O9 0.640191 0.906950 0.585503
O O10 0.739273 0.819658 0.810562
O O11 0.683885 0.000000 0.745163
O O12 0.706816 0.897560 0.552480
O O13 0.520642 0.000000 0.341617
O O14 0.075967 0.814432 0.162555
O O15 0.000000 0.673371 0.000000
O O16 0.915687 0.706117 0.000848
O O17 0.771406 0.848598 0.175093
O O18 0.000000 0.898164 0.500000
O O19 0.858711 0.000000 0.238993
O O20 0.904518 0.000000 0.802269
#
# Coordination Sequence:
#
# PCOD9223184 Si02
#       8
#     8   8   8   8   8   8   8   8
#     4  10  17  33  54  79 107 143 189 236 276 329
#     4  11  23  38  57  82 111 153 198 234 276 332
#     4   9  16  28  48  77 110 142 180 230 282 333
#     4   9  16  28  49  76 105 135 175 226 274 322
#     4  12  22  37  55  85 120 151 180 235 293 343
#     4   9  18  31  49  74 105 145 187 231 278 328
#     4  10  19  31  49  77 115 143 178 225 291 342
#     4  10  22  39  58  81 112 154 197 231 274 340
#
# _framework density 9.9007129999999997
#
# number of rings (size 3 to 8) (size 9 to 14) (size 15 to 20)
#    0.000    2.000    2.500    3.375    0.000    2.000 
#    0.000    0.000    0.000    0.750    0.000    0.000 
#    0.000    0.000    0.000    0.000    0.000    0.000 
#
# Total GULP energy -178525.027152 kJ/mol
# GULP energy per Si atom -5578.907099 kJ/mol
# Density = 0.987818 g / cm^3
# Si number density = 9.900713 Si / 1000 Ang^3
#
#
#
# Elastic Constant Matrix: (Units=GPa)
#
#
# Indices 1 2 3 4 5 6 
#
# 1 111.9060 59.8485 6.8635 0.0000 22.9186 0.0000
# 2 59.8485 164.3340 17.8347 0.0000 21.6101 0.0000
# 3 6.8635 17.8347 6.6626 0.0000 5.8416 0.0000
# 4 0.0000 0.0000 0.0000 3.6177 0.0000 2.6905
# 5 22.9186 21.6101 5.8416 0.0000 26.8099 0.0000
# 6 0.0000 0.0000 0.0000 2.6905 0.0000 35.8043
#
#
#
# Elastic Compliance Matrix: (Units=1/GPa)
#
#
# Indices 1 2 3 4 5 6 
#
# 1 0.012520 -0.004011 0.005424 0.000000 -0.008652 0.000000
# 2 -0.004011 0.009984 -0.022924 0.000000 0.000376 0.000000
# 3 0.005424 -0.022924 0.239483 -0.000001 -0.038340 0.000000
# 4 0.000000 0.000000 -0.000001 0.292777 0.000000 -0.022000
# 5 -0.008652 0.000376 -0.038340 0.000000 0.052747 0.000000
# 6 0.000000 0.000000 0.000000 -0.022000 0.000000 0.029583
#
#
# Mechanical properties :
#
#
# Convention : Reuss Voigt Hill
#
# Bulk Modulus (GPa) = 4.56692 50.22181 27.39436
# Shear Modulus (GPa) = 6.63919 26.47011 16.55465
#
# Velocity S-wave (km/s) = 1.83307 3.66016 2.89456
# Velocity P-wave (km/s) = 2.60607 6.57877 5.00359
#
# Compressibility (1/GPa) = 0.21896579
#
# Stress axis : x y z
#
# Youngs Moduli (GPa) = 79.87026 100.15743 4.17567
#
# Poissons Ratio (x) = 0.40169 -0.02265
# Poissons Ratio (y) = 0.32033 0.09572
# Poissons Ratio (z) = -0.43321 2.29601
#
# Static dielectric constant tensor:
#      x y z
#    x 1.668220 0.000000 -0.005840 
#    y 0.000000 1.732800 0.000000 
#    z -0.005840 0.000000 1.686690 
# 
# From -- ./inp_files/189497.got.cif
#   From: 2010.05.17/outbox.ucp.g08.bks.cvg/sg12_95_cif.got.tgz:189497.got - 2010.06.11 11:47:21.
