data_PCOD9223270
_publ_section_title
;
Structure prediction by ZEFSAII (Michael W. Deem and Ramdas Pophale) SiO2 
 PCOD9223270
Probable space group: C 2/M
;
_chemical_formula_sum "Si O2"
_cell_formula_units_Z 28
_cell_length_a 21.000000
_cell_length_b 9.000000
_cell_length_c 21.000000
_cell_angle_alpha 90.000000
_cell_angle_beta 130.000000
_cell_angle_gamma 90.000000
_cell_volume 3040.430395
_symmetry_space_group_name_H-M "C 2/M"
_symmetry_group_IT_number 12
_symmetry_cell_setting 'monoclinic'
loop_
_space_group_symop_operation_xyz
x,y,z
-x,y,-z
-x,-y,-z
x,-y,z
1/2+x,1/2+y,z
1/2-x,1/2+y,-z
1/2-x,1/2-y,-z
1/2+x,1/2-y,z
loop_
_atom_site_type_symbol
_atom_site_label
_atom_site_fract_x
_atom_site_fract_y
_atom_site_fract_z
Si Si1 0.048485 0.320648 0.355715
Si Si2 0.098406 0.321782 0.924396
Si Si3 0.071138 0.822045 0.133343
Si Si4 0.126976 0.680481 0.794975
Si Si5 0.335692 0.821263 0.692118
Si Si6 0.811325 0.179228 0.907206
Si Si7 0.298943 0.179887 0.471438
O O1 0.045109 0.500000 0.352930
O O2 0.099289 0.283236 0.323577
O O3 0.105703 0.281262 0.452441
O O4 0.954823 0.263474 0.293956
O O5 0.094630 0.500000 0.924987
O O6 0.112265 0.279510 0.859699
O O7 0.014583 0.255185 0.901414
O O8 0.170714 0.256250 0.014382
O O9 0.134409 0.765767 0.227332
O O10 0.115352 0.781172 0.095120
O O11 0.059698 0.000000 0.126381
O O12 0.126073 0.500000 0.792158
O O13 0.217618 0.724364 0.827882
O O14 0.245586 0.759407 0.615364
O O15 0.336651 0.000000 0.700082
O O16 0.813372 0.000000 0.915250
O O17 0.250000 0.250000 0.500000
O O18 0.289412 0.000000 0.463818
#
# Coordination Sequence:
#
# PCOD9223270 Si02
#       7
#     8   8   8   8   8   8   8
#     4   8  14  27  49  75 101 128 165 209 252 297
#     4  11  21  35  57  78 100 133 174 217 259 307
#     4  11  22  35  52  76 105 136 172 214 259 310
#     4   9  17  33  55  77 102 134 172 213 257 303
#     4  10  18  31  51  75 103 135 171 214 260 306
#     4  10  22  37  53  74 104 138 171 213 261 307
#     4   9  16  26  45  75 107 136 167 211 260 307
#
# _framework density 9.2092229999999997
#
# number of rings (size 3 to 8) (size 9 to 14) (size 15 to 20)
#    0.000    2.286    1.429    3.429    0.000    2.857 
#    0.000    0.714    0.000    0.857    0.000    6.000 
#    0.000    0.000    0.000    0.000    0.000    0.000 
#
# Total GULP energy -155993.995737 kJ/mol
# GULP energy per Si atom -5571.214133 kJ/mol
# Density = 0.918826 g / cm^3
# Si number density = 9.209223 Si / 1000 Ang^3
#
#
#
# Elastic Constant Matrix: (Units=GPa)
#
#
# Indices 1 2 3 4 5 6 
#
# 1 44.5240 0.9229 -11.7336 0.0000 11.8759 0.0000
# 2 0.9229 4.9576 -19.5083 0.0000 -0.3056 0.0000
# 3 -11.7336 -19.5083 46.8579 0.0000 11.2664 0.0000
# 4 0.0000 0.0000 0.0000 27.1936 0.0000 1.7214
# 5 11.8759 -0.3056 11.2664 0.0000 18.4726 0.0000
# 6 0.0000 0.0000 0.0000 1.7214 0.0000 14.4125
#
#
#
# Elastic Compliance Matrix: (Units=1/GPa)
#
#
# Indices 1 2 3 4 5 6 
#
# 1 0.023438 -0.043039 -0.009674 0.000000 -0.009880 0.000000
# 2 -0.043039 -0.149070 -0.092457 0.000000 0.081593 0.000000
# 3 -0.009674 -0.092457 -0.024259 0.000000 0.019485 0.000000
# 4 0.000000 0.000000 0.000000 0.037054 0.000000 -0.004426
# 5 -0.009880 0.081593 0.019485 0.000000 0.049952 0.000000
# 6 0.000000 0.000000 0.000000 -0.004426 0.000000 0.069913
#
#
# Mechanical properties :
#
#
# Convention : Reuss Voigt Hill
#
# Bulk Modulus (GPa) = -2.27153 3.96684 0.84765
# Shear Modulus (GPa) = 33.19531 20.45964 26.82747
#
# Velocity S-wave (km/s) = 4.24994 3.33652 3.82062
# Velocity P-wave (km/s) = 4.77982 4.12329 4.46364
#
# Compressibility (1/GPa) = -0.44023237
#
# Stress axis : x y z
#
# Youngs Moduli (GPa) = 42.66604 -6.70824 -41.22198
#
# Poissons Ratio (x) = -0.28872 -0.39878
# Poissons Ratio (y) = 1.83631 -3.81128
# Poissons Ratio (z) = 0.41275 -0.62023
#
# Static dielectric constant tensor:
#      x y z
#    x 1.648660 0.000000 -0.016810 
#    y 0.000000 1.606890 0.000000 
#    z -0.016810 0.000000 1.835440 
# 
# From -- ./inp_files/320201.got.cif
#   From: 2010.05.17/outbox.ucp.g08.bks.cvg/sg12_161_cif.got.tgz:320201.got - 2010.06.11 11:47:21.
