data_PCOD9223988
_publ_section_title
;
Structure prediction by ZEFSAII (Michael W. Deem and Ramdas Pophale) SiO2 
 PCOD9223988
Probable space group: C 2/M
;
_chemical_formula_sum "Si O2"
_cell_formula_units_Z 30
_cell_length_a 30.000000
_cell_length_b 18.000000
_cell_length_c 18.000000
_cell_angle_alpha 90.000000
_cell_angle_beta 20.000000
_cell_angle_gamma 90.000000
_cell_volume 3324.435793
_symmetry_space_group_name_H-M "C 2/M"
_symmetry_group_IT_number 12
_symmetry_cell_setting 'monoclinic'
loop_
_space_group_symop_operation_xyz
x,y,z
-x,y,-z
-x,-y,-z
x,-y,z
1/2+x,1/2+y,z
1/2-x,1/2+y,-z
1/2-x,1/2-y,-z
1/2+x,1/2-y,z
loop_
_atom_site_type_symbol
_atom_site_label
_atom_site_fract_x
_atom_site_fract_y
_atom_site_fract_z
Si Si1 0.306272 0.192911 0.715434
Si Si2 0.000000 0.202341 0.500000
Si Si3 0.772919 0.086658 0.884667
Si Si4 0.072778 0.582113 0.065706
Si Si5 0.332897 0.288721 0.306685
Si Si6 0.851775 0.584361 0.763596
Si Si7 0.803774 0.586276 0.575140
Si Si8 0.595868 0.230251 0.951001
O O1 0.428115 0.245056 0.550718
O O2 0.274213 0.144744 0.838223
O O3 0.321377 0.134033 0.623574
O O4 0.185393 0.241717 0.877508
O O5 0.112097 0.147357 0.292606
O O6 0.818869 0.000000 0.817121
O O7 0.694887 0.094439 0.929636
O O8 0.672850 0.096811 0.110597
O O9 0.086274 0.500000 0.010790
O O10 0.054030 0.647794 0.036774
O O11 0.945471 0.582509 0.316424
O O12 0.250000 0.250000 0.500000
O O13 0.284975 0.366152 0.344523
O O14 0.477535 0.285804 0.115785
O O15 0.324909 0.232617 0.249337
O O16 0.809703 0.500000 0.813502
O O17 0.000000 0.589910 0.500000
O O18 0.760715 0.500000 0.655020
#
# Coordination Sequence:
#
# PCOD9223988 Si02
#       8
#     8   4   8   8   8   8   8   8
#     4  11  22  36  54  86 118 152 198 243 288 339
#     4  12  23  36  55  84 122 164 202 238 289 352
#     4  10  22  38  57  81 119 167 205 244 288 344
#     4  10  19  35  58  85 116 151 194 242 289 346
#     4  10  20  39  63  82 113 146 182 236 296 350
#     4  10  20  37  57  80 113 152 199 249 292 336
#     4  10  21  38  62  88 114 151 192 240 298 354
#     4  10  21  38  57  87 112 147 192 238 291 347
#
# _framework density 9.0240880000000008
#
# number of rings (size 3 to 8) (size 9 to 14) (size 15 to 20)
#    0.000    1.733    3.333    1.400    0.000    3.733 
#    0.000    8.000    0.000    0.000    0.000    0.000 
#    0.000    0.000    0.000    0.000    0.000    0.000 
#
# Total GULP energy -167028.247005 kJ/mol
# GULP energy per Si atom -5567.608234 kJ/mol
# Density = 0.900355 g / cm^3
# Si number density = 9.024088 Si / 1000 Ang^3
#
#
#
# Elastic Constant Matrix: (Units=GPa)
#
#
# Indices 1 2 3 4 5 6 
#
# 1 81.2858 50.7915 20.1809 0.0002 -19.1760 -0.0001
# 2 50.7915 136.4682 37.2319 0.0001 -6.5438 -0.0002
# 3 20.1809 37.2319 49.0231 0.0002 -4.1719 -0.0003
# 4 0.0002 0.0001 0.0002 23.8414 -0.0003 1.5771
# 5 -19.1760 -6.5438 -4.1719 -0.0003 35.8512 0.0002
# 6 -0.0001 -0.0002 -0.0003 1.5771 0.0002 29.6525
#
#
#
# Elastic Compliance Matrix: (Units=1/GPa)
#
#
# Indices 1 2 3 4 5 6 
#
# 1 0.018588 -0.005825 -0.002497 0.000000 0.008589 0.000000
# 2 -0.005825 0.011096 -0.006183 0.000000 -0.001810 0.000000
# 3 -0.002497 -0.006183 0.026172 0.000000 0.000581 0.000000
# 4 0.000000 0.000000 0.000000 0.042092 0.000000 -0.002239
# 5 0.008589 -0.001810 0.000581 0.000000 0.032224 0.000000
# 6 0.000000 0.000000 0.000000 -0.002239 0.000000 0.033843
#
#
# Mechanical properties :
#
#
# Convention : Reuss Voigt Hill
#
# Bulk Modulus (GPa) = 37.25048 53.68731 45.46890
# Shear Modulus (GPa) = 24.75565 28.44055 26.59810
#
# Velocity S-wave (km/s) = 3.70759 3.97396 3.84308
# Velocity P-wave (km/s) = 6.24600 7.13216 6.70374
#
# Compressibility (1/GPa) = 0.02684529
#
# Stress axis : x y z
#
# Youngs Moduli (GPa) = 53.79758 90.12370 38.20899
#
# Poissons Ratio (x) = 0.52499 0.09541
# Poissons Ratio (y) = 0.31338 0.23625
# Poissons Ratio (z) = 0.13434 0.55724
#
# Static dielectric constant tensor:
#      x y z
#    x 1.627030 0.000000 -0.003700 
#    y 0.000000 1.647290 0.000000 
#    z -0.003700 0.000000 1.680900 
# 
# From -- ./inp_files/296989.got.cif
#   From: 2010.05.17/outbox.ucp.g08.bks.cvg/sg12_149_cif.got.tgz:296989.got - 2010.06.11 11:47:21.
