data_PCOD9223341
_publ_section_title
;
Structure prediction by ZEFSAII (Michael W. Deem and Ramdas Pophale) SiO2 
 PCOD9223341
Probable space group: C 2/M
;
_chemical_formula_sum "Si O2"
_cell_formula_units_Z 28
_cell_length_a 15.000000
_cell_length_b 9.000000
_cell_length_c 24.000000
_cell_angle_alpha 90.000000
_cell_angle_beta 60.000000
_cell_angle_gamma 90.000000
_cell_volume 2805.922308
_symmetry_space_group_name_H-M "C 2/M"
_symmetry_group_IT_number 12
_symmetry_cell_setting 'monoclinic'
loop_
_space_group_symop_operation_xyz
x,y,z
-x,y,-z
-x,-y,-z
x,-y,z
1/2+x,1/2+y,z
1/2-x,1/2+y,-z
1/2-x,1/2-y,-z
1/2+x,1/2-y,z
loop_
_atom_site_type_symbol
_atom_site_label
_atom_site_fract_x
_atom_site_fract_y
_atom_site_fract_z
Si Si1 0.006904 0.825883 0.656105
Si Si2 0.502455 0.671883 0.854741
Si Si3 0.343044 0.673236 0.002155
Si Si4 0.332300 0.328366 0.125805
Si Si5 0.908824 0.665750 0.784152
Si Si6 0.281137 0.177173 0.432071
Si Si7 0.414774 0.319759 0.570392
O O1 0.945333 0.788285 0.729928
O O2 0.942153 0.774106 0.623317
O O3 0.110682 0.734447 0.621907
O O4 0.029649 0.000000 0.643436
O O5 0.498427 0.500000 0.835217
O O6 0.440606 0.677889 0.931986
O O7 0.614965 0.728898 0.835341
O O8 0.453813 0.786964 0.828592
O O9 0.315101 0.500000 0.018949
O O10 0.250000 0.750000 0.000000
O O11 0.359240 0.741067 0.058051
O O12 0.369553 0.500000 0.112464
O O13 0.212190 0.329709 0.170734
O O14 0.940669 0.500000 0.756817
O O15 0.250000 0.250000 0.500000
O O16 0.196036 0.226899 0.414703
O O17 0.279008 0.000000 0.438639
O O18 0.500000 0.266538 0.500000
O O19 0.417514 0.500000 0.567940
#
# Coordination Sequence:
#
# PCOD9223341 Si02
#       7
#     8   8   8   8   8   8   8
#     4  11  23  41  62  85 116 154 196 238 285 346
#     4  10  20  36  60  86 113 152 197 238 287 350
#     4  10  18  32  57  86 115 148 190 240 294 344
#     4   9  19  36  58  83 115 153 193 240 290 343
#     4  11  23  40  58  81 117 154 191 240 292 342
#     4  11  21  37  62  92 122 152 188 232 286 340
#     4   9  18  36  61  87 117 151 184 226 284 341
#
# _framework density 9.9788940000000004
#
# number of rings (size 3 to 8) (size 9 to 14) (size 15 to 20)
#    0.000    1.857    2.857    1.714    0.000    2.857 
#    0.000    8.571    0.000    1.714    0.000    0.000 
#    0.000    0.000    0.000    0.000    0.000    0.000 
#
# Total GULP energy -155968.397274 kJ/mol
# GULP energy per Si atom -5570.299903 kJ/mol
# Density = 0.995618 g / cm^3
# Si number density = 9.978894 Si / 1000 Ang^3
#
#
#
# Elastic Constant Matrix: (Units=GPa)
#
#
# Indices 1 2 3 4 5 6 
#
# 1 158.7213 32.7536 32.8043 0.0000 9.1531 0.0000
# 2 32.7536 22.4604 3.6929 0.0000 -6.7276 0.0000
# 3 32.8043 3.6929 57.7581 0.0000 5.7973 0.0000
# 4 0.0000 0.0000 0.0000 29.0211 0.0000 -0.2704
# 5 9.1531 -6.7276 5.7973 0.0000 36.3311 0.0000
# 6 0.0000 0.0000 0.0000 -0.2704 0.0000 17.2508
#
#
#
# Elastic Compliance Matrix: (Units=1/GPa)
#
#
# Indices 1 2 3 4 5 6 
#
# 1 0.011051 -0.016894 -0.004678 0.000000 -0.005166 0.000000
# 2 -0.016894 0.073869 0.003122 0.000000 0.017437 0.000000
# 3 -0.004678 0.003122 0.019914 0.000000 -0.001421 0.000000
# 4 0.000000 0.000000 0.000000 0.034463 0.000000 0.000540
# 5 -0.005166 0.017437 -0.001421 0.000000 0.032282 0.000000
# 6 0.000000 0.000000 0.000000 0.000540 0.000000 0.057977
#
#
# Mechanical properties :
#
#
# Convention : Reuss Voigt Hill
#
# Bulk Modulus (GPa) = 14.72029 41.93794 28.32911
# Shear Modulus (GPa) = 17.29506 27.83320 22.56413
#
# Velocity S-wave (km/s) = 2.94697 3.73849 3.36608
# Velocity P-wave (km/s) = 4.35560 6.30032 5.41596
#
# Compressibility (1/GPa) = 0.06793345
#
# Stress axis : x y z
#
# Youngs Moduli (GPa) = 90.48597 13.53751 50.21706
#
# Poissons Ratio (x) = 0.22871 0.23492
# Poissons Ratio (y) = 1.52870 -0.15679
# Poissons Ratio (z) = 0.42330 -0.04227
#
# Static dielectric constant tensor:
#      x y z
#    x 1.769520 0.000000 0.022510 
#    y 0.000000 1.697680 0.000000 
#    z 0.022510 0.000000 1.728740 
# 
# From -- ./inp_files/338433.got.cif
#   From: 2010.05.17/outbox.ucp.g08.bks.cvg/sg12_170_cif.got.tgz:338433.got - 2010.06.11 11:47:21.
