data_PCOD9223039
_publ_section_title
;
Structure prediction by ZEFSAII (Michael W. Deem and Ramdas Pophale) SiO2 
 PCOD9223039
Probable space group: C 2/M
;
_chemical_formula_sum "Si O2"
_cell_formula_units_Z 48
_cell_length_a 14.662560
_cell_length_b 7.581021
_cell_length_c 26.473270
_cell_angle_alpha 90.000000
_cell_angle_beta 56.441386
_cell_angle_gamma 90.000000
_cell_volume 2452.207900
_symmetry_space_group_name_H-M "C 2/M"
_symmetry_group_IT_number 12
_symmetry_cell_setting 'monoclinic'
loop_
_space_group_symop_operation_xyz
x,y,z
-x,y,-z
-x,-y,-z
x,-y,z
1/2+x,1/2+y,z
1/2-x,1/2+y,-z
1/2-x,1/2-y,-z
1/2+x,1/2-y,z
loop_
_atom_site_type_symbol
_atom_site_label
_atom_site_fract_x
_atom_site_fract_y
_atom_site_fract_z
Si Si1 0.568424 0.788008 0.431411
Si Si2 0.098286 0.283970 0.901476
Si Si3 0.813908 0.711702 0.333323
Si Si4 0.643722 0.789218 0.999843
Si Si5 0.518770 0.211495 0.334440
Si Si6 0.235801 0.712050 0.763686
O O1 0.500000 0.720429 0.500000
O O2 0.697351 0.749031 0.394816
O O3 0.527197 0.720517 0.389459
O O4 0.556734 0.000000 0.434158
O O5 0.100240 0.500000 0.899846
O O6 0.166703 0.221889 0.832410
O O7 0.971083 0.227536 0.940824
O O8 0.147572 0.227018 0.940485
O O9 0.825119 0.500000 0.326728
O O10 0.805764 0.779052 0.278153
O O11 0.916426 0.780305 0.333816
O O12 0.634579 0.000000 0.999821
O O13 0.750000 0.750000 0.000000
O O14 0.635446 0.247398 0.272842
O O15 0.506899 0.000000 0.341391
O O16 0.225334 0.500000 0.766111
#
# Coordination Sequence:
#
# PCOD9223039 Si02
#       6
#     8   8   8   8   8   8
#     4   9  18  32  48  66  91 122 152 183 223 270
#     4   8  16  31  48  65  91 124 151 179 223 276
#     4   9  18  31  47  67  91 118 149 187 227 266
#     4   9  17  31  49  68  91 120 152 186 224 265
#     4   9  18  32  47  67  95 120 146 187 232 265
#     4   9  17  31  49  67  88 119 156 185 217 270
#
# _framework density 19.574197000000002
#
# number of rings (size 3 to 8) (size 9 to 14) (size 15 to 20)
#    0.000    3.167    0.000    1.000    0.000    3.000 
#    0.000    5.000    0.000    0.000    0.000    0.000 
#    0.000    0.000    0.000    0.000    0.000    0.000 
#
# Total GULP energy -133816.990837 kJ/mol
# GULP energy per Si atom -5575.707952 kJ/mol
# Density = 1.952965 g / cm^3
# Si number density = 19.574197 Si / 1000 Ang^3
#
#
#
# Elastic Constant Matrix: (Units=GPa)
#
#
# Indices 1 2 3 4 5 6 
#
# 1 201.8722 3.0486 125.8898 0.0000 -14.7623 -0.0001
# 2 3.0486 41.3315 2.3483 -0.0001 2.7880 0.0000
# 3 125.8898 2.3483 211.1091 0.0000 -1.6595 0.0000
# 4 0.0000 -0.0001 0.0000 11.9453 0.0000 -6.7853
# 5 -14.7623 2.7880 -1.6595 0.0000 8.3599 0.0000
# 6 -0.0001 0.0000 0.0000 -6.7853 0.0000 9.6745
#
#
#
# Elastic Compliance Matrix: (Units=1/GPa)
#
#
# Indices 1 2 3 4 5 6 
#
# 1 0.009699 -0.001509 -0.005637 0.000000 0.016512 0.000000
# 2 -0.001509 0.025011 0.000536 0.000000 -0.010899 0.000000
# 3 -0.005637 0.000536 0.008026 0.000000 -0.008541 0.000000
# 4 0.000000 0.000000 0.000000 0.139151 0.000001 0.097595
# 5 0.016512 -0.010899 -0.008541 0.000001 0.150717 0.000001
# 6 0.000000 0.000000 0.000000 0.097595 0.000001 0.171814
#
#
# Mechanical properties :
#
#
# Convention : Reuss Voigt Hill
#
# Bulk Modulus (GPa) = 33.88133 79.65401 56.76767
# Shear Modulus (GPa) = 9.47908 27.53100 18.50504
#
# Velocity S-wave (km/s) = 2.20299 3.75439 3.07804
# Velocity P-wave (km/s) = 4.88033 7.71853 6.45729
#
# Compressibility (1/GPa) = 0.02951478
#
# Stress axis : x y z
#
# Youngs Moduli (GPa) = 103.09843 39.98288 124.60206
#
# Poissons Ratio (x) = 0.06033 0.70244
# Poissons Ratio (y) = 0.15557 -0.06678
# Poissons Ratio (z) = 0.58121 -0.02143
#
# Static dielectric constant tensor:
#      x y z
#    x 1.677360 0.000000 0.021530 
#    y 0.000000 1.729970 0.000000 
#    z 0.021530 0.000000 1.668230 
# 
# From -- ./inp_files/261711.got.cif
#   From: 2010.05.17/outbox.cif.g08.bks.cpg/sg12_131_cif.got.tgz:261711.got - 2010.06.03 13:09:07.
