data_PCOD9223387
_publ_section_title
;
Structure prediction by ZEFSAII (Michael W. Deem and Ramdas Pophale) SiO2 
 PCOD9223387
Probable space group: C 2/M
;
_chemical_formula_sum "Si O2"
_cell_formula_units_Z 28
_cell_length_a 21.000000
_cell_length_b 9.000000
_cell_length_c 30.000000
_cell_angle_alpha 90.000000
_cell_angle_beta 150.000000
_cell_angle_gamma 90.000000
_cell_volume 2835.000000
_symmetry_space_group_name_H-M "C 2/M"
_symmetry_group_IT_number 12
_symmetry_cell_setting 'monoclinic'
loop_
_space_group_symop_operation_xyz
x,y,z
-x,y,-z
-x,-y,-z
x,-y,z
1/2+x,1/2+y,z
1/2-x,1/2+y,-z
1/2-x,1/2-y,-z
1/2+x,1/2-y,z
loop_
_atom_site_type_symbol
_atom_site_label
_atom_site_fract_x
_atom_site_fract_y
_atom_site_fract_z
Si Si1 0.489236 0.820858 0.088421
Si Si2 0.764050 0.680994 0.274764
Si Si3 0.272835 0.679065 0.905745
Si Si4 0.385336 0.321718 0.267511
Si Si5 0.910199 0.174604 0.131334
Si Si6 0.791153 0.172363 0.661833
Si Si7 0.326006 0.678750 0.586208
O O1 0.629101 0.748683 0.176551
O O2 0.415231 0.763504 0.088010
O O3 0.494495 0.000000 0.090125
O O4 0.409155 0.751109 0.999542
O O5 0.760286 0.500000 0.270505
O O6 0.870288 0.749513 0.307087
O O7 0.774457 0.729802 0.332951
O O8 0.276958 0.500000 0.909314
O O9 0.217675 0.741051 0.826158
O O10 0.177192 0.744100 0.885570
O O11 0.364807 0.500000 0.256254
O O12 0.523968 0.293353 0.330344
O O13 0.056811 0.174394 0.236744
O O14 0.873229 0.000000 0.103211
O O15 0.776664 0.238825 0.603990
O O16 0.752071 0.000000 0.635116
O O17 0.311007 0.500000 0.576823
O O18 0.250000 0.750000 0.500000
#
# Coordination Sequence:
#
# PCOD9223387 Si02
#       7
#     8   8   8   8   8   8   8
#     4  11  22  36  54  82 118 160 205 248 296 348
#     4  10  21  39  62  87 118 158 203 246 293 351
#     4  12  23  35  54  83 117 156 205 253 297 349
#     4  11  23  41  62  86 120 158 194 243 306 359
#     4  10  18  34  56  81 116 157 201 249 300 349
#     4   8  16  35  61  85 115 155 193 235 291 347
#     4  10  21  40  65  93 120 151 190 239 297 357
#
# _framework density 9.8765429999999999
#
# number of rings (size 3 to 8) (size 9 to 14) (size 15 to 20)
#    0.000    1.714    1.429    5.143    0.000    1.714 
#    0.000    5.000    0.000    4.286    0.000    0.000 
#    0.000    0.000    0.000    0.000    0.000    0.000 
#
# Total GULP energy -156389.430683 kJ/mol
# GULP energy per Si atom -5585.336810 kJ/mol
# Density = 0.985406 g / cm^3
# Si number density = 9.876543 Si / 1000 Ang^3
#
#
#
# Elastic Constant Matrix: (Units=GPa)
#
#
# Indices 1 2 3 4 5 6 
#
# 1 107.1627 30.7343 18.5848 0.0001 -24.6896 0.0000
# 2 30.7343 119.0982 17.7915 0.0000 -9.4287 0.0002
# 3 18.5848 17.7915 45.3443 -0.0002 -34.7479 0.0000
# 4 0.0001 0.0000 -0.0002 29.0864 0.0000 -0.6612
# 5 -24.6896 -9.4287 -34.7479 0.0000 24.7498 0.0000
# 6 0.0000 0.0002 0.0000 -0.6612 0.0000 33.7497
#
#
#
# Elastic Compliance Matrix: (Units=1/GPa)
#
#
# Indices 1 2 3 4 5 6 
#
# 1 0.006342 -0.000002 -0.029643 0.000000 -0.035292 0.000000
# 2 -0.000002 0.008228 0.010902 0.000000 0.018439 0.000000
# 3 -0.029643 0.010902 -0.137698 -0.000001 -0.218740 0.000000
# 4 0.000000 0.000000 -0.000001 0.034396 -0.000001 0.000674
# 5 -0.035292 0.018439 -0.218740 -0.000001 -0.294880 0.000000
# 6 0.000000 0.000000 0.000000 0.000674 0.000000 0.029643
#
#
# Mechanical properties :
#
#
# Convention : Reuss Voigt Hill
#
# Bulk Modulus (GPa) = -6.22613 45.09181 19.43284
# Shear Modulus (GPa) = -13.51273 31.15016 8.81871
#
# Velocity S-wave (km/s) = -2.61833 3.97542 2.11522
# Velocity P-wave (km/s) = 3.50710 6.62943 3.97804
#
# Compressibility (1/GPa) = -0.16061337
#
# Stress axis : x y z
#
# Youngs Moduli (GPa) = 157.67497 121.53375 -7.26227
#
# Poissons Ratio (x) = 0.00029 -0.21527
# Poissons Ratio (y) = 0.00038 0.07918
# Poissons Ratio (z) = 4.67393 -1.32501
#
# Static dielectric constant tensor:
#      x y z
#    x 1.746160 0.000000 -0.018830 
#    y 0.000000 1.652320 0.000000 
#    z -0.018830 0.000000 1.709570 
# 
# From -- ./inp_files/380776.got.cif
#   From: 2010.05.17/outbox.ucp.g08.bks.cvg/sg12_191_cif.got.tgz:380776.got - 2010.06.11 11:47:21.
