data_PCOD9223067
_publ_section_title
;
Structure prediction by ZEFSAII (Michael W. Deem and Ramdas Pophale) SiO2 
 PCOD9223067
Probable space group: C 2/M
;
_chemical_formula_sum "Si O2"
_cell_formula_units_Z 64
_cell_length_a 21.789498
_cell_length_b 21.469006
_cell_length_c 20.485506
_cell_angle_alpha 90.000000
_cell_angle_beta 160.079196
_cell_angle_gamma 90.000000
_cell_volume 3265.161667
_symmetry_space_group_name_H-M "C 2/M"
_symmetry_group_IT_number 12
_symmetry_cell_setting 'monoclinic'
loop_
_space_group_symop_operation_xyz
x,y,z
-x,y,-z
-x,-y,-z
x,-y,z
1/2+x,1/2+y,z
1/2-x,1/2+y,-z
1/2-x,1/2-y,-z
1/2+x,1/2-y,z
loop_
_atom_site_type_symbol
_atom_site_label
_atom_site_fract_x
_atom_site_fract_y
_atom_site_fract_z
Si Si1 0.965044 0.120335 0.392763
Si Si2 0.530208 0.311296 0.821105
Si Si3 0.029787 0.931010 0.739472
Si Si4 0.965034 0.763024 0.037401
Si Si5 0.034932 0.379657 0.962650
Si Si6 0.465038 0.763015 0.392670
Si Si7 0.529706 0.068993 0.820021
Si Si8 0.969825 0.311293 0.260722
O O1 0.028830 0.082973 0.393547
O O2 0.749988 0.123858 0.171372
O O3 0.035108 0.191683 0.460387
O O4 0.000000 0.094519 0.500000
O O5 0.470407 0.374300 0.725980
O O6 0.477255 0.250001 0.727258
O O7 0.470047 0.301708 0.835502
O O8 0.750017 0.312497 0.040005
O O9 0.972654 0.000000 0.702596
O O10 0.250040 0.930501 0.960217
O O11 0.035117 0.691694 0.109837
O O12 0.749999 0.758833 0.829379
O O13 0.000000 0.788302 0.000000
O O14 0.971107 0.417013 0.835824
O O15 0.000000 0.405472 0.000000
O O16 0.500000 0.788292 0.500000
O O17 0.529978 0.801696 0.395433
O O18 0.470345 0.125702 0.714765
O O19 0.472564 0.000000 0.742633
#
# Coordination Sequence:
#
# PCOD9223067 Si02
#       8
#     8   8   8   8   8   8   8   8
#     4   9  16  26  40  60  86 113 139 167 202 246
#     4   9  14  24  42  61  80 107 141 173 206 243
#     4   9  16  25  39  61  85 107 137 177 211 239
#     4   9  16  26  43  64  85 109 137 171 209 248
#     4   9  16  26  40  60  86 113 139 167 202 246
#     4   9  16  26  43  64  85 109 137 171 209 248
#     4   9  16  25  39  61  85 107 137 177 211 239
#     4   9  14  24  42  61  80 107 141 173 206 243
#
# _framework density 19.600867000000001
#
# number of rings (size 3 to 8) (size 9 to 14) (size 15 to 20)
#    0.000    3.000    2.500    0.000    0.000    0.500 
#    0.000    0.000    0.000    3.000    0.000    0.000 
#    0.000    0.000    0.000    0.000    0.000    0.000 
#
# Total GULP energy -178475.415516 kJ/mol
# GULP energy per Si atom -5577.356735 kJ/mol
# Density = 1.955625 g / cm^3
# Si number density = 19.600867 Si / 1000 Ang^3
#
#
#
# Elastic Constant Matrix: (Units=GPa)
#
#
# Indices 1 2 3 4 5 6 
#
# 1 107.5022 69.9377 30.4500 -0.0133 -39.5498 -0.0059
# 2 69.9377 141.6034 27.0317 0.0018 -39.1013 0.0017
# 3 30.4500 27.0317 57.2565 -0.0158 -6.2204 -0.0107
# 4 -0.0133 0.0018 -0.0158 3.2344 -0.0065 -11.8259
# 5 -39.5498 -39.1013 -6.2204 -0.0065 47.1951 -0.0062
# 6 -0.0059 0.0017 -0.0107 -11.8259 -0.0062 16.2070
#
#
#
# Elastic Compliance Matrix: (Units=1/GPa)
#
#
# Indices 1 2 3 4 5 6 
#
# 1 0.017977 -0.004888 -0.006144 -0.000056 0.010205 -0.000034
# 2 -0.004888 0.011257 -0.002178 0.000022 0.004943 0.000013
# 3 -0.006144 -0.002178 0.021311 -0.000066 -0.004144 -0.000038
# 4 -0.000056 0.000022 -0.000066 -0.185365 -0.000080 -0.135257
# 5 0.010205 0.004943 -0.004144 -0.000080 0.033290 -0.000045
# 6 -0.000034 0.000013 -0.000038 -0.135257 -0.000045 -0.036993
#
#
# Mechanical properties :
#
#
# Convention : Reuss Voigt Hill
#
# Bulk Modulus (GPa) = 41.45156 62.35567 51.90361
# Shear Modulus (GPa) = -48.04840 25.25680 -11.39580
#
# Velocity S-wave (km/s) = -4.95647 3.59354 -2.41382
# Velocity P-wave (km/s) = 3.40026 7.00713 4.33232
#
# Compressibility (1/GPa) = 0.02412455
#
# Stress axis : x y z
#
# Youngs Moduli (GPa) = 55.62727 88.83492 46.92462
#
# Poissons Ratio (x) = 0.43421 0.28831
# Poissons Ratio (y) = 0.27190 0.10220
# Poissons Ratio (z) = 0.34178 0.19349
#
# Static dielectric constant tensor:
#      x y z
#    x 1.712160 0.000000 0.029180 
#    y 0.000000 1.663940 0.000000 
#    z 0.029180 0.000000 1.744210 
# 
# From -- ./inp_files/170038.got.cif
#   From: 2010.05.17/outbox.cif.g08.bks.cpg/sg12_86_cif.got.tgz:170038.got - 2010.06.03 13:09:07.
