data_PCOD9223413
_publ_section_title
;
Structure prediction by ZEFSAII (Michael W. Deem and Ramdas Pophale) SiO2 
 PCOD9223413
Probable space group: C 2/M
;
_chemical_formula_sum "Si O2"
_cell_formula_units_Z 32
_cell_length_a 21.000000
_cell_length_b 24.000000
_cell_length_c 18.000000
_cell_angle_alpha 90.000000
_cell_angle_beta 160.000000
_cell_angle_gamma 90.000000
_cell_volume 3102.806740
_symmetry_space_group_name_H-M "C 2/M"
_symmetry_group_IT_number 12
_symmetry_cell_setting 'monoclinic'
loop_
_space_group_symop_operation_xyz
x,y,z
-x,y,-z
-x,-y,-z
x,-y,z
1/2+x,1/2+y,z
1/2-x,1/2+y,-z
1/2-x,1/2-y,-z
1/2+x,1/2-y,z
loop_
_atom_site_type_symbol
_atom_site_label
_atom_site_fract_x
_atom_site_fract_y
_atom_site_fract_z
Si Si1 0.902352 0.159225 0.579292
Si Si2 0.037992 0.728184 0.770713
Si Si3 0.528089 0.435352 0.818254
Si Si4 0.807014 0.653477 0.944392
Si Si5 0.584563 0.063601 0.829847
Si Si6 0.393149 0.823824 0.458968
Si Si7 0.273751 0.564340 0.669426
Si Si8 0.789689 0.296392 0.766536
O O1 0.901229 0.106786 0.631889
O O2 0.754952 0.164517 0.352237
O O3 0.907434 0.217938 0.627865
O O4 0.104161 0.157244 0.760297
O O5 0.046239 0.696003 0.857144
O O6 0.994153 0.689384 0.650332
O O7 0.250000 0.750000 0.000000
O O8 0.496553 0.500000 0.762638
O O9 0.467203 0.430928 0.836844
O O10 0.742295 0.420474 0.034931
O O11 0.893327 0.596614 0.069441
O O12 0.764488 0.668538 0.813731
O O13 0.393022 0.066841 0.574613
O O14 0.614095 0.000000 0.880894
O O15 0.500000 0.838445 0.500000
O O16 0.260124 0.877876 0.323980
O O17 0.320395 0.761317 0.361463
O O18 0.263889 0.500000 0.690719
O O19 0.000000 0.277822 0.000000
#
# Coordination Sequence:
#
# PCOD9223413 Si02
#       8
#     8   8   8   8   8   8   8   8
#     4   9  19  34  56  82 111 153 189 234 297 344
#     4   9  17  31  56  84 106 143 196 237 283 341
#     4   9  19  36  59  88 120 147 191 248 289 343
#     4  10  18  35  58  82 113 150 193 240 283 348
#     4   9  18  35  61  91 115 150 194 238 292 343
#     4  11  22  40  58  82 119 154 192 238 292 350
#     4  10  21  38  62  89 117 150 195 246 292 343
#     4  11  24  37  53  82 122 158 190 240 293 346
#
# _framework density 10.313243
#
# number of rings (size 3 to 8) (size 9 to 14) (size 15 to 20)
#    0.000    2.250    1.250    2.625    1.750    1.250 
#    2.250    3.125    0.000    4.125    0.000    0.000 
#    0.000    0.000    0.000    0.000    0.000    0.000 
#
# Total GULP energy -178196.051575 kJ/mol
# GULP energy per Si atom -5568.626612 kJ/mol
# Density = 1.028977 g / cm^3
# Si number density = 10.313243 Si / 1000 Ang^3
#
#
#
# Elastic Constant Matrix: (Units=GPa)
#
#
# Indices 1 2 3 4 5 6 
#
# 1 34.5831 4.4905 -5.9070 0.0000 16.7416 0.0000
# 2 4.4905 61.3694 -12.7739 0.0000 16.3345 0.0000
# 3 -5.9070 -12.7739 37.6136 -0.0001 0.4303 -0.0001
# 4 0.0000 0.0000 -0.0001 5.0038 0.0000 -0.8957
# 5 16.7416 16.3345 0.4303 0.0000 15.7822 0.0000
# 6 0.0000 0.0000 -0.0001 -0.8957 0.0000 27.3147
#
#
#
# Elastic Compliance Matrix: (Units=1/GPa)
#
#
# Indices 1 2 3 4 5 6 
#
# 1 0.099602 0.037709 0.030113 -0.000001 -0.145506 0.000000
# 2 0.037709 0.039392 0.020230 0.000000 -0.081323 0.000000
# 3 0.030113 0.020230 0.038803 0.000000 -0.053939 0.000000
# 4 -0.000001 0.000000 0.000000 0.201027 0.000001 0.006592
# 5 -0.145506 -0.081323 -0.053939 0.000001 0.303353 0.000000
# 6 0.000000 0.000000 0.000000 0.006592 0.000000 0.036826
#
#
# Mechanical properties :
#
#
# Convention : Reuss Voigt Hill
#
# Bulk Modulus (GPa) = 2.82566 11.68724 7.25645
# Shear Modulus (GPa) = 7.56583 19.47059 13.51821
#
# Velocity S-wave (km/s) = 1.91728 3.07573 2.56282
# Velocity P-wave (km/s) = 2.50483 4.27690 3.50472
#
# Compressibility (1/GPa) = 0.35390003
#
# Stress axis : x y z
#
# Youngs Moduli (GPa) = 10.03994 25.38595 25.77147
#
# Poissons Ratio (x) = -0.95727 -0.77605
# Poissons Ratio (y) = -0.37859 -0.52136
# Poissons Ratio (z) = -0.30233 -0.51356
#
# Static dielectric constant tensor:
#      x y z
#    x 1.792680 0.000000 0.043740 
#    y 0.000000 1.790880 0.000000 
#    z 0.043740 0.000000 1.760530 
# 
# From -- ./inp_files/286475.got.cif
#   From: 2010.05.17/outbox.ucp.g08.bks.cvg/sg12_144_cif.got.tgz:286475.got - 2010.06.11 11:47:21.
