data_PCOD9223883
_publ_section_title
;
Structure prediction by ZEFSAII (Michael W. Deem and Ramdas Pophale) SiO2 
 PCOD9223883
Probable space group: C 2/M
;
_chemical_formula_sum "Si O2"
_cell_formula_units_Z 32
_cell_length_a 30.000000
_cell_length_b 9.000000
_cell_length_c 18.000000
_cell_angle_alpha 90.000000
_cell_angle_beta 140.000000
_cell_angle_gamma 90.000000
_cell_volume 3123.947783
_symmetry_space_group_name_H-M "C 2/M"
_symmetry_group_IT_number 12
_symmetry_cell_setting 'monoclinic'
loop_
_space_group_symop_operation_xyz
x,y,z
-x,y,-z
-x,-y,-z
x,-y,z
1/2+x,1/2+y,z
1/2-x,1/2+y,-z
1/2-x,1/2-y,-z
1/2+x,1/2-y,z
loop_
_atom_site_type_symbol
_atom_site_label
_atom_site_fract_x
_atom_site_fract_y
_atom_site_fract_z
Si Si1 0.074195 0.176899 0.568970
Si Si2 0.329255 0.829536 0.194934
Si Si3 0.693764 0.822522 0.262426
Si Si4 0.186302 0.832871 0.100159
Si Si5 0.890564 0.827595 0.143424
Si Si6 0.546512 0.820632 0.129570
Si Si7 0.529901 0.321780 0.262797
Si Si8 0.848018 0.818699 0.480205
O O1 0.124642 0.215259 0.700391
O O2 0.112160 0.233969 0.543289
O O3 0.000000 0.237973 0.500000
O O4 0.066485 0.000000 0.548976
O O5 0.253428 0.820113 0.133167
O O6 0.340613 0.779060 0.125261
O O7 0.352386 0.000000 0.233510
O O8 0.686184 0.782234 0.166196
O O9 0.625519 0.767470 0.217303
O O10 0.769128 0.764613 0.382949
O O11 0.694591 0.000000 0.271588
O O12 0.185905 0.000000 0.131591
O O13 0.124560 0.817766 0.963296
O O14 0.971695 0.788686 0.251263
O O15 0.879300 0.000000 0.150958
O O16 0.519053 0.757900 0.171385
O O17 0.545760 0.000000 0.130868
O O18 0.500000 0.774196 0.000000
O O19 0.527308 0.500000 0.249637
O O20 0.604532 0.277774 0.390068
O O21 0.846159 0.000000 0.474280
#
# Coordination Sequence:
#
# PCOD9223883 Si02
#       8
#     8   8   8   8   8   8   8   8
#     4  10  19  34  57  79 106 150 195 230 269 325
#     4  11  22  34  51  81 116 146 183 233 285 332
#     4  10  20  36  59  81 108 149 187 225 279 339
#     4  10  21  36  54  81 114 145 186 236 281 329
#     4  10  21  37  56  78 109 150 191 232 278 334
#     4  10  22  39  58  84 115 144 179 224 279 342
#     4  10  21  38  60  84 109 140 185 234 274 322
#     4   9  18  34  55  81 109 140 184 229 269 323
#
# _framework density 10.243449
#
# number of rings (size 3 to 8) (size 9 to 14) (size 15 to 20)
#    0.000    2.000    1.250    2.250    0.000    5.000 
#    0.000    1.250    0.000    0.000    0.000    0.000 
#    0.000    0.000    0.000    0.000    0.000    0.000 
#
# Total GULP energy -178461.488526 kJ/mol
# GULP energy per Si atom -5576.921516 kJ/mol
# Density = 1.022013 g / cm^3
# Si number density = 10.243449 Si / 1000 Ang^3
#
#
#
# Elastic Constant Matrix: (Units=GPa)
#
#
# Indices 1 2 3 4 5 6 
#
# 1 74.4422 14.9671 -0.9766 0.0000 18.8725 0.0000
# 2 14.9671 -18.4237 -7.9534 0.0000 6.5664 0.0000
# 3 -0.9766 -7.9534 31.9413 0.0000 14.6565 0.0000
# 4 0.0000 0.0000 0.0000 3.5157 0.0000 2.7472
# 5 18.8725 6.5664 14.6565 0.0000 32.5871 0.0000
# 6 0.0000 0.0000 0.0000 2.7472 0.0000 2.3473
#
#
#
# Elastic Compliance Matrix: (Units=1/GPa)
#
#
# Indices 1 2 3 4 5 6 
#
# 1 0.016120 0.004678 0.008031 0.000000 -0.013890 0.000000
# 2 0.004678 -0.039560 -0.015274 0.000000 0.012132 0.000000
# 3 0.008031 -0.015274 0.035876 0.000000 -0.017709 0.000000
# 4 0.000000 0.000000 0.000000 3.329336 0.000000 -3.896663
# 5 -0.013890 0.012132 -0.017709 0.000000 0.044251 0.000000
# 6 0.000000 0.000000 0.000000 -3.896663 0.000000 4.986695
#
#
# Mechanical properties :
#
#
# Convention : Reuss Voigt Hill
#
# Bulk Modulus (GPa) = 136.90644 11.11489 74.01066
# Shear Modulus (GPa) = 0.59664 13.15153 6.87408
#
# Velocity S-wave (km/s) = 0.54024 2.53642 1.83375
# Velocity P-wave (km/s) = 8.20735 3.74367 6.37870
#
# Compressibility (1/GPa) = 0.00730426
#
# Stress axis : x y z
#
# Youngs Moduli (GPa) = 62.03641 -25.27805 27.87413
#
# Poissons Ratio (x) = 0.11824 -0.22386
# Poissons Ratio (y) = -0.29019 0.42576
# Poissons Ratio (z) = -0.49823 -0.38611
#
# Static dielectric constant tensor:
#      x y z
#    x 1.759310 0.000000 0.050220 
#    y 0.000000 1.686310 0.000000 
#    z 0.050220 0.000000 1.792590 
# 
# From -- ./inp_files/295800.got.cif
#   From: 2010.05.17/outbox.ucp.g08.bks.cvg/sg12_148_cif.got.tgz:295800.got - 2010.06.11 11:47:21.
