data_PCOD9223147
_publ_section_title
;
Structure prediction by ZEFSAII (Michael W. Deem and Ramdas Pophale) SiO2 
 PCOD9223147
Probable space group: C 2/M
;
_chemical_formula_sum "Si O2"
_cell_formula_units_Z 40
_cell_length_a 13.839230
_cell_length_b 7.681570
_cell_length_c 19.577904
_cell_angle_alpha 90.000000
_cell_angle_beta 128.979152
_cell_angle_gamma 90.000000
_cell_volume 1617.925900
_symmetry_space_group_name_H-M "C 2/M"
_symmetry_group_IT_number 12
_symmetry_cell_setting 'monoclinic'
loop_
_space_group_symop_operation_xyz
x,y,z
-x,y,-z
-x,-y,-z
x,-y,z
1/2+x,1/2+y,z
1/2-x,1/2+y,-z
1/2-x,1/2-y,-z
1/2+x,1/2-y,z
loop_
_atom_site_type_symbol
_atom_site_label
_atom_site_fract_x
_atom_site_fract_y
_atom_site_fract_z
Si Si1 0.793997 0.500000 0.432473
Si Si2 0.349134 0.801688 0.686418
Si Si3 0.551264 0.796728 0.880316
Si Si4 0.467454 0.000000 0.371422
Si Si5 0.316501 0.211439 0.933695
Si Si6 0.681714 0.693497 0.743093
O O1 0.705417 0.668588 0.392421
O O2 0.874457 0.500000 0.397005
O O3 0.896376 0.500000 0.536632
O O4 0.459888 0.723229 0.782439
O O5 0.240394 0.818156 0.694732
O O6 0.375296 0.000000 0.675536
O O7 0.688571 0.781638 0.909404
O O8 0.513032 0.000000 0.869393
O O9 0.573124 0.726999 0.967033
O O10 0.428125 0.168895 0.310402
O O11 0.292469 0.251392 0.843680
O O12 0.321536 0.000000 0.941021
O O13 0.641520 0.500000 0.746503
#
# Coordination Sequence:
#
# PCOD9223147 Si02
#       6
#     4   8   8   4   8   8
#     4   9  18  32  51  75  99 125 161 204 250 296
#     4   9  18  32  50  74 100 128 163 202 245 288
#     4   9  18  31  48  72  99 131 166 197 238 291
#     4   9  18  32  51  75  99 125 161 204 250 296
#     4   9  18  31  48  72  99 131 166 197 238 291
#     4   9  18  32  50  74 100 128 163 202 245 288
#
# _framework density 24.723009999999999
#
# number of rings (size 3 to 8) (size 9 to 14) (size 15 to 20)
#    0.000    3.000    0.000    0.000    2.800    1.600 
#    0.000    8.000    0.000    4.800    0.000    0.000 
#    0.000    0.000    0.000    0.000    0.000    0.000 
#
# Total GULP energy -111682.924838 kJ/mol
# GULP energy per Si atom -5584.146242 kJ/mol
# Density = 2.466674 g / cm^3
# Si number density = 24.723010 Si / 1000 Ang^3
#
#
#
# Elastic Constant Matrix: (Units=GPa)
#
#
# Indices 1 2 3 4 5 6 
#
# 1 42.1972 18.3078 13.0308 0.0000 -3.0898 0.0000
# 2 18.3078 107.0346 104.8187 0.0000 17.3497 0.0000
# 3 13.0308 104.8187 232.2466 0.0000 31.4600 0.0000
# 4 0.0000 0.0000 0.0000 29.7701 0.0000 4.9895
# 5 -3.0898 17.3497 31.4600 0.0000 44.2577 0.0000
# 6 0.0000 0.0000 0.0000 4.9895 0.0000 21.3703
#
#
#
# Elastic Compliance Matrix: (Units=1/GPa)
#
#
# Indices 1 2 3 4 5 6 
#
# 1 0.026234 -0.005650 0.000586 0.000000 0.003630 0.000000
# 2 -0.005650 0.018029 -0.007535 0.000000 -0.002106 0.000000
# 3 0.000586 -0.007535 0.008042 0.000000 -0.002722 0.000000
# 4 0.000000 0.000000 0.000000 0.034959 0.000000 -0.008162
# 5 0.003630 -0.002106 -0.002722 0.000000 0.025609 0.000000
# 6 0.000000 0.000000 0.000000 -0.008162 0.000000 0.048699
#
#
# Mechanical properties :
#
#
# Convention : Reuss Voigt Hill
#
# Bulk Modulus (GPa) = 36.88775 72.64368 54.76572
# Shear Modulus (GPa) = 25.53552 35.43437 30.48495
#
# Velocity S-wave (km/s) = 3.21731 3.78994 3.51530
# Velocity P-wave (km/s) = 5.36230 6.97125 6.21903
#
# Compressibility (1/GPa) = 0.02710927
#
# Stress axis : x y z
#
# Youngs Moduli (GPa) = 38.11824 55.46520 124.34352
#
# Poissons Ratio (x) = 0.31336 -0.07290
# Poissons Ratio (y) = 0.21536 0.93690
# Poissons Ratio (z) = -0.02235 0.41792
#
# Static dielectric constant tensor:
#      x y z
#    x 2.074450 0.000000 -0.031210 
#    y 0.000000 2.179890 0.000000 
#    z -0.031210 0.000000 1.928490 
# 
# From -- ./inp_files/120243.got.cif
#   From: 2010.05.17/outbox.cif.g08.bks.cpg/sg12_61_cif.got.tgz:120243.got - 2010.06.03 13:09:07.
