data_PCOD9223882
_publ_section_title
;
Structure prediction by ZEFSAII (Michael W. Deem and Ramdas Pophale) SiO2 
 PCOD9223882
Probable space group: C 2/M
;
_chemical_formula_sum "Si O2"
_cell_formula_units_Z 32
_cell_length_a 30.000000
_cell_length_b 9.000000
_cell_length_c 12.000000
_cell_angle_alpha 90.000000
_cell_angle_beta 90.000000
_cell_angle_gamma 90.000000
_cell_volume 3240.000000
_symmetry_space_group_name_H-M "C 2/M"
_symmetry_group_IT_number 12
_symmetry_cell_setting 'monoclinic'
loop_
_space_group_symop_operation_xyz
x,y,z
-x,y,-z
-x,-y,-z
x,-y,z
1/2+x,1/2+y,z
1/2-x,1/2+y,-z
1/2-x,1/2-y,-z
1/2+x,1/2-y,z
loop_
_atom_site_type_symbol
_atom_site_label
_atom_site_fract_x
_atom_site_fract_y
_atom_site_fract_z
Si Si1 0.045736 0.668653 0.705024
Si Si2 0.445151 0.828965 0.737068
Si Si3 0.195513 0.321362 0.245467
Si Si4 0.792699 0.181425 0.302597
Si Si5 0.932627 0.830047 0.506822
Si Si6 0.670185 0.327231 0.471074
Si Si7 0.622130 0.676150 0.834713
Si Si8 0.375950 0.178028 0.927313
O O1 0.062559 0.500000 0.708717
O O2 0.042287 0.722748 0.577896
O O3 0.079251 0.777187 0.765429
O O4 0.997486 0.673481 0.760490
O O5 0.436983 0.722687 0.633122
O O6 0.416184 0.787477 0.843255
O O7 0.433048 0.000000 0.705941
O O8 0.194411 0.500000 0.246907
O O9 0.246329 0.270795 0.250311
O O10 0.173018 0.264067 0.358332
O O11 0.168385 0.272293 0.137842
O O12 0.798233 0.230193 0.430446
O O13 0.834155 0.232303 0.229763
O O14 0.793689 0.000000 0.306100
O O15 0.879869 0.822258 0.481104
O O16 0.946983 0.000000 0.492586
O O17 0.680347 0.500000 0.446589
O O18 0.625119 0.500000 0.841965
O O19 0.619303 0.745223 0.955787
O O20 0.374850 0.000000 0.942176
#
# Coordination Sequence:
#
# PCOD9223882 Si02
#       8
#     8   8   8   8   8   8   8   8
#     4  11  23  39  61  86 115 152 194 236 286 343
#     4  10  22  40  60  85 118 154 190 237 288 337
#     4  10  20  36  61  86 113 151 193 233 278 340
#     4   9  19  37  58  84 117 151 185 233 289 337
#     4  11  21  35  59  89 121 155 189 231 285 343
#     4  10  19  34  56  84 121 153 183 229 286 339
#     4  11  23  41  61  82 114 152 192 240 293 341
#     4  10  22  40  59  83 113 148 195 242 286 337
#
# _framework density 9.8765429999999999
#
# number of rings (size 3 to 8) (size 9 to 14) (size 15 to 20)
#    0.000    1.750    2.500    1.875    0.000    5.000 
#    0.000    3.750    0.000    0.000    0.000    0.000 
#    0.000    0.000    0.000    0.000    0.000    0.000 
#
# Total GULP energy -178653.632321 kJ/mol
# GULP energy per Si atom -5582.926010 kJ/mol
# Density = 0.985406 g / cm^3
# Si number density = 9.876543 Si / 1000 Ang^3
#
#
#
# Elastic Constant Matrix: (Units=GPa)
#
#
# Indices 1 2 3 4 5 6 
#
# 1 74.8844 6.2370 24.1835 0.0000 7.5666 0.0000
# 2 6.2370 -2.0128 9.5388 0.0000 5.4202 0.0000
# 3 24.1835 9.5388 85.6603 0.0000 23.8788 0.0000
# 4 0.0000 0.0000 0.0000 28.2405 0.0000 2.1217
# 5 7.5666 5.4202 23.8788 0.0000 -16.0641 0.0000
# 6 0.0000 0.0000 0.0000 2.1217 0.0000 16.0602
#
#
#
# Elastic Compliance Matrix: (Units=1/GPa)
#
#
# Indices 1 2 3 4 5 6 
#
# 1 0.013711 0.018240 -0.006659 0.000000 0.002715 0.000000
# 2 0.018240 -0.340773 0.044157 0.000000 -0.040751 0.000000
# 3 -0.006659 0.044157 0.003788 0.000000 0.017394 0.000000
# 4 0.000000 0.000000 0.000000 0.035765 0.000000 -0.004725
# 5 0.002715 -0.040751 0.017394 0.000000 -0.048867 0.000000
# 6 0.000000 0.000000 0.000000 -0.004725 0.000000 0.062890
#
#
# Mechanical properties :
#
#
# Convention : Reuss Voigt Hill
#
# Bulk Modulus (GPa) = -4.72150 26.49450 10.88650
# Shear Modulus (GPa) = -10.97545 13.55216 1.28835
#
# Velocity S-wave (km/s) = -2.35974 2.62215 0.80848
# Velocity P-wave (km/s) = 3.13368 4.75495 2.52879
#
# Compressibility (1/GPa) = -0.21179708
#
# Stress axis : x y z
#
# Youngs Moduli (GPa) = 72.93509 -2.93450 263.99106
#
# Poissons Ratio (x) = 0.05352 1.75783
# Poissons Ratio (y) = -1.33032 -11.65718
# Poissons Ratio (z) = 0.48565 0.12958
#
# Static dielectric constant tensor:
#      x y z
#    x 1.735710 0.000000 0.010710 
#    y 0.000000 1.667230 0.000000 
#    z 0.010710 0.000000 1.647690 
# 
# From -- ./inp_files/187492.got.cif
#   From: 2010.05.17/outbox.ucp.g08.bks.cvg/sg12_94_cif.got.tgz:187492.got - 2010.06.11 11:47:21.
