data_PCOD9223361
_publ_section_title
;
Structure prediction by ZEFSAII (Michael W. Deem and Ramdas Pophale) SiO2 
 PCOD9223361
Probable space group: C 2/M
;
_chemical_formula_sum "Si O2"
_cell_formula_units_Z 32
_cell_length_a 24.000000
_cell_length_b 9.000000
_cell_length_c 30.000000
_cell_angle_alpha 90.000000
_cell_angle_beta 150.000000
_cell_angle_gamma 90.000000
_cell_volume 3240.000000
_symmetry_space_group_name_H-M "C 2/M"
_symmetry_group_IT_number 12
_symmetry_cell_setting 'monoclinic'
loop_
_space_group_symop_operation_xyz
x,y,z
-x,y,-z
-x,-y,-z
x,-y,z
1/2+x,1/2+y,z
1/2-x,1/2+y,-z
1/2-x,1/2-y,-z
1/2+x,1/2-y,z
loop_
_atom_site_type_symbol
_atom_site_label
_atom_site_fract_x
_atom_site_fract_y
_atom_site_fract_z
Si Si1 0.777483 0.822965 0.642643
Si Si2 0.367912 0.180006 0.795150
Si Si3 0.836169 0.673382 0.112673
Si Si4 0.823805 0.819247 0.273237
Si Si5 0.111458 0.678233 0.950726
Si Si6 0.040868 0.173476 0.477170
Si Si7 0.841660 0.829387 0.591395
Si Si8 0.584708 0.671945 0.752818
O O1 0.825542 0.740558 0.718848
O O2 0.650275 0.771586 0.547983
O O3 0.842788 0.777067 0.643250
O O4 0.785467 0.000000 0.654880
O O5 0.284001 0.231712 0.775098
O O6 0.495039 0.226728 0.890385
O O7 0.365050 0.000000 0.791467
O O8 0.816712 0.500000 0.095631
O O9 0.881268 0.725561 0.096182
O O10 0.917185 0.718666 0.207513
O O11 0.722294 0.754022 0.047269
O O12 0.831012 0.779160 0.226777
O O13 0.936077 0.772074 0.375943
O O14 0.825172 0.000000 0.275498
O O15 0.117101 0.500000 0.956722
O O16 0.000000 0.175692 0.500000
O O17 0.065890 0.000000 0.483411
O O18 0.750000 0.750000 0.500000
O O19 0.959240 0.824129 0.648043
O O20 0.808779 0.000000 0.572329
O O21 0.606078 0.500000 0.781248
#
# Coordination Sequence:
#
# PCOD9223361 Si02
#       8
#     8   8   8   8   8   8   8   8
#     4  11  22  33  49  78 111 139 172 219 277 323
#     4  10  19  35  56  79 104 134 177 221 261 312
#     4  10  20  35  56  83 109 135 170 211 262 323
#     4   9  18  33  54  78 101 134 182 227 259 299
#     4   9  19  35  58  83 106 133 168 216 267 313
#     4  10  18  33  55  75 100 140 186 224 259 305
#     4  10  22  37  53  76 107 143 181 222 265 315
#     4  10  20  36  56  76 105 143 181 217 258 310
#
# _framework density 9.8765429999999999
#
# number of rings (size 3 to 8) (size 9 to 14) (size 15 to 20)
#    0.000    2.125    1.250    2.250    0.000    3.750 
#    0.000    1.875    0.000    3.750    0.000    0.000 
#    0.000    0.000    0.000    0.000    0.000    0.000 
#
# Total GULP energy -178350.167236 kJ/mol
# GULP energy per Si atom -5573.442726 kJ/mol
# Density = 0.985406 g / cm^3
# Si number density = 9.876543 Si / 1000 Ang^3
#
#
#
# Elastic Constant Matrix: (Units=GPa)
#
#
# Indices 1 2 3 4 5 6 
#
# 1 86.6225 20.7289 22.1795 0.0000 19.5702 0.0001
# 2 20.7289 -11.5254 12.6743 0.0000 8.6884 0.0003
# 3 22.1795 12.6743 43.8798 0.0000 18.7976 0.0000
# 4 0.0000 0.0000 0.0000 22.0701 0.0000 -3.5593
# 5 19.5702 8.6884 18.7976 0.0000 23.9446 0.0000
# 6 0.0001 0.0003 0.0000 -3.5593 0.0000 10.5606
#
#
#
# Elastic Compliance Matrix: (Units=1/GPa)
#
#
# Indices 1 2 3 4 5 6 
#
# 1 0.012737 0.009848 -0.004960 0.000000 -0.010090 0.000000
# 2 0.009848 -0.055459 0.008842 0.000000 0.005134 0.000001
# 3 -0.004960 0.008842 0.033721 0.000000 -0.025627 0.000000
# 4 0.000000 0.000000 0.000000 0.047915 0.000000 0.016149
# 5 -0.010090 0.005134 -0.025627 0.000000 0.068265 0.000000
# 6 0.000000 0.000001 0.000000 0.016149 0.000000 0.100135
#
#
# Mechanical properties :
#
#
# Convention : Reuss Voigt Hill
#
# Bulk Modulus (GPa) = 54.17750 25.57138 39.87444
# Shear Modulus (GPa) = 26.88081 15.54132 21.21107
#
# Velocity S-wave (km/s) = 3.69296 2.80800 3.28046
# Velocity P-wave (km/s) = 6.75802 4.84632 5.88037
#
# Compressibility (1/GPa) = 0.01845785
#
# Stress axis : x y z
#
# Youngs Moduli (GPa) = 78.50922 -18.03118 29.65516
#
# Poissons Ratio (x) = 0.17757 0.14710
# Poissons Ratio (y) = -0.77314 -0.26222
# Poissons Ratio (z) = 0.38944 0.15944
#
# Static dielectric constant tensor:
#      x y z
#    x 1.695220 0.000000 -0.003960 
#    y 0.000000 1.667420 0.000000 
#    z -0.003960 0.000000 1.757410 
# 
# From -- ./inp_files/382409.got.cif
#   From: 2010.05.17/outbox.ucp.g08.bks.cvg/sg12_192_cif.got.tgz:382409.got - 2010.06.11 11:47:21.
