data_PCOD9223163
_publ_section_title
;
Structure prediction by ZEFSAII (Michael W. Deem and Ramdas Pophale) SiO2 
 PCOD9223163
Probable space group: C 2/M
;
_chemical_formula_sum "Si O2"
_cell_formula_units_Z 24
_cell_length_a 27.000000
_cell_length_b 9.000000
_cell_length_c 15.000000
_cell_angle_alpha 90.000000
_cell_angle_beta 40.000000
_cell_angle_gamma 90.000000
_cell_volume 2342.960837
_symmetry_space_group_name_H-M "C 2/M"
_symmetry_group_IT_number 12
_symmetry_cell_setting 'monoclinic'
loop_
_space_group_symop_operation_xyz
x,y,z
-x,y,-z
-x,-y,-z
x,-y,z
1/2+x,1/2+y,z
1/2-x,1/2+y,-z
1/2-x,1/2-y,-z
1/2+x,1/2-y,z
loop_
_atom_site_type_symbol
_atom_site_label
_atom_site_fract_x
_atom_site_fract_y
_atom_site_fract_z
Si Si1 0.729989 0.674145 0.164582
Si Si2 0.086398 0.673359 0.417861
Si Si3 0.182134 0.169267 0.810769
Si Si4 0.071756 0.678369 0.833051
Si Si5 0.622119 0.668269 0.083741
Si Si6 0.035337 0.321637 0.679422
O O1 0.736729 0.500000 0.143694
O O2 0.643869 0.733035 0.277448
O O3 0.754594 0.725051 0.231400
O O4 0.705119 0.742380 0.982574
O O5 0.110722 0.500000 0.381037
O O6 0.083721 0.723435 0.525398
O O7 0.000000 0.682256 0.500000
O O8 0.143457 0.236582 0.777523
O O9 0.209652 0.000000 0.760732
O O10 0.119644 0.165073 0.978158
O O11 0.083619 0.500000 0.818507
O O12 0.060089 0.722914 0.745649
O O13 0.000000 0.706709 0.000000
O O14 0.620693 0.500000 0.118300
O O15 0.550706 0.761398 0.214989
O O16 0.033359 0.500000 0.681068
#
# Coordination Sequence:
#
# PCOD9223163 Si02
#       6
#     8   8   8   8   8   8
#     4  10  19  35  59  82 109 145 185 228 277 330
#     4  10  22  41  61  80 108 145 184 230 282 330
#     4   9  18  30  50  78 110 146 180 215 263 321
#     4  10  17  27  48  79 114 147 179 219 268 324
#     4   9  18  32  54  82 113 145 181 225 270 320
#     4  10  20  34  55  84 114 146 186 228 272 326
#
# _framework density 10.243449
#
# number of rings (size 3 to 8) (size 9 to 14) (size 15 to 20)
#    1.000    1.333    1.667    2.000    0.000    2.000 
#    0.000    1.667    0.000    0.000    0.000    0.000 
#    0.000    0.000    0.000    0.000    0.000    0.000 
#
# Total GULP energy -133751.997767 kJ/mol
# GULP energy per Si atom -5572.999907 kJ/mol
# Density = 1.022013 g / cm^3
# Si number density = 10.243449 Si / 1000 Ang^3
#
#
#
# Elastic Constant Matrix: (Units=GPa)
#
#
# Indices 1 2 3 4 5 6 
#
# 1 81.7026 -9.8454 -15.2148 0.0002 9.4038 0.0000
# 2 -9.8454 -46.6670 -32.9547 0.0023 -0.7230 -0.0009
# 3 -15.2148 -32.9547 34.0798 0.0010 -2.5609 -0.0004
# 4 0.0002 0.0023 0.0010 17.4493 -0.0003 -10.9550
# 5 9.4038 -0.7230 -2.5609 -0.0003 28.9272 0.0000
# 6 0.0000 -0.0009 -0.0004 -10.9550 0.0000 15.6978
#
#
#
# Elastic Compliance Matrix: (Units=1/GPa)
#
#
# Indices 1 2 3 4 5 6 
#
# 1 0.012560 -0.003763 0.001665 0.000000 -0.004030 0.000000
# 2 -0.003763 -0.011548 -0.012862 0.000003 -0.000204 0.000001
# 3 0.001665 -0.012862 0.017701 0.000001 0.000704 0.000000
# 4 0.000000 0.000003 0.000001 0.101998 0.000001 0.071181
# 5 -0.004030 -0.000204 0.000704 0.000001 0.035937 0.000001
# 6 0.000000 0.000001 0.000000 0.071181 0.000001 0.113378
#
#
# Mechanical properties :
#
#
# Convention : Reuss Voigt Hill
#
# Bulk Modulus (GPa) = -89.22377 -5.21272 -47.21825
# Shear Modulus (GPa) = 16.87982 20.89022 18.88502
#
# Velocity S-wave (km/s) = 2.87354 3.19672 3.03943
# Velocity P-wave (km/s) = 5.71284 3.32797 3.28338
#
# Compressibility (1/GPa) = -0.01120778
#
# Stress axis : x y z
#
# Youngs Moduli (GPa) = 79.61821 -86.59336 56.49243
#
# Poissons Ratio (x) = -0.32589 -0.09408
# Poissons Ratio (y) = 0.29964 0.72663
# Poissons Ratio (z) = -0.13259 -1.11380
#
# Static dielectric constant tensor:
#      x y z
#    x 1.790300 0.000000 -0.004580 
#    y 0.000000 1.680230 0.000000 
#    z -0.004580 0.000000 1.711580 
# 
# From -- ./inp_files/244752.got.cif
#   From: 2010.05.17/outbox.ucp.g08.bks.cvg/sg12_123_cif.got.tgz:244752.got - 2010.06.11 11:47:21.
