data_PCOD9223945
_publ_section_title
;
Structure prediction by ZEFSAII (Michael W. Deem and Ramdas Pophale) SiO2 
 PCOD9223945
Probable space group: C 2/M
;
_chemical_formula_sum "Si O2"
_cell_formula_units_Z 24
_cell_length_a 6.000000
_cell_length_b 30.000000
_cell_length_c 15.000000
_cell_angle_alpha 90.000000
_cell_angle_beta 60.000000
_cell_angle_gamma 90.000000
_cell_volume 2338.268590
_symmetry_space_group_name_H-M "C 2/M"
_symmetry_group_IT_number 12
_symmetry_cell_setting 'monoclinic'
loop_
_space_group_symop_operation_xyz
x,y,z
-x,y,-z
-x,-y,-z
x,-y,z
1/2+x,1/2+y,z
1/2-x,1/2+y,-z
1/2-x,1/2-y,-z
1/2+x,1/2-y,z
loop_
_atom_site_type_symbol
_atom_site_label
_atom_site_fract_x
_atom_site_fract_y
_atom_site_fract_z
Si Si1 0.055928 0.949306 0.702380
Si Si2 0.739480 0.668429 0.099674
Si Si3 0.101713 0.638972 0.381750
Si Si4 0.374692 0.272915 0.262526
Si Si5 0.621930 0.884266 0.750104
Si Si6 0.948776 0.919620 0.103812
O O1 0.809442 0.926659 0.706122
O O2 0.997288 0.948416 0.819769
O O3 0.267839 0.910228 0.648293
O O4 0.114873 0.000000 0.662541
O O5 0.536529 0.708363 0.146121
O O6 0.799096 0.649679 0.187521
O O7 0.621620 0.625010 0.075162
O O8 0.000000 0.681896 0.000000
O O9 0.284379 0.681080 0.327200
O O10 0.000000 0.644518 0.500000
O O11 0.898493 0.639084 0.341543
O O12 0.603164 0.249695 0.279490
O O13 0.342378 0.902687 0.831138
O O14 0.000000 0.942418 0.000000
#
# Coordination Sequence:
#
# PCOD9223945 Si02
#       6
#     8   8   8   8   8   8
#     4  10  23  41  65 100 136 175 228 290 354 424
#     4  11  21  38  68  99 137 183 228 278 348 418
#     4  11  25  46  72  96 132 182 232 293 361 416
#     4  12  27  46  71 106 146 184 240 297 351 426
#     4  10  19  40  64  93 135 180 222 284 343 416
#     4  10  19  34  66  95 132 185 229 276 342 413
#
# _framework density 10.264004999999999
#
# number of rings (size 3 to 8) (size 9 to 14) (size 15 to 20)
#    0.000    1.333    6.667    1.000    0.000    5.333 
#    0.000    1.667    0.000    0.000    0.000    0.000 
#    0.000    0.000    0.000    0.000    0.000    0.000 
#
# Total GULP energy -133730.792854 kJ/mol
# GULP energy per Si atom -5572.116369 kJ/mol
# Density = 1.024064 g / cm^3
# Si number density = 10.264005 Si / 1000 Ang^3
#
#
#
# Elastic Constant Matrix: (Units=GPa)
#
#
# Indices 1 2 3 4 5 6 
#
# 1 107.8902 51.4078 24.6899 0.0000 8.9589 0.0000
# 2 51.4078 96.2304 46.4902 0.0000 4.1177 0.0000
# 3 24.6899 46.4902 53.3855 0.0000 9.9527 0.0000
# 4 0.0000 0.0000 0.0000 -2.8311 0.0000 -8.4298
# 5 8.9589 4.1177 9.9527 0.0000 8.3603 0.0000
# 6 0.0000 0.0000 0.0000 -8.4298 0.0000 -17.6609
#
#
#
# Elastic Compliance Matrix: (Units=1/GPa)
#
#
# Indices 1 2 3 4 5 6 
#
# 1 0.013718 -0.008600 0.003979 0.000000 -0.015202 0.000000
# 2 -0.008600 0.024417 -0.021543 0.000000 0.022836 0.000000
# 3 0.003979 -0.021543 0.044300 0.000000 -0.046392 0.000000
# 4 0.000000 0.000000 0.000000 0.838530 0.000000 -0.400242
# 5 -0.015202 0.022836 -0.046392 0.000000 0.179883 0.000000
# 6 0.000000 0.000000 0.000000 -0.400242 0.000000 0.134419
#
#
# Mechanical properties :
#
#
# Convention : Reuss Voigt Hill
#
# Bulk Modulus (GPa) = 33.21448 55.85353 44.53401
# Shear Modulus (GPa) = 3.85318 6.56821 5.21069
#
# Velocity S-wave (km/s) = 1.37153 1.79069 1.59494
# Velocity P-wave (km/s) = 4.32705 5.61631 5.01330
#
# Compressibility (1/GPa) = 0.03010735
#
# Stress axis : x y z
#
# Youngs Moduli (GPa) = 72.89502 40.95567 22.57314
#
# Poissons Ratio (x) = 0.35224 -0.08982
# Poissons Ratio (y) = 0.62693 0.48629
# Poissons Ratio (z) = -0.29006 0.88230
#
# Static dielectric constant tensor:
#      x y z
#    x 1.769490 0.000000 -0.010020 
#    y 0.000000 1.731650 0.000000 
#    z -0.010020 0.000000 1.750770 
# 
# From -- ./inp_files/192520.got.cif
#   From: 2010.05.17/outbox.ucp.g08.bks.cvg/sg12_97_cif.got.tgz:192520.got - 2010.06.11 11:47:21.
