data_PCOD9223864
_publ_section_title
;
Structure prediction by ZEFSAII (Michael W. Deem and Ramdas Pophale) SiO2 
 PCOD9223864
Probable space group: C 2/M
;
_chemical_formula_sum "Si O2"
_cell_formula_units_Z 28
_cell_length_a 21.000000
_cell_length_b 9.000000
_cell_length_c 30.000000
_cell_angle_alpha 90.000000
_cell_angle_beta 30.000000
_cell_angle_gamma 90.000000
_cell_volume 2835.000000
_symmetry_space_group_name_H-M "C 2/M"
_symmetry_group_IT_number 12
_symmetry_cell_setting 'monoclinic'
loop_
_space_group_symop_operation_xyz
x,y,z
-x,y,-z
-x,-y,-z
x,-y,z
1/2+x,1/2+y,z
1/2-x,1/2+y,-z
1/2-x,1/2-y,-z
1/2+x,1/2-y,z
loop_
_atom_site_type_symbol
_atom_site_label
_atom_site_fract_x
_atom_site_fract_y
_atom_site_fract_z
Si Si1 0.552356 0.675248 0.182479
Si Si2 0.663996 0.174311 0.852244
Si Si3 0.425116 0.175434 0.928956
Si Si4 0.041852 0.839488 0.526472
Si Si5 0.300797 0.827606 0.327780
Si Si6 0.818498 0.672014 0.687037
Si Si7 0.231461 0.823387 0.900625
O O1 0.578743 0.500000 0.162852
O O2 0.569502 0.756467 0.123734
O O3 0.406423 0.713785 0.279227
O O4 0.631476 0.748734 0.174778
O O5 0.550606 0.185426 0.884447
O O6 0.774859 0.262962 0.760298
O O7 0.653711 0.249391 0.907022
O O8 0.687946 0.000000 0.844405
O O9 0.391426 0.000000 0.947059
O O10 0.330001 0.275006 0.015259
O O11 0.191503 0.828876 0.431100
O O12 0.000000 0.843679 0.500000
O O13 0.968010 0.703643 0.592134
O O14 0.002900 0.000000 0.569731
O O15 0.246315 0.767158 0.313586
O O16 0.343892 0.000000 0.294963
O O17 0.785009 0.500000 0.702502
O O18 0.235815 0.000000 0.892772
#
# Coordination Sequence:
#
# PCOD9223864 Si02
#       7
#     8   8   8   8   8   8   8
#     4  12  24  39  61  87 118 153 196 241 289 346
#     4  11  23  40  62  85 117 155 195 239 289 346
#     4  11  23  41  64  87 115 151 194 241 292 344
#     4   8  16  30  50  77 113 151 187 231 285 339
#     4  10  19  34  55  82 115 152 192 236 288 340
#     4  11  20  31  53  85 118 150 191 237 285 338
#     4  12  26  42  60  84 118 153 194 242 292 347
#
# _framework density 9.8765429999999999
#
# number of rings (size 3 to 8) (size 9 to 14) (size 15 to 20)
#    0.000    1.286    1.429    6.857    0.000    6.571 
#    0.000    0.000    0.000    0.857    0.000    0.000 
#    0.000    0.000    0.000    0.000    0.000    0.000 
#
# Total GULP energy -156095.282309 kJ/mol
# GULP energy per Si atom -5574.831511 kJ/mol
# Density = 0.985406 g / cm^3
# Si number density = 9.876543 Si / 1000 Ang^3
#
#
#
# Elastic Constant Matrix: (Units=GPa)
#
#
# Indices 1 2 3 4 5 6 
#
# 1 65.4625 36.7188 6.8309 0.0002 -10.0514 0.0009
# 2 36.7188 145.0631 14.7164 -0.0001 -2.1708 0.0011
# 3 6.8309 14.7164 44.5142 -0.0004 -13.0300 -0.0003
# 4 0.0002 -0.0001 -0.0004 18.4959 -0.0004 -17.2946
# 5 -10.0514 -2.1708 -13.0300 -0.0004 6.2832 -0.0009
# 6 0.0009 0.0011 -0.0003 -17.2946 -0.0009 -30.8652
#
#
#
# Elastic Compliance Matrix: (Units=1/GPa)
#
#
# Indices 1 2 3 4 5 6 
#
# 1 0.038834 -0.011629 0.037900 0.000000 0.136703 -0.000003
# 2 -0.011629 0.010710 -0.015570 0.000000 -0.047192 0.000001
# 3 0.037900 -0.015570 0.096620 0.000000 0.255618 -0.000007
# 4 0.000000 0.000000 0.000000 0.035478 -0.000001 -0.019879
# 5 0.136703 -0.047192 0.255618 -0.000001 0.891631 -0.000024
# 6 -0.000003 0.000001 -0.000007 -0.019879 -0.000024 -0.021260
#
#
# Mechanical properties :
#
#
# Convention : Reuss Voigt Hill
#
# Bulk Modulus (GPa) = 5.96778 41.28577 23.62678
# Shear Modulus (GPa) = 4.60208 11.90103 8.25156
#
# Velocity S-wave (km/s) = 1.52802 2.45723 2.04607
# Velocity P-wave (km/s) = 2.47808 5.38488 4.19153
#
# Compressibility (1/GPa) = 0.16756638
#
# Stress axis : x y z
#
# Youngs Moduli (GPa) = 25.75066 93.36673 10.34988
#
# Poissons Ratio (x) = 1.08576 -0.39226
# Poissons Ratio (y) = 0.29945 0.16115
# Poissons Ratio (z) = -0.97596 1.45372
#
# Static dielectric constant tensor:
#      x y z
#    x 1.697540 0.000000 -0.098430 
#    y 0.000000 1.667550 0.000000 
#    z -0.098430 0.000000 1.895910 
# 
# From -- ./inp_files/380627.got.cif
#   From: 2010.05.17/outbox.ucp.g08.bks.cvg/sg12_191_cif.got.tgz:380627.got - 2010.06.11 11:47:21.
