data_PCOD9223401
_publ_section_title
;
Structure prediction by ZEFSAII (Michael W. Deem and Ramdas Pophale) SiO2 
 PCOD9223401
Probable space group: C 2/M
;
_chemical_formula_sum "Si O2"
_cell_formula_units_Z 26
_cell_length_a 18.000000
_cell_length_b 21.000000
_cell_length_c 15.000000
_cell_angle_alpha 90.000000
_cell_angle_beta 30.000000
_cell_angle_gamma 90.000000
_cell_volume 2835.000000
_symmetry_space_group_name_H-M "C 2/M"
_symmetry_group_IT_number 12
_symmetry_cell_setting 'monoclinic'
loop_
_space_group_symop_operation_xyz
x,y,z
-x,y,-z
-x,-y,-z
x,-y,z
1/2+x,1/2+y,z
1/2-x,1/2+y,-z
1/2-x,1/2-y,-z
1/2+x,1/2-y,z
loop_
_atom_site_type_symbol
_atom_site_label
_atom_site_fract_x
_atom_site_fract_y
_atom_site_fract_z
Si Si1 0.639378 0.928736 0.788807
Si Si2 0.723361 0.704714 0.387997
Si Si3 0.896930 0.596164 0.687219
Si Si4 0.500000 0.219318 0.500000
Si Si5 0.136385 0.175518 0.677441
Si Si6 0.620526 0.070261 0.597551
Si Si7 0.557590 0.569773 0.040613
O O1 0.727641 0.862431 0.705301
O O2 0.599510 0.926033 0.725165
O O3 0.709355 0.000000 0.729566
O O4 0.500000 0.926312 0.000000
O O5 0.612169 0.738869 0.438141
O O6 0.846952 0.758793 0.284896
O O7 0.644136 0.691490 0.565073
O O8 0.000000 0.570776 0.500000
O O9 0.909947 0.671859 0.658557
O O10 0.966390 0.576737 0.707870
O O11 0.732671 0.572995 0.851026
O O12 0.277780 0.127885 0.544291
O O13 0.001601 0.130100 0.843576
O O14 0.683495 0.000000 0.511594
O O15 0.514773 0.500000 0.121875
O O16 0.500000 0.574993 0.000000
#
# Coordination Sequence:
#
# PCOD9223401 Si02
#       7
#     8   8   8   4   8   8   8
#     4   9  20  38  60  85 108 141 193 241 285 342
#     4  10  20  37  62  79 112 151 190 232 295 336
#     4  10  21  36  56  81 121 151 190 228 279 341
#     4  10  20  38  56  84 112 148 190 238 270 344
#     4  10  20  37  57  84 113 150 192 235 279 343
#     4  10  18  34  60  84 113 153 189 229 282 337
#     4  11  22  35  54  85 121 156 192 234 281 334
#
# _framework density 9.1710759999999993
#
# number of rings (size 3 to 8) (size 9 to 14) (size 15 to 20)
#    0.462    1.538    1.538    2.769    0.000    4.923 
#    2.769    1.154    0.000    0.000    0.000    0.000 
#    0.000    0.000    0.000    0.000    0.000    0.000 
#
# Total GULP energy -144756.257198 kJ/mol
# GULP energy per Si atom -5567.548354 kJ/mol
# Density = 0.915020 g / cm^3
# Si number density = 9.171076 Si / 1000 Ang^3
#
#
#
# Elastic Constant Matrix: (Units=GPa)
#
#
# Indices 1 2 3 4 5 6 
#
# 1 40.6073 37.2755 21.6350 -0.0502 -19.3475 -0.0262
# 2 37.2755 170.2451 43.5310 -0.0409 3.2406 -0.0133
# 3 21.6350 43.5310 73.7624 -0.0800 -15.7218 -0.0443
# 4 -0.0502 -0.0409 -0.0800 -373.1954 0.0418 -41.1963
# 5 -19.3475 3.2406 -15.7218 0.0418 7.6279 0.0142
# 6 -0.0262 -0.0133 -0.0443 -41.1963 0.0142 -424.3070
#
#
#
# Elastic Compliance Matrix: (Units=1/GPa)
#
#
# Indices 1 2 3 4 5 6 
#
# 1 -0.016975 0.010640 -0.020405 -0.000005 -0.089632 0.000000
# 2 0.010640 0.002597 0.001540 0.000001 0.029058 0.000000
# 3 -0.020405 0.001540 0.013310 -0.000003 -0.024976 -0.000001
# 4 -0.000005 0.000001 -0.000003 -0.002709 -0.000004 0.000263
# 5 -0.089632 0.029058 -0.024976 -0.000004 -0.160068 0.000002
# 6 0.000000 0.000000 -0.000001 0.000263 0.000002 -0.002382
#
#
# Mechanical properties :
#
#
# Convention : Reuss Voigt Hill
#
# Bulk Modulus (GPa) = -57.08661 54.38863 -1.34899
# Shear Modulus (GPa) = -32.13025 -145.83001 -88.98013
#
# Velocity S-wave (km/s) = -4.18989 -8.92625 -6.97256
# Velocity P-wave (km/s) = 7.38902 8.74761 8.09686
#
# Compressibility (1/GPa) = -0.01751724
#
# Stress axis : x y z
#
# Youngs Moduli (GPa) = -58.90974 385.01054 75.13304
#
# Poissons Ratio (x) = -4.09661 1.53306
# Poissons Ratio (y) = 0.62682 -0.11569
# Poissons Ratio (z) = -1.20203 -0.59285
#
# Static dielectric constant tensor:
#      x y z
#    x 1.609970 0.000000 -0.003860 
#    y 0.000000 1.688270 0.000000 
#    z -0.003860 0.000000 1.614350 
# 
# From -- ./inp_files/227383.got.cif
#   From: 2010.05.17/outbox.ucp.g08.bks.cvg/sg12_114_cif.got.tgz:227383.got - 2010.06.11 11:47:21.
