data_PCOD9223968
_publ_section_title
;
Structure prediction by ZEFSAII (Michael W. Deem and Ramdas Pophale) SiO2 
 PCOD9223968
Probable space group: C 2/M
;
_chemical_formula_sum "Si O2"
_cell_formula_units_Z 28
_cell_length_a 30.000000
_cell_length_b 9.000000
_cell_length_c 12.000000
_cell_angle_alpha 90.000000
_cell_angle_beta 110.000000
_cell_angle_gamma 90.000000
_cell_volume 3044.604091
_symmetry_space_group_name_H-M "C 2/M"
_symmetry_group_IT_number 12
_symmetry_cell_setting 'monoclinic'
loop_
_space_group_symop_operation_xyz
x,y,z
-x,y,-z
-x,-y,-z
x,-y,z
1/2+x,1/2+y,z
1/2-x,1/2+y,-z
1/2-x,1/2-y,-z
1/2+x,1/2-y,z
loop_
_atom_site_type_symbol
_atom_site_label
_atom_site_fract_x
_atom_site_fract_y
_atom_site_fract_z
Si Si1 0.247787 0.178454 0.373501
Si Si2 0.639872 0.323719 0.266927
Si Si3 0.405511 0.175775 0.569958
Si Si4 0.091281 0.322033 0.820043
Si Si5 0.555173 0.678247 0.018694
Si Si6 0.839371 0.679654 0.308111
Si Si7 0.996569 0.831369 0.364139
O O1 0.250000 0.250000 0.500000
O O2 0.194651 0.203248 0.278224
O O3 0.289781 0.229762 0.324006
O O4 0.253716 0.000000 0.392615
O O5 0.636906 0.500000 0.292169
O O6 0.631207 0.222774 0.366845
O O7 0.595622 0.291829 0.146804
O O8 0.380781 0.216301 0.432225
O O9 0.453740 0.264404 0.633519
O O10 0.414753 0.000000 0.578197
O O11 0.093204 0.500000 0.832153
O O12 0.139283 0.272009 0.794256
O O13 0.046705 0.272374 0.706922
O O14 0.077228 0.251101 0.926456
O O15 0.552959 0.500000 0.002396
O O16 0.500000 0.725544 0.000000
O O17 0.836031 0.500000 0.299238
O O18 0.000000 0.836451 0.500000
O O19 0.989809 0.000000 0.315730
#
# Coordination Sequence:
#
# PCOD9223968 Si02
#       7
#     8   8   8   8   8   8   8
#     4  10  19  35  57  84 117 153 193 235 289 344
#     4  10  21  36  58  85 114 152 197 242 288 342
#     4  11  20  33  55  82 116 151 186 230 285 345
#     4  11  22  38  59  82 112 151 195 238 288 346
#     4  10  22  41  60  80 114 154 193 241 294 346
#     4   9  19  34  53  81 117 150 179 230 293 341
#     4  11  22  34  51  79 114 148 184 228 283 345
#
# _framework density 9.1965979999999998
#
# number of rings (size 3 to 8) (size 9 to 14) (size 15 to 20)
#    0.000    1.714    2.857    2.143    0.000    2.571 
#    0.000    2.143    0.000    0.000    0.000    0.000 
#    0.000    0.000    0.000    0.000    0.000    0.000 
#
# Total GULP energy -156071.846833 kJ/mol
# GULP energy per Si atom -5573.994530 kJ/mol
# Density = 0.917567 g / cm^3
# Si number density = 9.196598 Si / 1000 Ang^3
#
#
#
# Elastic Constant Matrix: (Units=GPa)
#
#
# Indices 1 2 3 4 5 6 
#
# 1 167.2858 22.9744 37.6343 0.0000 -14.0539 0.0000
# 2 22.9744 20.7753 22.4019 0.0000 -6.9206 0.0000
# 3 37.6343 22.4019 74.1937 0.0000 -10.7624 0.0000
# 4 0.0000 0.0000 0.0000 23.7450 0.0000 -5.8339
# 5 -14.0539 -6.9206 -10.7624 0.0000 34.6906 0.0000
# 6 0.0000 0.0000 0.0000 -5.8339 0.0000 24.9705
#
#
#
# Elastic Compliance Matrix: (Units=1/GPa)
#
#
# Indices 1 2 3 4 5 6 
#
# 1 0.007267 -0.005693 -0.001785 0.000000 0.001254 0.000000
# 2 -0.005693 0.077966 -0.019614 0.000000 0.007162 0.000000
# 3 -0.001785 -0.019614 0.020559 0.000000 0.001742 0.000000
# 4 0.000000 0.000000 0.000000 0.044679 0.000000 0.010438
# 5 0.001254 0.007162 0.001742 0.000000 0.031304 0.000000
# 6 0.000000 0.000000 0.000000 0.010438 0.000000 0.042486
#
#
# Mechanical properties :
#
#
# Convention : Reuss Voigt Hill
#
# Bulk Modulus (GPa) = 19.37745 47.58622 33.48183
# Shear Modulus (GPa) = 16.91215 28.63085 22.77150
#
# Velocity S-wave (km/s) = 3.03558 3.94966 3.52240
# Velocity P-wave (km/s) = 4.77957 6.83575 5.89796
#
# Compressibility (1/GPa) = 0.05160638
#
# Stress axis : x y z
#
# Youngs Moduli (GPa) = 137.61527 12.82618 48.64156
#
# Poissons Ratio (x) = 0.07302 0.08683
# Poissons Ratio (y) = 0.78348 0.95405
# Poissons Ratio (z) = 0.24564 0.25157
#
# Static dielectric constant tensor:
#      x y z
#    x 1.664540 0.000000 -0.015680 
#    y 0.000000 1.616880 0.000000 
#    z -0.015680 0.000000 1.666740 
# 
# From -- ./inp_files/186815.got.cif
#   From: 2010.05.17/outbox.ucp.g08.bks.cvg/sg12_94_cif.got.tgz:186815.got - 2010.06.11 11:47:21.
