data_PCOD9223986
_publ_section_title
;
Structure prediction by ZEFSAII (Michael W. Deem and Ramdas Pophale) SiO2 
 PCOD9223986
Probable space group: C 2/M
;
_chemical_formula_sum "Si O2"
_cell_formula_units_Z 32
_cell_length_a 15.000000
_cell_length_b 9.000000
_cell_length_c 27.000000
_cell_angle_alpha 90.000000
_cell_angle_beta 110.000000
_cell_angle_gamma 90.000000
_cell_volume 3425.179603
_symmetry_space_group_name_H-M "C 2/M"
_symmetry_group_IT_number 12
_symmetry_cell_setting 'monoclinic'
loop_
_space_group_symop_operation_xyz
x,y,z
-x,y,-z
-x,-y,-z
x,-y,z
1/2+x,1/2+y,z
1/2-x,1/2+y,-z
1/2-x,1/2-y,-z
1/2+x,1/2-y,z
loop_
_atom_site_type_symbol
_atom_site_label
_atom_site_fract_x
_atom_site_fract_y
_atom_site_fract_z
Si Si1 0.978438 0.176133 0.250314
Si Si2 0.135350 0.175162 0.124964
Si Si3 0.601177 0.319583 0.368675
Si Si4 0.295387 0.177463 0.359610
Si Si5 0.733014 0.178833 0.942921
Si Si6 0.213724 0.325324 0.757993
Si Si7 0.467603 0.823702 0.142682
Si Si8 0.483769 0.320291 0.439881
O O1 0.871054 0.217824 0.243007
O O2 0.995820 0.250271 0.200444
O O3 0.038751 0.230107 0.309389
O O4 0.993731 0.000000 0.248311
O O5 0.187651 0.211941 0.083561
O O6 0.203927 0.194645 0.185902
O O7 0.045064 0.275824 0.117526
O O8 0.109954 0.000000 0.118977
O O9 0.596445 0.500000 0.367149
O O10 0.708059 0.276406 0.377379
O O11 0.563472 0.271924 0.415101
O O12 0.266722 0.202846 0.296480
O O13 0.387829 0.261147 0.396354
O O14 0.310669 0.000000 0.366975
O O15 0.634406 0.225421 0.897874
O O16 0.729986 0.000000 0.948347
O O17 0.750000 0.250000 0.000000
O O18 0.184587 0.500000 0.756428
O O19 0.463920 0.000000 0.149294
O O20 0.500000 0.270699 0.500000
O O21 0.481313 0.500000 0.440261
#
# Coordination Sequence:
#
# PCOD9223986 Si02
#       8
#     8   8   8   8   8   8   8   8
#     4  11  20  34  60  87 115 153 191 227 281 352
#     4  10  21  40  62  86 118 156 193 232 286 349
#     4   9  19  36  56  81 113 149 185 226 284 343
#     4  10  20  35  58  82 110 148 186 229 281 340
#     4  10  23  42  62  83 116 155 195 243 289 336
#     4  10  19  35  58  84 118 150 183 234 291 338
#     4  11  23  40  60  88 121 151 188 239 290 337
#     4  10  21  38  57  78 110 149 190 239 286 330
#
# _framework density 9.3425759999999993
#
# number of rings (size 3 to 8) (size 9 to 14) (size 15 to 20)
#    0.000    1.875    2.500    1.500    0.000    5.250 
#    0.000    5.625    0.000    0.000    0.000    0.000 
#    0.000    0.000    0.000    0.000    0.000    0.000 
#
# Total GULP energy -178522.973283 kJ/mol
# GULP energy per Si atom -5578.842915 kJ/mol
# Density = 0.932131 g / cm^3
# Si number density = 9.342576 Si / 1000 Ang^3
#
#
#
# Elastic Constant Matrix: (Units=GPa)
#
#
# Indices 1 2 3 4 5 6 
#
# 1 81.5844 18.4476 37.0786 0.0000 -29.7533 0.0000
# 2 18.4476 16.4173 23.4215 0.0000 -9.7750 0.0000
# 3 37.0786 23.4215 117.4837 0.0000 -38.6480 0.0000
# 4 0.0000 0.0000 0.0000 31.0602 0.0000 0.6552
# 5 -29.7533 -9.7750 -38.6480 0.0000 23.0224 0.0000
# 6 0.0000 0.0000 0.0000 0.6552 0.0000 27.0454
#
#
#
# Elastic Compliance Matrix: (Units=1/GPa)
#
#
# Indices 1 2 3 4 5 6 
#
# 1 0.028587 -0.018996 0.009525 0.000000 0.044870 0.000000
# 2 -0.018996 0.100866 -0.018092 0.000000 -0.012094 0.000000
# 3 0.009525 -0.018092 0.023752 0.000000 0.044501 0.000000
# 4 0.000000 0.000000 0.000000 0.032212 0.000000 -0.000780
# 5 0.044870 -0.012094 0.044501 0.000000 0.170993 0.000000
# 6 0.000000 0.000000 0.000000 -0.000780 0.000000 0.036994
#
#
# Mechanical properties :
#
#
# Convention : Reuss Voigt Hill
#
# Bulk Modulus (GPa) = 10.19574 41.48677 25.84125
# Shear Modulus (GPa) = 10.39022 25.32811 17.85916
#
# Velocity S-wave (km/s) = 2.36067 3.68573 3.09495
# Velocity P-wave (km/s) = 3.59149 6.35328 5.16057
#
# Compressibility (1/GPa) = 0.09808022
#
# Stress axis : x y z
#
# Youngs Moduli (GPa) = 34.98073 9.91413 42.10256
#
# Poissons Ratio (x) = 0.18833 -0.40104
# Poissons Ratio (y) = 0.66448 0.76172
# Poissons Ratio (z) = -0.33320 0.17937
#
# Static dielectric constant tensor:
#      x y z
#    x 1.677380 0.000000 -0.008000 
#    y 0.000000 1.626640 0.000000 
#    z -0.008000 0.000000 1.630980 
# 
# From -- ./inp_files/359785.got.cif
#   From: 2010.05.17/outbox.ucp.g08.bks.cvg/sg12_180_cif.got.tgz:359785.got - 2010.06.11 11:47:21.
