data_PCOD9223995
_publ_section_title
;
Structure prediction by ZEFSAII (Michael W. Deem and Ramdas Pophale) SiO2 
 PCOD9223995
Probable space group: C 2/M
;
_chemical_formula_sum "Si O2"
_cell_formula_units_Z 32
_cell_length_a 15.000000
_cell_length_b 9.000000
_cell_length_c 30.000000
_cell_angle_alpha 90.000000
_cell_angle_beta 50.000000
_cell_angle_gamma 90.000000
_cell_volume 3102.479995
_symmetry_space_group_name_H-M "C 2/M"
_symmetry_group_IT_number 12
_symmetry_cell_setting 'monoclinic'
loop_
_space_group_symop_operation_xyz
x,y,z
-x,y,-z
-x,-y,-z
x,-y,z
1/2+x,1/2+y,z
1/2-x,1/2+y,-z
1/2-x,1/2-y,-z
1/2+x,1/2-y,z
loop_
_atom_site_type_symbol
_atom_site_label
_atom_site_fract_x
_atom_site_fract_y
_atom_site_fract_z
Si Si1 0.013732 0.173375 0.724910
Si Si2 0.054849 0.176600 0.934029
Si Si3 0.324131 0.178359 0.843455
Si Si4 0.872560 0.180376 0.405150
Si Si5 0.302851 0.673444 0.252369
Si Si6 0.632770 0.179850 0.451116
Si Si7 0.000015 0.677073 0.865458
Si Si8 0.609532 0.678519 0.367037
O O1 0.073061 0.224828 0.660139
O O2 0.110833 0.183502 0.732529
O O3 0.899714 0.258204 0.778375
O O4 0.984127 0.000000 0.728518
O O5 0.190169 0.225843 0.889250
O O6 0.981950 0.264861 0.920786
O O7 0.051763 0.000000 0.924787
O O8 0.000000 0.197819 0.000000
O O9 0.397167 0.220366 0.864388
O O10 0.325191 0.000000 0.840188
O O11 0.738058 0.230472 0.449604
O O12 0.974019 0.226608 0.406345
O O13 0.869378 0.000000 0.407776
O O14 0.277974 0.500000 0.251897
O O15 0.380461 0.745841 0.189087
O O16 0.186436 0.763474 0.301234
O O17 0.500000 0.231315 0.500000
O O18 0.662462 0.242351 0.393030
O O19 0.632365 0.000000 0.450976
O O20 0.012477 0.500000 0.859563
O O21 0.615468 0.500000 0.368121
#
# Coordination Sequence:
#
# PCOD9223995 Si02
#       8
#     8   8   8   8   8   8   8   8
#     4   9  17  33  57  80 110 148 185 225 277 339
#     4  10  22  40  59  81 113 153 193 232 279 337
#     4   9  20  37  55  81 114 146 185 233 280 331
#     4   9  19  36  55  82 115 149 185 227 283 338
#     4  10  19  35  59  84 114 150 191 230 276 341
#     4  10  21  41  64  81 108 154 199 234 273 334
#     4  10  21  37  57  84 116 147 186 236 288 332
#     4  11  22  35  56  86 119 149 183 234 290 334
#
# _framework density 10.314329000000001
#
# number of rings (size 3 to 8) (size 9 to 14) (size 15 to 20)
#    0.000    2.250    1.250    1.125    1.750    3.000 
#    0.000    1.875    0.000    0.000    0.000    0.000 
#    0.000    0.000    0.000    0.000    0.000    0.000 
#
# Total GULP energy -178613.552169 kJ/mol
# GULP energy per Si atom -5581.673505 kJ/mol
# Density = 1.029085 g / cm^3
# Si number density = 10.314329 Si / 1000 Ang^3
#
#
#
# Elastic Constant Matrix: (Units=GPa)
#
#
# Indices 1 2 3 4 5 6 
#
# 1 87.3852 -6.5701 26.5012 0.0000 -11.8674 -0.0001
# 2 -6.5701 -25.5114 13.5633 -0.0001 -7.0258 -0.0001
# 3 26.5012 13.5633 48.8750 0.0000 -6.5153 0.0000
# 4 0.0000 -0.0001 0.0000 22.6561 0.0000 -4.1762
# 5 -11.8674 -7.0258 -6.5153 0.0000 34.1347 0.0000
# 6 -0.0001 -0.0001 0.0000 -4.1762 0.0000 19.2176
#
#
#
# Elastic Compliance Matrix: (Units=1/GPa)
#
#
# Indices 1 2 3 4 5 6 
#
# 1 0.012717 -0.006436 -0.004819 0.000000 0.002177 0.000000
# 2 -0.006436 -0.029972 0.010966 0.000000 -0.006314 0.000000
# 3 -0.004819 0.010966 0.020633 0.000000 0.004520 0.000000
# 4 0.000000 0.000000 0.000000 0.045980 0.000000 0.009992
# 5 0.002177 -0.006314 0.004520 0.000000 0.029616 0.000000
# 6 0.000000 0.000000 0.000000 0.009992 0.000000 0.054207
#
#
# Mechanical properties :
#
#
# Convention : Reuss Voigt Hill
#
# Bulk Modulus (GPa) = 357.34442 19.74861 188.54651
# Shear Modulus (GPa) = 37.12164 20.35199 28.73682
#
# Velocity S-wave (km/s) = 4.24667 3.14441 3.73641
# Velocity P-wave (km/s) = 14.05877 4.77255 10.49824
#
# Compressibility (1/GPa) = 0.00279842
#
# Stress axis : x y z
#
# Youngs Moduli (GPa) = 78.63688 -33.36474 48.46668
#
# Poissons Ratio (x) = -0.21475 0.23356
# Poissons Ratio (y) = 0.50614 -0.53148
# Poissons Ratio (z) = 0.37895 0.36587
#
# Static dielectric constant tensor:
#      x y z
#    x 1.770430 0.000000 0.018260 
#    y 0.000000 1.680240 0.000000 
#    z 0.018260 0.000000 1.759140 
# 
# From -- ./inp_files/359780.got.cif
#   From: 2010.05.17/outbox.ucp.g08.bks.cvg/sg12_180_cif.got.tgz:359780.got - 2010.06.11 11:47:21.
