data_PCOD9223657
_publ_section_title
;
Structure prediction by ZEFSAII (Michael W. Deem and Ramdas Pophale) SiO2 
 PCOD9223657
Probable space group: C 2/M
;
_chemical_formula_sum "Si O2"
_cell_formula_units_Z 24
_cell_length_a 12.000000
_cell_length_b 27.000000
_cell_length_c 15.000000
_cell_angle_alpha 90.000000
_cell_angle_beta 30.000000
_cell_angle_gamma 90.000000
_cell_volume 2430.000000
_symmetry_space_group_name_H-M "C 2/M"
_symmetry_group_IT_number 12
_symmetry_cell_setting 'monoclinic'
loop_
_space_group_symop_operation_xyz
x,y,z
-x,y,-z
-x,-y,-z
x,-y,z
1/2+x,1/2+y,z
1/2-x,1/2+y,-z
1/2-x,1/2-y,-z
1/2+x,1/2-y,z
loop_
_atom_site_type_symbol
_atom_site_label
_atom_site_fract_x
_atom_site_fract_y
_atom_site_fract_z
Si Si1 0.414445 0.694383 0.797260
Si Si2 0.816144 0.557174 0.447658
Si Si3 0.897075 0.657771 0.475706
Si Si4 0.028439 0.557673 0.117815
Si Si5 0.341169 0.405380 0.756025
Si Si6 0.281849 0.696918 0.090031
O O1 0.682386 0.692690 0.613144
O O2 0.356807 0.652547 0.765702
O O3 0.299066 0.746073 0.855648
O O4 0.334561 0.680816 0.952597
O O5 0.825347 0.500000 0.470889
O O6 0.833770 0.599837 0.509539
O O7 0.000164 0.564859 0.242628
O O8 0.574781 0.569016 0.571771
O O9 0.000000 0.667715 0.500000
O O10 0.078406 0.668132 0.274852
O O11 0.984517 0.500000 0.131742
O O12 0.837588 0.586474 0.196803
O O13 0.253465 0.571205 0.910067
O O14 0.500000 0.691631 0.000000
#
# Coordination Sequence:
#
# PCOD9223657 Si02
#       6
#     8   8   8   8   8   8
#     4  10  23  39  59  88 115 149 190 234 282 341
#     4  10  21  36  56  81 113 151 191 233 279 335
#     4  11  22  41  60  83 116 151 193 237 284 329
#     4  10  19  32  53  82 118 150 183 231 288 338
#     4  10  19  33  55  82 115 147 186 229 283 341
#     4  11  22  40  64  84 114 152 189 234 287 339
#
# _framework density 9.8765429999999999
#
# number of rings (size 3 to 8) (size 9 to 14) (size 15 to 20)
#    0.000    1.667    1.667    4.000    2.333    1.667 
#    0.000    1.667    0.000    0.500    0.000    0.000 
#    0.000    0.000    0.000    0.000    0.000    0.000 
#
# Total GULP energy -133914.952071 kJ/mol
# GULP energy per Si atom -5579.789670 kJ/mol
# Density = 0.985406 g / cm^3
# Si number density = 9.876543 Si / 1000 Ang^3
#
#
#
# Elastic Constant Matrix: (Units=GPa)
#
#
# Indices 1 2 3 4 5 6 
#
# 1 1.7378 2.7848 -8.9985 0.0000 0.2340 -0.0001
# 2 2.7848 40.4402 -1.6299 -0.0007 6.4813 -0.0001
# 3 -8.9985 -1.6299 92.6105 0.0015 1.0982 0.0007
# 4 0.0000 -0.0007 0.0015 13.3193 -0.0007 6.8550
# 5 0.2340 6.4813 1.0982 -0.0007 9.8937 -0.0004
# 6 -0.0001 -0.0001 0.0007 6.8550 -0.0004 2.8076
#
#
#
# Elastic Compliance Matrix: (Units=1/GPa)
#
#
# Indices 1 2 3 4 5 6 
#
# 1 1.445174 -0.096079 0.138571 0.000091 0.013386 -0.000206
# 2 -0.096079 0.034062 -0.008510 -0.000011 -0.019097 0.000025
# 3 0.138571 -0.008510 0.024117 0.000008 -0.000379 -0.000020
# 4 0.000091 -0.000011 0.000008 -0.292611 0.000015 0.714425
# 5 0.013386 -0.019097 -0.000379 0.000015 0.113310 -0.000020
# 6 -0.000206 0.000025 -0.000020 0.714425 -0.000020 -1.388134
#
#
# Mechanical properties :
#
#
# Convention : Reuss Voigt Hill
#
# Bulk Modulus (GPa) = 0.63641 13.23348 6.93494
# Shear Modulus (GPa) = 12.76406 14.71294 13.73850
#
# Velocity S-wave (km/s) = 2.54477 2.73214 2.64012
# Velocity P-wave (km/s) = 2.99288 4.08250 3.57939
#
# Compressibility (1/GPa) = 1.57131723
#
# Stress axis : x y z
#
# Youngs Moduli (GPa) = 0.69196 29.35837 41.46465
#
# Poissons Ratio (x) = 2.82072 -5.74580
# Poissons Ratio (y) = 0.06648 0.35285
# Poissons Ratio (z) = -0.09589 0.24983
#
# Static dielectric constant tensor:
#      x y z
#    x 1.676170 0.000000 0.001470 
#    y 0.000000 1.691570 0.000000 
#    z 0.001470 0.000000 1.718370 
# 
# From -- ./inp_files/50597.got.cif
#   From: 2010.05.17/outbox.ucp.g08.bks.cvg/sg12_26_cif.got.tgz:50597.got - 2010.06.11 11:47:21.
