data_PCOD9223389
_publ_section_title
;
Structure prediction by ZEFSAII (Michael W. Deem and Ramdas Pophale) SiO2 
 PCOD9223389
Probable space group: C 2/M
;
_chemical_formula_sum "Si O2"
_cell_formula_units_Z 32
_cell_length_a 30.000000
_cell_length_b 9.000000
_cell_length_c 18.000000
_cell_angle_alpha 90.000000
_cell_angle_beta 40.000000
_cell_angle_gamma 90.000000
_cell_volume 3123.947783
_symmetry_space_group_name_H-M "C 2/M"
_symmetry_group_IT_number 12
_symmetry_cell_setting 'monoclinic'
loop_
_space_group_symop_operation_xyz
x,y,z
-x,y,-z
-x,-y,-z
x,-y,z
1/2+x,1/2+y,z
1/2-x,1/2+y,-z
1/2-x,1/2-y,-z
1/2+x,1/2-y,z
loop_
_atom_site_type_symbol
_atom_site_label
_atom_site_fract_x
_atom_site_fract_y
_atom_site_fract_z
Si Si1 0.046775 0.173186 0.014583
Si Si2 0.212372 0.678252 0.977036
Si Si3 0.833952 0.322934 0.219734
Si Si4 0.214625 0.819658 0.269878
Si Si5 0.961618 0.820537 0.269466
Si Si6 0.822567 0.177482 0.389150
Si Si7 0.414852 0.321673 0.795026
Si Si8 0.076376 0.818837 0.385099
O O1 0.111448 0.277064 0.913115
O O2 0.067872 0.000000 0.999212
O O3 0.000000 0.176867 0.000000
O O4 0.003146 0.223567 0.141853
O O5 0.216146 0.500000 0.977019
O O6 0.134778 0.737574 0.085017
O O7 0.250000 0.750000 0.000000
O O8 0.246753 0.725050 0.855584
O O9 0.836486 0.500000 0.230187
O O10 0.758808 0.277708 0.284561
O O11 0.847381 0.230828 0.276600
O O12 0.135801 0.768534 0.365184
O O13 0.214538 0.000000 0.269506
O O14 0.882920 0.769901 0.367628
O O15 0.006718 0.783921 0.283271
O O16 0.958866 0.000000 0.269246
O O17 0.750000 0.250000 0.500000
O O18 0.816457 0.000000 0.399134
O O19 0.404692 0.500000 0.815484
O O20 0.401406 0.281085 0.727108
O O21 0.000000 0.763612 0.500000
O O22 0.073983 0.000000 0.390478
#
# Coordination Sequence:
#
# PCOD9223389 Si02
#       8
#     8   8   8   8   8   8   8   8
#     4  10  18  34  57  80 111 148 181 226 285 340
#     4  11  20  34  56  83 116 150 182 228 284 338
#     4  11  22  36  57  85 115 150 189 233 286 341
#     4   9  19  34  52  80 115 144 181 232 279 327
#     4   9  19  35  58  84 111 145 185 233 285 341
#     4  11  23  42  61  83 115 151 193 239 285 335
#     4  10  19  34  57  84 108 140 187 229 277 340
#     4   9  17  31  53  78 104 138 182 231 272 315
#
# _framework density 10.243449
#
# number of rings (size 3 to 8) (size 9 to 14) (size 15 to 20)
#    0.000    2.000    2.500    1.875    0.000    1.250 
#    0.000    6.875    0.000    0.375    0.000    0.000 
#    0.000    0.000    0.000    0.000    0.000    0.000 
#
# Total GULP energy -178538.511319 kJ/mol
# GULP energy per Si atom -5579.328479 kJ/mol
# Density = 1.022013 g / cm^3
# Si number density = 10.243449 Si / 1000 Ang^3
#
#
#
# Elastic Constant Matrix: (Units=GPa)
#
#
# Indices 1 2 3 4 5 6 
#
# 1 84.4311 8.9600 0.4491 -0.0035 -32.5792 0.0002
# 2 8.9600 30.8428 5.9234 -0.0024 -7.0546 0.0017
# 3 0.4491 5.9234 43.3176 -0.0079 -31.0786 0.0013
# 4 -0.0035 -0.0024 -0.0079 26.2670 0.0030 -1.3612
# 5 -32.5792 -7.0546 -31.0786 0.0030 30.5993 -0.0006
# 6 0.0002 0.0017 0.0013 -1.3612 -0.0006 15.5188
#
#
#
# Elastic Compliance Matrix: (Units=1/GPa)
#
#
# Indices 1 2 3 4 5 6 
#
# 1 -0.024361 -0.001675 -0.067837 -0.000013 -0.095222 0.000001
# 2 -0.001675 0.034267 -0.001031 0.000002 0.005069 -0.000003
# 3 -0.067837 -0.001031 -0.103428 -0.000020 -0.177512 0.000001
# 4 -0.000013 0.000002 -0.000020 0.038244 -0.000037 0.003354
# 5 -0.095222 0.005069 -0.177512 -0.000037 -0.247827 0.000003
# 6 0.000001 -0.000003 0.000001 0.003354 0.000003 0.064732
#
#
# Mechanical properties :
#
#
# Convention : Reuss Voigt Hill
#
# Bulk Modulus (GPa) = -4.26243 21.02849 8.38303
# Shear Modulus (GPa) = -28.49170 24.02763 -2.23204
#
# Velocity S-wave (km/s) = -3.73329 3.42837 -1.04492
# Velocity P-wave (km/s) = 4.54625 5.09493 1.62634
#
# Compressibility (1/GPa) = -0.23460790
#
# Stress axis : x y z
#
# Youngs Moduli (GPa) = -41.04984 29.18294 -9.66856
#
# Poissons Ratio (x) = 0.04888 -0.65588
# Poissons Ratio (y) = -0.06876 -0.00997
# Poissons Ratio (z) = -2.78468 0.03010
#
# Static dielectric constant tensor:
#      x y z
#    x 1.792200 0.000000 -0.050050 
#    y 0.000000 1.684510 0.000000 
#    z -0.050050 0.000000 1.747570 
# 
# From -- ./inp_files/295496.got.cif
#   From: 2010.05.17/outbox.ucp.g08.bks.cvg/sg12_148_cif.got.tgz:295496.got - 2010.06.11 11:47:21.
