data_PCOD9223529
_publ_section_title
;
Structure prediction by ZEFSAII (Michael W. Deem and Ramdas Pophale) SiO2 
 PCOD9223529
Probable space group: C 2/M
;
_chemical_formula_sum "Si O2"
_cell_formula_units_Z 32
_cell_length_a 30.000000
_cell_length_b 9.000000
_cell_length_c 15.000000
_cell_angle_alpha 90.000000
_cell_angle_beta 130.000000
_cell_angle_gamma 90.000000
_cell_volume 3102.479995
_symmetry_space_group_name_H-M "C 2/M"
_symmetry_group_IT_number 12
_symmetry_cell_setting 'monoclinic'
loop_
_space_group_symop_operation_xyz
x,y,z
-x,y,-z
-x,-y,-z
x,-y,z
1/2+x,1/2+y,z
1/2-x,1/2+y,-z
1/2-x,1/2-y,-z
1/2+x,1/2-y,z
loop_
_atom_site_type_symbol
_atom_site_label
_atom_site_fract_x
_atom_site_fract_y
_atom_site_fract_z
Si Si1 0.783575 0.165693 0.295633
Si Si2 0.845178 0.677706 0.884689
Si Si3 0.516505 0.322085 0.250853
Si Si4 0.197768 0.164678 0.887305
Si Si5 0.411948 0.324774 0.828016
Si Si6 0.809834 0.331266 0.596331
Si Si7 0.384849 0.164875 0.514828
Si Si8 0.894251 0.323711 0.135951
O O1 0.718742 0.227076 0.232719
O O2 0.784572 0.150855 0.191629
O O3 0.839905 0.260749 0.390238
O O4 0.789819 0.000000 0.344197
O O5 0.846151 0.500000 0.876495
O O6 0.901782 0.743734 0.908254
O O7 0.852813 0.711450 0.998292
O O8 0.513987 0.500000 0.248210
O O9 0.539823 0.276499 0.181975
O O10 0.562094 0.265193 0.383546
O O11 0.455499 0.249712 0.194536
O O12 0.138187 0.253654 0.822169
O O13 0.190597 0.000000 0.916993
O O14 0.250000 0.250000 0.000000
O O15 0.417687 0.500000 0.849136
O O16 0.351441 0.278044 0.704269
O O17 0.803928 0.500000 0.625514
O O18 0.750000 0.250000 0.500000
O O19 0.844069 0.348494 0.548723
O O20 0.404505 0.000000 0.513043
O O21 0.899865 0.500000 0.150804
#
# Coordination Sequence:
#
# PCOD9223529 Si02
#       8
#     8   8   8   8   8   8   8   8
#     4  10  21  38  59  87 122 155 190 237 294 354
#     4  10  21  37  57  85 121 157 195 240 297 351
#     4  10  22  41  61  83 116 160 201 242 293 347
#     4  11  22  40  64  91 122 155 193 238 295 355
#     4  10  21  35  53  80 114 153 199 243 287 342
#     4  10  19  31  49  75 109 149 194 239 290 344
#     4  10  21  36  56  84 114 151 196 242 290 343
#     4  11  23  41  63  89 118 153 198 246 296 353
#
# _framework density 10.314329000000001
#
# number of rings (size 3 to 8) (size 9 to 14) (size 15 to 20)
#    0.000    1.750    1.250    3.000    0.000    8.000 
#    0.000    3.125    0.000    3.750    0.000    0.000 
#    0.000    0.000    0.000    0.000    0.000    0.000 
#
# Total GULP energy -178378.250090 kJ/mol
# GULP energy per Si atom -5574.320315 kJ/mol
# Density = 1.029085 g / cm^3
# Si number density = 10.314329 Si / 1000 Ang^3
#
#
#
# Elastic Constant Matrix: (Units=GPa)
#
#
# Indices 1 2 3 4 5 6 
#
# 1 116.6019 23.3346 23.8750 0.0000 23.6489 0.0000
# 2 23.3346 26.9057 7.4211 0.0000 4.6760 0.0000
# 3 23.8750 7.4211 40.1744 0.0000 3.2093 0.0000
# 4 0.0000 0.0000 0.0000 24.2141 0.0000 2.7209
# 5 23.6489 4.6760 3.2093 0.0000 27.1448 0.0000
# 6 0.0000 0.0000 0.0000 2.7209 0.0000 28.8825
#
#
#
# Elastic Compliance Matrix: (Units=1/GPa)
#
#
# Indices 1 2 3 4 5 6 
#
# 1 0.013327 -0.008356 -0.005617 0.000000 -0.009507 0.000000
# 2 -0.008356 0.045377 -0.003405 0.000000 -0.000134 0.000000
# 3 -0.005617 -0.003405 0.028692 0.000000 0.002088 0.000000
# 4 0.000000 0.000000 0.000000 0.041740 0.000000 -0.003932
# 5 -0.009507 -0.000134 0.002088 0.000000 0.044898 0.000000
# 6 0.000000 0.000000 0.000000 -0.003932 0.000000 0.034994
#
#
# Mechanical properties :
#
#
# Convention : Reuss Voigt Hill
#
# Bulk Modulus (GPa) = 18.99768 32.54926 25.77347
# Shear Modulus (GPa) = 19.13290 24.65169 21.89229
#
# Velocity S-wave (km/s) = 3.04878 3.46066 3.26123
# Velocity P-wave (km/s) = 4.65003 5.63748 5.16739
#
# Compressibility (1/GPa) = 0.05263801
#
# Stress axis : x y z
#
# Youngs Moduli (GPa) = 75.03709 22.03776 34.85326
#
# Poissons Ratio (x) = 0.18416 0.19576
# Poissons Ratio (y) = 0.62705 0.11869
# Poissons Ratio (z) = 0.42147 0.07504
#
# Static dielectric constant tensor:
#      x y z
#    x 1.766190 0.000000 0.199870 
#    y 0.000000 1.722000 0.000000 
#    z 0.199870 0.000000 3.475450 
# 
# From -- ./inp_files/249932.got.cif
#   From: 2010.05.17/outbox.ucp.g08.bks.cvg/sg12_125_cif.got.tgz:249932.got - 2010.06.11 11:47:21.
