data_PCOD9223969
_publ_section_title
;
Structure prediction by ZEFSAII (Michael W. Deem and Ramdas Pophale) SiO2 
 PCOD9223969
Probable space group: C 2/M
;
_chemical_formula_sum "Si O2"
_cell_formula_units_Z 32
_cell_length_a 18.000000
_cell_length_b 9.000000
_cell_length_c 30.000000
_cell_angle_alpha 90.000000
_cell_angle_beta 40.000000
_cell_angle_gamma 90.000000
_cell_volume 3123.947783
_symmetry_space_group_name_H-M "C 2/M"
_symmetry_group_IT_number 12
_symmetry_cell_setting 'monoclinic'
loop_
_space_group_symop_operation_xyz
x,y,z
-x,y,-z
-x,-y,-z
x,-y,z
1/2+x,1/2+y,z
1/2-x,1/2+y,-z
1/2-x,1/2-y,-z
1/2+x,1/2-y,z
loop_
_atom_site_type_symbol
_atom_site_label
_atom_site_fract_x
_atom_site_fract_y
_atom_site_fract_z
Si Si1 0.621616 0.167891 0.449262
Si Si2 0.624701 0.171464 0.306072
Si Si3 0.520492 0.321312 0.919586
Si Si4 0.357278 0.824861 0.220006
Si Si5 0.631500 0.323589 0.694633
Si Si6 0.631228 0.836599 0.549956
Si Si7 0.812930 0.821365 0.072211
Si Si8 0.590455 0.169835 0.220936
O O1 0.500000 0.250287 0.500000
O O2 0.741469 0.234065 0.376979
O O3 0.627200 0.148832 0.499026
O O4 0.611968 0.000000 0.433234
O O5 0.722765 0.277812 0.279530
O O6 0.494038 0.221787 0.376964
O O7 0.649561 0.164097 0.242043
O O8 0.636274 0.000000 0.317545
O O9 0.520818 0.500000 0.911075
O O10 0.572752 0.232306 0.854704
O O11 0.605487 0.294916 0.922469
O O12 0.391074 0.274203 0.994340
O O13 0.401749 0.732940 0.241506
O O14 0.369173 0.000000 0.220051
O O15 0.635271 0.500000 0.689187
O O16 0.525632 0.259349 0.715863
O O17 0.750000 0.750000 0.500000
O O18 0.641583 0.000000 0.566764
O O19 0.684099 0.765836 0.142993
O O20 0.801184 0.000000 0.074142
O O21 0.560577 0.000000 0.221971
#
# Coordination Sequence:
#
# PCOD9223969 Si02
#       8
#     8   8   8   8   8   8   8   8
#     4   9  18  35  57  78 102 138 187 233 271 320
#     4  10  20  36  60  84 111 149 188 226 277 341
#     4   9  16  33  59  85 111 145 187 224 271 331
#     4  12  24  37  55  83 114 145 185 239 285 323
#     4  11  23  38  57  79 110 152 190 228 280 341
#     4  10  20  34  55  83 112 143 179 225 279 333
#     4   8  15  30  58  87 112 145 183 223 268 328
#     4  10  19  35  57  85 117 147 182 225 274 328
#
# _framework density 10.243449
#
# number of rings (size 3 to 8) (size 9 to 14) (size 15 to 20)
#    0.000    2.125    1.250    3.750    0.000    3.000 
#    0.000    3.125    0.000    2.625    0.000    0.000 
#    0.000    0.000    0.000    0.000    0.000    0.000 
#
# Total GULP energy -178177.777550 kJ/mol
# GULP energy per Si atom -5568.055548 kJ/mol
# Density = 1.022013 g / cm^3
# Si number density = 10.243449 Si / 1000 Ang^3
#
#
#
# Elastic Constant Matrix: (Units=GPa)
#
#
# Indices 1 2 3 4 5 6 
#
# 1 47.5451 16.3941 20.8984 0.0001 1.2163 -0.0003
# 2 16.3941 18.7073 17.9093 0.0002 -16.5592 -0.0015
# 3 20.8984 17.9093 141.1429 0.0000 -3.7140 0.0000
# 4 0.0001 0.0002 0.0000 27.3416 0.0001 -17.6420
# 5 1.2163 -16.5592 -3.7140 0.0001 6.6369 -0.0001
# 6 -0.0003 -0.0015 0.0000 -17.6420 -0.0001 39.2850
#
#
#
# Elastic Compliance Matrix: (Units=1/GPa)
#
#
# Indices 1 2 3 4 5 6 
#
# 1 0.017209 0.013449 -0.003506 0.000000 0.028439 0.000001
# 2 0.013449 -0.032696 -0.000055 -0.000001 -0.084072 -0.000002
# 3 -0.003506 -0.000055 0.007738 0.000000 0.004836 0.000000
# 4 0.000000 -0.000001 0.000000 0.051496 -0.000002 0.023126
# 5 0.028439 -0.084072 0.004836 -0.000002 -0.061592 -0.000004
# 6 0.000001 -0.000002 0.000000 0.023126 -0.000004 0.035840
#
#
# Mechanical properties :
#
#
# Convention : Reuss Voigt Hill
#
# Bulk Modulus (GPa) = 83.14736 35.31099 59.22918
# Shear Modulus (GPa) = 2243.12390 24.79895 1133.96142
#
# Velocity S-wave (km/s) = 33.12527 3.48297 23.55222
# Velocity P-wave (km/s) = 38.77781 5.78343 27.72333
#
# Compressibility (1/GPa) = 0.01202684
#
# Stress axis : x y z
#
# Youngs Moduli (GPa) = 58.10897 -30.58488 129.22597
#
# Poissons Ratio (x) = 0.41133 0.45309
# Poissons Ratio (y) = -0.78149 0.00709
# Poissons Ratio (z) = 0.20374 -0.00168
#
# Static dielectric constant tensor:
#      x y z
#    x 1.847960 0.000000 0.020370 
#    y 0.000000 1.840880 0.000000 
#    z 0.020370 0.000000 1.735960 
# 
# From -- ./inp_files/378056.got.cif
#   From: 2010.05.17/outbox.ucp.g08.bks.cvg/sg12_190_cif.got.tgz:378056.got - 2010.06.11 11:47:21.
