data_PCOD9223143
_publ_section_title
;
Structure prediction by ZEFSAII (Michael W. Deem and Ramdas Pophale) SiO2 
 PCOD9223143
Probable space group: C 2/M
;
_chemical_formula_sum "Si O2"
_cell_formula_units_Z 40
_cell_length_a 23.758104
_cell_length_b 13.850922
_cell_length_c 7.497591
_cell_angle_alpha 90.000000
_cell_angle_beta 141.293436
_cell_angle_gamma 90.000000
_cell_volume 1542.847155
_symmetry_space_group_name_H-M "C 2/M"
_symmetry_group_IT_number 12
_symmetry_cell_setting 'monoclinic'
loop_
_space_group_symop_operation_xyz
x,y,z
-x,y,-z
-x,-y,-z
x,-y,z
1/2+x,1/2+y,z
1/2-x,1/2+y,-z
1/2-x,1/2-y,-z
1/2+x,1/2-y,z
loop_
_atom_site_type_symbol
_atom_site_label
_atom_site_fract_x
_atom_site_fract_y
_atom_site_fract_z
Si Si1 0.964218 0.191353 0.116809
Si Si2 0.499041 0.106942 0.213564
Si Si3 0.348293 0.383395 0.314524
Si Si4 0.215302 0.887197 0.459329
Si Si5 0.700133 0.882742 0.671668
O O1 0.943075 0.299652 0.130783
O O2 0.048387 0.149054 0.432377
O O3 0.000000 0.199284 0.000000
O O4 0.877432 0.124704 0.881588
O O5 0.602454 0.134794 0.512459
O O6 0.474620 0.000000 0.221628
O O7 0.500000 0.098903 0.000000
O O8 0.349268 0.500000 0.318040
O O9 0.304058 0.348889 0.391829
O O10 0.282815 0.350243 0.996474
O O11 0.289697 0.847555 0.507261
O O12 0.235813 0.000000 0.536530
O O13 0.704987 0.000000 0.674349
#
# Coordination Sequence:
#
# PCOD9223143 Si02
#       5
#     8   8   8   8   8
#     4   9  17  30  48  74 105 138 170 201 253 311
#     4   9  18  34  54  73  99 138 180 217 251 295
#     4   9  17  30  50  78 111 137 161 205 259 312
#     4   9  17  31  53  81 109 132 161 207 260 312
#     4   9  18  32  53  79 102 133 174 211 255 303
#
# _framework density 25.926095
#
# number of rings (size 3 to 8) (size 9 to 14) (size 15 to 20)
#    0.000    3.000    0.000    0.600    0.000    4.000 
#    0.000   12.000    0.000    8.400    0.000   15.400 
#    0.000    0.000    0.000    0.000    0.000    0.000 
#
# Total GULP energy -111846.852168 kJ/mol
# GULP energy per Si atom -5592.342608 kJ/mol
# Density = 2.586709 g / cm^3
# Si number density = 25.926095 Si / 1000 Ang^3
#
#
#
# Elastic Constant Matrix: (Units=GPa)
#
#
# Indices 1 2 3 4 5 6 
#
# 1 68.1231 24.2847 19.5964 0.0000 -16.5097 0.0000
# 2 24.2847 72.8143 -4.6433 0.0000 -5.5880 0.0000
# 3 19.5964 -4.6433 149.6274 0.0000 -10.0524 0.0000
# 4 0.0000 0.0000 0.0000 23.7856 0.0000 6.8560
# 5 -16.5097 -5.5880 -10.0524 0.0000 19.7314 0.0000
# 6 0.0000 0.0000 0.0000 6.8560 0.0000 11.7167
#
#
#
# Elastic Compliance Matrix: (Units=1/GPa)
#
#
# Indices 1 2 3 4 5 6 
#
# 1 0.020969 -0.005976 -0.001933 0.000000 0.014868 0.000000
# 2 -0.005976 0.015819 0.001282 0.000000 0.000133 0.000000
# 3 -0.001933 0.001282 0.007136 0.000000 0.002382 0.000000
# 4 0.000000 0.000000 0.000000 0.050572 0.000000 -0.029592
# 5 0.014868 0.000133 0.002382 0.000000 0.064372 0.000000
# 6 0.000000 0.000000 0.000000 -0.029592 0.000000 0.102664
#
#
# Mechanical properties :
#
#
# Convention : Reuss Voigt Hill
#
# Bulk Modulus (GPa) = 32.60349 41.00449 36.80399
# Shear Modulus (GPa) = 17.54337 27.80185 22.67261
#
# Velocity S-wave (km/s) = 2.60411 3.27823 2.96042
# Velocity P-wave (km/s) = 4.65238 5.49357 5.09038
#
# Compressibility (1/GPa) = 0.03067156
#
# Stress axis : x y z
#
# Youngs Moduli (GPa) = 47.68972 63.21689 140.13052
#
# Poissons Ratio (x) = 0.37776 0.27085
# Poissons Ratio (y) = 0.28498 -0.17971
# Poissons Ratio (z) = 0.09218 -0.08107
#
# Static dielectric constant tensor:
#      x y z
#    x 2.063270 0.000000 0.007000 
#    y 0.000000 2.063450 0.000000 
#    z 0.007000 0.000000 1.993950 
# 
# From -- ./inp_files/59199.got.cif
#   From: 2010.05.17/outbox.cif.g08.bks.cpg/sg12_30_cif.got.tgz:59199.got - 2010.06.03 13:09:07.
