data_PCOD9223344
_publ_section_title
;
Structure prediction by ZEFSAII (Michael W. Deem and Ramdas Pophale) SiO2 
 PCOD9223344
Probable space group: C 2/M
;
_chemical_formula_sum "Si O2"
_cell_formula_units_Z 32
_cell_length_a 12.000000
_cell_length_b 27.000000
_cell_length_c 21.000000
_cell_angle_alpha 90.000000
_cell_angle_beta 150.000000
_cell_angle_gamma 90.000000
_cell_volume 3402.000000
_symmetry_space_group_name_H-M "C 2/M"
_symmetry_group_IT_number 12
_symmetry_cell_setting 'monoclinic'
loop_
_space_group_symop_operation_xyz
x,y,z
-x,y,-z
-x,-y,-z
x,-y,z
1/2+x,1/2+y,z
1/2-x,1/2+y,-z
1/2-x,1/2-y,-z
1/2+x,1/2-y,z
loop_
_atom_site_type_symbol
_atom_site_label
_atom_site_fract_x
_atom_site_fract_y
_atom_site_fract_z
Si Si1 0.057954 0.607697 0.403062
Si Si2 0.977127 0.896989 0.691983
Si Si3 0.785143 0.677324 0.355715
Si Si4 0.221353 0.207105 0.538248
Si Si5 0.802280 0.719440 0.722081
Si Si6 0.676581 0.443899 0.913899
Si Si7 0.338607 0.557212 0.864642
Si Si8 0.456039 0.143165 0.903310
O O1 0.270442 0.583928 0.546032
O O2 0.170191 0.656027 0.428979
O O3 0.884902 0.630096 0.368711
O O4 0.900930 0.580064 0.274132
O O5 0.888898 0.845691 0.681000
O O6 0.048276 0.933356 0.784265
O O7 0.212861 0.882701 0.777200
O O8 0.697644 0.720854 0.266669
O O9 0.000000 0.698934 0.500000
O O10 0.250000 0.250000 0.500000
O O11 0.344815 0.218409 0.666559
O O12 0.953922 0.200638 0.405609
O O13 0.942838 0.686999 0.842821
O O14 0.772987 0.500000 0.960841
O O15 0.494712 0.441716 0.879668
O O16 0.857458 0.399940 0.013665
O O17 0.295124 0.500000 0.861366
O O18 0.500000 0.579229 0.000000
O O19 0.500000 0.159598 0.000000
#
# Coordination Sequence:
#
# PCOD9223344 Si02
#       8
#     8   8   8   8   8   8   8   8
#     4  11  20  35  63  91 120 150 195 253 298 354
#     4  10  20  36  61  91 121 150 197 256 304 347
#     4  10  18  32  57  89 122 155 191 237 301 352
#     4  11  20  35  60  92 120 159 203 247 297 360
#     4  11  21  35  58  88 123 164 207 238 294 363
#     4  10  22  42  64  84 113 160 209 250 308 373
#     4  10  23  42  62  85 119 158 196 246 311 372
#     4  10  23  40  58  85 126 164 204 250 303 359
#
# _framework density 9.4062319999999993
#
# number of rings (size 3 to 8) (size 9 to 14) (size 15 to 20)
#    0.000    1.625    5.000    0.750    1.750    2.750 
#    0.000    4.375    0.000    0.000    0.000    4.375 
#    0.000    0.000    0.000    0.000    0.000    0.000 
#
# Total GULP energy -178167.168794 kJ/mol
# GULP energy per Si atom -5567.724025 kJ/mol
# Density = 0.938482 g / cm^3
# Si number density = 9.406232 Si / 1000 Ang^3
#
#
#
# Elastic Constant Matrix: (Units=GPa)
#
#
# Indices 1 2 3 4 5 6 
#
# 1 37.5597 9.6565 16.1458 0.0114 -8.9096 0.0014
# 2 9.6565 74.5565 46.9413 0.0087 -5.7924 0.0010
# 3 16.1458 46.9413 139.3098 0.0696 -15.4675 0.0121
# 4 0.0114 0.0087 0.0696 38.6807 0.0247 -2.2471
# 5 -8.9096 -5.7924 -15.4675 0.0247 38.4149 -0.0001
# 6 0.0014 0.0010 0.0121 -2.2471 -0.0001 24.9691
#
#
#
# Elastic Compliance Matrix: (Units=1/GPa)
#
#
# Indices 1 2 3 4 5 6 
#
# 1 0.029393 -0.002054 -0.002085 -0.000008 0.005668 -0.000001
# 2 -0.002054 0.017171 -0.005562 0.000007 -0.000127 0.000003
# 3 -0.002085 -0.005562 0.009575 -0.000017 0.002533 -0.000006
# 4 -0.000008 0.000007 -0.000017 0.025989 -0.000025 0.002339
# 5 0.005668 -0.000127 0.002533 -0.000025 0.028347 -0.000004
# 6 -0.000001 0.000003 -0.000006 0.002339 -0.000004 0.040260
#
#
# Mechanical properties :
#
#
# Convention : Reuss Voigt Hill
#
# Bulk Modulus (GPa) = 27.22020 44.10146 35.66083
# Shear Modulus (GPa) = 27.41499 32.32509 29.87004
#
# Velocity S-wave (km/s) = 3.82157 4.14971 3.98902
# Velocity P-wave (km/s) = 5.82865 6.81570 6.34141
#
# Compressibility (1/GPa) = 0.03673742
#
# Stress axis : x y z
#
# Youngs Moduli (GPa) = 34.02147 58.23935 104.43575
#
# Poissons Ratio (x) = 0.11961 0.21778
# Poissons Ratio (y) = 0.06987 0.58085
# Poissons Ratio (z) = 0.07095 0.32391
#
# Static dielectric constant tensor:
#      x y z
#    x 1.765080 0.000000 -0.013740 
#    y 0.000000 1.692530 -0.000010 
#    z -0.013740 -0.000010 1.660860 
# 
# From -- ./inp_files/307505.got.cif
#   From: 2010.05.17/outbox.ucp.g08.bks.cvg/sg12_154_cif.got.tgz:307505.got - 2010.06.11 11:47:21.
