data_PCOD9223444
_publ_section_title
;
Structure prediction by ZEFSAII (Michael W. Deem and Ramdas Pophale) SiO2 
 PCOD9223444
Probable space group: C 2/M
;
_chemical_formula_sum "Si O2"
_cell_formula_units_Z 24
_cell_length_a 24.000000
_cell_length_b 9.000000
_cell_length_c 15.000000
_cell_angle_alpha 90.000000
_cell_angle_beta 110.000000
_cell_angle_gamma 90.000000
_cell_volume 3044.604091
_symmetry_space_group_name_H-M "C 2/M"
_symmetry_group_IT_number 12
_symmetry_cell_setting 'monoclinic'
loop_
_space_group_symop_operation_xyz
x,y,z
-x,y,-z
-x,-y,-z
x,-y,z
1/2+x,1/2+y,z
1/2-x,1/2+y,-z
1/2-x,1/2-y,-z
1/2+x,1/2-y,z
loop_
_atom_site_type_symbol
_atom_site_label
_atom_site_fract_x
_atom_site_fract_y
_atom_site_fract_z
Si Si1 0.463334 0.677349 0.567985
Si Si2 0.283098 0.675571 0.650314
Si Si3 0.161977 0.675166 0.495391
Si Si4 0.559494 0.173711 0.971835
Si Si5 0.869970 0.679660 0.824964
Si Si6 0.013434 0.320332 0.230490
O O1 0.500000 0.717289 0.500000
O O2 0.463598 0.500000 0.578502
O O3 0.397219 0.736799 0.517338
O O4 0.486825 0.750139 0.672288
O O5 0.296328 0.500000 0.650987
O O6 0.212864 0.694156 0.597546
O O7 0.312300 0.761626 0.583097
O O8 0.311860 0.743784 0.754171
O O9 0.149784 0.500000 0.478056
O O10 0.538886 0.234061 0.864860
O O11 0.573614 0.000000 0.965293
O O12 0.500000 0.177399 0.000000
O O13 0.609950 0.233452 0.065641
O O14 0.864091 0.500000 0.823317
O O15 0.924288 0.713024 0.786088
O O16 0.010144 0.500000 0.234910
#
# Coordination Sequence:
#
# PCOD9223444 Si02
#       6
#     8   8   8   8   8   8
#     4  11  23  35  47  66  93 123 155 195 238 271
#     4  10  19  29  45  69  97 122 148 188 232 272
#     4  10  20  33  47  65  89 123 160 189 225 273
#     4   7  12  23  40  64  92 119 149 183 218 266
#     4   9  15  25  44  69  95 124 152 178 221 277
#     4   9  16  28  46  66  90 122 157 189 221 266
#
# _framework density 7.8827980000000002
#
# number of rings (size 3 to 8) (size 9 to 14) (size 15 to 20)
#    0.000    2.667    1.667    3.500    0.000    3.333 
#    0.000    0.833    0.000    3.000    0.000    1.167 
#    0.000    0.000    0.000    0.000    0.000    0.000 
#
# Total GULP energy -133618.985499 kJ/mol
# GULP energy per Si atom -5567.457729 kJ/mol
# Density = 0.786486 g / cm^3
# Si number density = 7.882798 Si / 1000 Ang^3
#
#
#
# Elastic Constant Matrix: (Units=GPa)
#
#
# Indices 1 2 3 4 5 6 
#
# 1 31.8605 3.2283 37.4667 0.0000 -4.0519 0.0000
# 2 3.2283 9.8196 33.0675 0.0000 -4.7645 0.0000
# 3 37.4667 33.0675 141.7600 0.0000 17.3544 0.0000
# 4 0.0000 0.0000 0.0000 22.9617 0.0000 1.7450
# 5 -4.0519 -4.7645 17.3544 0.0000 20.4469 0.0000
# 6 0.0000 0.0000 0.0000 1.7450 0.0000 17.0965
#
#
#
# Elastic Compliance Matrix: (Units=1/GPa)
#
#
# Indices 1 2 3 4 5 6 
#
# 1 0.016208 -0.073464 0.016243 0.000000 -0.027693 0.000000
# 2 -0.073464 -0.135928 0.063367 0.000000 -0.100015 0.000000
# 3 0.016243 0.063367 -0.015871 0.000000 0.031455 0.000000
# 4 0.000000 0.000000 0.000000 0.043891 0.000000 -0.004480
# 5 -0.027693 -0.100015 0.031455 0.000000 -0.006584 0.000000
# 6 0.000000 0.000000 0.000000 -0.004480 0.000000 0.058949
#
#
# Mechanical properties :
#
#
# Convention : Reuss Voigt Hill
#
# Bulk Modulus (GPa) = -8.11038 36.77388 14.33175
# Shear Modulus (GPa) = -53.92118 19.41286 -17.25416
#
# Velocity S-wave (km/s) = -5.85458 3.51286 -3.31179
# Velocity P-wave (km/s) = 7.13140 6.31107 2.34812
#
# Compressibility (1/GPa) = -0.12329874
#
# Stress axis : x y z
#
# Youngs Moduli (GPa) = 61.69972 -7.35682 -63.00833
#
# Poissons Ratio (x) = -0.54046 1.02345
# Poissons Ratio (y) = 4.53271 3.99268
# Poissons Ratio (z) = -1.00220 0.46618
#
# Static dielectric constant tensor:
#      x y z
#    x 1.511920 0.000000 0.032610 
#    y 0.000000 1.523870 0.000000 
#    z 0.032610 0.000000 1.565200 
# 
# From -- ./inp_files/236606.got.cif
#   From: 2010.05.17/outbox.ucp.g08.bks.cvg/sg12_119_cif.got.tgz:236606.got - 2010.06.11 11:47:21.
