data_PCOD9223119
_publ_section_title
;
Structure prediction by ZEFSAII (Michael W. Deem and Ramdas Pophale) SiO2 
 PCOD9223119
Probable space group: C 2/M
;
_chemical_formula_sum "Si O2"
_cell_formula_units_Z 56
_cell_length_a 34.635945
_cell_length_b 14.121970
_cell_length_c 7.583282
_cell_angle_alpha 90.000000
_cell_angle_beta 77.353113
_cell_angle_gamma 90.000000
_cell_volume 3619.201108
_symmetry_space_group_name_H-M "C 2/M"
_symmetry_group_IT_number 12
_symmetry_cell_setting 'monoclinic'
loop_
_space_group_symop_operation_xyz
x,y,z
-x,y,-z
-x,-y,-z
x,-y,z
1/2+x,1/2+y,z
1/2-x,1/2+y,-z
1/2-x,1/2-y,-z
1/2+x,1/2-y,z
loop_
_atom_site_type_symbol
_atom_site_label
_atom_site_fract_x
_atom_site_fract_y
_atom_site_fract_z
Si Si1 0.190530 0.201925 0.596328
Si Si2 0.954976 0.114908 0.545024
Si Si3 0.227839 0.604551 0.562627
Si Si4 0.107562 0.113440 0.684653
Si Si5 0.227839 0.395449 0.981694
Si Si6 0.309470 0.298075 0.977388
Si Si7 0.392438 0.386560 0.899778
O O1 0.202509 0.306628 0.518355
O O2 0.226284 0.132622 0.508410
O O3 0.147760 0.164712 0.584107
O O4 0.190287 0.203759 0.809714
O O5 0.929445 0.141738 0.398904
O O6 0.929446 0.141738 0.742206
O O7 0.000000 0.150086 0.500000
O O8 0.956787 0.000000 0.543213
O O9 0.219901 0.500000 0.497354
O O10 0.220575 0.601042 0.779425
O O11 0.113344 0.000000 0.660515
O O12 0.101005 0.132628 0.898995
O O13 0.219901 0.500000 0.062842
O O14 0.202509 0.306628 0.076627
O O15 0.273716 0.367378 0.960976
O O16 0.352240 0.335288 0.879627
O O17 0.386655 0.500000 0.887204
#
# Coordination Sequence:
#
# PCOD9223119 Si02
#       7
#     8   8   8   8   8   8   8
#     4   9  17  28  40  57  82 111 143 176 210 249
#     4   9  18  30  44  64  87 111 139 173 216 262
#     4   9  17  27  40  58  81 111 144 178 211 244
#     4   9  17  28  43  62  84 112 143 174 208 253
#     4   9  17  27  40  58  81 111 144 178 211 244
#     4   9  17  28  40  57  82 111 143 176 210 249
#     4   9  17  28  43  62  84 112 143 174 208 253
#
# _framework density 15.473027999999999
#
# number of rings (size 3 to 8) (size 9 to 14) (size 15 to 20)
#    0.000    3.000    0.000    0.857    2.000    2.286 
#    0.000    2.857    0.000    0.000    0.000    0.000 
#    0.000    2.286    0.000   11.143    0.000    0.286 
#
# Total GULP energy -155989.550938 kJ/mol
# GULP energy per Si atom -5571.055391 kJ/mol
# Density = 1.543781 g / cm^3
# Si number density = 15.473028 Si / 1000 Ang^3
#
#
#
# Elastic Constant Matrix: (Units=GPa)
#
#
# Indices 1 2 3 4 5 6 
#
# 1 119.7380 34.2684 43.6119 0.0000 -13.6510 0.0000
# 2 34.2684 68.0509 22.5559 0.0000 -4.8431 0.0000
# 3 43.6119 22.5559 62.0074 0.0000 -10.2201 0.0000
# 4 0.0000 0.0000 0.0000 9.7829 0.0000 -2.7839
# 5 -13.6510 -4.8431 -10.2201 0.0000 22.9748 0.0000
# 6 0.0000 0.0000 0.0000 -2.7839 0.0000 16.5156
#
#
#
# Elastic Compliance Matrix: (Units=1/GPa)
#
#
# Indices 1 2 3 4 5 6 
#
# 1 0.012248 -0.003700 -0.006688 0.000000 0.003522 0.000000
# 2 -0.003700 0.017844 -0.003918 0.000000 -0.000180 0.000000
# 3 -0.006688 -0.003918 0.023163 0.000000 0.005504 0.000000
# 4 0.000000 0.000000 0.000000 0.107370 0.000000 0.018098
# 5 0.003522 -0.000180 0.005504 0.000000 0.048029 0.000000
# 6 0.000000 0.000000 0.000000 0.018098 0.000000 0.063599
#
#
# Mechanical properties :
#
#
# Convention : Reuss Voigt Hill
#
# Bulk Modulus (GPa) = 40.57951 50.07429 45.32690
# Shear Modulus (GPa) = 16.17699 19.81200 17.99450
#
# Velocity S-wave (km/s) = 3.23692 3.58218 3.41392
# Velocity P-wave (km/s) = 6.34453 7.03860 6.70056
#
# Compressibility (1/GPa) = 0.02464298
#
# Stress axis : x y z
#
# Youngs Moduli (GPa) = 81.64554 56.04086 43.17155
#
# Poissons Ratio (x) = 0.20737 0.28873
# Poissons Ratio (y) = 0.30212 0.16915
# Poissons Ratio (z) = 0.54604 0.21957
#
# Static dielectric constant tensor:
#      x y z
#    x 1.497270 0.000000 0.018750 
#    y 0.000000 1.529090 0.000000 
#    z 0.018750 0.000000 1.542620 
# 
# From -- ./inp_files/104002.got.cif
#   From: 2010.05.17/outbox.cif.g08.bks.cpg/sg12_53_cif.got.tgz:104002.got - 2010.06.03 13:09:07.
