data_PCOD9223267
_publ_section_title
;
Structure prediction by ZEFSAII (Michael W. Deem and Ramdas Pophale) SiO2 
 PCOD9223267
Probable space group: C 2/M
;
_chemical_formula_sum "Si O2"
_cell_formula_units_Z 32
_cell_length_a 30.000000
_cell_length_b 9.000000
_cell_length_c 30.000000
_cell_angle_alpha 90.000000
_cell_angle_beta 150.000000
_cell_angle_gamma 90.000000
_cell_volume 4050.000000
_symmetry_space_group_name_H-M "C 2/M"
_symmetry_group_IT_number 12
_symmetry_cell_setting 'monoclinic'
loop_
_space_group_symop_operation_xyz
x,y,z
-x,y,-z
-x,-y,-z
x,-y,z
1/2+x,1/2+y,z
1/2-x,1/2+y,-z
1/2-x,1/2-y,-z
1/2+x,1/2-y,z
loop_
_atom_site_type_symbol
_atom_site_label
_atom_site_fract_x
_atom_site_fract_y
_atom_site_fract_z
Si Si1 0.092294 0.177584 0.895871
Si Si2 0.402265 0.671701 0.778943
Si Si3 0.289775 0.326445 0.593992
Si Si4 0.886016 0.178217 0.940561
Si Si5 0.425088 0.322197 0.222808
Si Si6 0.918619 0.675780 0.880550
Si Si7 0.107326 0.675967 0.396880
Si Si8 0.773494 0.321833 0.921070
O O1 0.079459 0.221141 0.833367
O O2 0.999648 0.201443 0.841952
O O3 0.111328 0.000000 0.914064
O O4 0.170613 0.267091 0.987655
O O5 0.403892 0.500000 0.796565
O O6 0.330485 0.684491 0.677860
O O7 0.381337 0.783577 0.800234
O O8 0.298119 0.500000 0.587013
O O9 0.185986 0.285645 0.499856
O O10 0.349220 0.230474 0.611929
O O11 0.865807 0.241504 0.874044
O O12 0.817204 0.237802 0.917278
O O13 0.892715 0.000000 0.947070
O O14 0.982404 0.251572 0.034252
O O15 0.435075 0.500000 0.232367
O O16 0.512009 0.251359 0.320007
O O17 0.330394 0.284807 0.162692
O O18 0.923772 0.500000 0.892917
O O19 0.095290 0.500000 0.386053
O O20 0.782747 0.500000 0.924328
#
# Coordination Sequence:
#
# PCOD9223267 Si02
#       8
#     8   8   8   8   8   8   8   8
#     4  10  19  32  49  68  97 137 172 201 237 286
#     4  10  18  31  51  72  99 134 166 195 242 299
#     4   9  18  33  50  69  99 132 162 201 249 296
#     4  11  21  35  52  70  96 130 165 199 246 296
#     4  10  21  36  50  67  98 138 170 203 248 291
#     4  11  21  33  51  74 100 124 160 206 246 289
#     4  10  19  30  49  74  96 126 168 210 245 284
#     4  11  22  34  50  71  97 131 171 210 246 282
#
# _framework density 7.9012349999999998
#
# number of rings (size 3 to 8) (size 9 to 14) (size 15 to 20)
#    0.000    1.750    2.500    4.125    0.000    2.500 
#    0.000    0.000    0.000    0.000    0.000    0.875 
#    0.000    7.000    0.000    0.000    0.000    0.000 
#
# Total GULP energy -178542.754659 kJ/mol
# GULP energy per Si atom -5579.461083 kJ/mol
# Density = 0.788325 g / cm^3
# Si number density = 7.901235 Si / 1000 Ang^3
#
#
#
# Elastic Constant Matrix: (Units=GPa)
#
#
# Indices 1 2 3 4 5 6 
#
# 1 42.5208 24.2179 25.2885 0.0000 9.3177 0.0000
# 2 24.2179 63.5639 37.9985 0.0000 7.1252 0.0000
# 3 25.2885 37.9985 92.1760 0.0000 18.7715 0.0000
# 4 0.0000 0.0000 0.0000 24.2903 0.0000 1.2643
# 5 9.3177 7.1252 18.7715 0.0000 14.5349 0.0000
# 6 0.0000 0.0000 0.0000 1.2643 0.0000 19.4238
#
#
#
# Elastic Compliance Matrix: (Units=1/GPa)
#
#
# Indices 1 2 3 4 5 6 
#
# 1 0.033503 -0.009822 -0.002374 0.000000 -0.013597 0.000000
# 2 -0.009822 0.023772 -0.008160 0.000000 0.005182 0.000000
# 3 -0.002374 -0.008160 0.018643 0.000000 -0.018555 0.000000
# 4 0.000000 0.000000 0.000000 0.041309 0.000000 -0.002689
# 5 -0.013597 0.005182 -0.018555 0.000000 0.098939 0.000000
# 6 0.000000 0.000000 0.000000 -0.002689 0.000000 0.051658
#
#
# Mechanical properties :
#
#
# Convention : Reuss Voigt Hill
#
# Bulk Modulus (GPa) = 28.40408 41.47449 34.93929
# Shear Modulus (GPa) = 15.61182 19.03351 17.32267
#
# Velocity S-wave (km/s) = 3.14655 3.47430 3.31448
# Velocity P-wave (km/s) = 5.58700 6.51129 6.06677
#
# Compressibility (1/GPa) = 0.03520620
#
# Stress axis : x y z
#
# Youngs Moduli (GPa) = 29.84794 42.06701 53.64052
#
# Poissons Ratio (x) = 0.41316 0.12733
# Poissons Ratio (y) = 0.29315 0.43772
# Poissons Ratio (z) = 0.07085 0.34328
#
# Static dielectric constant tensor:
#      x y z
#    x 1.527690 0.000000 -0.025580 
#    y 0.000000 1.534720 0.000000 
#    z -0.025580 0.000000 1.540810 
# 
# From -- ./inp_files/384581.got.cif
#   From: 2010.05.17/outbox.ucp.g08.bks.cvg/sg12_193_cif.got.tgz:384581.got - 2010.06.11 11:47:21.
