data_PCOD9223967
_publ_section_title
;
Structure prediction by ZEFSAII (Michael W. Deem and Ramdas Pophale) SiO2 
 PCOD9223967
Probable space group: C 2/M
;
_chemical_formula_sum "Si O2"
_cell_formula_units_Z 32
_cell_length_a 24.000000
_cell_length_b 9.000000
_cell_length_c 30.000000
_cell_angle_alpha 90.000000
_cell_angle_beta 30.000000
_cell_angle_gamma 90.000000
_cell_volume 3240.000000
_symmetry_space_group_name_H-M "C 2/M"
_symmetry_group_IT_number 12
_symmetry_cell_setting 'monoclinic'
loop_
_space_group_symop_operation_xyz
x,y,z
-x,y,-z
-x,-y,-z
x,-y,z
1/2+x,1/2+y,z
1/2-x,1/2+y,-z
1/2-x,1/2-y,-z
1/2+x,1/2-y,z
loop_
_atom_site_type_symbol
_atom_site_label
_atom_site_fract_x
_atom_site_fract_y
_atom_site_fract_z
Si Si1 0.849025 0.174477 0.820847
Si Si2 0.302455 0.173734 0.507118
Si Si3 0.633517 0.174698 0.026160
Si Si4 0.058351 0.324330 0.914513
Si Si5 0.719501 0.822649 0.655816
Si Si6 0.282053 0.320686 0.711203
Si Si7 0.432368 0.827584 0.674708
Si Si8 0.984723 0.173384 0.814533
O O1 0.874180 0.264017 0.759186
O O2 0.946112 0.188100 0.790236
O O3 0.835742 0.000000 0.818422
O O4 0.738401 0.221792 0.923810
O O5 0.250000 0.250000 0.500000
O O6 0.265194 0.247128 0.579450
O O7 0.435489 0.186347 0.411316
O O8 0.270939 0.000000 0.529606
O O9 0.527630 0.186365 0.066743
O O10 0.610755 0.271492 0.085543
O O11 0.648506 0.000000 0.027651
O O12 0.077750 0.500000 0.910421
O O13 0.175912 0.265505 0.814292
O O14 0.000000 0.262748 0.000000
O O15 0.774348 0.774817 0.664824
O O16 0.590848 0.775703 0.749202
O O17 0.729628 0.000000 0.644746
O O18 0.278376 0.500000 0.714015
O O19 0.390121 0.262554 0.661367
O O20 0.404356 0.000000 0.688366
O O21 0.009393 0.000000 0.805800
#
# Coordination Sequence:
#
# PCOD9223967 Si02
#       8
#     8   8   8   8   8   8   8   8
#     4  10  22  38  59  86 119 164 209 251 304 366
#     4  11  25  45  68  96 126 160 202 250 309 371
#     4  10  19  35  57  83 118 161 209 255 301 359
#     4   9  16  30  55  83 113 156 208 254 293 344
#     4  11  23  41  66  93 122 163 209 255 308 364
#     4  10  21  39  62  89 121 161 209 252 298 365
#     4  11  25  42  62  90 124 158 195 250 314 366
#     4  11  22  36  57  89 126 162 203 254 310 368
#
# _framework density 9.8765429999999999
#
# number of rings (size 3 to 8) (size 9 to 14) (size 15 to 20)
#    0.000    1.625    1.250    3.375    0.000    9.000 
#    0.000    2.500    0.000    1.500    0.000    0.000 
#    0.000    0.000    0.000    0.000    0.000    0.000 
#
# Total GULP energy -178791.316655 kJ/mol
# GULP energy per Si atom -5587.228645 kJ/mol
# Density = 0.985406 g / cm^3
# Si number density = 9.876543 Si / 1000 Ang^3
#
#
#
# Elastic Constant Matrix: (Units=GPa)
#
#
# Indices 1 2 3 4 5 6 
#
# 1 100.8911 48.3833 45.3493 0.0002 23.8731 0.0000
# 2 48.3833 50.8187 36.5293 0.0017 13.6985 0.0001
# 3 45.3493 36.5293 60.0604 -0.0018 25.7991 0.0018
# 4 0.0002 0.0017 -0.0018 32.8411 0.0000 3.8556
# 5 23.8731 13.6985 25.7991 0.0000 31.6448 0.0004
# 6 0.0000 0.0001 0.0018 3.8556 0.0004 25.8025
#
#
#
# Elastic Compliance Matrix: (Units=1/GPa)
#
#
# Indices 1 2 3 4 5 6 
#
# 1 0.020060 -0.014989 -0.003565 0.000000 -0.005738 0.000000
# 2 -0.014989 0.046402 -0.020211 -0.000004 0.007699 0.000002
# 3 -0.003565 -0.020211 0.041122 0.000004 -0.022087 -0.000003
# 4 0.000000 -0.000004 0.000004 0.030993 -0.000002 -0.004631
# 5 -0.005738 0.007699 -0.022087 -0.000002 0.050604 0.000001
# 6 0.000000 0.000002 -0.000003 -0.004631 0.000001 0.039448
#
#
# Mechanical properties :
#
#
# Convention : Reuss Voigt Hill
#
# Bulk Modulus (GPa) = 33.27521 52.47708 42.87615
# Shear Modulus (GPa) = 15.81389 23.49158 19.65273
#
# Velocity S-wave (km/s) = 2.83252 3.45231 3.15766
# Velocity P-wave (km/s) = 5.25164 6.52039 5.92010
#
# Compressibility (1/GPa) = 0.03005240
#
# Stress axis : x y z
#
# Youngs Moduli (GPa) = 49.84962 21.55099 24.31799
#
# Poissons Ratio (x) = 0.32304 0.08670
# Poissons Ratio (y) = 0.74722 0.49149
# Poissons Ratio (z) = 0.17772 0.43557
#
# Static dielectric constant tensor:
#      x y z
#    x 1.689100 0.000000 -0.018880 
#    y 0.000000 1.670270 0.000000 
#    z -0.018880 0.000000 1.703330 
# 
# From -- ./inp_files/382362.got.cif
#   From: 2010.05.17/outbox.ucp.g08.bks.cvg/sg12_192_cif.got.tgz:382362.got - 2010.06.11 11:47:21.
