data_PCOD9223619
_publ_section_title
;
Structure prediction by ZEFSAII (Michael W. Deem and Ramdas Pophale) SiO2 
 PCOD9223619
Probable space group: C 2/M
;
_chemical_formula_sum "Si O2"
_cell_formula_units_Z 28
_cell_length_a 24.000000
_cell_length_b 15.000000
_cell_length_c 9.000000
_cell_angle_alpha 90.000000
_cell_angle_beta 120.000000
_cell_angle_gamma 90.000000
_cell_volume 2805.922308
_symmetry_space_group_name_H-M "C 2/M"
_symmetry_group_IT_number 12
_symmetry_cell_setting 'monoclinic'
loop_
_space_group_symop_operation_xyz
x,y,z
-x,y,-z
-x,-y,-z
x,-y,z
1/2+x,1/2+y,z
1/2-x,1/2+y,-z
1/2-x,1/2-y,-z
1/2+x,1/2-y,z
loop_
_atom_site_type_symbol
_atom_site_label
_atom_site_fract_x
_atom_site_fract_y
_atom_site_fract_z
Si Si1 0.862367 0.894816 0.260503
Si Si2 0.291343 0.276976 0.699997
Si Si3 0.210088 0.392470 0.080916
Si Si4 0.481326 0.291533 0.298842
Si Si5 0.397543 0.607983 0.657094
Si Si6 0.463483 0.897951 0.607721
Si Si7 0.179648 0.606227 0.706009
O O1 0.785867 0.881996 0.138878
O O2 0.908544 0.832441 0.218633
O O3 0.872301 0.879450 0.452055
O O4 0.878170 0.000000 0.253684
O O5 0.250000 0.250000 0.500000
O O6 0.305425 0.185683 0.817031
O O7 0.352626 0.334554 0.713562
O O8 0.240823 0.338423 0.726428
O O9 0.201964 0.500000 0.113909
O O10 0.172575 0.378114 0.874642
O O11 0.500000 0.295581 0.500000
O O12 0.529279 0.353935 0.264717
O O13 0.499542 0.189076 0.274465
O O14 0.395846 0.500000 0.685458
O O15 0.500000 0.907183 0.500000
O O16 0.388231 0.874329 0.470041
O O17 0.465356 0.000000 0.677540
O O18 0.191588 0.500000 0.703479
#
# Coordination Sequence:
#
# PCOD9223619 Si02
#       7
#     8   8   8   8   8   8   8
#     4   9  17  32  56  86 114 148 190 241 294 346
#     4  12  22  34  56  85 122 156 196 235 302 355
#     4  10  22  39  58  86 123 157 198 244 294 356
#     4   9  17  30  53  82 113 144 194 241 290 335
#     4  10  19  32  51  81 116 149 193 243 288 342
#     4   9  18  32  52  80 112 144 190 248 291 329
#     4  10  22  39  58  85 118 157 199 247 300 350
#
# _framework density 9.9788940000000004
#
# number of rings (size 3 to 8) (size 9 to 14) (size 15 to 20)
#    0.000    2.143    1.429    2.143    4.000    2.286 
#    0.000    0.714    0.000    1.714    3.714    4.000 
#    0.000   46.571    0.000    0.000    0.000    0.000 
#
# Total GULP energy -156122.341950 kJ/mol
# GULP energy per Si atom -5575.797927 kJ/mol
# Density = 0.995618 g / cm^3
# Si number density = 9.978894 Si / 1000 Ang^3
#
#
#
# Elastic Constant Matrix: (Units=GPa)
#
#
# Indices 1 2 3 4 5 6 
#
# 1 123.9262 65.0916 1.1014 0.0000 -6.7490 0.0000
# 2 65.0916 171.8639 23.0438 0.0000 -12.1089 0.0000
# 3 1.1014 23.0438 28.6548 0.0000 -11.0710 0.0000
# 4 0.0000 0.0000 0.0000 23.7851 0.0000 -3.2641
# 5 -6.7490 -12.1089 -11.0710 0.0000 25.6417 0.0000
# 6 0.0000 0.0000 0.0000 -3.2641 0.0000 48.5042
#
#
#
# Elastic Compliance Matrix: (Units=1/GPa)
#
#
# Indices 1 2 3 4 5 6 
#
# 1 0.010435 -0.004318 0.004015 0.000000 0.002441 0.000000
# 2 -0.004318 0.008329 -0.006543 0.000000 -0.000028 0.000000
# 3 0.004015 -0.006543 0.047073 0.000000 0.018291 0.000000
# 4 0.000000 0.000000 0.000000 0.042435 0.000000 0.002856
# 5 0.002441 -0.000028 0.018291 0.000000 0.047525 0.000000
# 6 0.000000 0.000000 0.000000 0.002856 0.000000 0.020809
#
#
# Mechanical properties :
#
#
# Convention : Reuss Voigt Hill
#
# Bulk Modulus (GPa) = 19.17817 55.87984 37.52900
# Shear Modulus (GPa) = 24.07536 35.26674 29.67105
#
# Velocity S-wave (km/s) = 3.47697 4.20821 3.85995
# Velocity P-wave (km/s) = 5.07438 7.18831 6.22178
#
# Compressibility (1/GPa) = 0.05214262
#
# Stress axis : x y z
#
# Youngs Moduli (GPa) = 95.83343 120.05582 21.24374
#
# Poissons Ratio (x) = 0.51845 -0.08529
# Poissons Ratio (y) = 0.41385 0.13901
# Poissons Ratio (z) = -0.38474 0.78557
#
# Static dielectric constant tensor:
#      x y z
#    x 1.703540 0.000000 0.035020 
#    y 0.000000 1.775530 0.000000 
#    z 0.035020 0.000000 1.739400 
# 
# From -- ./inp_files/96999.got.cif
#   From: 2010.05.17/outbox.ucp.g08.bks.cvg/sg12_49_cif.got.tgz:96999.got - 2010.06.11 11:47:21.
