data_PCOD9223460
_publ_section_title
;
Structure prediction by ZEFSAII (Michael W. Deem and Ramdas Pophale) SiO2 
 PCOD9223460
Probable space group: C 2/M
;
_chemical_formula_sum "Si O2"
_cell_formula_units_Z 32
_cell_length_a 30.000000
_cell_length_b 9.000000
_cell_length_c 30.000000
_cell_angle_alpha 90.000000
_cell_angle_beta 30.000000
_cell_angle_gamma 90.000000
_cell_volume 4050.000000
_symmetry_space_group_name_H-M "C 2/M"
_symmetry_group_IT_number 12
_symmetry_cell_setting 'monoclinic'
loop_
_space_group_symop_operation_xyz
x,y,z
-x,y,-z
-x,-y,-z
x,-y,z
1/2+x,1/2+y,z
1/2-x,1/2+y,-z
1/2-x,1/2-y,-z
1/2+x,1/2-y,z
loop_
_atom_site_type_symbol
_atom_site_label
_atom_site_fract_x
_atom_site_fract_y
_atom_site_fract_z
Si Si1 0.862755 0.680034 0.592628
Si Si2 0.324760 0.321015 0.217415
Si Si3 0.666966 0.176578 0.886803
Si Si4 0.022918 0.823772 0.069311
Si Si5 0.335476 0.824065 0.785154
Si Si6 0.852633 0.826548 0.955549
Si Si7 0.665315 0.670698 0.128099
Si Si8 0.537558 0.180493 0.401857
O O1 0.861738 0.500000 0.590898
O O2 0.761122 0.728963 0.680081
O O3 0.905819 0.718528 0.603221
O O4 0.936293 0.734003 0.494028
O O5 0.318848 0.500000 0.215837
O O6 0.320918 0.245369 0.172535
O O7 0.418703 0.289254 0.158996
O O8 0.742971 0.244772 0.852993
O O9 0.672990 0.000000 0.880522
O O10 0.573593 0.230750 0.987919
O O11 0.071697 0.795594 0.073951
O O12 0.033559 0.000000 0.050098
O O13 0.368176 0.781085 0.805477
O O14 0.408278 0.768700 0.687258
O O15 0.322058 0.000000 0.792118
O O16 0.880838 0.814469 0.879771
O O17 0.823243 0.000000 0.987628
O O18 0.768914 0.717597 0.032952
O O19 0.659720 0.500000 0.147490
O O20 0.535479 0.000000 0.402523
#
# Coordination Sequence:
#
# PCOD9223460 Si02
#       8
#     8   8   8   8   8   8   8   8
#     4   8  13  25  44  68  90 112 145 188 227 262
#     4  10  19  32  50  68  89 120 158 191 223 261
#     4  12  23  32  43  64  95 128 158 186 219 264
#     4  10  20  33  49  67  88 121 159 191 221 261
#     4  11  19  30  48  69  92 121 153 187 229 273
#     4   9  18  32  47  64  90 121 152 187 225 269
#     4  10  19  30  46  68  91 117 150 187 231 275
#     4   8  14  24  44  68  90 113 144 185 230 269
#
# _framework density 7.9012349999999998
#
# number of rings (size 3 to 8) (size 9 to 14) (size 15 to 20)
#    0.000    2.250    2.500    3.000    0.000    2.500 
#    0.000    0.000    0.000    2.250    0.000    0.875 
#    0.000    0.000    0.000    0.000    0.000    0.000 
#
# Total GULP energy -178237.508145 kJ/mol
# GULP energy per Si atom -5569.922130 kJ/mol
# Density = 0.788325 g / cm^3
# Si number density = 7.901235 Si / 1000 Ang^3
#
#
#
# Elastic Constant Matrix: (Units=GPa)
#
#
# Indices 1 2 3 4 5 6 
#
# 1 31.7807 9.5668 16.4962 0.0042 -3.3737 -0.0023
# 2 9.5668 21.7434 15.2227 0.0053 -6.6102 -0.0077
# 3 16.4962 15.2227 97.9142 0.0007 -13.8198 -0.0033
# 4 0.0042 0.0053 0.0007 -4.9302 0.0017 7.6361
# 5 -3.3737 -6.6102 -13.8198 0.0017 12.5698 0.0010
# 6 -0.0023 -0.0077 -0.0033 7.6361 0.0010 15.6850
#
#
#
# Elastic Compliance Matrix: (Units=1/GPa)
#
#
# Indices 1 2 3 4 5 6 
#
# 1 0.037825 -0.014183 -0.004483 0.000007 -0.002236 -0.000006
# 2 -0.014183 0.062454 -0.003814 0.000059 0.024844 -0.000003
# 3 -0.004483 -0.003814 0.013149 -0.000002 0.011247 0.000000
# 4 0.000007 0.000059 -0.000002 -0.115637 0.000042 0.056297
# 5 -0.002236 0.024844 0.011247 0.000042 0.104386 -0.000013
# 6 -0.000006 -0.000003 0.000000 0.056297 -0.000013 0.036348
#
#
# Mechanical properties :
#
#
# Convention : Reuss Voigt Hill
#
# Bulk Modulus (GPa) = 14.60544 26.00107 20.30325
# Shear Modulus (GPa) = 24.23569 12.00844 18.12207
#
# Velocity S-wave (km/s) = 3.92045 2.75964 3.39010
# Velocity P-wave (km/s) = 5.45489 5.16175 5.31034
#
# Compressibility (1/GPa) = 0.06846763
#
# Stress axis : x y z
#
# Youngs Moduli (GPa) = 26.43765 16.01172 76.05319
#
# Poissons Ratio (x) = 0.22710 0.34095
# Poissons Ratio (y) = 0.37498 0.29004
# Poissons Ratio (z) = 0.11852 0.06106
#
# Static dielectric constant tensor:
#      x y z
#    x 1.518610 0.000000 0.016610 
#    y 0.000000 1.531260 0.000000 
#    z 0.016610 0.000000 1.564210 
# 
# From -- ./inp_files/384532.got.cif
#   From: 2010.05.17/outbox.ucp.g08.bks.cvg/sg12_193_cif.got.tgz:384532.got - 2010.06.11 11:47:21.
