data_PCOD9223982
_publ_section_title
;
Structure prediction by ZEFSAII (Michael W. Deem and Ramdas Pophale) SiO2 
 PCOD9223982
Probable space group: C 2/M
;
_chemical_formula_sum "Si O2"
_cell_formula_units_Z 28
_cell_length_a 27.000000
_cell_length_b 9.000000
_cell_length_c 18.000000
_cell_angle_alpha 90.000000
_cell_angle_beta 140.000000
_cell_angle_gamma 90.000000
_cell_volume 2811.553005
_symmetry_space_group_name_H-M "C 2/M"
_symmetry_group_IT_number 12
_symmetry_cell_setting 'monoclinic'
loop_
_space_group_symop_operation_xyz
x,y,z
-x,y,-z
-x,-y,-z
x,-y,z
1/2+x,1/2+y,z
1/2-x,1/2+y,-z
1/2-x,1/2-y,-z
1/2+x,1/2-y,z
loop_
_atom_site_type_symbol
_atom_site_label
_atom_site_fract_x
_atom_site_fract_y
_atom_site_fract_z
Si Si1 0.934357 0.668728 0.369710
Si Si2 0.373319 0.825274 0.902632
Si Si3 0.157918 0.178169 0.290563
Si Si4 0.678241 0.820429 0.544761
Si Si5 0.204767 0.174206 0.734882
Si Si6 0.992941 0.824714 0.143779
Si Si7 0.986949 0.330947 0.698065
O O1 0.917041 0.500000 0.376273
O O2 0.857302 0.763047 0.280342
O O3 0.000000 0.731175 0.500000
O O4 0.971240 0.660844 0.332056
O O5 0.359641 0.734279 0.812232
O O6 0.294138 0.803055 0.857492
O O7 0.381495 0.000000 0.895996
O O8 0.446233 0.761878 0.028359
O O9 0.243994 0.230680 0.407530
O O10 0.082183 0.225716 0.246685
O O11 0.159644 0.000000 0.294740
O O12 0.686626 0.759173 0.637344
O O13 0.598342 0.771347 0.418311
O O14 0.676070 0.000000 0.544468
O O15 0.194074 0.000000 0.709779
O O16 0.966036 0.773951 0.193251
O O17 0.987743 0.000000 0.125196
O O18 0.982042 0.500000 0.722926
#
# Coordination Sequence:
#
# PCOD9223982 Si02
#       7
#     8   8   8   8   8   8   8
#     4  10  19  35  58  83 108 140 181 216 261 327
#     4  10  21  37  57  81 108 141 184 226 266 318
#     4   9  19  35  57  82 108 141 182 225 268 317
#     4   9  17  34  56  78 108 145 180 216 265 322
#     4  10  20  33  54  85 112 135 173 227 275 312
#     4  11  23  37  53  78 111 146 183 224 271 318
#     4  10  21  36  55  79 109 145 182 217 261 324
#
# _framework density 9.9589090000000002
#
# number of rings (size 3 to 8) (size 9 to 14) (size 15 to 20)
#    0.000    2.143    1.429    1.714    0.000    6.571 
#    0.000    0.714    0.000    0.000    0.000    0.000 
#    0.000    0.000    0.000    0.000    0.000    0.000 
#
# Total GULP energy -156005.744918 kJ/mol
# GULP energy per Si atom -5571.633747 kJ/mol
# Density = 0.993624 g / cm^3
# Si number density = 9.958909 Si / 1000 Ang^3
#
#
#
# Elastic Constant Matrix: (Units=GPa)
#
#
# Indices 1 2 3 4 5 6 
#
# 1 54.6192 -6.2961 44.5300 0.0000 12.0416 0.0000
# 2 -6.2961 -75.4800 -6.1813 0.0000 20.8346 0.0000
# 3 44.5300 -6.1813 -1.6375 0.0000 0.4592 0.0000
# 4 0.0000 0.0000 0.0000 24.1014 0.0000 -0.6281
# 5 12.0416 20.8346 0.4592 0.0000 10.8904 0.0000
# 6 0.0000 0.0000 0.0000 -0.6281 0.0000 29.4377
#
#
#
# Elastic Compliance Matrix: (Units=1/GPa)
#
#
# Indices 1 2 3 4 5 6 
#
# 1 0.000567 -0.001443 0.021222 0.000000 0.001239 0.000000
# 2 -0.001443 -0.008057 -0.004015 0.000000 0.017180 0.000000
# 3 0.021222 -0.004015 -0.022587 0.000000 -0.014832 0.000000
# 4 0.000000 0.000000 0.000000 0.041515 0.000000 0.000886
# 5 0.001239 0.017180 -0.014832 0.000000 0.058213 0.000000
# 6 0.000000 0.000000 0.000000 0.000886 0.000000 0.033989
#
#
# Mechanical properties :
#
#
# Convention : Reuss Voigt Hill
#
# Bulk Modulus (GPa) = 689.13977 4.62299 346.88138
# Shear Modulus (GPa) = 68.87508 9.24915 39.06211
#
# Velocity S-wave (km/s) = 5.88682 2.15725 4.43331
# Velocity P-wave (km/s) = 19.82294 2.92080 14.16828
#
# Compressibility (1/GPa) = 0.00145108
#
# Stress axis : x y z
#
# Youngs Moduli (GPa) = 1762.77338 -124.11091 -44.27352
#
# Poissons Ratio (x) = -0.17912 0.93957
# Poissons Ratio (y) = 2.54408 -0.17774
# Poissons Ratio (z) = -37.40933 -0.49826
#
# Static dielectric constant tensor:
#      x y z
#    x 1.817810 0.000000 0.000260 
#    y 0.000000 1.680490 0.000000 
#    z 0.000260 0.000000 1.728560 
# 
# From -- ./inp_files/288177.got.cif
#   From: 2010.05.17/outbox.ucp.g08.bks.cvg/sg12_145_cif.got.tgz:288177.got - 2010.06.11 11:47:21.
