data_PCOD9223130
_publ_section_title
;
Structure prediction by ZEFSAII (Michael W. Deem and Ramdas Pophale) SiO2 
 PCOD9223130
Probable space group: C 2/M
;
_chemical_formula_sum "Si O2"
_cell_formula_units_Z 48
_cell_length_a 14.246303
_cell_length_b 16.165478
_cell_length_c 11.556299
_cell_angle_alpha 90.000000
_cell_angle_beta 128.052813
_cell_angle_gamma 90.000000
_cell_volume 2095.697445
_symmetry_space_group_name_H-M "C 2/M"
_symmetry_group_IT_number 12
_symmetry_cell_setting 'monoclinic'
loop_
_space_group_symop_operation_xyz
x,y,z
-x,y,-z
-x,-y,-z
x,-y,z
1/2+x,1/2+y,z
1/2-x,1/2+y,-z
1/2-x,1/2-y,-z
1/2+x,1/2-y,z
loop_
_atom_site_type_symbol
_atom_site_label
_atom_site_fract_x
_atom_site_fract_y
_atom_site_fract_z
Si Si1 0.126699 0.657617 0.030893
Si Si2 0.891736 0.899854 0.662627
Si Si3 0.787412 0.595656 0.274902
Si Si4 0.595806 0.657617 0.969108
Si Si5 0.012510 0.404344 0.725098
Si Si6 0.270891 0.899854 0.662627
O O1 0.220145 0.632914 0.200199
O O2 0.145117 0.750000 0.000001
O O3 0.100890 0.599928 0.902547
O O4 0.000000 0.656459 0.000000
O O5 0.789397 0.869421 0.676339
O O6 0.845052 0.878437 0.500000
O O7 0.019946 0.867086 0.799801
O O8 0.895727 0.000000 0.675801
O O9 0.810286 0.500000 0.321518
O O10 0.912067 0.632830 0.324134
O O11 0.698343 0.599927 0.097453
O O12 0.500000 0.656458 0.000000
O O13 0.988769 0.500000 0.678483
O O14 0.886942 0.369421 0.676339
O O15 0.280074 0.000000 0.675801
#
# Coordination Sequence:
#
# PCOD9223130 Si02
#       6
#     8   8   8   8   8   8
#     4   9  17  30  46  68  93 122 160 193 229 274
#     4   9  17  30  50  73  95 121 154 195 238 277
#     4   9  17  29  46  68  94 124 157 193 232 277
#     4   9  17  30  46  68  93 122 160 193 229 274
#     4   9  17  29  46  68  94 124 157 193 232 277
#     4   9  17  30  50  73  95 121 154 195 238 277
#
# _framework density 22.904070000000001
#
# number of rings (size 3 to 8) (size 9 to 14) (size 15 to 20)
#    0.000    3.000    0.000    1.000    0.000    5.333 
#    0.000   16.667    0.000    1.000    0.000    4.667 
#    0.000    0.000    0.000    0.000    0.000    0.000 
#
# Total GULP energy -133771.587569 kJ/mol
# GULP energy per Si atom -5573.816149 kJ/mol
# Density = 2.285194 g / cm^3
# Si number density = 22.904070 Si / 1000 Ang^3
#
#
#
# Elastic Constant Matrix: (Units=GPa)
#
#
# Indices 1 2 3 4 5 6 
#
# 1 55.9979 6.3205 10.0311 0.0000 -0.2771 0.0000
# 2 6.3205 35.7635 34.4607 0.0000 -2.7814 0.0000
# 3 10.0311 34.4607 212.9090 0.0000 -15.2262 0.0000
# 4 0.0000 0.0000 0.0000 13.6610 0.0000 -2.0405
# 5 -0.2771 -2.7814 -15.2262 0.0000 25.8660 0.0000
# 6 0.0000 0.0000 0.0000 -2.0405 0.0000 -6.9918
#
#
#
# Elastic Compliance Matrix: (Units=1/GPa)
#
#
# Indices 1 2 3 4 5 6 
#
# 1 0.018253 -0.002844 -0.000425 0.000000 -0.000361 0.000000
# 2 -0.002844 0.033576 -0.005266 0.000000 0.000480 0.000000
# 3 -0.000425 -0.005266 0.005771 0.000000 0.002827 0.000000
# 4 0.000000 0.000000 0.000000 0.070143 0.000000 -0.020471
# 5 -0.000361 0.000480 0.002827 0.000000 0.040372 0.000000
# 6 0.000000 0.000000 0.000000 -0.020471 0.000000 -0.137051
#
#
# Mechanical properties :
#
#
# Convention : Reuss Voigt Hill
#
# Bulk Modulus (GPa) = 24.67357 45.14389 34.90873
# Shear Modulus (GPa) = 81.10838 23.43092 52.26965
#
# Velocity S-wave (km/s) = 5.95727 3.20191 4.78233
# Velocity P-wave (km/s) = 7.62330 5.78121 6.76525
#
# Compressibility (1/GPa) = 0.04052919
#
# Stress axis : x y z
#
# Youngs Moduli (GPa) = 54.78479 29.78341 173.26854
#
# Poissons Ratio (x) = 0.08470 0.07372
# Poissons Ratio (y) = 0.15581 0.91246
# Poissons Ratio (z) = 0.02331 0.15684
#
# Static dielectric constant tensor:
#      x y z
#    x 1.911940 0.000000 0.004420 
#    y 0.000000 1.854910 0.000000 
#    z 0.004420 0.000000 1.867210 
# 
# From -- ./inp_files/148017.got.cif
#   From: 2010.05.17/outbox.cif.g08.bks.cpg/sg12_75_cif.got.tgz:148017.got - 2010.06.03 13:09:07.
