data_PCOD9223844
_publ_section_title
;
Structure prediction by ZEFSAII (Michael W. Deem and Ramdas Pophale) SiO2 
 PCOD9223844
Probable space group: C 2/M
;
_chemical_formula_sum "Si O2"
_cell_formula_units_Z 24
_cell_length_a 12.000000
_cell_length_b 15.000000
_cell_length_c 27.000000
_cell_angle_alpha 90.000000
_cell_angle_beta 30.000000
_cell_angle_gamma 90.000000
_cell_volume 2430.000000
_symmetry_space_group_name_H-M "C 2/M"
_symmetry_group_IT_number 12
_symmetry_cell_setting 'monoclinic'
loop_
_space_group_symop_operation_xyz
x,y,z
-x,y,-z
-x,-y,-z
x,-y,z
1/2+x,1/2+y,z
1/2-x,1/2+y,-z
1/2-x,1/2-y,-z
1/2+x,1/2-y,z
loop_
_atom_site_type_symbol
_atom_site_label
_atom_site_fract_x
_atom_site_fract_y
_atom_site_fract_z
Si Si1 0.202992 0.095651 0.284887
Si Si2 0.923187 0.744462 0.722095
Si Si3 0.253137 0.707417 0.890001
Si Si4 0.750936 0.904668 0.615422
Si Si5 0.701706 0.901548 0.083810
Si Si6 0.030114 0.897086 0.863987
O O1 0.071712 0.184087 0.323181
O O2 0.255559 0.095192 0.322733
O O3 0.445035 0.100772 0.165455
O O4 0.097847 0.000000 0.312731
O O5 0.851964 0.801139 0.797497
O O6 0.736809 0.668190 0.790173
O O7 0.142746 0.686856 0.640825
O O8 0.272287 0.813648 0.893693
O O9 0.395091 0.646870 0.871537
O O10 0.000000 0.684048 0.000000
O O11 0.000000 0.906579 0.500000
O O12 0.644736 0.000000 0.640233
O O13 0.734378 0.000000 0.095187
O O14 0.872349 0.893449 0.973087
O O15 0.086820 0.000000 0.833694
#
# Coordination Sequence:
#
# PCOD9223844 Si02
#       6
#     8   8   8   8   8   8
#     4  10  21  38  58  83 113 144 182 223 273 330
#     4  12  21  36  61  82 109 148 183 228 273 321
#     4  12  22  34  55  80 117 149 187 224 268 319
#     4  10  22  40  61  85 110 138 178 229 283 334
#     4  10  19  34  54  78 112 147 182 226 266 311
#     4  11  23  36  52  81 114 149 191 228 264 315
#
# _framework density 9.8765429999999999
#
# number of rings (size 3 to 8) (size 9 to 14) (size 15 to 20)
#    0.000    1.167    5.000    2.000    0.000    2.667 
#    0.000    0.000    0.000    0.500    0.000    0.000 
#    0.000    0.000    0.000    0.000    0.000    0.000 
#
# Total GULP energy -133808.999239 kJ/mol
# GULP energy per Si atom -5575.374968 kJ/mol
# Density = 0.985406 g / cm^3
# Si number density = 9.876543 Si / 1000 Ang^3
#
#
#
# Elastic Constant Matrix: (Units=GPa)
#
#
# Indices 1 2 3 4 5 6 
#
# 1 25.5364 35.4195 5.8134 0.0114 -24.6246 -0.0167
# 2 35.4195 111.4300 22.8325 0.0069 -12.1388 -0.0072
# 3 5.8134 22.8325 49.9338 0.0385 -21.3302 0.0207
# 4 0.0114 0.0069 0.0385 -4.8597 0.0049 30.3587
# 5 -24.6246 -12.1388 -21.3302 0.0049 -9.5602 -0.0035
# 6 -0.0167 -0.0072 0.0207 30.3587 -0.0035 67.2375
#
#
#
# Elastic Compliance Matrix: (Units=1/GPa)
#
#
# Indices 1 2 3 4 5 6 
#
# 1 0.025900 -0.009100 -0.011477 -0.000007 -0.029550 0.000011
# 2 -0.009100 0.013070 -0.001020 -0.000001 0.009121 0.000000
# 3 -0.011477 -0.001020 0.017926 0.000013 -0.009138 -0.000015
# 4 -0.000007 -0.000001 0.000013 -0.053859 -0.000046 0.024318
# 5 -0.029550 0.009121 -0.009138 -0.000046 -0.019682 0.000016
# 6 0.000011 0.000000 -0.000015 0.024318 0.000016 0.003893
#
#
# Mechanical properties :
#
#
# Convention : Reuss Voigt Hill
#
# Bulk Modulus (GPa) = 72.99078 35.00343 53.99710
# Shear Modulus (GPa) = 142.82067 18.75251 80.78659
#
# Velocity S-wave (km/s) = 8.51234 3.08449 6.40211
# Velocity P-wave (km/s) = 11.56049 5.51764 9.05785
#
# Compressibility (1/GPa) = 0.01370036
#
# Stress axis : x y z
#
# Youngs Moduli (GPa) = 38.61039 76.51401 55.78523
#
# Poissons Ratio (x) = 0.69627 0.64025
# Poissons Ratio (y) = 0.35135 0.05692
# Poissons Ratio (z) = 0.44313 0.07807
#
# Static dielectric constant tensor:
#      x y z
#    x 1.735620 0.000020 -0.080120 
#    y 0.000020 1.694960 0.000050 
#    z -0.080120 0.000050 1.589430 
# 
# From -- ./inp_files/183668.got.cif
#   From: 2010.05.17/outbox.ucp.g08.bks.cvg/sg12_92_cif.got.tgz:183668.got - 2010.06.11 11:47:21.
