data_PCOD9223148
_publ_section_title
;
Structure prediction by ZEFSAII (Michael W. Deem and Ramdas Pophale) SiO2 
 PCOD9223148
Probable space group: C 2/M
;
_chemical_formula_sum "Si O2"
_cell_formula_units_Z 64
_cell_length_a 14.675833
_cell_length_b 7.628237
_cell_length_c 29.304403
_cell_angle_alpha 90.000000
_cell_angle_beta 90.000012
_cell_angle_gamma 90.000000
_cell_volume 3280.649375
_symmetry_space_group_name_H-M "C 2/M"
_symmetry_group_IT_number 12
_symmetry_cell_setting 'monoclinic'
loop_
_space_group_symop_operation_xyz
x,y,z
-x,y,-z
-x,-y,-z
x,-y,z
1/2+x,1/2+y,z
1/2-x,1/2+y,-z
1/2-x,1/2-y,-z
1/2+x,1/2-y,z
loop_
_atom_site_type_symbol
_atom_site_label
_atom_site_fract_x
_atom_site_fract_y
_atom_site_fract_z
Si Si1 0.648317 0.210466 0.125250
Si Si2 0.145805 0.789779 0.875375
Si Si3 0.501557 0.211147 0.198253
Si Si4 0.000803 0.789070 0.448316
Si Si5 0.500803 0.289070 0.051684
Si Si6 0.148317 0.710466 0.374750
Si Si7 0.354195 0.289779 0.375375
Si Si8 0.501557 0.211147 0.301747
O O1 0.751282 0.278652 0.124999
O O2 0.585067 0.276901 0.166807
O O3 0.593162 0.248445 0.079010
O O4 0.652865 0.000000 0.130104
O O5 0.090619 0.753761 0.829030
O O6 0.082383 0.722346 0.916769
O O7 0.150765 0.000000 0.880581
O O8 0.502896 0.277025 0.250000
O O9 0.508403 0.000000 0.199867
O O10 0.093162 0.748445 0.420990
O O11 0.000000 0.722454 0.500000
O O12 0.917616 0.722346 0.416769
O O13 0.992647 0.000000 0.450160
O O14 0.492647 0.500000 0.049840
O O15 0.500000 0.222454 0.000000
O O16 0.152865 0.500000 0.369896
O O17 0.251282 0.778652 0.375001
O O18 0.085067 0.776901 0.333193
O O19 0.349235 0.500000 0.380581
O O20 0.409381 0.253761 0.329030
O O21 0.508403 0.000000 0.300133
#
# Coordination Sequence:
#
# PCOD9223148 Si02
#       8
#     8   8   8   8   8   8   8   8
#     4   9  18  32  49  69  93 121 155 193 230 272
#     4   9  18  32  49  69  93 122 156 191 229 275
#     4   9  18  32  48  67  92 120 150 187 231 275
#     4   9  18  32  48  68  96 126 155 191 234 277
#     4   9  18  32  48  68  96 126 155 191 234 277
#     4   9  18  32  49  69  93 121 155 193 230 272
#     4   9  18  32  49  69  93 122 156 191 229 275
#     4   9  18  32  48  67  92 120 150 187 231 275
#
# _framework density 19.508333
#
# number of rings (size 3 to 8) (size 9 to 14) (size 15 to 20)
#    0.000    3.000    0.000    0.000    0.000    4.000 
#    0.000    2.500    0.000    0.000    0.000    0.000 
#    0.000    0.000    0.000    0.000    0.000    0.000 
#
# Total GULP energy -178459.125080 kJ/mol
# GULP energy per Si atom -5576.847659 kJ/mol
# Density = 1.946393 g / cm^3
# Si number density = 19.508333 Si / 1000 Ang^3
#
#
#
# Elastic Constant Matrix: (Units=GPa)
#
#
# Indices 1 2 3 4 5 6 
#
# 1 188.9800 9.2523 105.8004 0.0000 6.2694 0.0000
# 2 9.2523 36.2738 2.4241 0.0000 0.6025 0.0000
# 3 105.8004 2.4241 184.7326 0.0000 -5.8944 0.0000
# 4 0.0000 0.0000 0.0000 19.4672 0.0000 8.2354
# 5 6.2694 0.6025 -5.8944 0.0000 7.1376 0.0000
# 6 0.0000 0.0000 0.0000 8.2354 0.0000 112.8019
#
#
#
# Elastic Compliance Matrix: (Units=1/GPa)
#
#
# Indices 1 2 3 4 5 6 
#
# 1 0.008797 -0.001683 -0.005400 0.000000 -0.012045 0.000000
# 2 -0.001683 0.027965 0.000584 0.000000 -0.000400 0.000000
# 3 -0.005400 0.000584 0.008882 0.000000 0.012030 0.000000
# 4 0.000000 0.000000 0.000000 0.053005 0.000000 -0.003870
# 5 -0.012045 -0.000400 0.012030 0.000000 0.160652 0.000000
# 6 0.000000 0.000000 0.000000 -0.003870 0.000000 0.009148
#
#
# Mechanical properties :
#
#
# Convention : Reuss Voigt Hill
#
# Bulk Modulus (GPa) = 30.63178 71.66000 51.14589
# Shear Modulus (GPa) = 17.10398 47.38198 32.24298
#
# Velocity S-wave (km/s) = 2.96421 4.93364 4.06985
# Velocity P-wave (km/s) = 5.23941 8.32269 6.95408
#
# Compressibility (1/GPa) = 0.03264583
#
# Stress axis : x y z
#
# Youngs Moduli (GPa) = 113.67529 35.75904 112.58266
#
# Poissons Ratio (x) = 0.06018 0.60800
# Poissons Ratio (y) = 0.19130 -0.06576
# Poissons Ratio (z) = 0.61390 -0.02089
#
# Static dielectric constant tensor:
#      x y z
#    x 1.670190 0.000000 0.000250 
#    y 0.000000 1.722780 0.000000 
#    z 0.000250 0.000000 1.667310 
# 
# From -- ./inp_files/335260.got.cif
#   From: 2010.05.17/outbox.cif.g08.bks.cpg/sg12_168_cif.got.tgz:335260.got - 2010.06.03 13:09:07.
