data_PCOD9223261
_publ_section_title
;
Structure prediction by ZEFSAII (Michael W. Deem and Ramdas Pophale) SiO2 
 PCOD9223261
Probable space group: C 2/M
;
_chemical_formula_sum "Si O2"
_cell_formula_units_Z 32
_cell_length_a 24.000000
_cell_length_b 9.000000
_cell_length_c 18.000000
_cell_angle_alpha 90.000000
_cell_angle_beta 100.000000
_cell_angle_gamma 90.000000
_cell_volume 3828.932544
_symmetry_space_group_name_H-M "C 2/M"
_symmetry_group_IT_number 12
_symmetry_cell_setting 'monoclinic'
loop_
_space_group_symop_operation_xyz
x,y,z
-x,y,-z
-x,-y,-z
x,-y,z
1/2+x,1/2+y,z
1/2-x,1/2+y,-z
1/2-x,1/2-y,-z
1/2+x,1/2-y,z
loop_
_atom_site_type_symbol
_atom_site_label
_atom_site_fract_x
_atom_site_fract_y
_atom_site_fract_z
Si Si1 0.735669 0.676394 0.576059
Si Si2 0.666135 0.324916 0.313227
Si Si3 0.960600 0.672178 0.310459
Si Si4 0.590722 0.678086 0.154800
Si Si5 0.432555 0.171605 0.001921
Si Si6 0.566740 0.673908 0.410999
Si Si7 0.616800 0.828050 0.563619
Si Si8 0.041679 0.823115 0.841874
O O1 0.738816 0.500000 0.569807
O O2 0.750000 0.750000 0.500000
O O3 0.779468 0.734103 0.648184
O O4 0.672729 0.729688 0.579703
O O5 0.680434 0.500000 0.309401
O O6 0.634446 0.277633 0.229889
O O7 0.621082 0.312177 0.369985
O O8 0.976264 0.500000 0.301482
O O9 0.915174 0.677883 0.365720
O O10 0.939598 0.743706 0.229129
O O11 0.014233 0.762850 0.353045
O O12 0.594936 0.500000 0.146417
O O13 0.597402 0.756320 0.076649
O O14 0.526032 0.708304 0.165870
O O15 0.416200 0.000000 0.007150
O O16 0.500000 0.176136 0.000000
O O17 0.427633 0.260457 0.077767
O O18 0.558483 0.500000 0.426084
O O19 0.577658 0.765120 0.488490
O O20 0.631153 0.000000 0.550405
O O21 0.048356 0.000000 0.838897
#
# Coordination Sequence:
#
# PCOD9223261 Si02
#       8
#     8   8   8   8   8   8   8   8
#     4  12  24  38  57  78 101 134 176 223 270 314
#     4  10  20  35  54  78 106 138 176 216 262 312
#     4  11  23  36  52  76 108 141 177 219 263 311
#     4   9  17  31  49  72 103 137 172 209 253 307
#     4   9  17  28  44  71 104 137 171 208 254 305
#     4  11  21  35  55  78 105 140 177 215 262 314
#     4  11  24  40  55  74 102 140 180 222 267 310
#     4  10  18  31  50  73 103 140 177 210 254 310
#
# _framework density 8.3574210000000004
#
# number of rings (size 3 to 8) (size 9 to 14) (size 15 to 20)
#    0.000    1.625    2.500    3.375    0.000    6.500 
#    0.000    0.000    0.000    0.000    0.000    0.875 
#    0.000    0.000    0.000    0.000    0.000    0.000 
#
# Total GULP energy -178662.301013 kJ/mol
# GULP energy per Si atom -5583.196907 kJ/mol
# Density = 0.833840 g / cm^3
# Si number density = 8.357421 Si / 1000 Ang^3
#
#
#
# Elastic Constant Matrix: (Units=GPa)
#
#
# Indices 1 2 3 4 5 6 
#
# 1 17.5913 15.8332 8.8246 0.0000 1.5942 0.0000
# 2 15.8332 88.3809 58.1787 0.0000 1.1954 0.0000
# 3 8.8246 58.1787 142.9476 0.0000 7.7670 0.0000
# 4 0.0000 0.0000 0.0000 31.9429 0.0000 2.5782
# 5 1.5942 1.1954 7.7670 0.0000 15.7638 0.0000
# 6 0.0000 0.0000 0.0000 2.5782 0.0000 21.0580
#
#
#
# Elastic Compliance Matrix: (Units=1/GPa)
#
#
# Indices 1 2 3 4 5 6 
#
# 1 0.068560 -0.013174 0.001492 0.000000 -0.006669 0.000000
# 2 -0.013174 0.018047 -0.006709 0.000000 0.003270 0.000000
# 3 0.001492 -0.006709 0.009879 0.000000 -0.004510 0.000000
# 4 0.000000 0.000000 0.000000 0.031618 0.000000 -0.003871
# 5 -0.006669 0.003270 -0.004510 0.000000 0.066085 0.000000
# 6 0.000000 0.000000 0.000000 -0.003871 0.000000 0.047962
#
#
# Mechanical properties :
#
#
# Convention : Reuss Voigt Hill
#
# Bulk Modulus (GPa) = 16.74966 46.06587 31.40777
# Shear Modulus (GPa) = 16.73160 24.82516 20.77838
#
# Velocity S-wave (km/s) = 3.16729 3.85803 3.52960
# Velocity P-wave (km/s) = 4.83924 6.88953 5.95331
#
# Compressibility (1/GPa) = 0.05970269
#
# Stress axis : x y z
#
# Youngs Moduli (GPa) = 14.58579 55.41035 101.22253
#
# Poissons Ratio (x) = 0.72998 -0.15099
# Poissons Ratio (y) = 0.19215 0.67915
# Poissons Ratio (z) = -0.02176 0.37177
#
# Static dielectric constant tensor:
#      x y z
#    x 1.548930 0.000000 -0.008380 
#    y 0.000000 1.563100 0.000000 
#    z -0.008380 0.000000 1.553220 
# 
# From -- ./inp_files/287758.got.cif
#   From: 2010.05.17/outbox.ucp.g08.bks.cvg/sg12_144_cif.got.tgz:287758.got - 2010.06.11 11:47:21.
