data_PCOD9223812
_publ_section_title
;
Structure prediction by ZEFSAII (Michael W. Deem and Ramdas Pophale) SiO2 
 PCOD9223812
Probable space group: C 2/M
;
_chemical_formula_sum "Si O2"
_cell_formula_units_Z 24
_cell_length_a 24.000000
_cell_length_b 9.000000
_cell_length_c 12.000000
_cell_angle_alpha 90.000000
_cell_angle_beta 110.000000
_cell_angle_gamma 90.000000
_cell_volume 2435.683273
_symmetry_space_group_name_H-M "C 2/M"
_symmetry_group_IT_number 12
_symmetry_cell_setting 'monoclinic'
loop_
_space_group_symop_operation_xyz
x,y,z
-x,y,-z
-x,-y,-z
x,-y,z
1/2+x,1/2+y,z
1/2-x,1/2+y,-z
1/2-x,1/2-y,-z
1/2+x,1/2-y,z
loop_
_atom_site_type_symbol
_atom_site_label
_atom_site_fract_x
_atom_site_fract_y
_atom_site_fract_z
Si Si1 0.513182 0.321308 0.199421
Si Si2 0.115373 0.677992 0.907324
Si Si3 0.372960 0.677732 0.856431
Si Si4 0.560985 0.670272 0.472557
Si Si5 0.230858 0.178130 0.371164
Si Si6 0.156859 0.677966 0.694373
O O1 0.502052 0.500000 0.196476
O O2 0.452018 0.236159 0.145184
O O3 0.559369 0.292462 0.132235
O O4 0.544739 0.278270 0.337421
O O5 0.116809 0.500000 0.913002
O O6 0.145713 0.729836 0.812838
O O7 0.142486 0.744452 0.038594
O O8 0.366313 0.500000 0.865205
O O9 0.331752 0.723466 0.724521
O O10 0.500000 0.671021 0.500000
O O11 0.582445 0.500000 0.477868
O O12 0.608429 0.760922 0.575075
O O13 0.250000 0.250000 0.500000
O O14 0.279474 0.217041 0.311296
O O15 0.230183 0.000000 0.385834
O O16 0.151977 0.500000 0.692380
#
# Coordination Sequence:
#
# PCOD9223812 Si02
#       6
#     8   8   8   8   8   8
#     4  10  20  36  57  83 114 148 188 236 284 331
#     4  11  23  37  55  83 117 150 188 232 281 338
#     4  10  22  39  59  81 111 151 192 233 280 332
#     4  10  19  33  57  86 113 145 190 234 274 332
#     4  10  22  42  64  86 113 147 188 234 284 338
#     4  10  22  38  57  84 119 152 184 231 289 340
#
# _framework density 9.8534980000000001
#
# number of rings (size 3 to 8) (size 9 to 14) (size 15 to 20)
#    0.000    1.833    1.667    2.000    0.000    7.667 
#    0.000    0.000    0.000    0.000    0.000    0.000 
#    0.000    0.000    0.000    0.000    0.000    0.000 
#
# Total GULP energy -134039.989644 kJ/mol
# GULP energy per Si atom -5584.999569 kJ/mol
# Density = 0.983107 g / cm^3
# Si number density = 9.853498 Si / 1000 Ang^3
#
#
#
# Elastic Constant Matrix: (Units=GPa)
#
#
# Indices 1 2 3 4 5 6 
#
# 1 73.3796 31.7648 40.1372 0.0000 0.7455 0.0000
# 2 31.7648 12.2091 28.8839 0.0000 -8.8467 0.0000
# 3 40.1372 28.8839 132.8397 0.0000 -15.6185 0.0000
# 4 0.0000 0.0000 0.0000 37.6556 0.0000 -0.4062
# 5 0.7455 -8.8467 -15.6185 0.0000 22.3282 0.0000
# 6 0.0000 0.0000 0.0000 -0.4062 0.0000 16.4422
#
#
#
# Elastic Compliance Matrix: (Units=1/GPa)
#
#
# Indices 1 2 3 4 5 6 
#
# 1 -0.013491 0.073768 -0.009234 0.000000 0.023220 0.000000
# 2 0.073768 -0.180105 0.008927 0.000000 -0.067579 0.000000
# 3 -0.009234 0.008927 0.009620 0.000000 0.010574 0.000000
# 4 0.000000 0.000000 0.000000 0.026564 0.000000 0.000656
# 5 0.023220 -0.067579 0.010574 0.000000 0.024632 0.000000
# 6 0.000000 0.000000 0.000000 0.000656 0.000000 0.060835
#
#
# Mechanical properties :
#
#
# Convention : Reuss Voigt Hill
#
# Bulk Modulus (GPa) = -26.98856 46.66670 9.83907
# Shear Modulus (GPa) = -21.62466 23.12802 0.75168
#
# Velocity S-wave (km/s) = -3.31616 3.42949 0.61827
# Velocity P-wave (km/s) = 5.32796 6.27802 2.34802
#
# Compressibility (1/GPa) = -0.03705274
#
# Stress axis : x y z
#
# Youngs Moduli (GPa) = -74.12565 -5.55232 103.94897
#
# Poissons Ratio (x) = 0.40959 0.95982
# Poissons Ratio (y) = 5.46812 -0.92791
# Poissons Ratio (z) = -0.68445 0.04956
#
# Static dielectric constant tensor:
#      x y z
#    x 1.711830 0.000000 0.000010 
#    y 0.000000 1.668040 0.000000 
#    z 0.000010 0.000000 1.691190 
# 
# From -- ./inp_files/172384.got.cif
#   From: 2010.05.17/outbox.ucp.g08.bks.cvg/sg12_87_cif.got.tgz:172384.got - 2010.06.11 11:47:21.
