data_PCOD9223002
_publ_section_title
;
Structure prediction by ZEFSAII (Michael W. Deem and Ramdas Pophale) SiO2 
 PCOD9223002
Probable space group: C 2/M
;
_chemical_formula_sum "Si O2"
_cell_formula_units_Z 48
_cell_length_a 19.242548
_cell_length_b 7.456485
_cell_length_c 18.713577
_cell_angle_alpha 90.000000
_cell_angle_beta 119.830535
_cell_angle_gamma 90.000000
_cell_volume 2329.288362
_symmetry_space_group_name_H-M "C 2/M"
_symmetry_group_IT_number 12
_symmetry_cell_setting 'monoclinic'
loop_
_space_group_symop_operation_xyz
x,y,z
-x,y,-z
-x,-y,-z
x,-y,z
1/2+x,1/2+y,z
1/2-x,1/2+y,-z
1/2-x,1/2-y,-z
1/2+x,1/2-y,z
loop_
_atom_site_type_symbol
_atom_site_label
_atom_site_fract_x
_atom_site_fract_y
_atom_site_fract_z
Si Si1 0.080010 0.218048 0.081016
Si Si2 0.928264 0.714761 0.414332
Si Si3 0.917324 0.708651 0.749878
Si Si4 0.253096 0.286627 0.315769
Si Si5 0.752396 0.296487 0.149314
Si Si6 0.574837 0.779206 0.751964
O O1 0.075876 0.276300 0.161158
O O2 0.164413 0.283055 0.090381
O O3 0.082767 0.000000 0.081835
O O4 0.000000 0.276013 0.000000
O O5 0.935777 0.500000 0.415491
O O6 0.838562 0.754718 0.395569
O O7 0.932738 0.777758 0.334561
O O8 0.000000 0.784388 0.500000
O O9 0.916687 0.500000 0.728421
O O10 0.827954 0.779619 0.687663
O O11 0.996851 0.784270 0.754441
O O12 0.244524 0.500000 0.299991
O O13 0.256347 0.200860 0.238385
O O14 0.750840 0.500000 0.120988
O O15 0.838821 0.217069 0.173470
O O16 0.578078 0.000000 0.755036
#
# Coordination Sequence:
#
# PCOD9223002 Si02
#       6
#     8   8   8   8   8   8
#     4   9  17  29  45  65  88 113 143 180 217 251
#     4   9  17  30  48  66  84 112 148 178 205 247
#     4   9  17  29  45  64  86 113 143 175 213 257
#     4   9  16  26  42  63  86 111 139 173 214 255
#     4   8  14  27  46  62  80 113 150 175 203 252
#     4   8  14  27  46  64  82 109 146 180 208 247
#
# _framework density 20.607151999999999
#
# number of rings (size 3 to 8) (size 9 to 14) (size 15 to 20)
#    0.000    3.333    0.000    1.500    0.000    1.333 
#    0.000    5.000    0.000    0.000    0.000    0.000 
#    0.000    0.000    0.000    0.000    0.000    0.000 
#
# Total GULP energy -133621.043345 kJ/mol
# GULP energy per Si atom -5567.543473 kJ/mol
# Density = 2.056025 g / cm^3
# Si number density = 20.607152 Si / 1000 Ang^3
#
#
#
# Elastic Constant Matrix: (Units=GPa)
#
#
# Indices 1 2 3 4 5 6 
#
# 1 201.0490 -5.7391 59.4052 0.0000 56.5346 0.0000
# 2 -5.7391 62.9130 -8.4419 0.0000 0.1558 0.0000
# 3 59.4052 -8.4419 79.9944 0.0000 50.5434 0.0000
# 4 0.0000 0.0000 0.0000 6.3189 0.0000 2.0783
# 5 56.5346 0.1558 50.5434 0.0000 41.8877 0.0000
# 6 0.0000 0.0000 0.0000 2.0783 0.0000 16.1735
#
#
#
# Elastic Compliance Matrix: (Units=1/GPa)
#
#
# Indices 1 2 3 4 5 6 
#
# 1 0.008405 0.001418 0.004540 0.000000 -0.016827 0.000000
# 2 0.001418 0.017190 0.008462 0.000000 -0.012188 0.000000
# 3 0.004540 0.008462 0.058560 0.000000 -0.076820 0.000000
# 4 0.000000 0.000000 0.000000 0.165240 0.000000 -0.021233
# 5 -0.016827 -0.012188 -0.076820 0.000000 0.139324 0.000000
# 6 0.000000 0.000000 0.000000 -0.021233 0.000000 0.064558
#
#
# Mechanical properties :
#
#
# Convention : Reuss Voigt Hill
#
# Bulk Modulus (GPa) = 8.84998 48.26721 28.55860
# Shear Modulus (GPa) = 10.82014 32.79148 21.80581
#
# Velocity S-wave (km/s) = 2.29392 3.99340 3.25648
# Velocity P-wave (km/s) = 3.36453 6.68852 5.29417
#
# Compressibility (1/GPa) = 0.11299456
#
# Stress axis : x y z
#
# Youngs Moduli (GPa) = 118.98256 58.17345 17.07645
#
# Poissons Ratio (x) = -0.08247 -0.07753
# Poissons Ratio (y) = -0.16867 -0.14451
# Poissons Ratio (z) = -0.54019 -0.49228
#
# Static dielectric constant tensor:
#      x y z
#    x 1.786480 0.000000 0.063610 
#    y 0.000000 1.764280 0.000000 
#    z 0.063610 0.000000 1.713410 
# 
# From -- ./inp_files/273616.got.cif
#   From: 2010.05.17/outbox.cif.g08.bks.cpg/sg12_137_cif.got.tgz:273616.got - 2010.06.03 13:09:07.
