data_PCOD9223884
_publ_section_title
;
Structure prediction by ZEFSAII (Michael W. Deem and Ramdas Pophale) SiO2 
 PCOD9223884
Probable space group: C 2/M
;
_chemical_formula_sum "Si O2"
_cell_formula_units_Z 32
_cell_length_a 30.000000
_cell_length_b 9.000000
_cell_length_c 18.000000
_cell_angle_alpha 90.000000
_cell_angle_beta 140.000000
_cell_angle_gamma 90.000000
_cell_volume 3123.947783
_symmetry_space_group_name_H-M "C 2/M"
_symmetry_group_IT_number 12
_symmetry_cell_setting 'monoclinic'
loop_
_space_group_symop_operation_xyz
x,y,z
-x,y,-z
-x,-y,-z
x,-y,z
1/2+x,1/2+y,z
1/2-x,1/2+y,-z
1/2-x,1/2-y,-z
1/2+x,1/2-y,z
loop_
_atom_site_type_symbol
_atom_site_label
_atom_site_fract_x
_atom_site_fract_y
_atom_site_fract_z
Si Si1 0.234173 0.826896 0.790820
Si Si2 0.518817 0.174391 0.212774
Si Si3 0.863253 0.669611 0.064829
Si Si4 0.776647 0.823300 0.695897
Si Si5 0.367729 0.824197 0.513873
Si Si6 0.067314 0.822816 0.129814
Si Si7 0.627585 0.324300 0.780137
Si Si8 0.014460 0.674934 0.431881
O O1 0.248328 0.718148 0.740937
O O2 0.173061 0.774882 0.767829
O O3 0.221137 0.000000 0.751097
O O4 0.305584 0.828138 0.928173
O O5 0.439475 0.211125 0.132062
O O6 0.573055 0.188982 0.348924
O O7 0.547954 0.283388 0.188414
O O8 0.519487 0.000000 0.190141
O O9 0.868980 0.500000 0.100520
O O10 0.838903 0.773487 0.100297
O O11 0.708970 0.765953 0.563319
O O12 0.854916 0.762075 0.786939
O O13 0.783993 0.000000 0.693506
O O14 0.410252 0.764933 0.496579
O O15 0.356243 0.000000 0.486487
O O16 0.069295 0.000000 0.118828
O O17 0.000000 0.761709 0.000000
O O18 0.623906 0.500000 0.770850
O O19 0.550646 0.257785 0.686138
O O20 0.011231 0.500000 0.407492
O O21 0.000000 0.687517 0.500000
#
# Coordination Sequence:
#
# PCOD9223884 Si02
#       8
#     8   8   8   8   8   8   8   8
#     4  10  22  37  54  81 115 147 185 235 283 329
#     4  10  20  36  60  84 109 144 188 238 278 324
#     4  10  20  37  58  79 109 150 192 232 273 328
#     4  10  21  38  60  82 109 148 188 229 277 333
#     4   9  18  35  56  82 111 142 191 238 270 320
#     4  10  22  39  58  85 118 145 177 227 286 346
#     4  11  22  34  51  81 117 147 181 232 288 336
#     4  10  19  34  57  79 106 151 199 236 272 326
#
# _framework density 10.243449
#
# number of rings (size 3 to 8) (size 9 to 14) (size 15 to 20)
#    0.000    2.000    1.250    2.250    0.000    4.500 
#    0.000    1.250    0.000    0.000    0.000    0.000 
#    0.000    0.000    0.000    0.000    0.000    0.000 
#
# Total GULP energy -178252.079453 kJ/mol
# GULP energy per Si atom -5570.377483 kJ/mol
# Density = 1.022013 g / cm^3
# Si number density = 10.243449 Si / 1000 Ang^3
#
#
#
# Elastic Constant Matrix: (Units=GPa)
#
#
# Indices 1 2 3 4 5 6 
#
# 1 62.4961 -21.4217 19.3145 0.0000 37.0030 0.0000
# 2 -21.4217 -33.4504 -13.9763 0.0000 1.3754 0.0000
# 3 19.3145 -13.9763 65.1411 0.0000 30.4659 0.0000
# 4 0.0000 0.0000 0.0000 9.3581 0.0000 -7.2019
# 5 37.0030 1.3754 30.4659 0.0000 34.3059 0.0000
# 6 0.0000 0.0000 0.0000 -7.2019 0.0000 21.1441
#
#
#
# Elastic Compliance Matrix: (Units=1/GPa)
#
#
# Indices 1 2 3 4 5 6 
#
# 1 0.026301 -0.018818 0.001846 0.000000 -0.029254 0.000000
# 2 -0.018818 -0.011808 -0.011405 0.000000 0.030899 0.000000
# 3 0.001846 -0.011405 0.022362 0.000000 -0.021393 0.000000
# 4 0.000000 0.000000 0.000000 0.144821 0.000000 0.049327
# 5 -0.029254 0.030899 -0.021393 0.000000 0.078463 0.000000
# 6 0.000000 0.000000 0.000000 0.049327 0.000000 0.064096
#
#
# Mechanical properties :
#
#
# Convention : Reuss Voigt Hill
#
# Bulk Modulus (GPa) = -50.25529 6.89108 -21.68210
# Shear Modulus (GPa) = 13.35628 20.31299 16.83464
#
# Velocity S-wave (km/s) = 2.55609 3.15224 2.86969
# Velocity P-wave (km/s) = 3.98400 4.07674 0.61137
#
# Compressibility (1/GPa) = -0.01989840
#
# Stress axis : x y z
#
# Youngs Moduli (GPa) = 38.02107 -84.68541 44.71834
#
# Poissons Ratio (x) = -1.59357 -0.08255
# Poissons Ratio (y) = 0.71546 0.51002
# Poissons Ratio (z) = -0.07019 -0.96586
#
# Static dielectric constant tensor:
#      x y z
#    x 1.755580 0.000000 -0.041100 
#    y 0.000000 1.712790 0.000000 
#    z -0.041100 0.000000 1.899230 
# 
# From -- ./inp_files/295873.got.cif
#   From: 2010.05.17/outbox.ucp.g08.bks.cvg/sg12_148_cif.got.tgz:295873.got - 2010.06.11 11:47:21.
