data_PCOD9223677
_publ_section_title
;
Structure prediction by ZEFSAII (Michael W. Deem and Ramdas Pophale) SiO2 
 PCOD9223677
Probable space group: C 2/M
;
_chemical_formula_sum "Si O2"
_cell_formula_units_Z 24
_cell_length_a 18.000000
_cell_length_b 9.000000
_cell_length_c 30.000000
_cell_angle_alpha 90.000000
_cell_angle_beta 150.000000
_cell_angle_gamma 90.000000
_cell_volume 2430.000000
_symmetry_space_group_name_H-M "C 2/M"
_symmetry_group_IT_number 12
_symmetry_cell_setting 'monoclinic'
loop_
_space_group_symop_operation_xyz
x,y,z
-x,y,-z
-x,-y,-z
x,-y,z
1/2+x,1/2+y,z
1/2-x,1/2+y,-z
1/2-x,1/2-y,-z
1/2+x,1/2-y,z
loop_
_atom_site_type_symbol
_atom_site_label
_atom_site_fract_x
_atom_site_fract_y
_atom_site_fract_z
Si Si1 0.178342 0.323345 0.687897
Si Si2 0.264133 0.824819 0.387651
Si Si3 0.015334 0.321540 0.134594
Si Si4 0.555161 0.322094 0.808116
Si Si5 0.372467 0.676585 0.532064
Si Si6 0.878190 0.319604 0.970591
O O1 0.175999 0.500000 0.693893
O O2 0.189693 0.300685 0.639829
O O3 0.321549 0.249147 0.784472
O O4 0.030923 0.243664 0.627475
O O5 0.342206 0.727074 0.465387
O O6 0.088157 0.791163 0.296146
O O7 0.289364 0.000000 0.410793
O O8 0.024425 0.500000 0.140697
O O9 0.956755 0.259517 0.150875
O O10 0.915713 0.275980 0.040676
O O11 0.551123 0.500000 0.814739
O O12 0.712854 0.279992 0.869997
O O13 0.370110 0.500000 0.534751
O O14 0.250000 0.750000 0.500000
O O15 0.885650 0.500000 0.973966
O O16 0.000000 0.261099 0.000000
#
# Coordination Sequence:
#
# PCOD9223677 Si02
#       6
#     8   8   8   8   8   8
#     4  10  21  39  61  83 111 145 182 226 277 331
#     4   9  19  36  58  82 109 145 186 227 274 327
#     4  10  19  32  55  83 108 139 183 231 272 318
#     4   9  18  34  56  79 108 146 182 222 272 325
#     4  12  25  39  57  82 114 148 183 225 273 327
#     4   9  18  32  51  78 110 145 184 223 269 325
#
# _framework density 9.8765429999999999
#
# number of rings (size 3 to 8) (size 9 to 14) (size 15 to 20)
#    0.000    2.167    0.000    4.500    0.000    6.667 
#    0.000    4.167    0.000    4.500    0.000    0.000 
#    0.000    0.000    0.000    0.000    0.000    0.000 
#
# Total GULP energy -133993.246500 kJ/mol
# GULP energy per Si atom -5583.051937 kJ/mol
# Density = 0.985406 g / cm^3
# Si number density = 9.876543 Si / 1000 Ang^3
#
#
#
# Elastic Constant Matrix: (Units=GPa)
#
#
# Indices 1 2 3 4 5 6 
#
# 1 10.5117 1.9224 13.7273 0.0000 30.2670 0.0000
# 2 1.9224 43.6704 22.4478 0.0001 13.6481 0.0001
# 3 13.7273 22.4478 75.3926 0.0001 35.2570 0.0000
# 4 0.0000 0.0001 0.0001 14.9778 0.0000 -0.4153
# 5 30.2670 13.6481 35.2570 0.0000 36.5642 0.0000
# 6 0.0000 0.0001 0.0000 -0.4153 0.0000 23.4177
#
#
#
# Elastic Compliance Matrix: (Units=1/GPa)
#
#
# Indices 1 2 3 4 5 6 
#
# 1 -0.047013 -0.007610 -0.015848 0.000000 0.057038 0.000000
# 2 -0.007610 0.026171 -0.008713 0.000000 0.004933 0.000000
# 3 -0.015848 -0.008713 0.020194 0.000000 -0.003102 0.000000
# 4 0.000000 0.000000 0.000000 0.066798 0.000000 0.001185
# 5 0.057038 0.004933 -0.003102 0.000000 -0.018716 0.000000
# 6 0.000000 0.000000 0.000000 0.001185 0.000000 0.042724
#
#
# Mechanical properties :
#
#
# Convention : Reuss Voigt Hill
#
# Bulk Modulus (GPa) = -15.38711 22.86328 3.73808
# Shear Modulus (GPa) = 37.63986 21.09044 29.36515
#
# Velocity S-wave (km/s) = 4.36996 3.27112 3.85984
# Velocity P-wave (km/s) = 4.20184 5.08592 4.66487
#
# Compressibility (1/GPa) = -0.06498946
#
# Stress axis : x y z
#
# Youngs Moduli (GPa) = -21.27085 38.20996 49.51917
#
# Poissons Ratio (x) = 0.29078 0.78476
# Poissons Ratio (y) = -0.16187 0.43148
# Poissons Ratio (z) = -0.33709 0.33294
#
# Static dielectric constant tensor:
#      x y z
#    x 1.737480 0.000000 0.074570 
#    y 0.000000 1.648290 0.000000 
#    z 0.074570 0.000000 1.731760 
# 
# From -- ./inp_files/274094.got.cif
#   From: 2010.05.17/outbox.ucp.g08.bks.cvg/sg12_138_cif.got.tgz:274094.got - 2010.06.11 11:47:21.
