data_PCOD9223903
_publ_section_title
;
Structure prediction by ZEFSAII (Michael W. Deem and Ramdas Pophale) SiO2 
 PCOD9223903
Probable space group: C 2/M
;
_chemical_formula_sum "Si O2"
_cell_formula_units_Z 32
_cell_length_a 24.000000
_cell_length_b 15.000000
_cell_length_c 18.000000
_cell_angle_alpha 90.000000
_cell_angle_beta 30.000000
_cell_angle_gamma 90.000000
_cell_volume 3240.000000
_symmetry_space_group_name_H-M "C 2/M"
_symmetry_group_IT_number 12
_symmetry_cell_setting 'monoclinic'
loop_
_space_group_symop_operation_xyz
x,y,z
-x,y,-z
-x,-y,-z
x,-y,z
1/2+x,1/2+y,z
1/2-x,1/2+y,-z
1/2-x,1/2-y,-z
1/2+x,1/2-y,z
loop_
_atom_site_type_symbol
_atom_site_label
_atom_site_fract_x
_atom_site_fract_y
_atom_site_fract_z
Si Si1 0.094774 0.599960 0.735749
Si Si2 0.647873 0.603495 0.543323
Si Si3 0.309610 0.396276 0.084448
Si Si4 0.465850 0.598106 0.625896
Si Si5 0.593078 0.898357 0.560154
Si Si6 0.078418 0.292778 0.335329
Si Si7 0.476133 0.293931 0.185324
Si Si8 0.663946 0.603304 0.771026
O O1 0.057654 0.500000 0.802848
O O2 0.220169 0.615685 0.621305
O O3 0.102966 0.597371 0.636951
O O4 0.022029 0.688328 0.832521
O O5 0.634545 0.500000 0.586345
O O6 0.573603 0.610194 0.554792
O O7 0.603821 0.674435 0.654523
O O8 0.307839 0.500000 0.062339
O O9 0.189355 0.350556 0.216910
O O10 0.343479 0.394933 0.132124
O O11 0.404625 0.338049 0.935234
O O12 0.500000 0.594331 0.500000
O O13 0.416712 0.500000 0.701531
O O14 0.396405 0.689293 0.712283
O O15 0.495318 0.835957 0.644563
O O16 0.711479 0.866066 0.393017
O O17 0.575281 0.000000 0.552418
O O18 0.000000 0.296446 0.500000
O O19 0.422837 0.339110 0.174147
O O20 0.652568 0.500000 0.759909
#
# Coordination Sequence:
#
# PCOD9223903 Si02
#       8
#     8   8   8   8   8   8   8   8
#     4  10  22  37  57  87 119 152 197 243 288 337
#     4  10  19  34  58  87 115 150 194 245 294 344
#     4  11  24  39  56  87 124 158 190 234 294 357
#     4   9  20  36  55  82 115 147 195 252 291 327
#     4  10  19  34  57  88 118 145 187 247 297 338
#     4  11  21  35  59  84 113 153 201 238 289 346
#     4  12  22  35  59  85 123 157 193 231 293 353
#     4  10  20  35  58  87 119 150 186 238 297 350
#
# _framework density 9.8765429999999999
#
# number of rings (size 3 to 8) (size 9 to 14) (size 15 to 20)
#    0.000    1.625    2.500    3.000    1.750    1.500 
#    0.000    3.125    0.000    4.500    0.000    0.000 
#    0.000    0.000    0.000    0.000    0.000    0.000 
#
# Total GULP energy -178642.277209 kJ/mol
# GULP energy per Si atom -5582.571163 kJ/mol
# Density = 0.985406 g / cm^3
# Si number density = 9.876543 Si / 1000 Ang^3
#
#
#
# Elastic Constant Matrix: (Units=GPa)
#
#
# Indices 1 2 3 4 5 6 
#
# 1 64.8274 27.3044 2.9971 0.0000 -5.6479 0.0000
# 2 27.3044 154.4237 46.3713 0.0000 -31.4200 0.0000
# 3 2.9971 46.3713 49.4722 0.0000 -24.0418 0.0000
# 4 0.0000 0.0000 0.0000 -29.0418 0.0000 -30.9863
# 5 -5.6479 -31.4200 -24.0418 0.0000 14.6340 0.0000
# 6 0.0000 0.0000 0.0000 -30.9863 0.0000 13.5710
#
#
#
# Elastic Compliance Matrix: (Units=1/GPa)
#
#
# Indices 1 2 3 4 5 6 
#
# 1 0.017539 -0.002473 0.009744 0.000000 0.017468 0.000000
# 2 -0.002473 0.012225 0.004875 0.000000 0.033301 0.000000
# 3 0.009744 0.004875 0.108958 0.000000 0.193232 0.000000
# 4 0.000000 0.000000 0.000000 -0.010021 0.000000 -0.022880
# 5 0.017468 0.033301 0.193232 0.000000 0.464033 0.000000
# 6 0.000000 0.000000 0.000000 -0.022880 0.000000 0.021445
#
#
# Mechanical properties :
#
#
# Convention : Reuss Voigt Hill
#
# Bulk Modulus (GPa) = 6.13446 46.89654 26.51550
# Shear Modulus (GPa) = 7.76127 12.63600 10.19863
#
# Velocity S-wave (km/s) = 1.98436 2.53197 2.27470
# Velocity P-wave (km/s) = 2.89181 5.68689 4.51128
#
# Compressibility (1/GPa) = 0.16301364
#
# Stress axis : x y z
#
# Youngs Moduli (GPa) = 57.01732 81.80017 9.17781
#
# Poissons Ratio (x) = 0.20229 -0.08943
# Poissons Ratio (y) = 0.14101 -0.04474
# Poissons Ratio (z) = -0.55560 -0.39874
#
# Static dielectric constant tensor:
#      x y z
#    x 1.675450 0.000000 0.011330 
#    y 0.000000 1.747070 0.000000 
#    z 0.011330 0.000000 1.709420 
# 
# From -- ./inp_files/290086.got.cif
#   From: 2010.05.17/outbox.ucp.g08.bks.cvg/sg12_146_cif.got.tgz:290086.got - 2010.06.11 11:47:21.
