data_PCOD9223598
_publ_section_title
;
Structure prediction by ZEFSAII (Michael W. Deem and Ramdas Pophale) SiO2 
 PCOD9223598
Probable space group: C 2/M
;
_chemical_formula_sum "Si O2"
_cell_formula_units_Z 32
_cell_length_a 30.000000
_cell_length_b 9.000000
_cell_length_c 24.000000
_cell_angle_alpha 90.000000
_cell_angle_beta 150.000000
_cell_angle_gamma 90.000000
_cell_volume 3240.000000
_symmetry_space_group_name_H-M "C 2/M"
_symmetry_group_IT_number 12
_symmetry_cell_setting 'monoclinic'
loop_
_space_group_symop_operation_xyz
x,y,z
-x,y,-z
-x,-y,-z
x,-y,z
1/2+x,1/2+y,z
1/2-x,1/2+y,-z
1/2-x,1/2-y,-z
1/2+x,1/2-y,z
loop_
_atom_site_type_symbol
_atom_site_label
_atom_site_fract_x
_atom_site_fract_y
_atom_site_fract_z
Si Si1 0.878684 0.181861 0.984176
Si Si2 0.829568 0.821510 0.053106
Si Si3 0.858017 0.170108 0.575801
Si Si4 0.752246 0.319741 0.249208
Si Si5 0.038739 0.169815 0.708349
Si Si6 0.068123 0.322115 0.621801
Si Si7 0.748016 0.668820 0.368073
Si Si8 0.433394 0.672036 0.773197
O O1 0.829111 0.223879 0.988003
O O2 0.978057 0.236390 0.104232
O O3 0.878202 0.000000 0.980566
O O4 0.833382 0.233607 0.878191
O O5 0.913378 0.778662 0.182654
O O6 0.824870 0.000000 0.047590
O O7 0.750000 0.750000 0.000000
O O8 0.782538 0.256699 0.461680
O O9 0.896249 0.235415 0.674863
O O10 0.936137 0.169146 0.614537
O O11 0.829791 0.000000 0.556701
O O12 0.745345 0.500000 0.247818
O O13 0.834988 0.289921 0.298396
O O14 0.767405 0.262788 0.328424
O O15 0.055145 0.257739 0.669379
O O16 0.068172 0.000000 0.730396
O O17 0.057601 0.500000 0.614710
O O18 0.000000 0.268756 0.500000
O O19 0.783007 0.500000 0.406156
O O20 0.642246 0.667490 0.262269
O O21 0.456574 0.500000 0.782717
#
# Coordination Sequence:
#
# PCOD9223598 Si02
#       8
#     8   8   8   8   8   8   8   8
#     4   9  16  30  51  73 102 136 167 206 255 304
#     4  10  19  32  51  74 100 132 169 208 251 301
#     4  10  19  34  53  75 104 136 169 206 256 310
#     4   9  18  31  48  74 105 136 170 208 255 305
#     4  10  20  33  51  75 101 132 172 212 250 300
#     4  10  20  34  51  73 105 141 173 209 256 307
#     4  10  20  33  52  79 104 129 168 215 256 300
#     4   9  17  31  52  76 102 132 168 211 257 303
#
# _framework density 9.8765429999999999
#
# number of rings (size 3 to 8) (size 9 to 14) (size 15 to 20)
#    0.000    2.375    1.250    1.875    0.000    3.750 
#    0.000    3.125    0.000    1.500    0.000    0.875 
#    0.000    0.000    0.000    0.000    0.000    0.000 
#
# Total GULP energy -178139.081218 kJ/mol
# GULP energy per Si atom -5566.846288 kJ/mol
# Density = 0.985406 g / cm^3
# Si number density = 9.876543 Si / 1000 Ang^3
#
#
#
# Elastic Constant Matrix: (Units=GPa)
#
#
# Indices 1 2 3 4 5 6 
#
# 1 31.2025 4.7396 -3.0885 0.0000 -8.0954 0.0000
# 2 4.7396 -1.1635 10.0082 0.0000 0.2882 0.0000
# 3 -3.0885 10.0082 85.3780 0.0000 -10.3922 0.0000
# 4 0.0000 0.0000 0.0000 10.1820 0.0000 -6.9176
# 5 -8.0954 0.2882 -10.3922 0.0000 25.0771 0.0000
# 6 0.0000 0.0000 0.0000 -6.9176 0.0000 18.3879
#
#
#
# Elastic Compliance Matrix: (Units=1/GPa)
#
#
# Indices 1 2 3 4 5 6 
#
# 1 0.024304 0.056339 -0.005106 0.000000 0.005082 0.000000
# 2 0.056339 -0.280588 0.039529 0.000000 0.037793 0.000000
# 3 -0.005106 0.039529 0.006991 0.000000 0.000794 0.000000
# 4 0.000000 0.000000 0.000000 0.131934 0.000000 0.049634
# 5 0.005082 0.037793 0.000794 0.000000 0.041413 0.000000
# 6 0.000000 0.000000 0.000000 0.049634 0.000000 0.073056
#
#
# Mechanical properties :
#
#
# Convention : Reuss Voigt Hill
#
# Bulk Modulus (GPa) = -14.75573 15.41507 0.32967
# Shear Modulus (GPa) = -24.15413 17.64658 -3.25378
#
# Velocity S-wave (km/s) = -3.50065 2.99215 -1.28483
# Velocity P-wave (km/s) = 4.88116 4.44501 1.42612
#
# Compressibility (1/GPa) = -0.06777029
#
# Stress axis : x y z
#
# Youngs Moduli (GPa) = 41.14518 -3.56394 143.04321
#
# Poissons Ratio (x) = 0.20079 0.73043
# Poissons Ratio (y) = -2.31806 -5.65439
# Poissons Ratio (z) = 0.21010 0.14088
#
# Static dielectric constant tensor:
#      x y z
#    x 1.682350 0.000000 0.040490 
#    y 0.000000 1.732070 0.000000 
#    z 0.040490 0.000000 1.759080 
# 
# From -- ./inp_files/324945.got.cif
#   From: 2010.05.17/outbox.ucp.g08.bks.cvg/sg12_163_cif.got.tgz:324945.got - 2010.06.11 11:47:21.
