data_PCOD9223072
_publ_section_title
;
Structure prediction by ZEFSAII (Michael W. Deem and Ramdas Pophale) SiO2 
 PCOD9223072
Probable space group: C 2/M
;
_chemical_formula_sum "Si O2"
_cell_formula_units_Z 56
_cell_length_a 18.945937
_cell_length_b 11.407316
_cell_length_c 20.285706
_cell_angle_alpha 90.000000
_cell_angle_beta 151.591758
_cell_angle_gamma 90.000000
_cell_volume 2085.783186
_symmetry_space_group_name_H-M "C 2/M"
_symmetry_group_IT_number 12
_symmetry_cell_setting 'monoclinic'
loop_
_space_group_symop_operation_xyz
x,y,z
-x,y,-z
-x,-y,-z
x,-y,z
1/2+x,1/2+y,z
1/2-x,1/2+y,-z
1/2-x,1/2-y,-z
1/2+x,1/2-y,z
loop_
_atom_site_type_symbol
_atom_site_label
_atom_site_fract_x
_atom_site_fract_y
_atom_site_fract_z
Si Si1 0.637689 0.374764 0.163673
Si Si2 0.213655 0.126383 0.837053
Si Si3 0.955317 0.872870 0.721155
Si Si4 0.475178 0.868540 0.408713
Si Si5 0.783460 0.869415 0.957002
Si Si6 0.441626 0.867237 0.674094
Si Si7 0.132144 0.625167 0.164048
O O1 0.630914 0.500000 0.194018
O O2 0.796429 0.374110 0.258092
O O3 0.629304 0.251928 0.195576
O O4 0.500000 0.373353 0.000000
O O5 0.292712 0.243397 0.928452
O O6 0.279404 0.000000 0.913317
O O7 0.048517 0.125240 0.729392
O O8 0.226351 0.126698 0.768764
O O9 0.089688 0.869139 0.884073
O O10 0.871930 0.748363 0.650379
O O11 0.879388 0.000000 0.665480
O O12 0.500000 0.806480 0.500000
O O13 0.538078 0.843043 0.388004
O O14 0.536150 0.000000 0.468591
O O15 0.798423 0.000000 0.937310
O O16 0.612922 0.869361 0.840958
O O17 0.383824 0.000000 0.637096
O O18 0.128192 0.500000 0.196678
O O19 0.000000 0.623800 0.000000
#
# Coordination Sequence:
#
# PCOD9223072 Si02
#       7
#     8   8   8   8   8   8   8
#     4   9  16  26  42  61  77 100 141 186 218 247
#     4   9  15  22  33  48  69 100 133 162 197 246
#     4   9  16  24  35  54  79 104 130 166 214 260
#     4   9  17  28  41  59  85 116 148 182 220 258
#     4   9  16  24  35  54  78 102 131 169 212 257
#     4   9  15  23  37  53  71 103 141 168 196 245
#     4   9  17  27  38  55  80 109 140 175 216 256
#
# _framework density 26.848428999999999
#
# number of rings (size 3 to 8) (size 9 to 14) (size 15 to 20)
#    0.000    3.000    0.000    3.429    0.000    3.429 
#    0.000    0.000    0.000    1.714    0.000    0.000 
#    0.000    0.000    0.000   46.286    0.000  505.714 
#
# Total GULP energy -156014.029070 kJ/mol
# GULP energy per Si atom -5571.929610 kJ/mol
# Density = 2.678732 g / cm^3
# Si number density = 26.848429 Si / 1000 Ang^3
#
#
#
# Elastic Constant Matrix: (Units=GPa)
#
#
# Indices 1 2 3 4 5 6 
#
# 1 56.3386 18.3799 12.4252 -0.0006 -1.8202 -0.0005
# 2 18.3799 353.5891 27.9718 -0.0010 -25.0344 -0.0008
# 3 12.4252 27.9718 106.2934 -0.0013 -2.2717 -0.0009
# 4 -0.0006 -0.0010 -0.0013 -20.2294 -0.0010 -20.1463
# 5 -1.8202 -25.0344 -2.2717 -0.0010 34.3192 -0.0006
# 6 -0.0005 -0.0008 -0.0009 -20.1463 -0.0006 -1.5788
#
#
#
# Elastic Compliance Matrix: (Units=1/GPa)
#
#
# Indices 1 2 3 4 5 6 
#
# 1 0.018444 -0.000785 -0.001943 0.000000 0.000277 0.000000
# 2 -0.000785 0.003075 -0.000671 0.000000 0.002157 0.000000
# 3 -0.001943 -0.000671 0.009813 0.000000 0.000057 0.000000
# 4 0.000000 0.000000 0.000000 0.004222 -0.000001 -0.053877
# 5 0.000277 0.002157 0.000057 -0.000001 0.030730 -0.000001
# 6 0.000000 0.000000 0.000000 -0.053877 -0.000001 0.054099
#
#
# Mechanical properties :
#
#
# Convention : Reuss Voigt Hill
#
# Bulk Modulus (GPa) = 40.76428 70.41943 55.59186
# Shear Modulus (GPa) = 36.93876 32.99850 34.96863
#
# Velocity S-wave (km/s) = 3.71324 3.50961 3.61286
# Velocity P-wave (km/s) = 5.79657 6.53518 6.17693
#
# Compressibility (1/GPa) = 0.02453128
#
# Stress axis : x y z
#
# Youngs Moduli (GPa) = 54.21944 325.22735 101.90618
#
# Poissons Ratio (x) = 0.25543 0.19804
# Poissons Ratio (y) = 0.04258 0.06840
# Poissons Ratio (z) = 0.10537 0.21831
#
# Static dielectric constant tensor:
#      x y z
#    x 2.151260 0.000000 -0.027900 
#    y 0.000000 2.224500 0.000000 
#    z -0.027900 0.000000 2.105620 
# 
# From -- ./inp_files/370771.got.cif
#   From: 2010.05.17/outbox.cif.g08.bks.cpg/sg12_186_cif.got.tgz:370771.got - 2010.06.03 13:09:07.
