data_PCOD9223028
_publ_section_title
;
Structure prediction by ZEFSAII (Michael W. Deem and Ramdas Pophale) SiO2 
 PCOD9223028
Probable space group: C 2/M
;
_chemical_formula_sum "Si O2"
_cell_formula_units_Z 56
_cell_length_a 14.700516
_cell_length_b 7.419311
_cell_length_c 24.736895
_cell_angle_alpha 90.000000
_cell_angle_beta 88.410247
_cell_angle_gamma 90.000000
_cell_volume 2696.957766
_symmetry_space_group_name_H-M "C 2/M"
_symmetry_group_IT_number 12
_symmetry_cell_setting 'monoclinic'
loop_
_space_group_symop_operation_xyz
x,y,z
-x,y,-z
-x,-y,-z
x,-y,z
1/2+x,1/2+y,z
1/2-x,1/2+y,-z
1/2-x,1/2-y,-z
1/2+x,1/2-y,z
loop_
_atom_site_type_symbol
_atom_site_label
_atom_site_fract_x
_atom_site_fract_y
_atom_site_fract_z
Si Si1 0.381225 0.792408 0.451682
Si Si2 0.353709 0.785299 0.150552
Si Si3 0.000197 0.720371 0.061679
Si Si4 0.175031 0.281498 0.431591
Si Si5 0.981651 0.720292 0.641238
Si Si6 0.506591 0.779632 0.762862
Si Si7 0.359692 0.785191 0.851686
O O1 0.277781 0.785792 0.432144
O O2 0.375634 0.717606 0.512635
O O3 0.446730 0.715033 0.405030
O O4 0.410176 0.000000 0.457736
O O5 0.412077 0.721396 0.097884
O O6 0.405423 0.721124 0.203865
O O7 0.246956 0.750671 0.149424
O O8 0.364675 0.000000 0.150609
O O9 0.000040 0.500000 0.060249
O O10 0.088216 0.778282 0.095119
O O11 0.000000 0.782264 0.000000
O O12 0.179336 0.500000 0.434254
O O13 0.117303 0.230612 0.380275
O O14 0.985677 0.500000 0.642259
O O15 0.002334 0.782423 0.701297
O O16 0.418476 0.721948 0.799182
O O17 0.506878 0.000000 0.761332
O O18 0.369910 0.000000 0.851701
#
# Coordination Sequence:
#
# PCOD9223028 Si02
#       7
#     8   8   8   8   8   8   8
#     4   9  17  29  45  65  87 111 141 177 216 258
#     4   9  17  30  48  67  88 116 148 180 215 255
#     4   8  15  29  47  66  90 120 150 176 208 258
#     4   9  17  29  45  65  87 111 141 177 216 258
#     4   9  16  28  47  65  83 113 150 180 208 253
#     4   8  16  30  45  63  87 116 148 178 212 258
#     4   9  17  30  48  67  88 116 148 180 215 255
#
# _framework density 20.764136000000001
#
# number of rings (size 3 to 8) (size 9 to 14) (size 15 to 20)
#    0.000    3.286    0.000    2.143    0.000    3.429 
#    0.000    3.571    0.000    6.000    0.000    0.000 
#    0.000    0.000    0.000    0.000    0.000    0.000 
#
# Total GULP energy -156157.851703 kJ/mol
# GULP energy per Si atom -5577.066132 kJ/mol
# Density = 2.071688 g / cm^3
# Si number density = 20.764136 Si / 1000 Ang^3
#
#
#
# Elastic Constant Matrix: (Units=GPa)
#
#
# Indices 1 2 3 4 5 6 
#
# 1 145.9025 -4.3214 81.9151 0.0000 14.4141 0.0000
# 2 -4.3214 64.8568 5.5227 0.0000 0.3550 0.0000
# 3 81.9151 5.5227 141.7265 0.0000 21.6750 0.0000
# 4 0.0000 0.0000 0.0000 -1.3003 0.0000 2.4487
# 5 14.4141 0.3550 21.6750 0.0000 15.5410 0.0000
# 6 0.0000 0.0000 0.0000 2.4487 0.0000 22.5049
#
#
#
# Elastic Compliance Matrix: (Units=1/GPa)
#
#
# Indices 1 2 3 4 5 6 
#
# 1 0.010266 0.001182 -0.005745 0.000000 -0.001537 0.000000
# 2 0.001182 0.015611 -0.001359 0.000000 0.000443 0.000000
# 3 -0.005745 -0.001359 0.012215 0.000000 -0.011677 0.000000
# 4 0.000000 0.000000 0.000000 -0.638266 0.000000 0.069448
# 5 -0.001537 0.000443 -0.011677 0.000000 0.082047 0.000000
# 6 0.000000 0.000000 0.000000 0.069448 0.000000 0.036878
#
#
# Mechanical properties :
#
#
# Convention : Reuss Voigt Hill
#
# Bulk Modulus (GPa) = 38.09880 57.63540 47.86710
# Shear Modulus (GPa) = -10.85408 25.30707 7.22650
#
# Velocity S-wave (km/s) = -2.28881 3.49490 1.86757
# Velocity P-wave (km/s) = 3.37688 6.64103 5.26814
#
# Compressibility (1/GPa) = 0.02624755
#
# Stress axis : x y z
#
# Youngs Moduli (GPa) = 97.41009 64.05903 81.86765
#
# Poissons Ratio (x) = -0.07569 0.47029
# Poissons Ratio (y) = -0.11510 0.11125
# Poissons Ratio (z) = 0.55957 0.08705
#
# Static dielectric constant tensor:
#      x y z
#    x 1.728020 0.000000 0.002950 
#    y 0.000000 1.791610 0.000000 
#    z 0.002950 0.000000 1.726470 
# 
# From -- ./inp_files/334913.got.cif
#   From: 2010.05.17/outbox.cif.g08.bks.cpg/sg12_168_cif.got.tgz:334913.got - 2010.06.03 13:09:07.
