data_PCOD9223572
_publ_section_title
;
Structure prediction by ZEFSAII (Michael W. Deem and Ramdas Pophale) SiO2 
 PCOD9223572
Probable space group: C 2/M
;
_chemical_formula_sum "Si O2"
_cell_formula_units_Z 28
_cell_length_a 30.000000
_cell_length_b 9.000000
_cell_length_c 21.000000
_cell_angle_alpha 90.000000
_cell_angle_beta 150.000000
_cell_angle_gamma 90.000000
_cell_volume 2835.000000
_symmetry_space_group_name_H-M "C 2/M"
_symmetry_group_IT_number 12
_symmetry_cell_setting 'monoclinic'
loop_
_space_group_symop_operation_xyz
x,y,z
-x,y,-z
-x,-y,-z
x,-y,z
1/2+x,1/2+y,z
1/2-x,1/2+y,-z
1/2-x,1/2-y,-z
1/2+x,1/2-y,z
loop_
_atom_site_type_symbol
_atom_site_label
_atom_site_fract_x
_atom_site_fract_y
_atom_site_fract_z
Si Si1 0.903277 0.819071 0.857384
Si Si2 0.620435 0.327964 0.448919
Si Si3 0.441594 0.320992 0.764734
Si Si4 0.624466 0.823233 0.947832
Si Si5 0.279500 0.175615 0.317707
Si Si6 0.086675 0.173235 0.770396
Si Si7 0.680152 0.677377 0.758070
O O1 0.896272 0.775565 0.774686
O O2 0.822576 0.768460 0.802015
O O3 0.901982 0.000000 0.857861
O O4 0.000000 0.769288 0.000000
O O5 0.650585 0.500000 0.491485
O O6 0.614286 0.283886 0.367410
O O7 0.677963 0.219664 0.562622
O O8 0.519286 0.322185 0.350302
O O9 0.452400 0.500000 0.778323
O O10 0.539850 0.252585 0.877077
O O11 0.627227 0.766075 0.878536
O O12 0.612642 0.000000 0.934111
O O13 0.718434 0.786515 0.096305
O O14 0.333078 0.249979 0.326672
O O15 0.279149 0.000000 0.307850
O O16 0.117188 0.225019 0.738519
O O17 0.114811 0.000000 0.811713
O O18 0.671142 0.500000 0.740417
#
# Coordination Sequence:
#
# PCOD9223572 Si02
#       7
#     8   8   8   8   8   8   8
#     4   9  18  34  56  81 106 134 173 216 257 311
#     4   9  19  36  55  75 102 138 179 219 259 310
#     4   9  18  35  58  78 103 145 184 210 251 317
#     4  10  19  31  52  84 114 135 166 221 274 307
#     4  11  23  36  54  79 105 136 176 224 269 307
#     4   9  19  36  57  77 102 144 185 211 250 317
#     4  10  21  36  53  76 108 144 179 215 261 316
#
# _framework density 9.8765429999999999
#
# number of rings (size 3 to 8) (size 9 to 14) (size 15 to 20)
#    0.000    2.429    0.000    3.000    0.000    6.286 
#    0.000    4.286    0.000    3.857    0.000    0.000 
#    0.000    0.000    0.000    0.000    0.000    0.000 
#
# Total GULP energy -156256.089063 kJ/mol
# GULP energy per Si atom -5580.574609 kJ/mol
# Density = 0.985406 g / cm^3
# Si number density = 9.876543 Si / 1000 Ang^3
#
#
#
# Elastic Constant Matrix: (Units=GPa)
#
#
# Indices 1 2 3 4 5 6 
#
# 1 101.0007 -2.3741 2.0515 0.0000 -18.2789 0.0000
# 2 -2.3741 -4.6139 4.4529 0.0000 -1.2112 0.0000
# 3 2.0515 4.4529 24.7703 0.0000 -12.6550 0.0000
# 4 0.0000 0.0000 0.0000 25.4961 0.0000 -3.7547
# 5 -18.2789 -1.2112 -12.6550 0.0000 11.9634 0.0000
# 6 0.0000 0.0000 0.0000 -3.7547 0.0000 18.7913
#
#
#
# Elastic Compliance Matrix: (Units=1/GPa)
#
#
# Indices 1 2 3 4 5 6 
#
# 1 0.021326 0.002243 0.031755 0.000000 0.066401 0.000000
# 2 0.002243 -0.177692 0.052915 0.000000 0.041412 0.000000
# 3 0.031755 0.052915 0.121316 0.000000 0.182204 0.000000
# 4 0.000000 0.000000 0.000000 0.040411 0.000000 0.008074
# 5 0.066401 0.041412 0.182204 0.000000 0.381971 0.000000
# 6 0.000000 0.000000 0.000000 0.008074 0.000000 0.054830
#
#
# Mechanical properties :
#
#
# Convention : Reuss Voigt Hill
#
# Bulk Modulus (GPa) = 7.20590 14.37975 10.79283
# Shear Modulus (GPa) = 15.89346 19.05194 17.47270
#
# Velocity S-wave (km/s) = 2.83964 3.10902 2.97737
# Velocity P-wave (km/s) = 3.79569 4.49261 4.15877
#
# Compressibility (1/GPa) = 0.13877514
#
# Stress axis : x y z
#
# Youngs Moduli (GPa) = 46.89163 -5.62773 8.24295
#
# Poissons Ratio (x) = 0.01262 -0.26175
# Poissons Ratio (y) = -0.10519 -0.43618
# Poissons Ratio (z) = -1.48902 0.29779
#
# Static dielectric constant tensor:
#      x y z
#    x 1.686480 0.000000 -0.006790 
#    y 0.000000 1.660920 0.000000 
#    z -0.006790 0.000000 1.714670 
# 
# From -- ./inp_files/238266.got.cif
#   From: 2010.05.17/outbox.ucp.g08.bks.cvg/sg12_120_cif.got.tgz:238266.got - 2010.06.11 11:47:21.
