data_PCOD9223606
_publ_section_title
;
Structure prediction by ZEFSAII (Michael W. Deem and Ramdas Pophale) SiO2 
 PCOD9223606
Probable space group: C 2/M
;
_chemical_formula_sum "Si O2"
_cell_formula_units_Z 32
_cell_length_a 18.000000
_cell_length_b 9.000000
_cell_length_c 21.000000
_cell_angle_alpha 90.000000
_cell_angle_beta 90.000000
_cell_angle_gamma 90.000000
_cell_volume 3402.000000
_symmetry_space_group_name_H-M "C 2/M"
_symmetry_group_IT_number 12
_symmetry_cell_setting 'monoclinic'
loop_
_space_group_symop_operation_xyz
x,y,z
-x,y,-z
-x,-y,-z
x,-y,z
1/2+x,1/2+y,z
1/2-x,1/2+y,-z
1/2-x,1/2-y,-z
1/2+x,1/2-y,z
loop_
_atom_site_type_symbol
_atom_site_label
_atom_site_fract_x
_atom_site_fract_y
_atom_site_fract_z
Si Si1 0.716707 0.673438 0.938679
Si Si2 0.457837 0.318547 0.562079
Si Si3 0.216548 0.827640 0.681130
Si Si4 0.281574 0.170497 0.190334
Si Si5 0.461530 0.673621 0.061738
Si Si6 0.461684 0.326648 0.313877
Si Si7 0.287211 0.676921 0.560683
Si Si8 0.037064 0.332162 0.812090
O O1 0.735251 0.500000 0.935975
O O2 0.743040 0.755789 0.875159
O O3 0.627290 0.686578 0.942138
O O4 0.750000 0.750000 0.000000
O O5 0.500000 0.265653 0.500000
O O6 0.461412 0.500000 0.562171
O O7 0.499818 0.264249 0.624045
O O8 0.372744 0.276579 0.562155
O O9 0.242106 0.764798 0.748860
O O10 0.248537 0.731498 0.624454
O O11 0.127065 0.815564 0.679820
O O12 0.236025 0.000000 0.673399
O O13 0.372261 0.172576 0.189054
O O14 0.258169 0.000000 0.195645
O O15 0.479865 0.500000 0.065377
O O16 0.488315 0.749323 0.125468
O O17 0.500000 0.739859 0.000000
O O18 0.479411 0.500000 0.307760
O O19 0.488470 0.245694 0.251435
O O20 0.283397 0.500000 0.555452
O O21 0.250000 0.750000 0.500000
O O22 0.013166 0.500000 0.813821
#
# Coordination Sequence:
#
# PCOD9223606 Si02
#       8
#     8   8   8   8   8   8   8   8
#     4  10  19  32  51  75 103 135 173 215 258 304
#     4   9  18  34  55  77 100 131 172 210 244 290
#     4  10  19  33  55  80 104 131 166 209 255 303
#     4   9  17  31  51  75 103 134 170 210 253 304
#     4   9  18  33  52  73  98 132 173 211 248 299
#     4   9  17  32  55  77  98 130 170 208 246 296
#     4  11  22  36  55  78 105 136 170 209 252 299
#     4   9  17  29  48  75 104 131 162 206 256 302
#
# _framework density 9.4062319999999993
#
# number of rings (size 3 to 8) (size 9 to 14) (size 15 to 20)
#    0.000    2.500    0.000    2.625    0.000    6.250 
#    0.000    2.500    0.000    5.625    0.000    0.000 
#    0.000    0.000    0.000    0.000    0.000    0.000 
#
# Total GULP energy -178413.072721 kJ/mol
# GULP energy per Si atom -5575.408523 kJ/mol
# Density = 0.938482 g / cm^3
# Si number density = 9.406232 Si / 1000 Ang^3
#
#
#
# Elastic Constant Matrix: (Units=GPa)
#
#
# Indices 1 2 3 4 5 6 
#
# 1 -14.6675 44.4068 35.7575 0.0000 10.0971 0.0000
# 2 44.4068 53.8368 63.0904 0.0000 10.2805 0.0000
# 3 35.7575 63.0904 183.3252 0.0000 18.6292 0.0000
# 4 0.0000 0.0000 0.0000 42.0859 0.0000 4.0676
# 5 10.0971 10.2805 18.6292 0.0000 22.6538 0.0000
# 6 0.0000 0.0000 0.0000 4.0676 0.0000 13.7558
#
#
#
# Elastic Compliance Matrix: (Units=1/GPa)
#
#
# Indices 1 2 3 4 5 6 
#
# 1 -0.018501 0.018202 -0.002896 0.000000 0.002367 0.000000
# 2 0.018202 0.013936 -0.007506 0.000000 -0.008264 0.000000
# 3 -0.002896 -0.007506 0.008867 0.000000 -0.002594 0.000000
# 4 0.000000 0.000000 0.000000 0.024460 0.000000 -0.007233
# 5 0.002367 -0.008264 -0.002594 0.000000 0.048971 0.000000
# 6 0.000000 0.000000 0.000000 -0.007233 0.000000 0.074835
#
#
# Mechanical properties :
#
#
# Convention : Reuss Voigt Hill
#
# Bulk Modulus (GPa) = 50.25004 56.55598 53.40301
# Shear Modulus (GPa) = 34.81840 20.98174 27.90007
#
# Velocity S-wave (km/s) = 4.30678 3.34325 3.85523
# Velocity P-wave (km/s) = 7.17636 6.71054 6.94736
#
# Compressibility (1/GPa) = 0.01990048
#
# Stress axis : x y z
#
# Youngs Moduli (GPa) = -54.05182 71.75905 112.78336
#
# Poissons Ratio (x) = -1.30616 0.32664
# Poissons Ratio (y) = 0.98386 0.84659
# Poissons Ratio (z) = -0.15654 0.53865
#
# Static dielectric constant tensor:
#      x y z
#    x 1.649990 0.000000 -0.007840 
#    y 0.000000 1.626490 0.000000 
#    z -0.007840 0.000000 1.642140 
# 
# From -- ./inp_files/314058.got.cif
#   From: 2010.05.17/outbox.ucp.g08.bks.cvg/sg12_158_cif.got.tgz:314058.got - 2010.06.11 11:47:21.
