data_PCOD9223975
_publ_section_title
;
Structure prediction by ZEFSAII (Michael W. Deem and Ramdas Pophale) SiO2 
 PCOD9223975
Probable space group: C 2/M
;
_chemical_formula_sum "Si O2"
_cell_formula_units_Z 24
_cell_length_a 30.000000
_cell_length_b 9.000000
_cell_length_c 18.000000
_cell_angle_alpha 90.000000
_cell_angle_beta 150.000000
_cell_angle_gamma 90.000000
_cell_volume 2430.000000
_symmetry_space_group_name_H-M "C 2/M"
_symmetry_group_IT_number 12
_symmetry_cell_setting 'monoclinic'
loop_
_space_group_symop_operation_xyz
x,y,z
-x,y,-z
-x,-y,-z
x,-y,z
1/2+x,1/2+y,z
1/2-x,1/2+y,-z
1/2-x,1/2-y,-z
1/2+x,1/2-y,z
loop_
_atom_site_type_symbol
_atom_site_label
_atom_site_fract_x
_atom_site_fract_y
_atom_site_fract_z
Si Si1 0.949953 0.827986 0.189590
Si Si2 0.730750 0.825391 0.051340
Si Si3 0.962514 0.830472 0.527889
Si Si4 0.455715 0.322001 0.819064
Si Si5 0.637536 0.320202 0.172468
Si Si6 0.791601 0.325584 0.284980
O O1 0.969468 0.832057 0.305416
O O2 0.028066 0.782270 0.244099
O O3 0.925205 0.000000 0.133009
O O4 0.868307 0.716804 0.064591
O O5 0.787362 0.755850 0.199601
O O6 0.744664 0.000000 0.064928
O O7 0.750000 0.750000 0.000000
O O8 0.890969 0.711637 0.452012
O O9 0.000000 0.796159 0.500000
O O10 0.925767 0.000000 0.470774
O O11 0.443395 0.500000 0.800724
O O12 0.381215 0.264058 0.770238
O O13 0.549466 0.290246 0.996061
O O14 0.645277 0.500000 0.188145
O O15 0.721833 0.267995 0.246034
O O16 0.775765 0.500000 0.251471
#
# Coordination Sequence:
#
# PCOD9223975 Si02
#       6
#     8   8   8   8   8   8
#     4  10  19  35  58  81 108 145 190 231 273 329
#     4  12  24  37  56  82 112 141 180 232 280 329
#     4  10  22  38  54  75 109 151 188 228 282 337
#     4   8  13  26  51  81 109 139 180 224 270 326
#     4   8  14  26  50  82 110 138 177 225 271 326
#     4  11  21  36  58  83 111 144 186 229 275 329
#
# _framework density 9.8765429999999999
#
# number of rings (size 3 to 8) (size 9 to 14) (size 15 to 20)
#    0.000    2.167    1.667    4.000    0.000    2.333 
#    0.000    0.833    0.000    3.000    0.000    0.000 
#    0.000    0.000    0.000    0.000    0.000    0.000 
#
# Total GULP energy -133614.302141 kJ/mol
# GULP energy per Si atom -5567.262589 kJ/mol
# Density = 0.985406 g / cm^3
# Si number density = 9.876543 Si / 1000 Ang^3
#
#
#
# Elastic Constant Matrix: (Units=GPa)
#
#
# Indices 1 2 3 4 5 6 
#
# 1 137.3930 15.3625 5.8612 0.0000 -0.7894 0.0000
# 2 15.3625 47.8710 9.6932 0.0000 6.0461 0.0000
# 3 5.8612 9.6932 24.7601 0.0000 -1.1422 0.0000
# 4 0.0000 0.0000 0.0000 19.3873 0.0000 3.2021
# 5 -0.7894 6.0461 -1.1422 0.0000 23.9263 0.0000
# 6 0.0000 0.0000 0.0000 3.2021 0.0000 18.3714
#
#
#
# Elastic Compliance Matrix: (Units=1/GPa)
#
#
# Indices 1 2 3 4 5 6 
#
# 1 0.007583 -0.002367 -0.000831 0.000000 0.000809 0.000000
# 2 -0.002367 0.024374 -0.009290 0.000000 -0.006681 0.000000
# 3 -0.000831 -0.009290 0.044426 0.000000 0.004441 0.000000
# 4 0.000000 0.000000 0.000000 0.053109 0.000000 -0.009257
# 5 0.000809 -0.006681 0.004441 0.000000 0.043722 0.000000
# 6 0.000000 0.000000 0.000000 -0.009257 0.000000 0.056046
#
#
# Mechanical properties :
#
#
# Convention : Reuss Voigt Hill
#
# Bulk Modulus (GPa) = 19.45269 30.20642 24.82956
# Shear Modulus (GPa) = 18.42489 24.27749 21.35119
#
# Velocity S-wave (km/s) = 3.05743 3.50958 3.29128
# Velocity P-wave (km/s) = 4.72579 5.63454 5.20006
#
# Compressibility (1/GPa) = 0.05140678
#
# Stress axis : x y z
#
# Youngs Moduli (GPa) = 131.87045 41.02722 22.50933
#
# Poissons Ratio (x) = 0.09713 0.01870
# Poissons Ratio (y) = 0.31220 0.20911
# Poissons Ratio (z) = 0.10958 0.38114
#
# Static dielectric constant tensor:
#      x y z
#    x 1.721070 0.000000 0.020210 
#    y 0.000000 1.688870 0.000000 
#    z 0.020210 0.000000 1.787440 
# 
# From -- ./inp_files/244859.got.cif
#   From: 2010.05.17/outbox.ucp.g08.bks.cvg/sg12_123_cif.got.tgz:244859.got - 2010.06.11 11:47:21.
