data_PCOD9223691
_publ_section_title
;
Structure prediction by ZEFSAII (Michael W. Deem and Ramdas Pophale) SiO2 
 PCOD9223691
Probable space group: C 2/M
;
_chemical_formula_sum "Si O2"
_cell_formula_units_Z 28
_cell_length_a 30.000000
_cell_length_b 15.000000
_cell_length_c 9.000000
_cell_angle_alpha 90.000000
_cell_angle_beta 50.000000
_cell_angle_gamma 90.000000
_cell_volume 3102.479995
_symmetry_space_group_name_H-M "C 2/M"
_symmetry_group_IT_number 12
_symmetry_cell_setting 'monoclinic'
loop_
_space_group_symop_operation_xyz
x,y,z
-x,y,-z
-x,-y,-z
x,-y,z
1/2+x,1/2+y,z
1/2-x,1/2+y,-z
1/2-x,1/2-y,-z
1/2+x,1/2-y,z
loop_
_atom_site_type_symbol
_atom_site_label
_atom_site_fract_x
_atom_site_fract_y
_atom_site_fract_z
Si Si1 0.373161 0.285560 0.579238
Si Si2 0.204518 0.898285 0.700239
Si Si3 0.351401 0.203478 0.126633
Si Si4 0.839679 0.608489 0.473576
Si Si5 0.054160 0.769801 0.281430
Si Si6 0.263287 0.604136 0.718376
Si Si7 0.018739 0.107626 0.786436
O O1 0.365135 0.182905 0.535703
O O2 0.398172 0.292431 0.693470
O O3 0.311805 0.337379 0.698115
O O4 0.420824 0.339739 0.376867
O O5 0.167539 0.808553 0.813717
O O6 0.268958 0.888764 0.633985
O O7 0.216028 0.896460 0.498448
O O8 0.182040 0.000000 0.783823
O O9 0.355071 0.151693 0.277784
O O10 0.299421 0.152774 0.150086
O O11 0.411785 0.205428 0.906041
O O12 0.854855 0.500000 0.451149
O O13 0.000000 0.735845 0.500000
O O14 0.026784 0.848634 0.235486
O O15 0.259954 0.500000 0.773480
O O16 0.024314 0.000000 0.751937
O O17 0.000000 0.121321 0.000000
#
# Coordination Sequence:
#
# PCOD9223691 Si02
#       7
#     8   8   8   8   8   8   8
#     4  11  20  38  59  85 128 161 188 242 304 358
#     4   9  17  30  54  89 122 153 193 242 292 350
#     4  11  18  37  60  83 121 157 201 248 292 347
#     4  10  19  35  61  91 119 152 196 245 297 352
#     4  10  25  40  59  83 119 163 198 241 296 355
#     4  10  19  32  57  92 122 154 193 241 300 355
#     4  10  22  40  64  91 116 153 204 249 292 350
#
# _framework density 9.0250380000000003
#
# number of rings (size 3 to 8) (size 9 to 14) (size 15 to 20)
#    0.000    1.857    2.857    3.429    0.000    4.286 
#    0.000    1.429    0.000   19.714    0.000    0.000 
#    0.000    0.000    0.000    0.000    0.000    0.000 
#
# Total GULP energy -156080.261835 kJ/mol
# GULP energy per Si atom -5574.295066 kJ/mol
# Density = 0.900450 g / cm^3
# Si number density = 9.025038 Si / 1000 Ang^3
#
#
#
# Elastic Constant Matrix: (Units=GPa)
#
#
# Indices 1 2 3 4 5 6 
#
# 1 101.0378 37.8721 5.2065 0.0000 4.7887 0.0000
# 2 37.8721 152.9213 30.8220 0.0000 -4.5923 0.0000
# 3 5.2065 30.8220 64.6208 0.0000 -3.1713 0.0000
# 4 0.0000 0.0000 0.0000 21.0262 0.0000 -5.2396
# 5 4.7887 -4.5923 -3.1713 0.0000 23.9158 0.0000
# 6 0.0000 0.0000 0.0000 -5.2396 0.0000 31.5477
#
#
#
# Elastic Compliance Matrix: (Units=1/GPa)
#
#
# Indices 1 2 3 4 5 6 
#
# 1 0.011096 -0.002902 0.000356 0.000000 -0.002732 0.000000
# 2 -0.002902 0.008015 -0.003508 0.000000 0.001655 0.000000
# 3 0.000356 -0.003508 0.017195 0.000000 0.001535 0.000000
# 4 0.000000 0.000000 0.000000 0.049613 0.000000 0.008240
# 5 -0.002732 0.001655 0.001535 0.000000 0.042882 0.000000
# 6 0.000000 0.000000 0.000000 0.008240 0.000000 0.033067
#
#
# Mechanical properties :
#
#
# Convention : Reuss Voigt Hill
#
# Bulk Modulus (GPa) = 41.32520 51.82012 46.57266
# Shear Modulus (GPa) = 27.46653 31.60991 29.53822
#
# Velocity S-wave (km/s) = 3.90511 4.18932 4.04971
# Velocity P-wave (km/s) = 6.57857 7.22301 6.90831
#
# Compressibility (1/GPa) = 0.02419831
#
# Stress axis : x y z
#
# Youngs Moduli (GPa) = 90.12170 124.77132 58.15772
#
# Poissons Ratio (x) = 0.36206 -0.02070
# Poissons Ratio (y) = 0.26152 0.20400
# Poissons Ratio (z) = -0.03208 0.43766
#
# Static dielectric constant tensor:
#      x y z
#    x 1.648490 0.000000 -0.002080 
#    y 0.000000 1.623560 0.000000 
#    z -0.002080 0.000000 1.639790 
# 
# From -- ./inp_files/111565.got.cif
#   From: 2010.05.17/outbox.ucp.g08.bks.cvg/sg12_56_cif.got.tgz:111565.got - 2010.06.11 11:47:21.
