data_PCOD9223624
_publ_section_title
;
Structure prediction by ZEFSAII (Michael W. Deem and Ramdas Pophale) SiO2 
 PCOD9223624
Probable space group: C 2/M
;
_chemical_formula_sum "Si O2"
_cell_formula_units_Z 24
_cell_length_a 30.000000
_cell_length_b 9.000000
_cell_length_c 18.000000
_cell_angle_alpha 90.000000
_cell_angle_beta 30.000000
_cell_angle_gamma 90.000000
_cell_volume 2430.000000
_symmetry_space_group_name_H-M "C 2/M"
_symmetry_group_IT_number 12
_symmetry_cell_setting 'monoclinic'
loop_
_space_group_symop_operation_xyz
x,y,z
-x,y,-z
-x,-y,-z
x,-y,z
1/2+x,1/2+y,z
1/2-x,1/2+y,-z
1/2-x,1/2-y,-z
1/2+x,1/2-y,z
loop_
_atom_site_type_symbol
_atom_site_label
_atom_site_fract_x
_atom_site_fract_y
_atom_site_fract_z
Si Si1 0.596410 0.169144 0.903674
Si Si2 0.833868 0.322883 0.842443
Si Si3 0.812676 0.833605 0.352395
Si Si4 0.406164 0.170196 0.589110
Si Si5 0.990763 0.175963 0.343255
Si Si6 0.502048 0.331390 0.161833
O O1 0.669732 0.256674 0.751331
O O2 0.623145 0.000000 0.869126
O O3 0.500000 0.176099 0.000000
O O4 0.574681 0.236161 0.014596
O O5 0.836570 0.500000 0.846261
O O6 0.834360 0.289431 0.754045
O O7 0.920932 0.253811 0.753999
O O8 0.750000 0.250000 0.000000
O O9 0.750000 0.750000 0.500000
O O10 0.910757 0.836445 0.247643
O O11 0.779747 0.000000 0.389962
O O12 0.500000 0.178580 0.500000
O O13 0.412076 0.274787 0.510665
O O14 0.396609 0.000000 0.579204
O O15 0.978017 0.224544 0.277601
O O16 0.001167 0.000000 0.331609
O O17 0.535798 0.500000 0.118705
#
# Coordination Sequence:
#
# PCOD9223624 Si02
#       6
#     8   8   8   8   8   8
#     4   9  17  30  50  74  97 126 166 205 243 293
#     4  10  20  34  52  74 100 131 166 205 247 292
#     4  10  19  33  52  73 100 132 166 205 248 295
#     4   8  16  31  49  70  97 128 162 199 241 290
#     4  10  19  32  52  76 100 128 164 203 244 294
#     4   9  19  34  51  73 101 131 162 200 247 296
#
# _framework density 9.8765429999999999
#
# number of rings (size 3 to 8) (size 9 to 14) (size 15 to 20)
#    0.000    2.667    0.000    3.000    0.000    7.667 
#    0.000    1.667    0.000    4.000    0.000    0.000 
#    0.000    0.000    0.000    0.000    0.000    0.000 
#
# Total GULP energy -133684.608809 kJ/mol
# GULP energy per Si atom -5570.192034 kJ/mol
# Density = 0.985406 g / cm^3
# Si number density = 9.876543 Si / 1000 Ang^3
#
#
#
# Elastic Constant Matrix: (Units=GPa)
#
#
# Indices 1 2 3 4 5 6 
#
# 1 34.7360 33.8705 16.6843 0.0004 33.2824 -0.0002
# 2 33.8705 97.1988 87.1265 0.0011 45.2580 -0.0007
# 3 16.6843 87.1265 115.3811 0.0016 45.8257 -0.0006
# 4 0.0004 0.0011 0.0016 26.6248 -0.0005 12.7912
# 5 33.2824 45.2580 45.8257 -0.0005 29.3727 -0.0001
# 6 -0.0002 -0.0007 -0.0006 12.7912 -0.0001 11.7245
#
#
#
# Elastic Compliance Matrix: (Units=1/GPa)
#
#
# Indices 1 2 3 4 5 6 
#
# 1 -0.031167 -0.006084 -0.022737 0.000009 0.080164 -0.000011
# 2 -0.006084 0.045876 -0.022152 -0.000003 -0.029231 0.000005
# 3 -0.022737 -0.022152 0.012865 0.000003 0.039825 -0.000004
# 4 0.000009 -0.000003 0.000003 0.078928 -0.000009 -0.086110
# 5 0.080164 -0.029231 0.039825 -0.000009 -0.073881 0.000011
# 6 -0.000011 0.000005 -0.000004 -0.086110 0.000011 0.179236
#
#
# Mechanical properties :
#
#
# Convention : Reuss Voigt Hill
#
# Bulk Modulus (GPa) = -13.44564 58.07541 22.31488
# Shear Modulus (GPa) = 17.30022 20.85336 19.07679
#
# Velocity S-wave (km/s) = 2.96264 3.25268 3.11104
# Velocity P-wave (km/s) = 2.20938 6.60084 4.92201
#
# Compressibility (1/GPa) = -0.07437356
#
# Stress axis : x y z
#
# Youngs Moduli (GPa) = -32.08529 21.79798 77.72893
#
# Poissons Ratio (x) = 0.13263 1.76735
# Poissons Ratio (y) = -0.19522 1.72186
# Poissons Ratio (z) = -0.72953 0.48287
#
# Static dielectric constant tensor:
#      x y z
#    x 1.741680 0.000000 0.042910 
#    y 0.000000 1.676620 0.000000 
#    z 0.042910 0.000000 1.708250 
# 
# From -- ./inp_files/274576.got.cif
#   From: 2010.05.17/outbox.ucp.g08.bks.cvg/sg12_138_cif.got.tgz:274576.got - 2010.06.11 11:47:21.
