data_PCOD9223912
_publ_section_title
;
Structure prediction by ZEFSAII (Michael W. Deem and Ramdas Pophale) SiO2 
 PCOD9223912
Probable space group: C 2/M
;
_chemical_formula_sum "Si O2"
_cell_formula_units_Z 32
_cell_length_a 15.000000
_cell_length_b 9.000000
_cell_length_c 24.000000
_cell_angle_alpha 90.000000
_cell_angle_beta 90.000000
_cell_angle_gamma 90.000000
_cell_volume 3240.000000
_symmetry_space_group_name_H-M "C 2/M"
_symmetry_group_IT_number 12
_symmetry_cell_setting 'monoclinic'
loop_
_space_group_symop_operation_xyz
x,y,z
-x,y,-z
-x,-y,-z
x,-y,z
1/2+x,1/2+y,z
1/2-x,1/2+y,-z
1/2-x,1/2-y,-z
1/2+x,1/2-y,z
loop_
_atom_site_type_symbol
_atom_site_label
_atom_site_fract_x
_atom_site_fract_y
_atom_site_fract_z
Si Si1 0.195882 0.178840 0.873871
Si Si2 0.783498 0.176942 0.555950
Si Si3 0.375402 0.175658 0.362873
Si Si4 0.452193 0.179247 0.058524
Si Si5 0.373285 0.821381 0.731637
Si Si6 0.599201 0.179253 0.145416
Si Si7 0.950418 0.823262 0.620916
Si Si8 0.682184 0.822095 0.758231
O O1 0.300519 0.225206 0.872020
O O2 0.156322 0.246290 0.816339
O O3 0.140803 0.243463 0.925751
O O4 0.191721 0.000000 0.872759
O O5 0.750000 0.250000 0.500000
O O6 0.718818 0.209404 0.608343
O O7 0.882014 0.224535 0.573225
O O8 0.782766 0.000000 0.548581
O O9 0.450449 0.272469 0.391656
O O10 0.376606 0.204919 0.296652
O O11 0.392425 0.000000 0.370232
O O12 0.522901 0.232646 0.104702
O O13 0.440193 0.000000 0.061902
O O14 0.500000 0.211251 0.000000
O O15 0.420563 0.785340 0.790353
O O16 0.419783 0.754644 0.677935
O O17 0.276757 0.747939 0.740425
O O18 0.365800 0.000000 0.727019
O O19 0.599937 0.000000 0.141494
O O20 0.943855 0.000000 0.627820
O O21 0.688773 0.000000 0.765916
#
# Coordination Sequence:
#
# PCOD9223912 Si02
#       8
#     8   8   8   8   8   8   8   8
#     4  10  21  37  56  83 116 151 191 240 297 352
#     4  10  23  44  64  85 119 159 199 246 294 343
#     4  10  22  40  60  86 120 157 194 238 296 353
#     4  10  21  38  59  82 111 154 202 241 288 353
#     4  10  19  34  58  86 119 156 194 236 297 356
#     4   8  18  36  55  79 114 151 186 234 291 345
#     4  11  23  39  59  89 123 154 197 245 290 346
#     4  10  19  36  60  85 120 156 192 241 295 350
#
# _framework density 9.8765429999999999
#
# number of rings (size 3 to 8) (size 9 to 14) (size 15 to 20)
#    0.000    2.125    1.250    2.250    1.750    3.750 
#    0.000    5.625    0.000    0.000    0.000    0.000 
#    0.000    0.000    0.000    0.000    0.000    0.000 
#
# Total GULP energy -178569.367841 kJ/mol
# GULP energy per Si atom -5580.292745 kJ/mol
# Density = 0.985406 g / cm^3
# Si number density = 9.876543 Si / 1000 Ang^3
#
#
#
# Elastic Constant Matrix: (Units=GPa)
#
#
# Indices 1 2 3 4 5 6 
#
# 1 31.1656 10.9844 -12.3582 0.0000 19.1899 0.0000
# 2 10.9844 17.6265 -1.3161 0.0000 3.0086 0.0000
# 3 -12.3582 -1.3161 27.1505 0.0000 9.1717 0.0000
# 4 0.0000 0.0000 0.0000 31.1551 0.0000 -9.2040
# 5 19.1899 3.0086 9.1717 0.0000 22.8018 0.0000
# 6 0.0000 0.0000 0.0000 -9.2040 0.0000 27.0844
#
#
#
# Elastic Compliance Matrix: (Units=1/GPa)
#
#
# Indices 1 2 3 4 5 6 
#
# 1 -0.222260 0.082449 -0.181322 0.000000 0.249109 0.000000
# 2 0.082449 0.028386 0.073613 0.000000 -0.102744 0.000000
# 3 -0.181322 0.073613 -0.104617 0.000000 0.184968 0.000000
# 4 0.000000 0.000000 0.000000 0.035679 0.000000 0.012125
# 5 0.249109 -0.102744 0.184968 0.000000 -0.226637 0.000000
# 6 0.000000 0.000000 0.000000 0.012125 0.000000 0.041042
#
#
# Mechanical properties :
#
#
# Convention : Reuss Voigt Hill
#
# Bulk Modulus (GPa) = -2.86523 7.84030 2.48754
# Shear Modulus (GPa) = -9.72341 21.45041 5.86350
#
# Velocity S-wave (km/s) = -2.22107 3.29892 1.72477
# Velocity P-wave (km/s) = 2.83394 4.29979 2.28659
#
# Compressibility (1/GPa) = -0.34901189
#
# Stress axis : x y z
#
# Youngs Moduli (GPa) = -4.49924 35.22858 -9.55865
#
# Poissons Ratio (x) = -2.90456 -1.73319
# Poissons Ratio (y) = 0.37096 0.70364
# Poissons Ratio (z) = -0.81581 -2.59327
#
# Static dielectric constant tensor:
#      x y z
#    x 1.741280 0.000000 0.023000 
#    y 0.000000 1.655320 0.000000 
#    z 0.023000 0.000000 1.695190 
# 
# From -- ./inp_files/338774.got.cif
#   From: 2010.05.17/outbox.ucp.g08.bks.cvg/sg12_170_cif.got.tgz:338774.got - 2010.06.11 11:47:21.
