data_PCOD9223220
_publ_section_title
;
Structure prediction by ZEFSAII (Michael W. Deem and Ramdas Pophale) SiO2 
 PCOD9223220
Probable space group: C 2/M
;
_chemical_formula_sum "Si O2"
_cell_formula_units_Z 32
_cell_length_a 24.000000
_cell_length_b 9.000000
_cell_length_c 30.000000
_cell_angle_alpha 90.000000
_cell_angle_beta 30.000000
_cell_angle_gamma 90.000000
_cell_volume 3240.000000
_symmetry_space_group_name_H-M "C 2/M"
_symmetry_group_IT_number 12
_symmetry_cell_setting 'monoclinic'
loop_
_space_group_symop_operation_xyz
x,y,z
-x,y,-z
-x,-y,-z
x,-y,z
1/2+x,1/2+y,z
1/2-x,1/2+y,-z
1/2-x,1/2-y,-z
1/2+x,1/2-y,z
loop_
_atom_site_type_symbol
_atom_site_label
_atom_site_fract_x
_atom_site_fract_y
_atom_site_fract_z
Si Si1 0.301945 0.822168 0.508652
Si Si2 0.111960 0.329264 0.684290
Si Si3 0.256611 0.330551 0.252953
Si Si4 0.405336 0.678515 0.783153
Si Si5 0.180687 0.325861 0.972508
Si Si6 0.937099 0.320564 0.667559
Si Si7 0.129246 0.837137 0.922388
Si Si8 0.547270 0.170901 0.831264
O O1 0.250000 0.750000 0.500000
O O2 0.229947 0.750771 0.598001
O O3 0.432015 0.786818 0.424065
O O4 0.289098 0.000000 0.515968
O O5 0.119297 0.500000 0.663399
O O6 0.066556 0.327976 0.765548
O O7 0.023671 0.239165 0.716470
O O8 0.249404 0.500000 0.274258
O O9 0.132214 0.273347 0.328328
O O10 0.308417 0.330212 0.167448
O O11 0.345903 0.246127 0.220600
O O12 0.403995 0.500000 0.782305
O O13 0.308175 0.730755 0.884874
O O14 0.388594 0.745401 0.745646
O O15 0.186626 0.500000 0.979421
O O16 0.152100 0.294465 0.940684
O O17 0.074009 0.261381 0.072428
O O18 0.925160 0.500000 0.679619
O O19 0.155388 0.000000 0.925285
O O20 0.000000 0.835064 0.000000
O O21 0.545045 0.000000 0.848819
#
# Coordination Sequence:
#
# PCOD9223220 Si02
#       8
#     8   8   8   8   8   8   8   8
#     4  11  22  38  64  94 119 147 187 238 296 352
#     4  11  24  42  61  82 114 156 197 241 293 350
#     4  10  20  35  57  85 117 153 194 237 285 344
#     4  11  22  35  57  88 118 149 190 242 294 346
#     4  10  21  35  53  82 117 152 194 240 288 341
#     4  10  21  37  59  89 122 150 181 233 298 351
#     4  10  18  29  49  80 113 147 190 235 281 335
#     4  10  23  41  58  79 115 162 203 238 285 343
#
# _framework density 9.8765429999999999
#
# number of rings (size 3 to 8) (size 9 to 14) (size 15 to 20)
#    0.000    1.625    3.750    1.125    0.000    3.750 
#    0.000    0.625    0.000    3.750    0.000    0.000 
#    0.000    0.000    0.000    0.000    0.000    0.000 
#
# Total GULP energy -178367.218701 kJ/mol
# GULP energy per Si atom -5573.975584 kJ/mol
# Density = 0.985406 g / cm^3
# Si number density = 9.876543 Si / 1000 Ang^3
#
#
#
# Elastic Constant Matrix: (Units=GPa)
#
#
# Indices 1 2 3 4 5 6 
#
# 1 32.2239 14.7060 26.6996 0.0007 -14.8429 -0.0003
# 2 14.7060 30.8244 24.6404 0.0019 -10.4406 -0.0024
# 3 26.6996 24.6404 80.7070 -0.0021 -29.4997 0.0013
# 4 0.0007 0.0019 -0.0021 22.2050 -0.0001 -0.6680
# 5 -14.8429 -10.4406 -29.4997 -0.0001 27.6733 0.0004
# 6 -0.0003 -0.0024 0.0013 -0.6680 0.0004 19.5626
#
#
#
# Elastic Compliance Matrix: (Units=1/GPa)
#
#
# Indices 1 2 3 4 5 6 
#
# 1 0.049398 -0.013048 -0.007329 -0.000001 0.013760 -0.000001
# 2 -0.013048 0.046588 -0.009896 -0.000004 0.000029 0.000006
# 3 -0.007329 -0.009896 0.024633 0.000003 0.018594 -0.000003
# 4 -0.000001 -0.000004 0.000003 0.045081 0.000002 0.001539
# 5 0.013760 0.000029 0.018594 0.000002 0.063348 -0.000002
# 6 -0.000001 0.000006 -0.000003 0.001539 -0.000002 0.051171
#
#
# Mechanical properties :
#
#
# Convention : Reuss Voigt Hill
#
# Bulk Modulus (GPa) = 16.64677 30.64969 23.64823
# Shear Modulus (GPa) = 13.85853 19.06882 16.46368
#
# Velocity S-wave (km/s) = 2.65162 3.11039 2.89013
# Velocity P-wave (km/s) = 4.22144 5.33381 4.80989
#
# Compressibility (1/GPa) = 0.06007170
#
# Stress axis : x y z
#
# Youngs Moduli (GPa) = 20.24368 21.46498 40.59627
#
# Poissons Ratio (x) = 0.28008 0.29753
# Poissons Ratio (y) = 0.26414 0.40176
# Poissons Ratio (z) = 0.14836 0.21243
#
# Static dielectric constant tensor:
#      x y z
#    x 1.694220 0.000000 -0.033160 
#    y 0.000000 1.705830 0.000000 
#    z -0.033160 0.000000 1.765310 
# 
# From -- ./inp_files/382300.got.cif
#   From: 2010.05.17/outbox.ucp.g08.bks.cvg/sg12_192_cif.got.tgz:382300.got - 2010.06.11 11:47:21.
