data_PCOD9223768
_publ_section_title
;
Structure prediction by ZEFSAII (Michael W. Deem and Ramdas Pophale) SiO2 
 PCOD9223768
Probable space group: C 2/M
;
_chemical_formula_sum "Si O2"
_cell_formula_units_Z 28
_cell_length_a 21.000000
_cell_length_b 9.000000
_cell_length_c 15.000000
_cell_angle_alpha 90.000000
_cell_angle_beta 90.000000
_cell_angle_gamma 90.000000
_cell_volume 2835.000000
_symmetry_space_group_name_H-M "C 2/M"
_symmetry_group_IT_number 12
_symmetry_cell_setting 'monoclinic'
loop_
_space_group_symop_operation_xyz
x,y,z
-x,y,-z
-x,-y,-z
x,-y,z
1/2+x,1/2+y,z
1/2-x,1/2+y,-z
1/2-x,1/2-y,-z
1/2+x,1/2-y,z
loop_
_atom_site_type_symbol
_atom_site_label
_atom_site_fract_x
_atom_site_fract_y
_atom_site_fract_z
Si Si1 0.449749 0.324004 0.849081
Si Si2 0.654244 0.824159 0.692945
Si Si3 0.179235 0.319742 0.495088
Si Si4 0.580218 0.176707 0.863602
Si Si5 0.886804 0.329855 0.689783
Si Si6 0.739919 0.168923 0.188239
Si Si7 0.840676 0.320479 0.969597
O O1 0.440968 0.500000 0.853543
O O2 0.518894 0.274132 0.882253
O O3 0.435795 0.267046 0.747916
O O4 0.400183 0.241109 0.913436
O O5 0.648201 0.776556 0.590357
O O6 0.596381 0.798021 0.760046
O O7 0.712467 0.753909 0.747225
O O8 0.665470 0.000000 0.690303
O O9 0.185050 0.500000 0.489712
O O10 0.250000 0.250000 0.500000
O O11 0.138581 0.276122 0.407147
O O12 0.567473 0.000000 0.876664
O O13 0.639674 0.215883 0.928540
O O14 0.910786 0.500000 0.680029
O O15 0.824838 0.335938 0.753622
O O16 0.719422 0.232624 0.090913
O O17 0.763355 0.000000 0.176018
O O18 0.837704 0.500000 0.964255
#
# Coordination Sequence:
#
# PCOD9223768 Si02
#       7
#     8   8   8   8   8   8   8
#     4  11  22  35  55  82 106 131 175 231 270 302
#     4  10  21  34  52  80 110 139 177 218 258 308
#     4  10  19  33  55  82 109 138 175 216 259 310
#     4  10  21  38  55  73 105 148 181 211 258 318
#     4   9  18  34  55  78 106 142 177 211 261 320
#     4   9  17  31  51  77 106 139 176 213 259 312
#     4   9  19  36  57  77 103 142 181 212 257 321
#
# _framework density 9.8765429999999999
#
# number of rings (size 3 to 8) (size 9 to 14) (size 15 to 20)
#    0.000    2.286    1.429    2.571    0.000    6.286 
#    0.000    0.714    0.000    4.286    0.000    0.000 
#    0.000    0.000    0.000    0.000    0.000    0.000 
#
# Total GULP energy -156042.167460 kJ/mol
# GULP energy per Si atom -5572.934552 kJ/mol
# Density = 0.985406 g / cm^3
# Si number density = 9.876543 Si / 1000 Ang^3
#
#
#
# Elastic Constant Matrix: (Units=GPa)
#
#
# Indices 1 2 3 4 5 6 
#
# 1 36.9990 7.1090 -3.4630 0.0000 21.5243 0.0000
# 2 7.1090 -31.3625 -2.2489 0.0000 -9.9855 0.0000
# 3 -3.4630 -2.2489 137.3569 0.0000 18.3070 0.0000
# 4 0.0000 0.0000 0.0000 22.1389 0.0000 14.8909
# 5 21.5243 -9.9855 18.3070 0.0000 14.4766 0.0000
# 6 0.0000 0.0000 0.0000 14.8909 0.0000 17.8297
#
#
#
# Elastic Compliance Matrix: (Units=1/GPa)
#
#
# Indices 1 2 3 4 5 6 
#
# 1 0.080810 0.051018 0.017074 0.000000 -0.106552 0.000000
# 2 0.051018 0.006695 0.013098 0.000000 -0.087801 0.000000
# 3 0.017074 0.013098 0.012153 0.000000 -0.031720 0.000000
# 4 0.000000 0.000000 0.000000 0.103068 0.000000 -0.086080
# 5 -0.106552 -0.087801 -0.031720 0.000000 0.207053 0.000000
# 6 0.000000 0.000000 0.000000 -0.086080 0.000000 0.127978
#
#
# Mechanical properties :
#
#
# Convention : Reuss Voigt Hill
#
# Bulk Modulus (GPa) = 3.81623 16.19865 10.00744
# Shear Modulus (GPa) = 10.80559 20.32877 15.56718
#
# Velocity S-wave (km/s) = 2.34141 3.21151 2.81034
# Velocity P-wave (km/s) = 3.04069 4.68722 3.95069
#
# Compressibility (1/GPa) = 0.26203892
#
# Stress axis : x y z
#
# Youngs Moduli (GPa) = 12.37467 149.36305 82.28509
#
# Poissons Ratio (x) = -7.62025 -1.40493
# Poissons Ratio (y) = -0.63133 -1.07778
# Poissons Ratio (z) = -0.21128 -1.95637
#
# Static dielectric constant tensor:
#      x y z
#    x 1.719600 0.000000 -0.031440 
#    y 0.000000 1.682560 0.000000 
#    z -0.031440 0.000000 1.746090 
# 
# From -- ./inp_files/230923.got.cif
#   From: 2010.05.17/outbox.ucp.g08.bks.cvg/sg12_116_cif.got.tgz:230923.got - 2010.06.11 11:47:21.
