data_PCOD9223758
_publ_section_title
;
Structure prediction by ZEFSAII (Michael W. Deem and Ramdas Pophale) SiO2 
 PCOD9223758
Probable space group: C 2/M
;
_chemical_formula_sum "Si O2"
_cell_formula_units_Z 28
_cell_length_a 15.000000
_cell_length_b 9.000000
_cell_length_c 24.000000
_cell_angle_alpha 90.000000
_cell_angle_beta 120.000000
_cell_angle_gamma 90.000000
_cell_volume 2805.922308
_symmetry_space_group_name_H-M "C 2/M"
_symmetry_group_IT_number 12
_symmetry_cell_setting 'monoclinic'
loop_
_space_group_symop_operation_xyz
x,y,z
-x,y,-z
-x,-y,-z
x,-y,z
1/2+x,1/2+y,z
1/2-x,1/2+y,-z
1/2-x,1/2-y,-z
1/2+x,1/2-y,z
loop_
_atom_site_type_symbol
_atom_site_label
_atom_site_fract_x
_atom_site_fract_y
_atom_site_fract_z
Si Si1 0.461422 0.178514 0.651326
Si Si2 0.882044 0.821257 0.847402
Si Si3 0.185635 0.679435 0.716249
Si Si4 0.410943 0.325982 0.518730
Si Si5 0.671844 0.822988 0.054137
Si Si6 0.754206 0.820715 0.378322
Si Si7 0.392768 0.677716 0.081784
O O1 0.574834 0.226145 0.705777
O O2 0.438923 0.234932 0.581988
O O3 0.364794 0.226001 0.658082
O O4 0.459871 0.000000 0.649847
O O5 0.785004 0.767238 0.781303
O O6 0.874701 0.754904 0.906739
O O7 0.995187 0.783321 0.859512
O O8 0.875173 0.000000 0.848546
O O9 0.188883 0.500000 0.715372
O O10 0.190970 0.743192 0.655861
O O11 0.500000 0.312696 0.500000
O O12 0.402960 0.500000 0.531534
O O13 0.307758 0.280270 0.453600
O O14 0.794235 0.788634 0.089001
O O15 0.657537 0.000000 0.052341
O O16 0.624804 0.760573 0.982222
O O17 0.763383 0.000000 0.375830
O O18 0.390571 0.500000 0.070459
#
# Coordination Sequence:
#
# PCOD9223758 Si02
#       7
#     8   8   8   8   8   8   8
#     4  10  21  36  55  79 106 136 173 218 267 312
#     4  10  21  37  55  75 106 145 179 210 256 314
#     4  10  22  38  54  76 105 140 180 218 255 307
#     4  10  19  33  55  80 106 135 171 216 265 316
#     4  10  20  34  55  84 110 133 172 221 261 302
#     4  10  21  37  55  77 106 138 173 217 267 315
#     4   9  19  36  56  78 108 143 173 208 260 315
#
# _framework density 9.9788940000000004
#
# number of rings (size 3 to 8) (size 9 to 14) (size 15 to 20)
#    0.000    2.143    1.429    1.286    0.000    6.000 
#    0.000    0.000    0.000    0.000    0.000    0.000 
#    0.000    0.000    0.000    0.000    0.000    0.000 
#
# Total GULP energy -156267.606216 kJ/mol
# GULP energy per Si atom -5580.985936 kJ/mol
# Density = 0.995618 g / cm^3
# Si number density = 9.978894 Si / 1000 Ang^3
#
#
#
# Elastic Constant Matrix: (Units=GPa)
#
#
# Indices 1 2 3 4 5 6 
#
# 1 95.6622 10.2389 19.5430 0.0000 38.6705 0.0000
# 2 10.2389 -10.5519 -4.5338 0.0000 10.9996 0.0000
# 3 19.5430 -4.5338 16.7317 0.0000 28.4661 0.0000
# 4 0.0000 0.0000 0.0000 18.0184 0.0000 1.6179
# 5 38.6705 10.9996 28.4661 0.0000 37.6711 0.0000
# 6 0.0000 0.0000 0.0000 1.6179 0.0000 18.2626
#
#
#
# Elastic Compliance Matrix: (Units=1/GPa)
#
#
# Indices 1 2 3 4 5 6 
#
# 1 0.021950 -0.026387 0.026474 0.000000 -0.034833 0.000000
# 2 -0.026387 0.079876 -0.161270 0.000000 0.125628 0.000000
# 3 0.026474 -0.161270 0.170627 0.000000 -0.109022 0.000000
# 4 0.000000 0.000000 0.000000 0.055944 0.000000 -0.004956
# 5 -0.034833 0.125628 -0.109022 0.000000 0.108003 0.000000
# 6 0.000000 0.000000 0.000000 -0.004956 0.000000 0.055196
#
#
# Mechanical properties :
#
#
# Convention : Reuss Voigt Hill
#
# Bulk Modulus (GPa) = -20.03511 16.92646 -1.55432
# Shear Modulus (GPa) = 6.27098 19.89666 13.08382
#
# Velocity S-wave (km/s) = 1.77453 3.16086 2.56320
# Velocity P-wave (km/s) = 2.42115 4.67128 2.82480
#
# Compressibility (1/GPa) = -0.04991238
#
# Stress axis : x y z
#
# Youngs Moduli (GPa) = 45.55771 12.51946 5.86073
#
# Poissons Ratio (x) = 0.33035 -0.15516
# Poissons Ratio (y) = 1.20213 0.94516
# Poissons Ratio (z) = -1.20611 2.01901
#
# Static dielectric constant tensor:
#      x y z
#    x 1.751920 0.000000 0.069120 
#    y 0.000000 1.657800 0.000000 
#    z 0.069120 0.000000 1.681130 
# 
# From -- ./inp_files/308905.got.cif
#   From: 2010.05.17/outbox.ucp.g08.bks.cvg/sg12_155_cif.got.tgz:308905.got - 2010.06.11 11:47:21.
