data_PCOD9223852
_publ_section_title
;
Structure prediction by ZEFSAII (Michael W. Deem and Ramdas Pophale) SiO2 
 PCOD9223852
Probable space group: C 2/M
;
_chemical_formula_sum "Si O2"
_cell_formula_units_Z 32
_cell_length_a 21.000000
_cell_length_b 9.000000
_cell_length_c 24.000000
_cell_angle_alpha 90.000000
_cell_angle_beta 50.000000
_cell_angle_gamma 90.000000
_cell_volume 3474.777594
_symmetry_space_group_name_H-M "C 2/M"
_symmetry_group_IT_number 12
_symmetry_cell_setting 'monoclinic'
loop_
_space_group_symop_operation_xyz
x,y,z
-x,y,-z
-x,-y,-z
x,-y,z
1/2+x,1/2+y,z
1/2-x,1/2+y,-z
1/2-x,1/2-y,-z
1/2+x,1/2-y,z
loop_
_atom_site_type_symbol
_atom_site_label
_atom_site_fract_x
_atom_site_fract_y
_atom_site_fract_z
Si Si1 0.105831 0.320729 0.702735
Si Si2 0.055346 0.320905 0.134809
Si Si3 0.580017 0.831454 0.493404
Si Si4 0.978141 0.821261 0.075748
Si Si5 0.988274 0.681165 0.351001
Si Si6 0.785884 0.179645 0.195485
Si Si7 0.850811 0.319628 0.810310
Si Si8 0.221730 0.178662 0.342443
O O1 0.107046 0.500000 0.701784
O O2 0.031033 0.279595 0.785683
O O3 0.080252 0.274067 0.655717
O O4 0.194273 0.270517 0.673682
O O5 0.059425 0.500000 0.127020
O O6 0.044749 0.247759 0.080792
O O7 0.125306 0.272226 0.140333
O O8 0.500000 0.844667 0.500000
O O9 0.544035 0.766690 0.571278
O O10 0.646308 0.736583 0.422053
O O11 0.613060 0.000000 0.484710
O O12 0.882560 0.773131 0.142188
O O13 0.980457 0.000000 0.079694
O O14 0.000000 0.782603 0.000000
O O15 0.993140 0.500000 0.351900
O O16 0.076380 0.727880 0.274244
O O17 0.738042 0.220972 0.165294
O O18 0.732394 0.249524 0.275622
O O19 0.783856 0.000000 0.201592
O O20 0.855137 0.500000 0.809103
O O21 0.219614 0.000000 0.338975
#
# Coordination Sequence:
#
# PCOD9223852 Si02
#       8
#     8   8   8   8   8   8   8   8
#     4   8  15  28  47  71  96 125 159 204 257 303
#     4   9  16  32  56  78 101 131 172 212 251 303
#     4  10  20  33  49  69  95 132 176 216 253 302
#     4  10  21  35  52  77 110 142 167 203 257 310
#     4   8  14  27  47  69  95 126 165 210 254 295
#     4  10  19  34  55  77 101 133 178 215 248 307
#     4   8  15  29  54  80  97 127 175 222 254 287
#     4  11  21  32  49  73 102 131 165 213 268 309
#
# _framework density 9.2092220000000005
#
# number of rings (size 3 to 8) (size 9 to 14) (size 15 to 20)
#    0.000    2.750    1.250    2.625    0.000    3.000 
#    0.000    1.250    0.000    3.750    0.000    0.000 
#    0.000    0.000    0.000    0.000    0.000    0.000 
#
# Total GULP energy -178167.382704 kJ/mol
# GULP energy per Si atom -5567.730710 kJ/mol
# Density = 0.918826 g / cm^3
# Si number density = 9.209222 Si / 1000 Ang^3
#
#
#
# Elastic Constant Matrix: (Units=GPa)
#
#
# Indices 1 2 3 4 5 6 
#
# 1 107.0316 8.4387 15.0540 0.0001 25.1787 0.0000
# 2 8.4387 11.6196 6.2221 -0.0002 6.1823 -0.0001
# 3 15.0540 6.2221 40.6788 0.0002 34.8252 0.0001
# 4 0.0001 -0.0002 0.0002 -68.4802 -0.0001 33.4823
# 5 25.1787 6.1823 34.8252 -0.0001 29.2885 0.0000
# 6 0.0000 -0.0001 0.0001 33.4823 0.0000 3.3352
#
#
#
# Elastic Compliance Matrix: (Units=1/GPa)
#
#
# Indices 1 2 3 4 5 6 
#
# 1 0.003009 -0.006525 -0.051291 0.000000 0.059777 0.000000
# 2 -0.006525 0.097058 -0.017062 0.000000 0.005409 0.000001
# 3 -0.051291 -0.017062 -0.297815 0.000000 0.401809 0.000003
# 4 0.000000 0.000000 0.000000 -0.002472 0.000000 0.024812
# 5 0.059777 0.005409 0.401809 0.000000 -0.496154 -0.000004
# 6 0.000000 0.000001 0.000003 0.024812 -0.000004 0.050746
#
#
# Mechanical properties :
#
#
# Convention : Reuss Voigt Hill
#
# Bulk Modulus (GPa) = -2.87767 24.30661 10.71447
# Shear Modulus (GPa) = -8.17385 1.46972 -3.35206
#
# Velocity S-wave (km/s) = -2.10891 0.89426 -1.35052
# Velocity P-wave (km/s) = 2.73784 3.78045 1.84337
#
# Compressibility (1/GPa) = -0.34750334
#
# Stress axis : x y z
#
# Youngs Moduli (GPa) = 332.31519 10.30311 -3.35779
#
# Poissons Ratio (x) = 0.06723 -0.17222
# Poissons Ratio (y) = 2.16838 -0.05729
# Poissons Ratio (z) = 17.04478 0.17579
#
# Static dielectric constant tensor:
#      x y z
#    x 1.694290 0.000000 0.030840 
#    y 0.000000 1.625520 0.000000 
#    z 0.030840 0.000000 1.628690 
# 
# From -- ./inp_files/346014.got.cif
#   From: 2010.05.17/outbox.ucp.g08.bks.cvg/sg12_174_cif.got.tgz:346014.got - 2010.06.11 11:47:21.
