data_PCOD9223774
_publ_section_title
;
Structure prediction by ZEFSAII (Michael W. Deem and Ramdas Pophale) SiO2 
 PCOD9223774
Probable space group: C 2/M
;
_chemical_formula_sum "Si O2"
_cell_formula_units_Z 32
_cell_length_a 15.000000
_cell_length_b 9.000000
_cell_length_c 27.000000
_cell_angle_alpha 90.000000
_cell_angle_beta 110.000000
_cell_angle_gamma 90.000000
_cell_volume 3425.179603
_symmetry_space_group_name_H-M "C 2/M"
_symmetry_group_IT_number 12
_symmetry_cell_setting 'monoclinic'
loop_
_space_group_symop_operation_xyz
x,y,z
-x,y,-z
-x,-y,-z
x,-y,z
1/2+x,1/2+y,z
1/2-x,1/2+y,-z
1/2-x,1/2-y,-z
1/2+x,1/2-y,z
loop_
_atom_site_type_symbol
_atom_site_label
_atom_site_fract_x
_atom_site_fract_y
_atom_site_fract_z
Si Si1 0.431236 0.179381 0.050437
Si Si2 0.632253 0.319314 0.061688
Si Si3 0.463495 0.823221 0.255655
Si Si4 0.195105 0.829649 0.444136
Si Si5 0.168026 0.322201 0.332669
Si Si6 0.980878 0.170759 0.441071
Si Si7 0.349361 0.174479 0.335909
Si Si8 0.162550 0.679202 0.861170
O O1 0.536291 0.249923 0.066270
O O2 0.388646 0.210399 0.096357
O O3 0.434803 0.000000 0.044002
O O4 0.369613 0.253877 0.994670
O O5 0.626778 0.500000 0.058799
O O6 0.727309 0.274878 0.109930
O O7 0.569124 0.766481 0.289652
O O8 0.405985 0.807057 0.295683
O O9 0.400992 0.764209 0.197350
O O10 0.475664 0.000000 0.248377
O O11 0.250000 0.750000 0.500000
O O12 0.195159 0.745546 0.391630
O O13 0.084236 0.834533 0.436622
O O14 0.229813 0.000000 0.445763
O O15 0.162423 0.500000 0.336856
O O16 0.254398 0.270124 0.315248
O O17 0.912202 0.266266 0.393723
O O18 0.000000 0.229029 0.500000
O O19 0.943851 0.000000 0.438251
O O20 0.328530 0.000000 0.338766
O O21 0.166616 0.500000 0.856299
#
# Coordination Sequence:
#
# PCOD9223774 Si02
#       8
#     8   8   8   8   8   8   8   8
#     4  10  19  33  55  82 115 151 190 235 284 340
#     4  10  19  33  55  82 115 151 189 235 288 338
#     4   9  20  39  59  81 113 152 192 235 288 347
#     4  11  22  36  58  87 120 150 185 231 281 343
#     4  11  22  39  61  83 113 152 190 232 287 342
#     4  10  21  37  57  83 115 147 180 227 282 339
#     4  11  22  38  61  86 111 146 190 236 284 341
#     4   9  19  35  56  81 111 151 194 235 284 341
#
# _framework density 9.3425759999999993
#
# number of rings (size 3 to 8) (size 9 to 14) (size 15 to 20)
#    0.000    1.875    1.250    3.750    0.000    2.750 
#    0.000    1.875    0.000   10.500    0.000    0.000 
#    0.000    0.000    0.000    0.000    0.000    0.000 
#
# Total GULP energy -178526.681535 kJ/mol
# GULP energy per Si atom -5578.958798 kJ/mol
# Density = 0.932131 g / cm^3
# Si number density = 9.342576 Si / 1000 Ang^3
#
#
#
# Elastic Constant Matrix: (Units=GPa)
#
#
# Indices 1 2 3 4 5 6 
#
# 1 67.9813 20.3671 34.6226 0.0000 28.3432 0.0000
# 2 20.3671 71.7164 33.3909 0.0000 10.8115 0.0000
# 3 34.6226 33.3909 127.3396 0.0000 36.2893 0.0000
# 4 0.0000 0.0000 0.0000 23.5873 0.0000 2.7051
# 5 28.3432 10.8115 36.2893 0.0000 29.9596 0.0000
# 6 0.0000 0.0000 0.0000 2.7051 0.0000 18.5976
#
#
#
# Elastic Compliance Matrix: (Units=1/GPa)
#
#
# Indices 1 2 3 4 5 6 
#
# 1 0.025282 -0.004048 0.000897 0.000000 -0.023543 0.000000
# 2 -0.004048 0.016553 -0.004015 0.000000 0.002719 0.000000
# 3 0.000897 -0.004015 0.012967 0.000000 -0.015106 0.000000
# 4 0.000000 0.000000 0.000000 0.043115 0.000000 -0.006271
# 5 -0.023543 0.002719 -0.015106 0.000000 0.072968 0.000000
# 6 0.000000 0.000000 0.000000 -0.006271 0.000000 0.054683
#
#
# Mechanical properties :
#
#
# Convention : Reuss Voigt Hill
#
# Bulk Modulus (GPa) = 24.71001 49.31095 37.01048
# Shear Modulus (GPa) = 19.73251 26.33932 23.03592
#
# Velocity S-wave (km/s) = 3.25322 3.75859 3.51500
# Velocity P-wave (km/s) = 5.23110 6.72932 6.02694
#
# Compressibility (1/GPa) = 0.04046943
#
# Stress axis : x y z
#
# Youngs Moduli (GPa) = 39.55411 60.41272 77.11977
#
# Poissons Ratio (x) = 0.24457 -0.06918
# Poissons Ratio (y) = 0.16013 0.30962
# Poissons Ratio (z) = -0.03548 0.24254
#
# Static dielectric constant tensor:
#      x y z
#    x 1.697480 0.000000 -0.010360 
#    y 0.000000 1.650970 0.000000 
#    z -0.010360 0.000000 1.638030 
# 
# From -- ./inp_files/360006.got.cif
#   From: 2010.05.17/outbox.ucp.g08.bks.cvg/sg12_181_cif.got.tgz:360006.got - 2010.06.11 11:47:21.
