data_PCOD9223118
_publ_section_title
;
Structure prediction by ZEFSAII (Michael W. Deem and Ramdas Pophale) SiO2 
 PCOD9223118
Probable space group: C 2/M
;
_chemical_formula_sum "Si O2"
_cell_formula_units_Z 56
_cell_length_a 16.157636
_cell_length_b 24.615354
_cell_length_c 7.646669
_cell_angle_alpha 90.000000
_cell_angle_beta 61.754261
_cell_angle_gamma 90.000000
_cell_volume 2679.141143
_symmetry_space_group_name_H-M "C 2/M"
_symmetry_group_IT_number 12
_symmetry_cell_setting 'monoclinic'
loop_
_space_group_symop_operation_xyz
x,y,z
-x,y,-z
-x,-y,-z
x,-y,z
1/2+x,1/2+y,z
1/2-x,1/2+y,-z
1/2-x,1/2-y,-z
1/2+x,1/2-y,z
loop_
_atom_site_type_symbol
_atom_site_label
_atom_site_fract_x
_atom_site_fract_y
_atom_site_fract_z
Si Si1 0.793103 0.938711 0.913988
Si Si2 0.000000 0.937042 0.208603
Si Si3 0.102248 0.229829 0.604149
Si Si4 0.211434 0.668766 0.001137
Si Si5 0.293103 0.438711 0.499807
Si Si6 0.397752 0.729829 0.808645
Si Si7 0.788566 0.331234 0.424005
O O1 0.899454 0.915757 0.830283
O O2 0.720869 0.893407 0.052045
O O3 0.778290 0.943338 0.721710
O O4 0.788506 0.000000 0.993667
O O5 0.899454 0.915757 0.370810
O O6 0.000000 0.000000 0.270329
O O7 0.000000 0.935907 0.000000
O O8 0.099340 0.217880 0.400660
O O9 0.126132 0.293554 0.602286
O O10 0.192939 0.198391 0.584719
O O11 1.000000 0.216216 0.781537
O O12 0.307061 0.698391 0.970596
O O13 0.211140 0.669394 0.788860
O O14 0.126132 0.706446 0.145450
O O15 0.288506 0.500000 0.429322
O O16 0.220869 0.393407 0.506218
#
# Coordination Sequence:
#
# PCOD9223118 Si02
#       7
#     8   8   8   8   8   8   8
#     4   9  17  29  46  67  92 123 155 187 228 278
#     4   9  17  27  39  61  93 125 155 185 220 265
#     4   9  18  32  49  68  93 123 153 190 234 275
#     4   9  18  31  49  71  94 120 154 192 229 274
#     4   9  17  29  46  67  92 123 155 187 228 278
#     4   9  18  32  49  68  93 123 153 190 234 275
#     4   9  18  31  49  71  94 120 154 192 229 274
#
# _framework density 20.90222
#
# number of rings (size 3 to 8) (size 9 to 14) (size 15 to 20)
#    0.000    3.000    0.000    0.429    2.000    3.429 
#    0.000    0.000    0.000    0.857    0.000    6.000 
#    0.000    0.000    0.000    0.000    0.000    0.000 
#
# Total GULP energy -156052.616346 kJ/mol
# GULP energy per Si atom -5573.307727 kJ/mol
# Density = 2.085465 g / cm^3
# Si number density = 20.902220 Si / 1000 Ang^3
#
#
#
# Elastic Constant Matrix: (Units=GPa)
#
#
# Indices 1 2 3 4 5 6 
#
# 1 34.6352 -3.3124 6.4829 0.0000 -3.1417 0.0000
# 2 -3.3124 67.2164 -2.7768 0.0000 0.5953 0.0000
# 3 6.4829 -2.7768 34.9432 0.0000 3.4842 0.0000
# 4 0.0000 0.0000 0.0000 21.2666 0.0000 -11.1307
# 5 -3.1417 0.5953 3.4842 0.0000 20.0254 0.0000
# 6 0.0000 0.0000 0.0000 -11.1307 0.0000 31.2834
#
#
#
# Elastic Compliance Matrix: (Units=1/GPa)
#
#
# Indices 1 2 3 4 5 6 
#
# 1 0.030675 0.001205 -0.006179 0.000000 0.005852 0.000000
# 2 0.001205 0.014982 0.001010 0.000000 -0.000432 0.000000
# 3 -0.006179 0.001010 0.030473 0.000000 -0.006301 0.000000
# 4 0.000000 0.000000 0.000000 0.057782 0.000000 0.020559
# 5 0.005852 -0.000432 -0.006301 0.000000 0.051964 0.000000
# 6 0.000000 0.000000 0.000000 0.020559 0.000000 0.039281
#
#
# Mechanical properties :
#
#
# Convention : Reuss Voigt Hill
#
# Bulk Modulus (GPa) = 14.66235 15.28691 14.97463
# Shear Modulus (GPa) = 19.54506 23.60849 21.57677
#
# Velocity S-wave (km/s) = 3.06121 3.36441 3.21638
# Velocity P-wave (km/s) = 4.41867 4.73516 4.57965
#
# Compressibility (1/GPa) = 0.06820189
#
# Stress axis : x y z
#
# Youngs Moduli (GPa) = 32.59995 66.74566 32.81615
#
# Poissons Ratio (x) = -0.08040 0.20276
# Poissons Ratio (y) = -0.03927 -0.03315
# Poissons Ratio (z) = 0.20143 -0.06742
#
# Static dielectric constant tensor:
#      x y z
#    x 1.752000 0.000000 0.009320 
#    y 0.000000 1.833870 0.000000 
#    z 0.009320 0.000000 1.760390 
# 
# From -- ./inp_files/66835.got.cif
#   From: 2010.05.17/outbox.cif.g08.bks.cpg/sg12_34_cif.got.tgz:66835.got - 2010.06.03 13:09:07.
