data_PCOD9223227
_publ_section_title
;
Structure prediction by ZEFSAII (Michael W. Deem and Ramdas Pophale) SiO2 
 PCOD9223227
Probable space group: C 2/M
;
_chemical_formula_sum "Si O2"
_cell_formula_units_Z 28
_cell_length_a 18.000000
_cell_length_b 9.000000
_cell_length_c 27.000000
_cell_angle_alpha 90.000000
_cell_angle_beta 140.000000
_cell_angle_gamma 90.000000
_cell_volume 2811.553005
_symmetry_space_group_name_H-M "C 2/M"
_symmetry_group_IT_number 12
_symmetry_cell_setting 'monoclinic'
loop_
_space_group_symop_operation_xyz
x,y,z
-x,y,-z
-x,-y,-z
x,-y,z
1/2+x,1/2+y,z
1/2-x,1/2+y,-z
1/2-x,1/2-y,-z
1/2+x,1/2-y,z
loop_
_atom_site_type_symbol
_atom_site_label
_atom_site_fract_x
_atom_site_fract_y
_atom_site_fract_z
Si Si1 0.458703 0.678587 0.852883
Si Si2 0.320991 0.824782 0.426100
Si Si3 0.102999 0.326101 0.359999
Si Si4 0.920817 0.322195 0.181783
Si Si5 0.265832 0.329421 0.294451
Si Si6 0.190414 0.178497 0.017810
Si Si7 0.466629 0.329402 0.579557
O O1 0.444917 0.500000 0.845703
O O2 0.515428 0.733595 0.829866
O O3 0.333813 0.757016 0.790116
O O4 0.554533 0.720432 0.943958
O O5 0.207065 0.781389 0.398558
O O6 0.284366 0.766824 0.353354
O O7 0.423877 0.732556 0.504859
O O8 0.345396 0.000000 0.438303
O O9 0.133149 0.500000 0.368429
O O10 0.079320 0.287689 0.404396
O O11 0.991203 0.294630 0.268167
O O12 0.930430 0.500000 0.176741
O O13 0.783060 0.285277 0.108619
O O14 0.231667 0.500000 0.289219
O O15 0.396034 0.333584 0.341054
O O16 0.190683 0.000000 0.013252
O O17 0.250000 0.250000 0.000000
O O18 0.424502 0.500000 0.563731
#
# Coordination Sequence:
#
# PCOD9223227 Si02
#       7
#     8   8   8   8   8   8   8
#     4  10  18  29  51  81 111 141 179 226 270 321
#     4  12  24  39  61  85 110 139 180 231 277 328
#     4  11  22  37  59  84 113 147 184 225 271 326
#     4   9  17  31  52  77 110 146 179 219 269 325
#     4  11  23  39  58  80 110 147 185 226 276 329
#     4   8  15  27  45  75 109 140 175 218 268 317
#     4  11  25  42  58  78 109 147 186 229 276 327
#
# _framework density 9.9589090000000002
#
# number of rings (size 3 to 8) (size 9 to 14) (size 15 to 20)
#    0.000    1.714    1.429    3.857    0.000    5.143 
#    0.000    0.000    0.000    0.857    0.000    6.000 
#    0.000    0.000    0.000    0.000    0.000    0.000 
#
# Total GULP energy -156127.164666 kJ/mol
# GULP energy per Si atom -5575.970167 kJ/mol
# Density = 0.993624 g / cm^3
# Si number density = 9.958909 Si / 1000 Ang^3
#
#
#
# Elastic Constant Matrix: (Units=GPa)
#
#
# Indices 1 2 3 4 5 6 
#
# 1 14.6357 -5.6882 -1.8847 0.0000 -0.8803 0.0000
# 2 -5.6882 78.5508 20.4909 0.0000 6.1509 0.0000
# 3 -1.8847 20.4909 125.1613 0.0000 21.0861 0.0000
# 4 0.0000 0.0000 0.0000 35.7144 0.0000 6.4225
# 5 -0.8803 6.1509 21.0861 0.0000 21.9215 0.0000
# 6 0.0000 0.0000 0.0000 6.4225 0.0000 17.3479
#
#
#
# Elastic Compliance Matrix: (Units=1/GPa)
#
#
# Indices 1 2 3 4 5 6 
#
# 1 0.070348 0.004982 0.000004 0.000000 0.001423 0.000000
# 2 0.004982 0.013722 -0.001858 0.000000 -0.001863 0.000000
# 3 0.000004 -0.001858 0.009793 0.000000 -0.008898 0.000000
# 4 0.000000 0.000000 0.000000 0.029997 0.000000 -0.011105
# 5 0.001423 -0.001863 -0.008898 0.000000 0.054757 0.000000
# 6 0.000000 0.000000 0.000000 -0.011105 0.000000 0.061755
#
#
# Mechanical properties :
#
#
# Convention : Reuss Voigt Hill
#
# Bulk Modulus (GPa) = 9.98806 27.13152 18.55979
# Shear Modulus (GPa) = 18.69237 28.69209 23.69223
#
# Velocity S-wave (km/s) = 3.06678 3.79954 3.45265
# Velocity P-wave (km/s) = 4.19114 5.73585 5.02323
#
# Compressibility (1/GPa) = 0.10011953
#
# Stress axis : x y z
#
# Youngs Moduli (GPa) = 14.21496 72.87655 102.11391
#
# Poissons Ratio (x) = -0.36305 -0.00040
# Poissons Ratio (y) = -0.07082 0.18968
# Poissons Ratio (z) = -0.00006 0.13537
#
# Static dielectric constant tensor:
#      x y z
#    x 1.728280 0.000000 0.047260 
#    y 0.000000 1.660000 0.000000 
#    z 0.047260 0.000000 1.731160 
# 
# From -- ./inp_files/281037.got.cif
#   From: 2010.05.17/outbox.ucp.g08.bks.cvg/sg12_141_cif.got.tgz:281037.got - 2010.06.11 11:47:21.
