data_PCOD9223458
_publ_section_title
;
Structure prediction by ZEFSAII (Michael W. Deem and Ramdas Pophale) SiO2 
 PCOD9223458
Probable space group: C 2/M
;
_chemical_formula_sum "Si O2"
_cell_formula_units_Z 22
_cell_length_a 27.000000
_cell_length_b 12.000000
_cell_length_c 12.000000
_cell_angle_alpha 90.000000
_cell_angle_beta 140.000000
_cell_angle_gamma 90.000000
_cell_volume 2499.158226
_symmetry_space_group_name_H-M "C 2/M"
_symmetry_group_IT_number 12
_symmetry_cell_setting 'monoclinic'
loop_
_space_group_symop_operation_xyz
x,y,z
-x,y,-z
-x,-y,-z
x,-y,z
1/2+x,1/2+y,z
1/2-x,1/2+y,-z
1/2-x,1/2-y,-z
1/2+x,1/2-y,z
loop_
_atom_site_type_symbol
_atom_site_label
_atom_site_fract_x
_atom_site_fract_y
_atom_site_fract_z
Si Si1 0.143540 0.000000 0.486546
Si Si2 0.394856 0.318540 0.033865
Si Si3 0.022511 0.000000 0.672971
Si Si4 0.591651 0.500000 0.136651
Si Si5 0.499541 0.874937 0.866612
Si Si6 0.735510 0.194825 0.292195
Si Si7 0.676527 0.877995 0.416710
O O1 0.128977 0.000000 0.325704
O O2 0.196837 0.105549 0.612662
O O3 0.059641 0.000000 0.401275
O O4 0.426097 0.395382 0.189768
O O5 0.457093 0.222226 0.121114
O O6 0.391264 0.394826 0.914919
O O7 0.313261 0.251416 0.891267
O O8 0.000000 0.000000 0.500000
O O9 0.500000 0.500000 0.000000
O O10 0.409288 0.872672 0.684910
O O11 0.529716 0.000000 0.896275
O O12 0.500000 0.856140 0.000000
O O13 0.678068 0.140745 0.285747
O O14 0.774508 0.290861 0.431733
O O15 0.709294 0.000000 0.493076
#
# Coordination Sequence:
#
# PCOD9223458 Si02
#       7
#     4   8   4   4   8   8   8
#     4  12  23  39  58  90 124 154 190 244 295 368
#     4  11  22  36  60  88 120 154 201 241 288 356
#     4  11  27  48  68  82 103 150 212 269 303 342
#     4  11  20  32  56  90 123 167 200 233 279 345
#     4  10  19  30  50  81 127 166 187 214 271 355
#     4  11  22  30  52  84 119 155 189 228 292 337
#     4  10  19  30  44  76 130 163 185 212 264 354
#
# _framework density 8.8029639999999993
#
# number of rings (size 3 to 8) (size 9 to 14) (size 15 to 20)
#    0.000    1.273    4.545    3.818    3.818    0.000 
#    0.000    0.909    0.000    0.545    0.000    0.000 
#    0.000    0.000    0.000    0.000    0.000    0.000 
#
# Total GULP energy -122594.329840 kJ/mol
# GULP energy per Si atom -5572.469538 kJ/mol
# Density = 0.878293 g / cm^3
# Si number density = 8.802964 Si / 1000 Ang^3
#
#
#
# Elastic Constant Matrix: (Units=GPa)
#
#
# Indices 1 2 3 4 5 6 
#
# 1 35.1447 18.3495 35.3167 0.0000 -1.0753 0.0000
# 2 18.3495 113.4496 45.2117 0.0000 -0.5559 0.0000
# 3 35.3167 45.2117 113.6552 0.0000 0.8372 0.0000
# 4 0.0000 0.0000 0.0000 77.6212 0.0000 25.1975
# 5 -1.0753 -0.5559 0.8372 0.0000 30.2845 0.0000
# 6 0.0000 0.0000 0.0000 25.1975 0.0000 22.4363
#
#
#
# Elastic Compliance Matrix: (Units=1/GPa)
#
#
# Indices 1 2 3 4 5 6 
#
# 1 0.041804 -0.001867 -0.012261 0.000000 0.001789 0.000000
# 2 -0.001867 0.010561 -0.003623 0.000000 0.000228 0.000000
# 3 -0.012261 -0.003623 0.014056 0.000000 -0.000890 0.000000
# 4 0.000000 0.000000 0.000000 0.020275 0.000000 -0.022770
# 5 0.001789 0.000228 -0.000890 0.000000 0.033113 0.000000
# 6 0.000000 0.000000 0.000000 -0.022770 0.000000 0.070143
#
#
# Mechanical properties :
#
#
# Convention : Reuss Voigt Hill
#
# Bulk Modulus (GPa) = 32.34049 51.11170 41.72609
# Shear Modulus (GPa) = 21.20819 36.95985 29.08402
#
# Velocity S-wave (km/s) = 3.47451 4.58677 4.06882
# Velocity P-wave (km/s) = 5.87412 7.55944 6.76943
#
# Compressibility (1/GPa) = 0.03092099
#
# Stress axis : x y z
#
# Youngs Moduli (GPa) = 23.92133 94.68532 71.14357
#
# Poissons Ratio (x) = 0.17673 0.87226
# Poissons Ratio (y) = 0.04465 0.25775
# Poissons Ratio (z) = 0.29329 0.34304
#
# Static dielectric constant tensor:
#      x y z
#    x 1.588400 0.000000 0.052960 
#    y 0.000000 1.674080 0.000000 
#    z 0.052960 0.000000 1.631860 
# 
# From -- ./inp_files/182420.got.cif
#   From: 2010.05.17/outbox.ucp.g08.bks.cvg/sg12_92_cif.got.tgz:182420.got - 2010.06.11 11:47:21.
