data_PCOD9223500
_publ_section_title
;
Structure prediction by ZEFSAII (Michael W. Deem and Ramdas Pophale) SiO2 
 PCOD9223500
Probable space group: C 2/M
;
_chemical_formula_sum "Si O2"
_cell_formula_units_Z 32
_cell_length_a 24.000000
_cell_length_b 9.000000
_cell_length_c 18.000000
_cell_angle_alpha 90.000000
_cell_angle_beta 100.000000
_cell_angle_gamma 90.000000
_cell_volume 3828.932544
_symmetry_space_group_name_H-M "C 2/M"
_symmetry_group_IT_number 12
_symmetry_cell_setting 'monoclinic'
loop_
_space_group_symop_operation_xyz
x,y,z
-x,y,-z
-x,-y,-z
x,-y,z
1/2+x,1/2+y,z
1/2-x,1/2+y,-z
1/2-x,1/2-y,-z
1/2+x,1/2-y,z
loop_
_atom_site_type_symbol
_atom_site_label
_atom_site_fract_x
_atom_site_fract_y
_atom_site_fract_z
Si Si1 0.459066 0.323140 0.167391
Si Si2 0.121429 0.320645 0.969700
Si Si3 0.655947 0.680646 0.127939
Si Si4 0.122232 0.679375 0.733141
Si Si5 0.946669 0.320115 0.596100
Si Si6 0.084213 0.177349 0.253046
Si Si7 0.215587 0.320997 0.872673
Si Si8 0.073958 0.320578 0.572550
O O1 0.449765 0.500000 0.158244
O O2 0.430704 0.239511 0.091435
O O3 0.426990 0.259766 0.232283
O O4 0.525240 0.296306 0.195750
O O5 0.120593 0.500000 0.972213
O O6 0.178207 0.272749 0.935634
O O7 0.121398 0.251013 0.051516
O O8 0.652782 0.500000 0.123281
O O9 0.632762 0.722943 0.204662
O O10 0.720454 0.729896 0.125146
O O11 0.113912 0.500000 0.736517
O O12 0.178952 0.715902 0.791102
O O13 0.119021 0.721826 0.645989
O O14 0.943963 0.500000 0.601928
O O15 0.922386 0.252443 0.666997
O O16 0.917894 0.271357 0.510848
O O17 0.012519 0.280079 0.593374
O O18 0.089736 0.000000 0.266561
O O19 0.217922 0.500000 0.878674
O O20 0.072958 0.500000 0.567713
#
# Coordination Sequence:
#
# PCOD9223500 Si02
#       8
#     8   8   8   8   8   8   8   8
#     4  10  19  31  46  68  96 126 154 184 232 282
#     4  10  20  34  52  74  92 112 153 203 241 276
#     4  10  20  35  50  66  92 127 159 190 231 279
#     4   9  15  28  50  74  96 118 151 198 237 272
#     4   9  16  28  47  70  96 127 156 188 231 275
#     4  10  21  33  46  66  97 131 160 186 222 279
#     4   8  16  30  51  73  91 116 154 196 237 273
#     4   8  14  25  46  74  98 120 151 191 235 276
#
# _framework density 8.3574210000000004
#
# number of rings (size 3 to 8) (size 9 to 14) (size 15 to 20)
#    0.000    2.750    1.250    2.625    0.000    1.500 
#    0.000    6.875    0.000    0.750    0.000    0.000 
#    0.000    0.000    0.000    0.000    0.000    0.000 
#
# Total GULP energy -178152.673317 kJ/mol
# GULP energy per Si atom -5567.271041 kJ/mol
# Density = 0.833840 g / cm^3
# Si number density = 8.357421 Si / 1000 Ang^3
#
#
#
# Elastic Constant Matrix: (Units=GPa)
#
#
# Indices 1 2 3 4 5 6 
#
# 1 35.8618 12.0437 26.1714 0.0000 -9.7969 0.0000
# 2 12.0437 27.1307 24.0761 0.0000 -4.5188 0.0000
# 3 26.1714 24.0761 142.4637 0.0000 -19.3209 0.0000
# 4 0.0000 0.0000 0.0000 27.8940 0.0000 -4.8967
# 5 -9.7969 -4.5188 -19.3209 0.0000 21.4490 0.0000
# 6 0.0000 0.0000 0.0000 -4.8967 0.0000 16.0580
#
#
#
# Elastic Compliance Matrix: (Units=1/GPa)
#
#
# Indices 1 2 3 4 5 6 
#
# 1 0.037422 -0.011734 -0.003314 0.000000 0.011636 0.000000
# 2 -0.011734 0.047198 -0.005923 0.000000 -0.000751 0.000000
# 3 -0.003314 -0.005923 0.009403 0.000000 0.005709 0.000000
# 4 0.000000 0.000000 0.000000 0.037878 0.000000 0.011550
# 5 0.011636 -0.000751 0.005709 0.000000 0.056921 0.000000
# 6 0.000000 0.000000 0.000000 0.011550 0.000000 0.065797
#
#
# Mechanical properties :
#
#
# Convention : Reuss Voigt Hill
#
# Bulk Modulus (GPa) = 19.19987 36.67096 27.93541
# Shear Modulus (GPa) = 15.92760 22.62452 19.27606
#
# Velocity S-wave (km/s) = 3.09026 3.68307 3.39961
# Velocity P-wave (km/s) = 4.92388 6.33036 5.67089
#
# Compressibility (1/GPa) = 0.05208369
#
# Stress axis : x y z
#
# Youngs Moduli (GPa) = 26.72194 21.18732 106.34620
#
# Poissons Ratio (x) = 0.24860 0.35240
# Poissons Ratio (y) = 0.31355 0.62985
# Poissons Ratio (z) = 0.08855 0.12549
#
# Static dielectric constant tensor:
#      x y z
#    x 1.577600 0.000000 0.025490 
#    y 0.000000 1.558090 0.000000 
#    z 0.025490 0.000000 1.584360 
# 
# From -- ./inp_files/287771.got.cif
#   From: 2010.05.17/outbox.ucp.g08.bks.cvg/sg12_144_cif.got.tgz:287771.got - 2010.06.11 11:47:21.
