data_PCOD9223630
_publ_section_title
;
Structure prediction by ZEFSAII (Michael W. Deem and Ramdas Pophale) SiO2 
 PCOD9223630
Probable space group: C 2/M
;
_chemical_formula_sum "Si O2"
_cell_formula_units_Z 26
_cell_length_a 15.000000
_cell_length_b 21.000000
_cell_length_c 27.000000
_cell_angle_alpha 90.000000
_cell_angle_beta 20.000000
_cell_angle_gamma 90.000000
_cell_volume 2908.881319
_symmetry_space_group_name_H-M "C 2/M"
_symmetry_group_IT_number 12
_symmetry_cell_setting 'monoclinic'
loop_
_space_group_symop_operation_xyz
x,y,z
-x,y,-z
-x,-y,-z
x,-y,z
1/2+x,1/2+y,z
1/2-x,1/2+y,-z
1/2-x,1/2-y,-z
1/2+x,1/2-y,z
loop_
_atom_site_type_symbol
_atom_site_label
_atom_site_fract_x
_atom_site_fract_y
_atom_site_fract_z
Si Si1 0.249150 0.219284 0.428383
Si Si2 0.482055 0.573225 0.718483
Si Si3 0.645350 0.852499 0.530547
Si Si4 0.125135 0.714200 0.752486
Si Si5 0.500000 0.840505 0.000000
Si Si6 0.328073 0.574526 0.273432
Si Si7 0.244128 0.170444 0.033485
O O1 0.389539 0.176808 0.396749
O O2 0.252845 0.293639 0.441256
O O3 0.372941 0.211041 0.308973
O O4 0.936489 0.205123 0.597907
O O5 0.406220 0.500000 0.756481
O O6 0.629184 0.595041 0.592498
O O7 0.675005 0.581558 0.665181
O O8 0.235829 0.616403 0.857866
O O9 0.390867 0.884759 0.640107
O O10 0.934159 0.670779 0.886421
O O11 0.004647 0.781372 0.835174
O O12 0.400142 0.807420 0.001719
O O13 0.298324 0.500000 0.277656
O O14 0.612121 0.601883 0.110131
#
# Coordination Sequence:
#
# PCOD9223630 Si02
#       7
#     8   8   8   8   4   8   8
#     4  10  21  34  54  78 108 142 181 224 271 328
#     4  10  20  32  52  80 110 144 179 223 276 326
#     4  11  20  33  53  79 109 141 178 225 272 330
#     4  10  20  36  55  77 108 145 182 223 275 326
#     4  10  19  32  52  78 112 138 179 222 270 328
#     4  10  20  35  56  82 112 144 181 226 279 329
#     4  10  20  36  55  80 109 145 181 225 274 325
#
# _framework density 8.9381439999999994
#
# number of rings (size 3 to 8) (size 9 to 14) (size 15 to 20)
#    0.000    1.846    1.538    3.923    2.154    3.077 
#    0.000    0.000    0.000    2.769    0.000    6.462 
#    0.000    0.000    0.000    0.000    0.000    0.000 
#
# Total GULP energy -144791.438743 kJ/mol
# GULP energy per Si atom -5568.901490 kJ/mol
# Density = 0.891780 g / cm^3
# Si number density = 8.938144 Si / 1000 Ang^3
#
#
#
# Elastic Constant Matrix: (Units=GPa)
#
#
# Indices 1 2 3 4 5 6 
#
# 1 61.3642 28.4862 23.5105 0.3032 14.6117 -0.0859
# 2 28.4862 56.0405 16.7612 -0.0084 1.3719 0.0211
# 3 23.5105 16.7612 93.8718 0.0796 20.5023 0.0567
# 4 0.3032 -0.0084 0.0796 10.7545 -0.0953 -4.2363
# 5 14.6117 1.3719 20.5023 -0.0953 36.3377 0.0256
# 6 -0.0859 0.0211 0.0567 -4.2363 0.0256 27.3724
#
#
#
# Elastic Compliance Matrix: (Units=1/GPa)
#
#
# Indices 1 2 3 4 5 6 
#
# 1 0.024475 -0.011557 -0.002294 -0.000762 -0.008113 -0.000020
# 2 -0.011557 0.024366 -0.002590 0.000414 0.005190 0.000009
# 3 -0.002294 -0.002590 0.013079 -0.000107 -0.006359 -0.000043
# 4 -0.000762 0.000414 -0.000107 0.099049 0.000600 0.015326
# 5 -0.008113 0.005190 -0.006359 0.000600 0.034176 0.000045
# 6 -0.000020 0.000009 -0.000043 0.015326 0.000045 0.038905
#
#
# Mechanical properties :
#
#
# Convention : Reuss Voigt Hill
#
# Bulk Modulus (GPa) = 34.43588 38.75469 36.59529
# Shear Modulus (GPa) = 18.07589 24.39416 21.23503
#
# Velocity S-wave (km/s) = 3.18333 3.69807 3.45031
# Velocity P-wave (km/s) = 5.72859 6.32145 6.03231
#
# Compressibility (1/GPa) = 0.02903948
#
# Stress axis : x y z
#
# Youngs Moduli (GPa) = 40.85741 41.04017 76.45930
#
# Poissons Ratio (x) = 0.47429 0.17538
# Poissons Ratio (y) = 0.47217 0.19804
# Poissons Ratio (z) = 0.09372 0.10630
#
# Static dielectric constant tensor:
#      x y z
#    x 1.661940 0.000050 -0.036810 
#    y 0.000050 1.645640 -0.000080 
#    z -0.036810 -0.000080 1.633010 
# 
# From -- ./inp_files/362003.got.cif
#   From: 2010.05.17/outbox.ucp.g08.bks.cvg/sg12_182_cif.got.tgz:362003.got - 2010.06.11 11:47:21.
