data_PCOD9223456
_publ_section_title
;
Structure prediction by ZEFSAII (Michael W. Deem and Ramdas Pophale) SiO2 
 PCOD9223456
Probable space group: C 2/M
;
_chemical_formula_sum "Si O2"
_cell_formula_units_Z 32
_cell_length_a 30.000000
_cell_length_b 9.000000
_cell_length_c 30.000000
_cell_angle_alpha 90.000000
_cell_angle_beta 30.000000
_cell_angle_gamma 90.000000
_cell_volume 4050.000000
_symmetry_space_group_name_H-M "C 2/M"
_symmetry_group_IT_number 12
_symmetry_cell_setting 'monoclinic'
loop_
_space_group_symop_operation_xyz
x,y,z
-x,y,-z
-x,-y,-z
x,-y,z
1/2+x,1/2+y,z
1/2-x,1/2+y,-z
1/2-x,1/2-y,-z
1/2+x,1/2-y,z
loop_
_atom_site_type_symbol
_atom_site_label
_atom_site_fract_x
_atom_site_fract_y
_atom_site_fract_z
Si Si1 0.780374 0.322861 0.197146
Si Si2 0.402287 0.178346 0.537961
Si Si3 0.013227 0.178837 0.842900
Si Si4 0.297067 0.678811 0.280341
Si Si5 0.579493 0.321992 0.379406
Si Si6 0.853585 0.177270 0.048576
Si Si7 0.393563 0.829528 0.874025
Si Si8 0.771242 0.829798 0.912963
O O1 0.791322 0.500000 0.189781
O O2 0.797266 0.254319 0.231423
O O3 0.676268 0.293460 0.273840
O O4 0.843916 0.252642 0.104926
O O5 0.299589 0.211603 0.613272
O O6 0.488200 0.251079 0.439299
O O7 0.408434 0.247273 0.582355
O O8 0.413210 0.000000 0.529767
O O9 0.972920 0.254188 0.833473
O O10 0.114065 0.221164 0.769214
O O11 0.009929 0.000000 0.840140
O O12 0.943967 0.216187 0.943089
O O13 0.300121 0.500000 0.271341
O O14 0.568465 0.500000 0.393027
O O15 0.770681 0.234245 0.090511
O O16 0.850506 0.000000 0.055573
O O17 0.357127 0.740173 0.862827
O O18 0.414659 0.000000 0.844526
O O19 0.308587 0.831694 0.981284
O O20 0.787438 0.000000 0.885045
#
# Coordination Sequence:
#
# PCOD9223456 Si02
#       8
#     8   8   8   8   8   8   8   8
#     4  10  20  31  42  58  82 112 144 176 210 247
#     4   9  15  24  41  61  78  99 130 169 209 247
#     4   9  18  31  44  59  82 113 145 174 207 245
#     4   9  18  31  44  59  82 112 144 175 207 245
#     4   9  16  26  40  57  78 103 130 165 210 254
#     4  10  19  30  44  60  81 111 145 178 208 241
#     4   9  16  26  42  63  83 104 134 171 210 249
#     4   9  16  27  43  61  82 106 133 169 212 253
#
# _framework density 7.9012349999999998
#
# number of rings (size 3 to 8) (size 9 to 14) (size 15 to 20)
#    0.000    2.750    0.000    3.000    0.000    6.500 
#    0.000    2.500    0.000    0.000    0.000    0.000 
#    0.000    1.000    0.000    3.000    0.000    5.125 
#
# Total GULP energy -178152.441770 kJ/mol
# GULP energy per Si atom -5567.263805 kJ/mol
# Density = 0.788325 g / cm^3
# Si number density = 7.901235 Si / 1000 Ang^3
#
#
#
# Elastic Constant Matrix: (Units=GPa)
#
#
# Indices 1 2 3 4 5 6 
#
# 1 68.9597 23.3068 25.6915 0.0090 -36.1791 -0.0081
# 2 23.3068 59.2177 21.0835 0.0064 -17.9179 -0.0076
# 3 25.6915 21.0835 44.9880 0.0085 -30.5711 -0.0097
# 4 0.0090 0.0064 0.0085 19.5403 -0.0031 -3.2083
# 5 -36.1791 -17.9179 -30.5711 -0.0031 29.5232 0.0021
# 6 -0.0081 -0.0076 -0.0097 -3.2083 0.0021 22.6744
#
#
#
# Elastic Compliance Matrix: (Units=1/GPa)
#
#
# Indices 1 2 3 4 5 6 
#
# 1 0.071623 -0.005362 0.064259 -0.000030 0.151056 0.000033
# 2 -0.005362 0.021294 -0.008775 -0.000001 -0.002733 0.000002
# 3 0.064259 -0.008775 0.133412 -0.000043 0.211567 0.000052
# 4 -0.000030 -0.000001 -0.000043 0.052393 -0.000077 0.007413
# 5 0.151056 -0.002733 0.211567 -0.000077 0.436400 0.000093
# 6 0.000033 0.000002 0.000052 0.007413 0.000093 0.045152
#
#
# Mechanical properties :
#
#
# Convention : Reuss Voigt Hill
#
# Bulk Modulus (GPa) = 3.06209 34.81433 18.93821
# Shear Modulus (GPa) = 6.50290 21.21983 13.86136
#
# Velocity S-wave (km/s) = 2.03078 3.66842 2.96491
# Velocity P-wave (km/s) = 2.72776 6.32628 4.87148
#
# Compressibility (1/GPa) = 0.32657403
#
# Stress axis : x y z
#
# Youngs Moduli (GPa) = 13.96194 46.96096 7.49559
#
# Poissons Ratio (x) = 0.25179 -0.48166
# Poissons Ratio (y) = 0.07486 0.06577
# Poissons Ratio (z) = -0.89718 0.41207
#
# Static dielectric constant tensor:
#      x y z
#    x 1.517070 0.000000 -0.024870 
#    y 0.000000 1.531670 0.000000 
#    z -0.024870 0.000000 1.554730 
# 
# From -- ./inp_files/248490.got.cif
#   From: 2010.05.17/outbox.ucp.g08.bks.cvg/sg12_125_cif.got.tgz:248490.got - 2010.06.11 11:47:21.
