data_PCOD9223716
_publ_section_title
;
Structure prediction by ZEFSAII (Michael W. Deem and Ramdas Pophale) SiO2 
 PCOD9223716
Probable space group: C 2/M
;
_chemical_formula_sum "Si O2"
_cell_formula_units_Z 32
_cell_length_a 30.000000
_cell_length_b 12.000000
_cell_length_c 15.000000
_cell_angle_alpha 90.000000
_cell_angle_beta 140.000000
_cell_angle_gamma 90.000000
_cell_volume 3471.053092
_symmetry_space_group_name_H-M "C 2/M"
_symmetry_group_IT_number 12
_symmetry_cell_setting 'monoclinic'
loop_
_space_group_symop_operation_xyz
x,y,z
-x,y,-z
-x,-y,-z
x,-y,z
1/2+x,1/2+y,z
1/2-x,1/2+y,-z
1/2-x,1/2-y,-z
1/2+x,1/2-y,z
loop_
_atom_site_type_symbol
_atom_site_label
_atom_site_fract_x
_atom_site_fract_y
_atom_site_fract_z
Si Si1 0.322858 0.753751 0.228966
Si Si2 0.950343 0.129359 0.508455
Si Si3 0.671928 0.623268 0.410976
Si Si4 0.198228 0.712144 0.289968
Si Si5 0.320155 0.131450 0.039194
Si Si6 0.576117 0.869475 0.968098
Si Si7 0.944171 0.744822 0.674209
Si Si8 0.687490 0.874451 0.611966
O O1 0.375779 0.668732 0.357342
O O2 0.342342 0.802861 0.162357
O O3 0.322731 0.855515 0.298630
O O4 0.249486 0.691559 0.103387
O O5 0.973650 0.206880 0.626335
O O6 0.000000 0.141325 0.500000
O O7 0.948658 0.000000 0.532850
O O8 0.667305 0.500000 0.365572
O O9 0.742336 0.629066 0.579113
O O10 0.674862 0.717427 0.339953
O O11 0.602379 0.654369 0.357956
O O12 0.247992 0.794639 0.310921
O O13 0.131071 0.670648 0.130313
O O14 0.378124 0.137235 0.051741
O O15 0.306678 0.000000 0.037044
O O16 0.504078 0.803564 0.831933
O O17 0.559350 0.000000 0.960014
O O18 0.882511 0.659188 0.549481
O O19 0.705001 0.000000 0.616122
#
# Coordination Sequence:
#
# PCOD9223716 Si02
#       8
#     8   8   8   8   8   8   8   8
#     4  10  19  33  53  80 112 148 193 236 271 336
#     4  10  20  35  55  79 112 153 192 232 276 329
#     4  10  21  40  63  85 113 148 188 235 284 342
#     4  10  21  38  61  89 111 144 189 236 282 340
#     4  10  20  33  53  80 113 150 187 235 286 329
#     4  11  22  39  59  84 116 150 187 235 288 336
#     4  10  22  37  57  84 115 149 190 233 278 341
#     4  10  19  35  56  82 113 149 187 230 280 329
#
# _framework density 9.2191039999999997
#
# number of rings (size 3 to 8) (size 9 to 14) (size 15 to 20)
#    0.000    1.875    1.250    3.000    0.000    0.500 
#    0.000    5.625    0.000    6.000    0.000    0.000 
#    0.000    0.000    0.000    0.000    0.000    0.000 
#
# Total GULP energy -178277.688930 kJ/mol
# GULP energy per Si atom -5571.177779 kJ/mol
# Density = 0.919812 g / cm^3
# Si number density = 9.219104 Si / 1000 Ang^3
#
#
#
# Elastic Constant Matrix: (Units=GPa)
#
#
# Indices 1 2 3 4 5 6 
#
# 1 46.2664 12.2991 16.1651 0.0000 -2.0926 0.0000
# 2 12.2991 87.6020 33.4437 0.0000 5.2171 0.0000
# 3 16.1651 33.4437 144.7018 0.0000 4.8040 0.0000
# 4 0.0000 0.0000 0.0000 17.1966 0.0000 2.8151
# 5 -2.0926 5.2171 4.8040 0.0000 24.8814 0.0000
# 6 0.0000 0.0000 0.0000 2.8151 0.0000 -83.3577
#
#
#
# Elastic Compliance Matrix: (Units=1/GPa)
#
#
# Indices 1 2 3 4 5 6 
#
# 1 0.023171 -0.002633 -0.002076 0.000000 0.002902 0.000000
# 2 -0.002633 0.012927 -0.002613 0.000000 -0.002428 0.000000
# 3 -0.002076 -0.002613 0.007784 0.000000 -0.001130 0.000000
# 4 0.000000 0.000000 0.000000 0.057831 0.000000 0.001953
# 5 0.002902 -0.002428 -0.001130 0.000000 0.041162 0.000000
# 6 0.000000 0.000000 0.000000 0.001953 0.000000 -0.011931
#
#
# Mechanical properties :
#
#
# Convention : Reuss Voigt Hill
#
# Bulk Modulus (GPa) = 34.20332 44.70956 39.45644
# Shear Modulus (GPa) = 32.18849 6.18822 19.18835
#
# Velocity S-wave (km/s) = 4.18275 1.83398 3.22946
# Velocity P-wave (km/s) = 6.47439 5.36522 5.94573
#
# Compressibility (1/GPa) = 0.02923693
#
# Stress axis : x y z
#
# Youngs Moduli (GPa) = 43.15812 77.35694 128.46673
#
# Poissons Ratio (x) = 0.20370 0.26672
# Poissons Ratio (y) = 0.11365 0.33568
# Poissons Ratio (z) = 0.08960 0.20213
#
# Static dielectric constant tensor:
#      x y z
#    x 1.699160 0.000000 -0.014590 
#    y 0.000000 1.632120 0.000000 
#    z -0.014590 0.000000 1.606160 
# 
# From -- ./inp_files/250852.got.cif
#   From: 2010.05.17/outbox.ucp.g08.bks.cvg/sg12_126_cif.got.tgz:250852.got - 2010.06.11 11:47:21.
