data_PCOD9223623
_publ_section_title
;
Structure prediction by ZEFSAII (Michael W. Deem and Ramdas Pophale) SiO2 
 PCOD9223623
Probable space group: C 2/M
;
_chemical_formula_sum "Si O2"
_cell_formula_units_Z 32
_cell_length_a 18.000000
_cell_length_b 9.000000
_cell_length_c 21.000000
_cell_angle_alpha 90.000000
_cell_angle_beta 90.000000
_cell_angle_gamma 90.000000
_cell_volume 3402.000000
_symmetry_space_group_name_H-M "C 2/M"
_symmetry_group_IT_number 12
_symmetry_cell_setting 'monoclinic'
loop_
_space_group_symop_operation_xyz
x,y,z
-x,y,-z
-x,-y,-z
x,-y,z
1/2+x,1/2+y,z
1/2-x,1/2+y,-z
1/2-x,1/2-y,-z
1/2+x,1/2-y,z
loop_
_atom_site_type_symbol
_atom_site_label
_atom_site_fract_x
_atom_site_fract_y
_atom_site_fract_z
Si Si1 0.914923 0.174192 0.478721
Si Si2 0.411267 0.319488 0.109970
Si Si3 0.923520 0.819094 0.863238
Si Si4 0.346821 0.177117 0.362508
Si Si5 0.178488 0.179424 0.400437
Si Si6 0.342242 0.679775 0.739116
Si Si7 0.671898 0.679370 0.017475
Si Si8 0.316868 0.321130 0.232820
O O1 0.903313 0.268582 0.415568
O O2 0.861999 0.232227 0.535928
O O3 0.000000 0.179953 0.500000
O O4 0.896452 0.000000 0.466151
O O5 0.412719 0.500000 0.111987
O O6 0.494690 0.265441 0.119953
O O7 0.357467 0.273844 0.167735
O O8 0.382205 0.278997 0.040527
O O9 0.901920 0.777865 0.791780
O O10 0.862889 0.771173 0.915378
O O11 0.924398 0.000000 0.866083
O O12 0.264946 0.218813 0.390765
O O13 0.357844 0.259845 0.295658
O O14 0.347411 0.000000 0.352966
O O15 0.140988 0.224774 0.333486
O O16 0.174553 0.000000 0.403597
O O17 0.333602 0.500000 0.739491
O O18 0.264798 0.751199 0.761079
O O19 0.678706 0.500000 0.018873
O O20 0.750000 0.750000 0.000000
O O21 0.313263 0.500000 0.234609
#
# Coordination Sequence:
#
# PCOD9223623 Si02
#       8
#     8   8   8   8   8   8   8   8
#     4  10  20  33  51  76 103 130 163 205 251 297
#     4   9  18  31  49  75 103 131 167 210 251 293
#     4   9  17  30  51  76 101 133 170 205 245 295
#     4  10  20  35  54  73  98 132 168 206 245 294
#     4   8  16  31  50  72  97 127 163 202 243 288
#     4   9  17  31  51  73  98 129 165 203 243 294
#     4  10  19  32  52  76 102 133 170 211 250 293
#     4  10  19  32  52  75  99 128 164 208 252 294
#
# _framework density 9.4062319999999993
#
# number of rings (size 3 to 8) (size 9 to 14) (size 15 to 20)
#    0.000    2.625    0.000    3.000    0.000    2.750 
#    0.000    6.875    0.000    8.250    0.000    0.000 
#    0.000    0.000    0.000    0.000    0.000    0.000 
#
# Total GULP energy -178418.672586 kJ/mol
# GULP energy per Si atom -5575.583518 kJ/mol
# Density = 0.938482 g / cm^3
# Si number density = 9.406232 Si / 1000 Ang^3
#
#
#
# Elastic Constant Matrix: (Units=GPa)
#
#
# Indices 1 2 3 4 5 6 
#
# 1 16.6341 -1.5616 -14.1853 0.0000 22.3831 0.0000
# 2 -1.5616 14.8501 2.0191 0.0000 7.5899 0.0000
# 3 -14.1853 2.0191 42.8481 0.0000 23.5539 0.0000
# 4 0.0000 0.0000 0.0000 16.5555 0.0000 -4.3186
# 5 22.3831 7.5899 23.5539 0.0000 30.1937 0.0000
# 6 0.0000 0.0000 0.0000 -4.3186 0.0000 16.4407
#
#
#
# Elastic Compliance Matrix: (Units=1/GPa)
#
#
# Indices 1 2 3 4 5 6 
#
# 1 -0.018858 -0.018725 -0.027371 0.000000 0.040039 0.000000
# 2 -0.018725 0.062575 -0.014237 0.000000 0.009258 0.000000
# 3 -0.027371 -0.014237 0.003198 0.000000 0.021374 0.000000
# 4 0.000000 0.000000 0.000000 0.064846 0.000000 0.017034
# 5 0.040039 0.009258 0.021374 0.000000 -0.015563 0.000000
# 6 0.000000 0.000000 0.000000 0.017034 0.000000 0.065299
#
#
# Mechanical properties :
#
#
# Convention : Reuss Voigt Hill
#
# Bulk Modulus (GPa) = -13.55893 5.20852 -4.17521
# Shear Modulus (GPa) = 19.41153 18.50865 18.96009
#
# Velocity S-wave (km/s) = 3.21572 3.14004 3.17810
# Velocity P-wave (km/s) = 2.56217 3.99013 3.35305
#
# Compressibility (1/GPa) = -0.07375211
#
# Stress axis : x y z
#
# Youngs Moduli (GPa) = -53.02652 15.98094 312.66395
#
# Poissons Ratio (x) = 0.29925 8.55777
# Poissons Ratio (y) = -0.99294 4.45150
# Poissons Ratio (z) = -1.45136 0.22753
#
# Static dielectric constant tensor:
#      x y z
#    x 1.651660 0.000000 0.028160 
#    y 0.000000 1.633420 0.000000 
#    z 0.028160 0.000000 1.660750 
# 
# From -- ./inp_files/314016.got.cif
#   From: 2010.05.17/outbox.ucp.g08.bks.cvg/sg12_158_cif.got.tgz:314016.got - 2010.06.11 11:47:21.
