data_PCOD9223014
_publ_section_title
;
Structure prediction by ZEFSAII (Michael W. Deem and Ramdas Pophale) SiO2 
 PCOD9223014
Probable space group: C 2/M
;
_chemical_formula_sum "Si O2"
_cell_formula_units_Z 64
_cell_length_a 24.030439
_cell_length_b 8.324999
_cell_length_c 20.319395
_cell_angle_alpha 90.000000
_cell_angle_beta 142.291090
_cell_angle_gamma 90.000000
_cell_volume 2486.335329
_symmetry_space_group_name_H-M "C 2/M"
_symmetry_group_IT_number 12
_symmetry_cell_setting 'monoclinic'
loop_
_space_group_symop_operation_xyz
x,y,z
-x,y,-z
-x,-y,-z
x,-y,z
1/2+x,1/2+y,z
1/2-x,1/2+y,-z
1/2-x,1/2-y,-z
1/2+x,1/2-y,z
loop_
_atom_site_type_symbol
_atom_site_label
_atom_site_fract_x
_atom_site_fract_y
_atom_site_fract_z
Si Si1 0.892284 0.315891 0.364698
Si Si2 0.353232 0.179839 0.987566
Si Si3 0.465411 0.319438 0.891071
Si Si4 0.878717 0.307046 0.491374
Si Si5 0.021776 0.695464 0.279767
Si Si6 0.290882 0.176065 0.777451
Si Si7 0.156750 0.694495 0.825907
Si Si8 0.201535 0.691854 0.387551
O O1 0.922264 0.500000 0.383943
O O2 0.927261 0.252465 0.469067
O O3 0.784928 0.312145 0.285361
O O4 0.883088 0.245275 0.282530
O O5 0.330222 0.168440 0.888360
O O6 0.260275 0.249186 0.930744
O O7 0.368462 0.000000 0.027456
O O8 0.448928 0.271924 0.073832
O O9 0.434494 0.500000 0.848151
O O10 0.378015 0.203951 0.812670
O O11 0.500000 0.319535 0.000000
O O12 0.876641 0.500000 0.488645
O O13 0.934459 0.260048 0.608291
O O14 0.775822 0.246065 0.403940
O O15 0.021733 0.500000 0.276408
O O16 0.097802 0.753542 0.299034
O O17 0.916400 0.745922 0.187246
O O18 0.248739 0.000000 0.725308
O O19 0.157824 0.500000 0.823844
O O20 0.198576 0.500000 0.384447
O O21 0.250000 0.750000 0.500000
#
# Coordination Sequence:
#
# PCOD9223014 Si02
#       8
#     8   8   8   8   8   8   8   8
#     4   9  17  27  40  58  82 111 141 170 201 241
#     4   9  16  25  36  53  78 106 135 167 202 240
#     4   9  15  23  37  55  74 100 136 171 201 237
#     4   9  17  29  43  61  83 107 137 173 209 245
#     4   8  15  27  43  61  80 103 136 175 210 244
#     4   9  16  25  37  53  77 107 136 167 203 240
#     4   9  16  27  41  57  80 111 141 169 203 242
#     4   9  16  28  45  63  80 100 130 171 215 252
#
# _framework density 25.740693
#
# number of rings (size 3 to 8) (size 9 to 14) (size 15 to 20)
#    0.000    3.125    0.000    2.250    0.000    5.500 
#    0.000    5.625    0.000    0.000    0.000    7.000 
#    0.000    1.000    0.000    3.000    0.000    5.000 
#
# Total GULP energy -178651.345521 kJ/mol
# GULP energy per Si atom -5582.854548 kJ/mol
# Density = 2.568211 g / cm^3
# Si number density = 25.740693 Si / 1000 Ang^3
#
#
#
# Elastic Constant Matrix: (Units=GPa)
#
#
# Indices 1 2 3 4 5 6 
#
# 1 212.4166 15.4932 38.1528 0.0000 47.2945 0.0000
# 2 15.4932 59.0614 12.2453 0.0000 20.1191 0.0000
# 3 38.1528 12.2453 68.0865 0.0000 23.6853 0.0000
# 4 0.0000 0.0000 0.0000 22.2980 0.0000 7.3875
# 5 47.2945 20.1191 23.6853 0.0000 62.2304 0.0000
# 6 0.0000 0.0000 0.0000 7.3875 0.0000 21.2395
#
#
#
# Elastic Compliance Matrix: (Units=1/GPa)
#
#
# Indices 1 2 3 4 5 6 
#
# 1 0.005898 0.000154 -0.002024 0.000000 -0.003762 0.000000
# 2 0.000154 0.019161 -0.001541 0.000000 -0.005725 0.000000
# 3 -0.002024 -0.001541 0.017739 0.000000 -0.004715 0.000000
# 4 0.000000 0.000000 0.000000 0.050688 0.000000 -0.017630
# 5 -0.003762 -0.005725 -0.004715 0.000000 0.022574 0.000000
# 6 0.000000 0.000000 0.000000 -0.017630 0.000000 0.053214
#
#
# Mechanical properties :
#
#
# Convention : Reuss Voigt Hill
#
# Bulk Modulus (GPa) = 27.79642 52.37189 40.08416
# Shear Modulus (GPa) = 26.58353 39.39846 32.99099
#
# Velocity S-wave (km/s) = 3.21712 3.91652 3.58392
# Velocity P-wave (km/s) = 4.96204 6.39080 5.72120
#
# Compressibility (1/GPa) = 0.03597586
#
# Stress axis : x y z
#
# Youngs Moduli (GPa) = 169.56274 52.18960 56.37402
#
# Poissons Ratio (x) = -0.00803 0.11409
# Poissons Ratio (y) = -0.02610 0.08685
# Poissons Ratio (z) = 0.34318 0.08041
#
# Static dielectric constant tensor:
#      x y z
#    x 2.253000 0.000000 -0.132640 
#    y 0.000000 2.093680 0.000000 
#    z -0.132640 0.000000 2.153470 
# 
# From -- ./inp_files/244009.got.cif
#   From: 2010.05.17/outbox.cif.g08.bks.cpg/sg12_123_cif.got.tgz:244009.got - 2010.06.03 13:09:07.
