data_PCOD9223051
_publ_section_title
;
Structure prediction by ZEFSAII (Michael W. Deem and Ramdas Pophale) SiO2 
 PCOD9223051
Probable space group: C 2/M
;
_chemical_formula_sum "Si O2"
_cell_formula_units_Z 64
_cell_length_a 21.241725
_cell_length_b 24.290950
_cell_length_c 19.900718
_cell_angle_alpha 90.000000
_cell_angle_beta 159.532767
_cell_angle_gamma 90.000000
_cell_volume 3590.570422
_symmetry_space_group_name_H-M "C 2/M"
_symmetry_group_IT_number 12
_symmetry_cell_setting 'monoclinic'
loop_
_space_group_symop_operation_xyz
x,y,z
-x,y,-z
-x,-y,-z
x,-y,z
1/2+x,1/2+y,z
1/2-x,1/2+y,-z
1/2-x,1/2-y,-z
1/2+x,1/2-y,z
loop_
_atom_site_type_symbol
_atom_site_label
_atom_site_fract_x
_atom_site_fract_y
_atom_site_fract_z
Si Si1 0.785717 0.663754 0.059334
Si Si2 0.784255 0.771354 0.138047
Si Si3 0.719018 0.117226 0.719019
Si Si4 0.780067 0.745476 0.280068
Si Si5 0.720161 0.937441 0.860547
Si Si6 0.220174 0.562559 0.579791
Si Si7 0.285702 0.163755 0.512082
Si Si8 0.284262 0.728644 0.430470
O O1 0.715129 0.715749 0.032150
O O2 0.719529 0.606242 0.022903
O O3 0.000007 0.663446 0.283730
O O4 0.754656 0.678326 0.950664
O O5 0.719610 0.772812 0.149935
O O6 0.999997 0.766559 0.356537
O O7 0.500000 0.117383 0.500000
O O8 0.773491 0.181132 0.773489
O O9 0.775189 0.086322 0.842918
O O10 0.775195 0.086319 0.707473
O O11 0.719615 0.772816 0.289290
O O12 0.000000 0.746246 0.500000
O O13 0.499994 0.938329 0.640466
O O14 0.780174 0.000000 0.930333
O O15 0.280187 0.500000 0.630029
O O16 0.280488 0.606244 0.583870
O O17 0.215125 0.215753 0.398102
O O18 0.254638 0.178324 0.558627
#
# Coordination Sequence:
#
# PCOD9223051 Si02
#       8
#     8   8   8   8   8   8   8   8
#     4   9  16  26  39  58  83 107 131 163 199 235
#     4   9  16  26  41  58  79 106 135 164 198 237
#     4   9  13  20  33  55  85 110 134 162 192 229
#     4   9  14  23  39  58  80 107 134 164 199 234
#     4   9  15  22  35  57  84 111 136 163 196 233
#     4   9  15  22  35  57  84 111 136 163 196 233
#     4   9  16  26  39  58  83 107 131 163 199 235
#     4   9  16  26  41  58  79 106 135 164 198 237
#
# _framework density 17.824466000000001
#
# number of rings (size 3 to 8) (size 9 to 14) (size 15 to 20)
#    0.000    3.000    2.500    0.375    0.000    1.500 
#    0.000    0.625    0.000    0.750    0.000    1.750 
#    0.000    9.000    0.000    0.000    0.000    0.000 
#
# Total GULP energy -178424.372870 kJ/mol
# GULP energy per Si atom -5575.761652 kJ/mol
# Density = 1.778390 g / cm^3
# Si number density = 17.824466 Si / 1000 Ang^3
#
#
#
# Elastic Constant Matrix: (Units=GPa)
#
#
# Indices 1 2 3 4 5 6 
#
# 1 108.0032 81.4695 37.0669 0.0000 -46.1174 0.0000
# 2 81.4695 130.2784 30.6507 0.0000 -46.2868 0.0000
# 3 37.0669 30.6507 49.8673 -0.0007 -6.8207 -0.0004
# 4 0.0000 0.0000 -0.0007 8.3090 -0.0002 -7.3299
# 5 -46.1174 -46.2868 -6.8207 -0.0002 45.9521 -0.0001
# 6 0.0000 0.0000 -0.0004 -7.3299 -0.0001 16.3522
#
#
#
# Elastic Compliance Matrix: (Units=1/GPa)
#
#
# Indices 1 2 3 4 5 6 
#
# 1 0.026807 -0.007552 -0.012907 -0.000001 0.017380 -0.000001
# 2 -0.007552 0.016001 -0.003117 0.000000 0.008076 0.000000
# 3 -0.012907 -0.003117 0.029970 0.000005 -0.011644 0.000003
# 4 -0.000001 0.000000 0.000005 0.199071 0.000000 0.089234
# 5 0.017380 0.008076 -0.011644 0.000000 0.045611 0.000000
# 6 -0.000001 0.000000 0.000003 0.089234 0.000000 0.101154
#
#
# Mechanical properties :
#
#
# Convention : Reuss Voigt Hill
#
# Bulk Modulus (GPa) = 39.02182 65.16923 52.09552
# Shear Modulus (GPa) = 10.54169 23.38678 16.96424
#
# Velocity S-wave (km/s) = 2.43455 3.62617 3.08837
# Velocity P-wave (km/s) = 5.46283 7.36024 6.48134
#
# Compressibility (1/GPa) = 0.02562669
#
# Stress axis : x y z
#
# Youngs Moduli (GPa) = 37.30434 62.49605 33.36654
#
# Poissons Ratio (x) = 0.47195 0.43065
# Poissons Ratio (y) = 0.28171 0.10400
# Poissons Ratio (z) = 0.48148 0.19480
#
# Static dielectric constant tensor:
#      x y z
#    x 1.642770 0.000000 0.042660 
#    y 0.000000 1.586810 0.000000 
#    z 0.042660 0.000000 1.689600 
# 
# From -- ./inp_files/286216.got.cif
#   From: 2010.05.17/outbox.cif.g08.bks.cpg/sg12_144_cif.got.tgz:286216.got - 2010.06.03 13:09:07.
