data_PCOD9223775
_publ_section_title
;
Structure prediction by ZEFSAII (Michael W. Deem and Ramdas Pophale) SiO2 
 PCOD9223775
Probable space group: C 2/M
;
_chemical_formula_sum "Si O2"
_cell_formula_units_Z 32
_cell_length_a 30.000000
_cell_length_b 9.000000
_cell_length_c 15.000000
_cell_angle_alpha 90.000000
_cell_angle_beta 60.000000
_cell_angle_gamma 90.000000
_cell_volume 3507.402885
_symmetry_space_group_name_H-M "C 2/M"
_symmetry_group_IT_number 12
_symmetry_cell_setting 'monoclinic'
loop_
_space_group_symop_operation_xyz
x,y,z
-x,y,-z
-x,-y,-z
x,-y,z
1/2+x,1/2+y,z
1/2-x,1/2+y,-z
1/2-x,1/2-y,-z
1/2+x,1/2-y,z
loop_
_atom_site_type_symbol
_atom_site_label
_atom_site_fract_x
_atom_site_fract_y
_atom_site_fract_z
Si Si1 0.868171 0.678322 0.691251
Si Si2 0.944589 0.680713 0.093997
Si Si3 0.723011 0.324008 0.443560
Si Si4 0.394553 0.675019 0.479979
Si Si5 0.032423 0.320747 0.733223
Si Si6 0.649102 0.820153 0.938926
Si Si7 0.252245 0.177183 0.768768
Si Si8 0.584664 0.819467 0.171878
O O1 0.873387 0.500000 0.676757
O O2 0.889917 0.755314 0.582063
O O3 0.807256 0.710144 0.759559
O O4 0.898332 0.729381 0.747942
O O5 0.945723 0.500000 0.088546
O O6 0.941572 0.724457 0.199876
O O7 0.894865 0.726519 0.087937
O O8 0.000000 0.730157 0.000000
O O9 0.732872 0.500000 0.430320
O O10 0.750000 0.250000 0.500000
O O11 0.661555 0.300671 0.508079
O O12 0.743355 0.247791 0.333549
O O13 0.403566 0.500000 0.476523
O O14 0.437924 0.752782 0.378867
O O15 0.033748 0.500000 0.726414
O O16 0.972912 0.273356 0.794778
O O17 0.703585 0.747626 0.865512
O O18 0.653682 0.000000 0.930640
O O19 0.625929 0.775168 0.057099
O O20 0.246898 0.000000 0.767894
O O21 0.584310 0.000000 0.171757
#
# Coordination Sequence:
#
# PCOD9223775 Si02
#       8
#     8   8   8   8   8   8   8   8
#     4   9  19  38  59  77 103 143 186 229 270 315
#     4   9  16  30  53  80 108 138 175 220 265 315
#     4  10  21  37  56  78 106 141 181 223 269 321
#     4  10  22  38  54  78 111 142 175 221 274 325
#     4  10  19  33  56  83 109 141 182 223 265 320
#     4  10  19  33  55  83 111 141 179 224 272 321
#     4  10  21  36  53  77 110 144 182 223 268 322
#     4   9  18  34  58  83 106 138 187 234 267 311
#
# _framework density 9.1235599999999994
#
# number of rings (size 3 to 8) (size 9 to 14) (size 15 to 20)
#    0.000    2.375    1.250    1.125    1.750    3.000 
#    0.000    4.375    0.000    0.750    0.000    0.000 
#    0.000    0.000    0.000    0.000    0.000    0.000 
#
# Total GULP energy -178513.468633 kJ/mol
# GULP energy per Si atom -5578.545895 kJ/mol
# Density = 0.910279 g / cm^3
# Si number density = 9.123560 Si / 1000 Ang^3
#
#
#
# Elastic Constant Matrix: (Units=GPa)
#
#
# Indices 1 2 3 4 5 6 
#
# 1 -23.0091 -0.0492 -0.8305 0.0000 23.4421 0.0000
# 2 -0.0492 11.1182 11.3812 0.0000 -3.2884 0.0000
# 3 -0.8305 11.3812 52.7601 0.0000 -18.6274 0.0000
# 4 0.0000 0.0000 0.0000 19.7877 0.0000 -9.3825
# 5 23.4421 -3.2884 -18.6274 0.0000 26.9908 0.0000
# 6 0.0000 0.0000 0.0000 -9.3825 0.0000 18.2076
#
#
#
# Elastic Compliance Matrix: (Units=1/GPa)
#
#
# Indices 1 2 3 4 5 6 
#
# 1 -0.020272 -0.001637 0.008171 0.000000 0.023046 0.000000
# 2 -0.001637 0.115649 -0.025777 0.000000 -0.002278 0.000000
# 3 0.008171 -0.025777 0.027803 0.000000 0.008951 0.000000
# 4 0.000000 0.000000 0.000000 0.066877 0.000000 0.034462
# 5 0.023046 -0.002278 0.008951 0.000000 0.022933 0.000000
# 6 0.000000 0.000000 0.000000 0.034462 0.000000 0.072681
#
#
# Mechanical properties :
#
#
# Convention : Reuss Voigt Hill
#
# Bulk Modulus (GPa) = 11.80752 6.87468 9.34110
# Shear Modulus (GPa) = 14.18886 15.02172 14.60529
#
# Velocity S-wave (km/s) = 2.79156 2.87233 2.83223
# Velocity P-wave (km/s) = 4.10797 3.84396 3.97816
#
# Compressibility (1/GPa) = 0.08469178
#
# Stress axis : x y z
#
# Youngs Moduli (GPa) = -49.32825 8.64685 35.96716
#
# Poissons Ratio (x) = 0.01416 -0.29388
# Poissons Ratio (y) = -0.08077 0.92714
# Poissons Ratio (z) = 0.40305 0.22289
#
# Static dielectric constant tensor:
#      x y z
#    x 1.619630 0.000000 0.012290 
#    y 0.000000 1.606810 0.000000 
#    z 0.012290 0.000000 1.606140 
# 
# From -- ./inp_files/249046.got.cif
#   From: 2010.05.17/outbox.ucp.g08.bks.cvg/sg12_125_cif.got.tgz:249046.got - 2010.06.11 11:47:21.
