data_PCOD9223507
_publ_section_title
;
Structure prediction by ZEFSAII (Michael W. Deem and Ramdas Pophale) SiO2 
 PCOD9223507
Probable space group: C 2/M
;
_chemical_formula_sum "Si O2"
_cell_formula_units_Z 30
_cell_length_a 12.000000
_cell_length_b 15.000000
_cell_length_c 21.000000
_cell_angle_alpha 90.000000
_cell_angle_beta 90.000000
_cell_angle_gamma 90.000000
_cell_volume 3780.000000
_symmetry_space_group_name_H-M "C 2/M"
_symmetry_group_IT_number 12
_symmetry_cell_setting 'monoclinic'
loop_
_space_group_symop_operation_xyz
x,y,z
-x,y,-z
-x,-y,-z
x,-y,z
1/2+x,1/2+y,z
1/2-x,1/2+y,-z
1/2-x,1/2-y,-z
1/2+x,1/2-y,z
loop_
_atom_site_type_symbol
_atom_site_label
_atom_site_fract_x
_atom_site_fract_y
_atom_site_fract_z
Si Si1 0.530437 0.896390 0.356615
Si Si2 0.260447 0.107167 0.549403
Si Si3 0.398379 0.774634 0.451119
Si Si4 0.263391 0.897789 0.879904
Si Si5 0.500000 0.689111 0.000000
Si Si6 0.762532 0.103214 0.975021
Si Si7 0.016545 0.602871 0.205928
Si Si8 0.381335 0.772634 0.115440
O O1 0.648766 0.888547 0.393420
O O2 0.448614 0.825653 0.390121
O O3 0.536946 0.881226 0.280886
O O4 0.493947 0.000000 0.366726
O O5 0.319586 0.152780 0.487522
O O6 0.162763 0.180151 0.562483
O O7 0.233644 0.000000 0.540932
O O8 0.500000 0.757202 0.500000
O O9 0.369225 0.890122 0.834185
O O10 0.175719 0.820280 0.864356
O O11 0.219803 0.000000 0.874842
O O12 0.292795 0.885213 0.954895
O O13 0.609183 0.630302 0.013801
O O14 0.473415 0.747320 0.062341
O O15 0.707292 0.167523 0.923495
O O16 0.752024 0.000000 0.956609
O O17 0.977266 0.500000 0.198966
O O18 0.931897 0.671559 0.173316
#
# Coordination Sequence:
#
# PCOD9223507 Si02
#       8
#     8   8   8   8   4   8   8   8
#     4   9  18  32  49  68  93 126 160 190 224 272
#     4   9  17  30  50  74 100 129 157 188 228 273
#     4   9  17  30  49  75 100 123 156 194 230 267
#     4   9  19  33  47  66  92 121 153 190 235 285
#     4  10  19  32  47  66  92 120 151 188 235 288
#     4  10  19  31  48  69  92 118 150 191 238 286
#     4  10  20  33  48  68  93 121 155 194 232 271
#     4  11  19  31  49  70  91 118 153 194 237 278
#
# _framework density 7.9365079999999999
#
# number of rings (size 3 to 8) (size 9 to 14) (size 15 to 20)
#    0.000    2.400    0.000    4.200    0.000    3.467 
#    0.000    2.667    0.000    0.000    0.000    0.000 
#    0.000    0.000    0.000    0.000    0.000    0.000 
#
# Total GULP energy -167158.209431 kJ/mol
# GULP energy per Si atom -5571.940314 kJ/mol
# Density = 0.791844 g / cm^3
# Si number density = 7.936508 Si / 1000 Ang^3
#
#
#
# Elastic Constant Matrix: (Units=GPa)
#
#
# Indices 1 2 3 4 5 6 
#
# 1 62.8193 60.2704 40.8145 0.0000 -6.3656 0.0000
# 2 60.2704 150.7732 57.5826 0.0000 5.6853 0.0000
# 3 40.8145 57.5826 89.2661 0.0000 2.8080 0.0000
# 4 0.0000 0.0000 0.0000 25.3863 0.0000 2.2136
# 5 -6.3656 5.6853 2.8080 0.0000 12.1486 0.0000
# 6 0.0000 0.0000 0.0000 2.2136 0.0000 32.5192
#
#
#
# Elastic Compliance Matrix: (Units=1/GPa)
#
#
# Indices 1 2 3 4 5 6 
#
# 1 0.036341 -0.011770 -0.009867 0.000000 0.026831 0.000000
# 2 -0.011770 0.012710 -0.002454 0.000000 -0.011548 0.000000
# 3 -0.009867 -0.002454 0.017551 0.000000 -0.008079 0.000000
# 4 0.000000 0.000000 0.000000 0.039627 0.000000 -0.002697
# 5 0.026831 -0.011548 -0.008079 0.000000 0.103644 0.000000
# 6 0.000000 0.000000 0.000000 -0.002697 0.000000 0.030935
#
#
# Mechanical properties :
#
#
# Convention : Reuss Voigt Hill
#
# Bulk Modulus (GPa) = 54.29128 68.91040 61.60084
# Shear Modulus (GPa) = 16.94159 23.62357 20.28258
#
# Velocity S-wave (km/s) = 3.27053 3.86202 3.57851
# Velocity P-wave (km/s) = 6.96704 7.96208 7.48112
#
# Compressibility (1/GPa) = 0.01841916
#
# Stress axis : x y z
#
# Youngs Moduli (GPa) = 27.51693 78.67659 56.97613
#
# Poissons Ratio (x) = 0.92605 0.56221
# Poissons Ratio (y) = 0.32388 0.13982
# Poissons Ratio (z) = 0.27152 0.19307
#
# Static dielectric constant tensor:
#      x y z
#    x 1.539310 0.000000 -0.012880 
#    y 0.000000 1.537770 0.000000 
#    z -0.012880 0.000000 1.509640 
# 
# From -- ./inp_files/305151.got.cif
#   From: 2010.05.17/outbox.ucp.g08.bks.cvg/sg12_153_cif.got.tgz:305151.got - 2010.06.11 11:47:21.
