data_PCOD9223993
_publ_section_title
;
Structure prediction by ZEFSAII (Michael W. Deem and Ramdas Pophale) SiO2 
 PCOD9223993
Probable space group: C 2/M
;
_chemical_formula_sum "Si O2"
_cell_formula_units_Z 32
_cell_length_a 12.000000
_cell_length_b 21.000000
_cell_length_c 27.000000
_cell_angle_alpha 90.000000
_cell_angle_beta 30.000000
_cell_angle_gamma 90.000000
_cell_volume 3402.000000
_symmetry_space_group_name_H-M "C 2/M"
_symmetry_group_IT_number 12
_symmetry_cell_setting 'monoclinic'
loop_
_space_group_symop_operation_xyz
x,y,z
-x,y,-z
-x,-y,-z
x,-y,z
1/2+x,1/2+y,z
1/2-x,1/2+y,-z
1/2-x,1/2-y,-z
1/2+x,1/2-y,z
loop_
_atom_site_type_symbol
_atom_site_label
_atom_site_fract_x
_atom_site_fract_y
_atom_site_fract_z
Si Si1 0.971837 0.927990 0.848796
Si Si2 0.454134 0.077203 0.927879
Si Si3 0.821100 0.640224 0.769790
Si Si4 0.574773 0.744055 0.795666
Si Si5 0.950955 0.190032 0.380402
Si Si6 0.713673 0.323807 0.453258
Si Si7 0.075494 0.856071 0.227391
Si Si8 0.766367 0.354698 0.906405
O O1 0.173735 0.919072 0.809017
O O2 0.030537 0.903485 0.771814
O O3 0.911633 0.000000 0.866649
O O4 0.745587 0.899083 0.958995
O O5 0.360824 0.092501 0.908301
O O6 0.673961 0.117632 0.858405
O O7 0.493111 0.000000 0.917203
O O8 0.666393 0.696233 0.803540
O O9 0.850629 0.642495 0.817230
O O10 0.064811 0.642506 0.652129
O O11 0.476916 0.708587 0.784201
O O12 0.373857 0.790450 0.888120
O O13 0.801970 0.784293 0.698923
O O14 0.793110 0.250228 0.428414
O O15 0.851460 0.155038 0.466273
O O16 0.974177 0.151422 0.320725
O O17 0.500000 0.329118 0.500000
O O18 0.500000 0.355197 0.000000
#
# Coordination Sequence:
#
# PCOD9223993 Si02
#       8
#     8   8   8   8   8   8   8   8
#     4  10  22  42  63  83 114 159 212 254 297 351
#     4  11  24  41  62  87 118 163 214 252 290 346
#     4  10  22  38  57  88 117 159 198 243 305 359
#     4  10  21  37  57  87 128 158 190 238 307 374
#     4  10  19  35  58  88 120 158 192 240 292 364
#     4  10  20  34  58  85 121 156 193 234 296 369
#     4  11  21  37  62  90 123 155 200 248 299 354
#     4  12  23  36  58  85 121 159 198 247 297 355
#
# _framework density 9.4062319999999993
#
# number of rings (size 3 to 8) (size 9 to 14) (size 15 to 20)
#    0.000    1.500    2.500    3.750    0.000    5.250 
#    0.000    0.000    0.000    2.625    0.000    0.000 
#    0.000    0.000    0.000    0.000    0.000    0.000 
#
# Total GULP energy -178235.619349 kJ/mol
# GULP energy per Si atom -5569.863105 kJ/mol
# Density = 0.938482 g / cm^3
# Si number density = 9.406232 Si / 1000 Ang^3
#
#
#
# Elastic Constant Matrix: (Units=GPa)
#
#
# Indices 1 2 3 4 5 6 
#
# 1 117.7648 22.6061 27.5072 -0.0355 4.5099 0.0161
# 2 22.6061 24.4314 23.5521 0.0429 8.3989 -0.0087
# 3 27.5072 23.5521 64.4373 -0.0091 11.9302 0.0070
# 4 -0.0355 0.0429 -0.0091 12.8190 -0.0133 -0.4875
# 5 4.5099 8.3989 11.9302 -0.0133 40.5023 -0.0043
# 6 0.0161 -0.0087 0.0070 -0.4875 -0.0043 15.4292
#
#
#
# Elastic Compliance Matrix: (Units=1/GPa)
#
#
# Indices 1 2 3 4 5 6 
#
# 1 0.010452 -0.008562 -0.001529 0.000057 0.001062 -0.000013
# 2 -0.008562 0.071963 -0.021218 -0.000286 -0.007719 0.000048
# 3 -0.001529 -0.021218 0.024412 0.000081 -0.002620 -0.000020
# 4 0.000057 -0.000286 0.000081 0.078104 0.000055 0.002468
# 5 0.001062 -0.007719 -0.002620 0.000055 0.026944 0.000005
# 6 -0.000013 0.000048 -0.000020 0.002468 0.000005 0.064890
#
#
# Mechanical properties :
#
#
# Convention : Reuss Voigt Hill
#
# Bulk Modulus (GPa) = 22.62052 39.32936 30.97494
# Shear Modulus (GPa) = 14.11952 22.61464 18.36708
#
# Velocity S-wave (km/s) = 2.74257 3.47091 3.12801
# Velocity P-wave (km/s) = 4.69886 6.08394 5.43570
#
# Compressibility (1/GPa) = 0.04420765
#
# Stress axis : x y z
#
# Youngs Moduli (GPa) = 95.67997 13.89609 40.96325
#
# Poissons Ratio (x) = 0.11898 0.06262
# Poissons Ratio (y) = 0.81923 0.86918
# Poissons Ratio (z) = 0.14626 0.29485
#
# Static dielectric constant tensor:
#      x y z
#    x 1.633790 -0.000010 0.019010 
#    y -0.000010 1.750140 0.000030 
#    z 0.019010 0.000030 1.681370 
# 
# From -- ./inp_files/358979.got.cif
#   From: 2010.05.17/outbox.ucp.g08.bks.cvg/sg12_180_cif.got.tgz:358979.got - 2010.06.11 11:47:21.
