data_PCOD9223650
_publ_section_title
;
Structure prediction by ZEFSAII (Michael W. Deem and Ramdas Pophale) SiO2 
 PCOD9223650
Probable space group: C 2/M
;
_chemical_formula_sum "Si O2"
_cell_formula_units_Z 24
_cell_length_a 27.000000
_cell_length_b 9.000000
_cell_length_c 21.000000
_cell_angle_alpha 90.000000
_cell_angle_beta 150.000000
_cell_angle_gamma 90.000000
_cell_volume 2551.500000
_symmetry_space_group_name_H-M "C 2/M"
_symmetry_group_IT_number 12
_symmetry_cell_setting 'monoclinic'
loop_
_space_group_symop_operation_xyz
x,y,z
-x,y,-z
-x,-y,-z
x,-y,z
1/2+x,1/2+y,z
1/2-x,1/2+y,-z
1/2-x,1/2-y,-z
1/2+x,1/2-y,z
loop_
_atom_site_type_symbol
_atom_site_label
_atom_site_fract_x
_atom_site_fract_y
_atom_site_fract_z
Si Si1 0.762304 0.175981 0.099419
Si Si2 0.430082 0.325417 0.484088
Si Si3 0.036739 0.828181 0.978373
Si Si4 0.457644 0.823190 0.274921
Si Si5 0.045616 0.820306 0.852404
Si Si6 0.272938 0.830397 0.237540
O O1 0.845199 0.261395 0.151988
O O2 0.795465 0.208343 0.208746
O O3 0.756841 0.000000 0.079720
O O4 0.658011 0.259480 0.979968
O O5 0.500000 0.309727 0.500000
O O6 0.409925 0.500000 0.471061
O O7 0.487744 0.254516 0.606574
O O8 0.332681 0.227131 0.364140
O O9 0.003210 0.770576 0.873021
O O10 0.001634 0.000000 0.939597
O O11 0.155325 0.832172 0.114346
O O12 0.000000 0.748035 0.000000
O O13 0.503611 0.759623 0.261439
O O14 0.458121 0.000000 0.278604
O O15 0.046623 0.000000 0.848309
O O16 0.302973 0.000000 0.252732
#
# Coordination Sequence:
#
# PCOD9223650 Si02
#       6
#     8   8   8   8   8   8
#     4  11  20  32  49  72 105 141 177 214 255 306
#     4  11  22  35  52  74 105 145 181 216 254 304
#     4   8  16  33  58  84 106 131 167 214 267 316
#     4  12  23  34  50  72 104 142 178 215 256 308
#     4  10  20  34  52  76 105 136 173 215 263 313
#     4  10  19  32  53  80 107 138 176 217 259 306
#
# _framework density 9.4062319999999993
#
# number of rings (size 3 to 8) (size 9 to 14) (size 15 to 20)
#    0.000    1.667    1.667    6.000    0.000    0.667 
#    0.000    0.000    0.000   19.000    0.000    0.000 
#    0.000    0.000    0.000    0.000    0.000    0.000 
#
# Total GULP energy -133675.101095 kJ/mol
# GULP energy per Si atom -5569.795879 kJ/mol
# Density = 0.938482 g / cm^3
# Si number density = 9.406232 Si / 1000 Ang^3
#
#
#
# Elastic Constant Matrix: (Units=GPa)
#
#
# Indices 1 2 3 4 5 6 
#
# 1 100.7401 21.0615 23.7081 0.0000 -35.2243 0.0000
# 2 21.0615 92.0559 9.8767 0.0000 -7.1192 0.0000
# 3 23.7081 9.8767 36.9556 0.0000 -28.3131 0.0000
# 4 0.0000 0.0000 0.0000 23.9298 0.0000 -9.0950
# 5 -35.2243 -7.1192 -28.3131 0.0000 17.0531 0.0000
# 6 0.0000 0.0000 0.0000 -9.0950 0.0000 8.7380
#
#
#
# Elastic Compliance Matrix: (Units=1/GPa)
#
#
# Indices 1 2 3 4 5 6 
#
# 1 0.006832 -0.000999 -0.023441 0.000000 -0.025224 0.000000
# 2 -0.000999 0.011324 0.001266 0.000000 0.004767 0.000000
# 3 -0.023441 0.001266 -0.018631 0.000000 -0.078824 0.000000
# 4 0.000000 0.000000 0.000000 0.069141 0.000000 0.071965
# 5 -0.025224 0.004767 -0.078824 0.000000 -0.122344 0.000000
# 6 0.000000 0.000000 0.000000 0.071965 0.000000 0.189349
#
#
# Mechanical properties :
#
#
# Convention : Reuss Voigt Hill
#
# Bulk Modulus (GPa) = -21.35714 37.67157 8.15722
# Shear Modulus (GPa) = 30.04594 21.61785 25.83190
#
# Velocity S-wave (km/s) = 4.00075 3.39355 3.70959
# Velocity P-wave (km/s) = 3.15658 5.95174 4.76378
#
# Compressibility (1/GPa) = -0.04682275
#
# Stress axis : x y z
#
# Youngs Moduli (GPa) = 146.36498 88.30588 -53.67430
#
# Poissons Ratio (x) = 0.08820 -1.25820
# Poissons Ratio (y) = 0.14620 0.06796
# Poissons Ratio (z) = 3.43101 -0.11181
#
# Static dielectric constant tensor:
#      x y z
#    x 1.777470 0.000000 0.031020 
#    y 0.000000 1.609680 0.000000 
#    z 0.031020 0.000000 -0.141840 
# 
# From -- ./inp_files/323512.got.cif
#   From: 2010.05.17/outbox.ucp.g08.bks.cvg/sg12_162_cif.got.tgz:323512.got - 2010.06.11 11:47:21.
