data_PCOD9223888
_publ_section_title
;
Structure prediction by ZEFSAII (Michael W. Deem and Ramdas Pophale) SiO2 
 PCOD9223888
Probable space group: C 2/M
;
_chemical_formula_sum "Si O2"
_cell_formula_units_Z 24
_cell_length_a 15.000000
_cell_length_b 27.000000
_cell_length_c 12.000000
_cell_angle_alpha 90.000000
_cell_angle_beta 30.000000
_cell_angle_gamma 90.000000
_cell_volume 2430.000000
_symmetry_space_group_name_H-M "C 2/M"
_symmetry_group_IT_number 12
_symmetry_cell_setting 'monoclinic'
loop_
_space_group_symop_operation_xyz
x,y,z
-x,y,-z
-x,-y,-z
x,-y,z
1/2+x,1/2+y,z
1/2-x,1/2+y,-z
1/2-x,1/2-y,-z
1/2+x,1/2-y,z
loop_
_atom_site_type_symbol
_atom_site_label
_atom_site_fract_x
_atom_site_fract_y
_atom_site_fract_z
Si Si1 0.521854 0.941295 0.310611
Si Si2 0.811678 0.193751 0.441594
Si Si3 0.895240 0.155347 0.725901
Si Si4 0.500285 0.129544 0.125189
Si Si5 0.168478 0.894598 0.736224
Si Si6 0.076687 0.942636 0.174737
O O1 0.494930 0.914629 0.220060
O O2 0.363604 0.916197 0.554305
O O3 0.491465 0.000000 0.344152
O O4 0.735808 0.934383 0.095205
O O5 0.750000 0.250000 0.500000
O O6 0.669905 0.164377 0.671869
O O7 0.807469 0.161661 0.332813
O O8 0.007416 0.186378 0.282633
O O9 0.922763 0.097349 0.727232
O O10 0.000000 0.167163 0.500000
O O11 0.682753 0.160373 0.947445
O O12 0.500000 0.110446 0.000000
O O13 0.092271 0.928453 0.717591
O O14 0.000000 0.895828 0.000000
O O15 0.072838 0.000000 0.212394
#
# Coordination Sequence:
#
# PCOD9223888 Si02
#       6
#     8   8   8   8   8   8
#     4   9  19  34  52  79 114 148 185 223 266 325
#     4  10  22  39  59  80 108 141 186 238 285 337
#     4  10  19  35  57  83 113 147 179 225 281 333
#     4  10  19  34  57  81 112 146 178 225 282 331
#     4  10  21  37  55  78 110 147 187 233 275 320
#     4   9  19  34  53  81 116 150 184 222 266 324
#
# _framework density 9.8765429999999999
#
# number of rings (size 3 to 8) (size 9 to 14) (size 15 to 20)
#    0.000    2.333    1.667    0.500    0.000    4.000 
#    0.000    1.667    0.000    0.000    0.000    0.000 
#    0.000    0.000    0.000    0.000    0.000    0.000 
#
# Total GULP energy -133764.302282 kJ/mol
# GULP energy per Si atom -5573.512595 kJ/mol
# Density = 0.985406 g / cm^3
# Si number density = 9.876543 Si / 1000 Ang^3
#
#
#
# Elastic Constant Matrix: (Units=GPa)
#
#
# Indices 1 2 3 4 5 6 
#
# 1 46.7314 10.3016 18.0671 0.0002 -23.5133 -0.0003
# 2 10.3016 84.9885 7.1528 -0.0005 -6.6245 -0.0001
# 3 18.0671 7.1528 95.1185 -0.0026 -17.9717 -0.0006
# 4 0.0002 -0.0005 -0.0026 15.2220 0.0004 -6.3983
# 5 -23.5133 -6.6245 -17.9717 0.0004 41.0262 0.0002
# 6 -0.0003 -0.0001 -0.0006 -6.3983 0.0002 -0.4276
#
#
#
# Elastic Compliance Matrix: (Units=1/GPa)
#
#
# Indices 1 2 3 4 5 6 
#
# 1 0.031138 -0.002279 -0.002661 -0.000001 0.016312 0.000001
# 2 -0.002279 0.012113 -0.000387 0.000000 0.000480 -0.000001
# 3 -0.002661 -0.000387 0.011718 0.000000 0.003545 -0.000006
# 4 -0.000001 0.000000 0.000000 0.009013 0.000000 -0.134849
# 5 0.016312 0.000480 0.003545 0.000000 0.035354 0.000001
# 6 0.000001 -0.000001 -0.000006 -0.134849 0.000001 -0.320815
#
#
# Mechanical properties :
#
#
# Convention : Reuss Voigt Hill
#
# Bulk Modulus (GPa) = 22.56643 33.09793 27.83218
# Shear Modulus (GPa) = -25.50314 23.91857 -0.79229
#
# Velocity S-wave (km/s) = -3.59708 3.48354 -0.63401
# Velocity P-wave (km/s) = 2.40893 5.74215 3.68574
#
# Compressibility (1/GPa) = 0.04431361
#
# Stress axis : x y z
#
# Youngs Moduli (GPa) = 32.11545 82.55910 85.34158
#
# Poissons Ratio (x) = 0.18814 0.22709
# Poissons Ratio (y) = 0.07319 0.03305
# Poissons Ratio (z) = 0.08546 0.03197
#
# Static dielectric constant tensor:
#      x y z
#    x 1.732910 0.000000 0.009170 
#    y 0.000000 1.635920 0.000000 
#    z 0.009170 0.000000 1.719860 
# 
# From -- ./inp_files/149610.got.cif
#   From: 2010.05.17/outbox.ucp.g08.bks.cvg/sg12_75_cif.got.tgz:149610.got - 2010.06.11 11:47:21.
