data_PCOD9223811
_publ_section_title
;
Structure prediction by ZEFSAII (Michael W. Deem and Ramdas Pophale) SiO2 
 PCOD9223811
Probable space group: C 2/M
;
_chemical_formula_sum "Si O2"
_cell_formula_units_Z 20
_cell_length_a 18.000000
_cell_length_b 15.000000
_cell_length_c 21.000000
_cell_angle_alpha 90.000000
_cell_angle_beta 160.000000
_cell_angle_gamma 90.000000
_cell_volume 1939.254213
_symmetry_space_group_name_H-M "C 2/M"
_symmetry_group_IT_number 12
_symmetry_cell_setting 'monoclinic'
loop_
_space_group_symop_operation_xyz
x,y,z
-x,y,-z
-x,-y,-z
x,-y,z
1/2+x,1/2+y,z
1/2-x,1/2+y,-z
1/2-x,1/2-y,-z
1/2+x,1/2-y,z
loop_
_atom_site_type_symbol
_atom_site_label
_atom_site_fract_x
_atom_site_fract_y
_atom_site_fract_z
Si Si1 0.804471 0.392932 0.059203
Si Si2 0.900655 0.201626 0.328820
Si Si3 0.963572 0.894193 0.688397
Si Si4 0.689768 0.890169 0.270567
Si Si5 0.538224 0.891552 0.677981
O O1 0.818740 0.500000 0.074005
O O2 0.986403 0.369617 0.152969
O O3 0.826392 0.365896 0.149830
O O4 0.577033 0.367354 0.845508
O O5 0.924928 0.161948 0.277492
O O6 0.705485 0.160192 0.214785
O O7 0.109624 0.154369 0.530051
O O8 0.916699 0.310439 0.336064
O O9 0.707968 0.883167 0.493602
O O10 0.002333 0.000000 0.706932
O O11 0.708244 0.000000 0.279095
O O12 0.568450 0.000000 0.685657
#
# Coordination Sequence:
#
# PCOD9223811 Si02
#       5
#     8   8   8   8   8
#     4   9  19  35  57  83 112 144 177 224 281 325
#     4  11  20  33  55  83 110 150 182 220 278 329
#     4  10  19  33  57  85 112 142 180 225 276 330
#     4  10  20  36  57  83 116 143 177 230 278 329
#     4  10  21  38  55  80 113 145 184 231 269 319
#
# _framework density 10.313243
#
# number of rings (size 3 to 8) (size 9 to 14) (size 15 to 20)
#    0.000    2.000    2.000    3.000    0.000    1.600 
#    0.000    5.000    0.000    0.000    0.000    2.800 
#    0.000    0.000    0.000    0.000    0.000    0.000 
#
# Total GULP energy -111427.607266 kJ/mol
# GULP energy per Si atom -5571.380363 kJ/mol
# Density = 1.028977 g / cm^3
# Si number density = 10.313243 Si / 1000 Ang^3
#
#
#
# Elastic Constant Matrix: (Units=GPa)
#
#
# Indices 1 2 3 4 5 6 
#
# 1 47.8157 38.5132 -8.6687 0.0011 -12.3051 0.0010
# 2 38.5132 132.9218 -3.7817 -0.0042 -11.1172 0.0008
# 3 -8.6687 -3.7817 34.0600 0.0141 -32.0935 0.0031
# 4 0.0011 -0.0042 0.0141 2.5596 0.0073 -6.3677
# 5 -12.3051 -11.1172 -32.0935 0.0073 17.6528 0.0018
# 6 0.0010 0.0008 0.0031 -6.3677 0.0018 44.3813
#
#
#
# Elastic Compliance Matrix: (Units=1/GPa)
#
#
# Indices 1 2 3 4 5 6 
#
# 1 0.018626 -0.007647 -0.016250 0.000209 -0.021376 0.000032
# 2 -0.007647 0.009823 0.000069 0.000025 0.000981 0.000004
# 3 -0.016250 0.000069 -0.020474 0.000416 -0.048506 0.000063
# 4 0.000209 0.000025 0.000416 0.607543 0.000657 0.087169
# 5 -0.021376 0.000981 -0.048506 0.000657 -0.045819 0.000100
# 6 0.000032 0.000004 0.000063 0.087169 0.000100 0.035039
#
#
# Mechanical properties :
#
#
# Convention : Reuss Voigt Hill
#
# Bulk Modulus (GPa) = -25.20125 29.65811 2.22843
# Shear Modulus (GPa) = 7.82269 25.50104 16.66187
#
# Velocity S-wave (km/s) = 1.94956 3.51996 2.84525
# Velocity P-wave (km/s) = 2.67894 5.56147 3.44625
#
# Compressibility (1/GPa) = -0.03968057
#
# Stress axis : x y z
#
# Youngs Moduli (GPa) = 53.68896 101.80329 -48.84356
#
# Poissons Ratio (x) = 0.77847 -0.79371
# Poissons Ratio (y) = 0.41055 0.00337
# Poissons Ratio (z) = 0.87245 -0.00702
#
# Static dielectric constant tensor:
#      x y z
#    x 1.778880 0.000000 -0.054930 
#    y 0.000000 1.765080 -0.000010 
#    z -0.054930 -0.000010 1.817810 
# 
# From -- ./inp_files/72345.got.cif
#   From: 2010.05.17/outbox.ucp.g08.bks.cvg/sg12_37_cif.got.tgz:72345.got - 2010.06.11 11:47:21.
