data_PCOD9223771
_publ_section_title
;
Structure prediction by ZEFSAII (Michael W. Deem and Ramdas Pophale) SiO2 
 PCOD9223771
Probable space group: C 2/M
;
_chemical_formula_sum "Si O2"
_cell_formula_units_Z 32
_cell_length_a 24.000000
_cell_length_b 9.000000
_cell_length_c 30.000000
_cell_angle_alpha 90.000000
_cell_angle_beta 150.000000
_cell_angle_gamma 90.000000
_cell_volume 3240.000000
_symmetry_space_group_name_H-M "C 2/M"
_symmetry_group_IT_number 12
_symmetry_cell_setting 'monoclinic'
loop_
_space_group_symop_operation_xyz
x,y,z
-x,y,-z
-x,-y,-z
x,-y,z
1/2+x,1/2+y,z
1/2-x,1/2+y,-z
1/2-x,1/2-y,-z
1/2+x,1/2-y,z
loop_
_atom_site_type_symbol
_atom_site_label
_atom_site_fract_x
_atom_site_fract_y
_atom_site_fract_z
Si Si1 0.205654 0.677278 0.089324
Si Si2 0.521620 0.176489 0.626052
Si Si3 0.045977 0.833308 0.240599
Si Si4 0.197302 0.672184 0.278364
Si Si5 0.838970 0.831725 0.030485
Si Si6 0.734230 0.820769 0.207553
Si Si7 0.887818 0.668487 0.449512
Si Si8 0.053630 0.673995 0.747266
O O1 0.195766 0.500000 0.078846
O O2 0.178968 0.722565 0.121979
O O3 0.334196 0.728026 0.172812
O O4 0.143844 0.751506 0.004879
O O5 0.641372 0.254678 0.703257
O O6 0.425330 0.219046 0.524832
O O7 0.494069 0.200586 0.658807
O O8 0.539585 0.000000 0.631382
O O9 0.144835 0.772057 0.279927
O O10 0.019488 0.722882 0.262078
O O11 0.946480 0.834668 0.135910
O O12 0.061355 0.000000 0.268467
O O13 0.167071 0.500000 0.262057
O O14 0.172492 0.720860 0.210492
O O15 0.324729 0.706096 0.377750
O O16 0.801385 0.000000 0.995618
O O17 0.750000 0.750000 0.000000
O O18 0.742921 0.000000 0.213370
O O19 0.836764 0.500000 0.415880
O O20 0.000000 0.649105 0.500000
O O21 0.083708 0.500000 0.770067
#
# Coordination Sequence:
#
# PCOD9223771 Si02
#       8
#     8   8   8   8   8   8   8   8
#     4  10  19  33  55  83 113 144 181 226 276 327
#     4   9  18  32  54  84 112 143 182 227 274 326
#     4  11  24  40  57  79 111 149 186 226 282 338
#     4  11  23  38  57  82 113 149 189 230 277 330
#     4  11  22  36  57  84 112 143 185 233 280 329
#     4   9  19  34  53  80 113 146 181 226 276 325
#     4  10  19  34  57  84 115 147 184 228 277 328
#     4  10  19  33  55  82 112 144 184 228 274 326
#
# _framework density 9.8765429999999999
#
# number of rings (size 3 to 8) (size 9 to 14) (size 15 to 20)
#    0.000    1.875    2.500    1.875    0.000    3.750 
#    0.000    1.250    0.000    3.750    0.000    0.000 
#    0.000    0.000    0.000    0.000    0.000    0.000 
#
# Total GULP energy -178292.557375 kJ/mol
# GULP energy per Si atom -5571.642418 kJ/mol
# Density = 0.985406 g / cm^3
# Si number density = 9.876543 Si / 1000 Ang^3
#
#
#
# Elastic Constant Matrix: (Units=GPa)
#
#
# Indices 1 2 3 4 5 6 
#
# 1 50.7749 -8.1652 22.1363 0.0002 -35.8797 0.0003
# 2 -8.1652 26.6449 10.3915 0.0004 -15.3637 0.0008
# 3 22.1363 10.3915 14.6599 0.0000 -22.7761 0.0000
# 4 0.0002 0.0004 0.0000 24.9742 0.0000 -8.2202
# 5 -35.8797 -15.3637 -22.7761 0.0000 35.3285 0.0000
# 6 0.0003 0.0008 0.0000 -8.2202 0.0000 19.4298
#
#
#
# Elastic Compliance Matrix: (Units=1/GPa)
#
#
# Indices 1 2 3 4 5 6 
#
# 1 -0.109721 -0.161826 1.279659 0.000004 0.643184 0.000006
# 2 -0.161826 -0.205250 2.571079 0.000003 1.403956 0.000003
# 3 1.279659 2.571079-42.974107 0.000002-25.287524 0.000025
# 4 0.000004 0.000003 0.000002 0.046519 0.000006 0.019681
# 5 0.643184 1.403956-25.287524 0.000006-15.010702 0.000024
# 6 0.000006 0.000003 0.000025 0.019681 0.000024 0.059794
#
#
# Mechanical properties :
#
#
# Convention : Reuss Voigt Hill
#
# Bulk Modulus (GPa) = -0.02785 15.64500 7.80858
# Shear Modulus (GPa) = -0.06448 20.46097 10.19824
#
# Velocity S-wave (km/s) = -0.18087 3.22193 2.27466
# Velocity P-wave (km/s) = 0.24031 4.66676 3.29552
#
# Compressibility (1/GPa) = -35.91125366
#
# Stress axis : x y z
#
# Youngs Moduli (GPa) = -9.11404 -4.87211 -0.02327
#
# Poissons Ratio (x) = -0.78843 0.02978
# Poissons Ratio (y) = -1.47489 0.05983
# Poissons Ratio (z) = 11.66286 12.52658
#
# Static dielectric constant tensor:
#      x y z
#    x 1.758370 0.000000 0.002400 
#    y 0.000000 1.678460 0.000000 
#    z 0.002400 0.000000 1.719680 
# 
# From -- ./inp_files/382418.got.cif
#   From: 2010.05.17/outbox.ucp.g08.bks.cvg/sg12_192_cif.got.tgz:382418.got - 2010.06.11 11:47:21.
