data_PCOD9223764
_publ_section_title
;
Structure prediction by ZEFSAII (Michael W. Deem and Ramdas Pophale) SiO2 
 PCOD9223764
Probable space group: C 2/M
;
_chemical_formula_sum "Si O2"
_cell_formula_units_Z 28
_cell_length_a 15.000000
_cell_length_b 9.000000
_cell_length_c 24.000000
_cell_angle_alpha 90.000000
_cell_angle_beta 60.000000
_cell_angle_gamma 90.000000
_cell_volume 2805.922308
_symmetry_space_group_name_H-M "C 2/M"
_symmetry_group_IT_number 12
_symmetry_cell_setting 'monoclinic'
loop_
_space_group_symop_operation_xyz
x,y,z
-x,y,-z
-x,-y,-z
x,-y,z
1/2+x,1/2+y,z
1/2-x,1/2+y,-z
1/2-x,1/2-y,-z
1/2+x,1/2-y,z
loop_
_atom_site_type_symbol
_atom_site_label
_atom_site_fract_x
_atom_site_fract_y
_atom_site_fract_z
Si Si1 0.655638 0.820168 0.945214
Si Si2 0.119344 0.327718 0.480896
Si Si3 0.564688 0.820274 0.620718
Si Si4 0.144544 0.179349 0.280458
Si Si5 0.010545 0.320263 0.092681
Si Si6 0.119125 0.820207 0.158767
Si Si7 0.267638 0.178561 0.345716
O O1 0.593299 0.777611 0.908520
O O2 0.773215 0.774555 0.903862
O O3 0.652233 0.000000 0.946837
O O4 0.597676 0.773765 0.019812
O O5 0.153521 0.500000 0.466876
O O6 0.122760 0.280586 0.544872
O O7 0.183266 0.233498 0.416714
O O8 0.000000 0.322621 0.500000
O O9 0.455657 0.740515 0.656915
O O10 0.626296 0.775955 0.657385
O O11 0.551892 0.000000 0.623707
O O12 0.132506 0.226635 0.219474
O O13 0.239006 0.227438 0.291648
O O14 0.146017 0.000000 0.278862
O O15 0.011915 0.500000 0.097806
O O16 0.031765 0.249724 0.146360
O O17 0.109744 0.000000 0.160879
O O18 0.267444 0.000000 0.345151
#
# Coordination Sequence:
#
# PCOD9223764 Si02
#       7
#     8   8   8   8   8   8   8
#     4   8  16  32  54  78 106 136 168 209 257 306
#     4  10  19  33  55  81 108 133 161 210 271 313
#     4  10  21  37  56  78 103 133 172 215 260 308
#     4  10  22  37  51  72 103 139 176 212 253 302
#     4   9  17  32  55  81 103 132 174 212 251 305
#     4  10  20  34  51  73 105 140 170 209 261 304
#     4  10  21  36  55  78 102 134 176 214 251 306
#
# _framework density 9.9788940000000004
#
# number of rings (size 3 to 8) (size 9 to 14) (size 15 to 20)
#    0.000    2.429    1.429    1.714    0.000    3.143 
#    0.000    5.000    0.000    0.000    0.000    0.000 
#    0.000    0.000    0.000    0.000    0.000    0.000 
#
# Total GULP energy -156111.179854 kJ/mol
# GULP energy per Si atom -5575.399281 kJ/mol
# Density = 0.995618 g / cm^3
# Si number density = 9.978894 Si / 1000 Ang^3
#
#
#
# Elastic Constant Matrix: (Units=GPa)
#
#
# Indices 1 2 3 4 5 6 
#
# 1 105.7032 9.6888 19.4156 0.0000 40.8850 0.0000
# 2 9.6888 -2.3055 1.2197 0.0000 9.1011 0.0000
# 3 19.4156 1.2197 36.7255 0.0000 33.6133 0.0000
# 4 0.0000 0.0000 0.0000 25.0012 0.0000 9.2159
# 5 40.8850 9.1011 33.6133 0.0000 46.0540 0.0000
# 6 0.0000 0.0000 0.0000 9.2159 0.0000 23.3360
#
#
#
# Elastic Compliance Matrix: (Units=1/GPa)
#
#
# Indices 1 2 3 4 5 6 
#
# 1 0.016155 -0.007507 0.010475 0.000000 -0.020504 0.000000
# 2 -0.007507 -0.149978 -0.073127 0.000000 0.089676 0.000000
# 3 0.010475 -0.073127 0.058450 0.000000 -0.037509 0.000000
# 4 0.000000 0.000000 0.000000 0.046813 0.000000 -0.018487
# 5 -0.020504 0.089676 -0.037509 0.000000 0.049571 0.000000
# 6 0.000000 0.000000 0.000000 -0.018487 0.000000 0.050153
#
#
# Mechanical properties :
#
#
# Convention : Reuss Voigt Hill
#
# Bulk Modulus (GPa) = -4.63627 22.30795 8.83584
# Shear Modulus (GPa) = 35.82040 26.19819 31.00930
#
# Velocity S-wave (km/s) = 4.24111 3.62702 3.94603
# Velocity P-wave (km/s) = 4.65346 5.36118 5.01980
#
# Compressibility (1/GPa) = -0.21569042
#
# Stress axis : x y z
#
# Youngs Moduli (GPa) = 61.89978 -6.66764 17.10857
#
# Poissons Ratio (x) = -0.05005 -0.17921
# Poissons Ratio (y) = 0.46465 1.25110
# Poissons Ratio (z) = -0.64839 -0.48758
#
# Static dielectric constant tensor:
#      x y z
#    x 1.749620 0.000000 0.004630 
#    y 0.000000 1.670600 0.000000 
#    z 0.004630 0.000000 1.708970 
# 
# From -- ./inp_files/338509.got.cif
#   From: 2010.05.17/outbox.ucp.g08.bks.cvg/sg12_170_cif.got.tgz:338509.got - 2010.06.11 11:47:21.
