data_PCOD9223868
_publ_section_title
;
Structure prediction by ZEFSAII (Michael W. Deem and Ramdas Pophale) SiO2 
 PCOD9223868
Probable space group: C 2/M
;
_chemical_formula_sum "Si O2"
_cell_formula_units_Z 28
_cell_length_a 18.000000
_cell_length_b 21.000000
_cell_length_c 15.000000
_cell_angle_alpha 90.000000
_cell_angle_beta 30.000000
_cell_angle_gamma 90.000000
_cell_volume 2835.000000
_symmetry_space_group_name_H-M "C 2/M"
_symmetry_group_IT_number 12
_symmetry_cell_setting 'monoclinic'
loop_
_space_group_symop_operation_xyz
x,y,z
-x,y,-z
-x,-y,-z
x,-y,z
1/2+x,1/2+y,z
1/2-x,1/2+y,-z
1/2-x,1/2-y,-z
1/2+x,1/2-y,z
loop_
_atom_site_type_symbol
_atom_site_label
_atom_site_fract_x
_atom_site_fract_y
_atom_site_fract_z
Si Si1 0.989733 0.749320 0.766038
Si Si2 0.412057 0.158828 0.499868
Si Si3 0.961561 0.425969 0.767905
Si Si4 0.173544 0.148131 0.329744
Si Si5 0.726001 0.655855 0.077510
Si Si6 0.400668 0.075888 0.187594
Si Si7 0.855951 0.768129 0.210301
O O1 0.930056 0.816800 0.792708
O O2 0.042512 0.710193 0.624469
O O3 0.103107 0.754367 0.729543
O O4 0.843989 0.714030 0.957219
O O5 0.500000 0.168234 0.500000
O O6 0.451175 0.093647 0.410433
O O7 0.239340 0.168167 0.696337
O O8 0.946925 0.500000 0.792316
O O9 0.042335 0.401428 0.775147
O O10 0.800945 0.393350 0.933010
O O11 0.221230 0.127675 0.180971
O O12 0.234936 0.098006 0.337139
O O13 0.251610 0.213200 0.278263
O O14 0.000000 0.156983 0.500000
O O15 0.410104 0.000000 0.177408
O O16 0.500000 0.100000 0.000000
O O17 0.000000 0.770662 0.000000
#
# Coordination Sequence:
#
# PCOD9223868 Si02
#       7
#     8   8   8   8   8   8   8
#     4  10  21  36  58  85 123 154 195 244 295 359
#     4  11  24  40  61  89 120 155 202 248 299 347
#     4  10  22  40  65  87 114 156 208 253 294 353
#     4  12  22  34  56  92 129 159 194 240 294 361
#     4  10  19  34  55  86 120 154 194 242 295 348
#     4  10  20  38  62  87 118 158 202 244 294 358
#     4  12  23  37  61  89 125 160 195 237 304 368
#
# _framework density 9.8765429999999999
#
# number of rings (size 3 to 8) (size 9 to 14) (size 15 to 20)
#    0.000    1.286    2.857    4.714    4.000    1.714 
#    0.000    0.000    0.000    1.286    0.000    0.000 
#    0.000    0.000    0.000    0.000    0.000    0.000 
#
# Total GULP energy -156203.015803 kJ/mol
# GULP energy per Si atom -5578.679136 kJ/mol
# Density = 0.985406 g / cm^3
# Si number density = 9.876543 Si / 1000 Ang^3
#
#
#
# Elastic Constant Matrix: (Units=GPa)
#
#
# Indices 1 2 3 4 5 6 
#
# 1 86.8605 6.8285 27.0930 -0.0011 -3.2146 0.0011
# 2 6.8285 38.7481 -2.1033 -0.0022 -8.2457 0.0015
# 3 27.0930 -2.1033 49.7955 -0.0029 -9.9973 0.0020
# 4 -0.0011 -0.0022 -0.0029 9.4291 0.0017 -0.0328
# 5 -3.2146 -8.2457 -9.9973 0.0017 30.0289 -0.0007
# 6 0.0011 0.0015 0.0020 -0.0328 -0.0007 19.7909
#
#
#
# Elastic Compliance Matrix: (Units=1/GPa)
#
#
# Indices 1 2 3 4 5 6 
#
# 1 0.014315 -0.003446 -0.008376 -0.000001 -0.002202 0.000000
# 2 -0.003446 0.028624 0.004917 0.000006 0.009128 -0.000002
# 3 -0.008376 0.004917 0.026724 0.000007 0.009351 -0.000002
# 4 -0.000001 0.000006 0.000007 0.106055 -0.000002 0.000176
# 5 -0.002202 0.009128 0.009351 -0.000002 0.038685 0.000000
# 6 0.000000 -0.000002 -0.000002 0.000176 0.000000 0.050528
#
#
# Mechanical properties :
#
#
# Convention : Reuss Voigt Hill
#
# Bulk Modulus (GPa) = 17.90437 26.56006 22.23221
# Shear Modulus (GPa) = 16.81460 21.42218 19.11839
#
# Velocity S-wave (km/s) = 2.92077 3.29674 3.11443
# Velocity P-wave (km/s) = 4.52308 5.28834 4.92061
#
# Compressibility (1/GPa) = 0.05585229
#
# Stress axis : x y z
#
# Youngs Moduli (GPa) = 69.85798 34.93530 37.41894
#
# Poissons Ratio (x) = 0.12039 0.31343
# Poissons Ratio (y) = 0.24073 -0.18397
# Poissons Ratio (z) = 0.58514 -0.17176
#
# Static dielectric constant tensor:
#      x y z
#    x 1.684650 0.000000 0.000030 
#    y 0.000000 1.736220 0.000000 
#    z 0.000030 0.000000 1.767360 
# 
# From -- ./inp_files/77617.got.cif
#   From: 2010.05.17/outbox.ucp.g08.bks.cvg/sg12_39_cif.got.tgz:77617.got - 2010.06.11 11:47:21.
