data_PCOD9223909
_publ_section_title
;
Structure prediction by ZEFSAII (Michael W. Deem and Ramdas Pophale) SiO2 
 PCOD9223909
Probable space group: C 2/M
;
_chemical_formula_sum "Si O2"
_cell_formula_units_Z 28
_cell_length_a 18.000000
_cell_length_b 9.000000
_cell_length_c 27.000000
_cell_angle_alpha 90.000000
_cell_angle_beta 40.000000
_cell_angle_gamma 90.000000
_cell_volume 2811.553005
_symmetry_space_group_name_H-M "C 2/M"
_symmetry_group_IT_number 12
_symmetry_cell_setting 'monoclinic'
loop_
_space_group_symop_operation_xyz
x,y,z
-x,y,-z
-x,-y,-z
x,-y,z
1/2+x,1/2+y,z
1/2-x,1/2+y,-z
1/2-x,1/2-y,-z
1/2+x,1/2-y,z
loop_
_atom_site_type_symbol
_atom_site_label
_atom_site_fract_x
_atom_site_fract_y
_atom_site_fract_z
Si Si1 0.935021 0.179398 0.418661
Si Si2 0.324797 0.677891 0.005866
Si Si3 0.678316 0.671927 0.266363
Si Si4 0.575249 0.328052 0.853168
Si Si5 0.578997 0.832627 0.754694
Si Si6 0.282950 0.177709 0.409957
Si Si7 0.659172 0.166269 0.181203
O O1 0.847363 0.218522 0.507883
O O2 0.871212 0.243407 0.402602
O O3 0.068244 0.230773 0.353918
O O4 0.938265 0.000000 0.413126
O O5 0.327004 0.500000 0.995832
O O6 0.457991 0.730987 0.938658
O O7 0.250000 0.750000 0.000000
O O8 0.260210 0.700416 0.090729
O O9 0.691830 0.500000 0.270758
O O10 0.802175 0.749608 0.203211
O O11 0.641861 0.704150 0.228994
O O12 0.585604 0.500000 0.860467
O O13 0.555722 0.295400 0.805572
O O14 0.681347 0.793879 0.664637
O O15 0.461051 0.845795 0.785293
O O16 0.600132 0.000000 0.765122
O O17 0.296214 0.000000 0.410415
O O18 0.681012 0.000000 0.192014
#
# Coordination Sequence:
#
# PCOD9223909 Si02
#       7
#     8   8   8   8   8   8   8
#     4   9  18  32  52  80 112 143 179 223 269 320
#     4  10  21  37  58  83 110 142 181 227 275 324
#     4  11  23  38  56  81 114 150 185 225 273 325
#     4  11  24  39  57  80 111 149 185 226 276 328
#     4  10  19  34  58  85 111 143 182 225 273 327
#     4   9  17  31  54  83 110 140 179 223 271 321
#     4  10  20  36  59  84 111 143 181 226 274 327
#
# _framework density 9.9589090000000002
#
# number of rings (size 3 to 8) (size 9 to 14) (size 15 to 20)
#    0.000    2.000    2.857    0.857    0.000    3.429 
#    0.000    3.571    0.000    4.286    0.000    0.000 
#    0.000    0.000    0.000    0.000    0.000    0.000 
#
# Total GULP energy -155921.495404 kJ/mol
# GULP energy per Si atom -5568.624836 kJ/mol
# Density = 0.993624 g / cm^3
# Si number density = 9.958909 Si / 1000 Ang^3
#
#
#
# Elastic Constant Matrix: (Units=GPa)
#
#
# Indices 1 2 3 4 5 6 
#
# 1 42.1546 5.4491 17.3973 0.0000 -28.2055 0.0001
# 2 5.4491 3.1849 15.1921 0.0000 -14.2474 0.0002
# 3 17.3973 15.1921 149.9458 0.0000 -39.1174 0.0000
# 4 0.0000 0.0000 0.0000 19.7143 0.0000 -8.5923
# 5 -28.2055 -14.2474 -39.1174 0.0000 30.0115 0.0000
# 6 0.0001 0.0002 0.0000 -8.5923 0.0000 20.9882
#
#
#
# Elastic Compliance Matrix: (Units=1/GPa)
#
#
# Indices 1 2 3 4 5 6 
#
# 1 0.031361 -0.073026 0.003644 0.000000 -0.000444 0.000001
# 2 -0.073026 -0.100656 -0.017727 0.000001 -0.139522 0.000002
# 3 0.003644 -0.017727 0.010213 0.000000 0.008321 0.000000
# 4 0.000000 0.000001 0.000000 0.061741 0.000001 0.025276
# 5 -0.000444 -0.139522 0.008321 0.000001 -0.022486 0.000002
# 6 0.000001 0.000002 0.000000 0.025276 0.000002 0.057994
#
#
# Mechanical properties :
#
#
# Convention : Reuss Voigt Hill
#
# Bulk Modulus (GPa) = -4.28632 30.15139 12.93253
# Shear Modulus (GPa) = 37.14196 24.62592 30.88394
#
# Velocity S-wave (km/s) = 4.32297 3.52003 3.94200
# Velocity P-wave (km/s) = 4.77083 5.62953 5.21787
#
# Compressibility (1/GPa) = -0.23330018
#
# Stress axis : x y z
#
# Youngs Moduli (GPa) = 31.88704 -9.93487 97.91259
#
# Poissons Ratio (x) = -0.72551 -0.35683
# Poissons Ratio (y) = 2.32860 1.73571
# Poissons Ratio (z) = -0.11621 -0.17612
#
# Static dielectric constant tensor:
#      x y z
#    x 1.712950 0.000000 0.017790 
#    y 0.000000 1.747490 0.000000 
#    z 0.017790 0.000000 1.739930 
# 
# From -- ./inp_files/275634.got.cif
#   From: 2010.05.17/outbox.ucp.g08.bks.cvg/sg12_138_cif.got.tgz:275634.got - 2010.06.11 11:47:21.
