data_PCOD9223496
_publ_section_title
;
Structure prediction by ZEFSAII (Michael W. Deem and Ramdas Pophale) SiO2 
 PCOD9223496
Probable space group: C 2/M
;
_chemical_formula_sum "Si O2"
_cell_formula_units_Z 28
_cell_length_a 30.000000
_cell_length_b 9.000000
_cell_length_c 12.000000
_cell_angle_alpha 90.000000
_cell_angle_beta 70.000000
_cell_angle_gamma 90.000000
_cell_volume 3044.604091
_symmetry_space_group_name_H-M "C 2/M"
_symmetry_group_IT_number 12
_symmetry_cell_setting 'monoclinic'
loop_
_space_group_symop_operation_xyz
x,y,z
-x,y,-z
-x,-y,-z
x,-y,z
1/2+x,1/2+y,z
1/2-x,1/2+y,-z
1/2-x,1/2-y,-z
1/2+x,1/2-y,z
loop_
_atom_site_type_symbol
_atom_site_label
_atom_site_fract_x
_atom_site_fract_y
_atom_site_fract_z
Si Si1 0.152147 0.320584 0.260733
Si Si2 0.021800 0.823133 0.735931
Si Si3 0.056347 0.329656 0.924659
Si Si4 0.819509 0.669953 0.399778
Si Si5 0.587213 0.679878 0.124522
Si Si6 0.895287 0.823572 0.484583
Si Si7 0.244553 0.669946 0.320386
O O1 0.150816 0.500000 0.253471
O O2 0.128175 0.249024 0.169939
O O3 0.120569 0.264204 0.392007
O O4 0.206553 0.281557 0.256468
O O5 0.052520 0.748247 0.808164
O O6 0.050666 0.794035 0.598251
O O7 0.966076 0.780826 0.783559
O O8 0.022652 0.000000 0.755902
O O9 0.073085 0.500000 0.904315
O O10 0.083996 0.243888 0.000287
O O11 0.000000 0.332398 0.000000
O O12 0.834933 0.500000 0.366201
O O13 0.861623 0.772565 0.410654
O O14 0.785292 0.665746 0.538286
O O15 0.790002 0.732318 0.318913
O O16 0.591778 0.500000 0.119200
O O17 0.889082 0.000000 0.508504
O O18 0.259140 0.500000 0.282686
#
# Coordination Sequence:
#
# PCOD9223496 Si02
#       7
#     8   8   8   8   8   8   8
#     4  10  20  32  45  66  95 123 155 190 226 271
#     4   9  19  33  48  67  91 122 157 190 224 268
#     4   9  17  30  49  70  89 112 148 194 236 268
#     4   9  16  26  42  64  88 114 148 188 226 265
#     4  10  19  32  49  67  91 122 155 190 228 269
#     4  10  19  31  46  65  93 126 157 186 223 272
#     4   8  15  27  42  60  85 117 149 184 224 266
#
# _framework density 9.1965979999999998
#
# number of rings (size 3 to 8) (size 9 to 14) (size 15 to 20)
#    0.000    2.714    0.000    3.000    0.000    8.000 
#    0.000    2.857    0.000    0.000    0.000    1.000 
#    0.000    0.000    0.000    0.000    0.000    0.000 
#
# Total GULP energy -155905.628991 kJ/mol
# GULP energy per Si atom -5568.058178 kJ/mol
# Density = 0.917567 g / cm^3
# Si number density = 9.196598 Si / 1000 Ang^3
#
#
#
# Elastic Constant Matrix: (Units=GPa)
#
#
# Indices 1 2 3 4 5 6 
#
# 1 75.2320 19.8882 7.2824 0.0000 42.1597 0.0000
# 2 19.8882 61.8177 5.6974 0.0000 15.2360 0.0000
# 3 7.2824 5.6974 22.1872 0.0000 16.5612 0.0000
# 4 0.0000 0.0000 0.0000 19.5632 0.0000 16.5061
# 5 42.1597 15.2360 16.5612 0.0000 36.9149 0.0000
# 6 0.0000 0.0000 0.0000 16.5061 0.0000 31.0778
#
#
#
# Elastic Compliance Matrix: (Units=1/GPa)
#
#
# Indices 1 2 3 4 5 6 
#
# 1 0.055964 -0.001606 0.043987 0.000000 -0.082987 0.000000
# 2 -0.001606 0.018083 0.000129 0.000000 -0.005687 0.000000
# 3 0.043987 0.000129 0.102444 0.000000 -0.096250 0.000000
# 4 0.000000 0.000000 0.000000 0.092624 0.000000 -0.049195
# 5 -0.082987 -0.005687 -0.096250 0.000000 0.167395 0.000000
# 6 0.000000 0.000000 0.000000 -0.049195 0.000000 0.058306
#
#
# Mechanical properties :
#
#
# Convention : Reuss Voigt Hill
#
# Bulk Modulus (GPa) = 3.82391 24.99698 14.41045
# Shear Modulus (GPa) = 10.06108 25.93578 17.99843
#
# Velocity S-wave (km/s) = 2.34134 3.75917 3.13155
# Velocity P-wave (km/s) = 3.06475 5.69751 4.57462
#
# Compressibility (1/GPa) = 0.26151209
#
# Stress axis : x y z
#
# Youngs Moduli (GPa) = 17.86854 55.30034 9.76146
#
# Poissons Ratio (x) = 0.08879 -0.42938
# Poissons Ratio (y) = 0.02869 -0.00126
# Poissons Ratio (z) = -0.78599 -0.00712
#
# Static dielectric constant tensor:
#      x y z
#    x 1.645760 0.000000 -0.029640 
#    y 0.000000 1.634700 0.000000 
#    z -0.029640 0.000000 1.657710 
# 
# From -- ./inp_files/186491.got.cif
#   From: 2010.05.17/outbox.ucp.g08.bks.cvg/sg12_94_cif.got.tgz:186491.got - 2010.06.11 11:47:21.
