data_PCOD9223754
_publ_section_title
;
Structure prediction by ZEFSAII (Michael W. Deem and Ramdas Pophale) SiO2 
 PCOD9223754
Probable space group: C 2/M
;
_chemical_formula_sum "Si O2"
_cell_formula_units_Z 28
_cell_length_a 30.000000
_cell_length_b 9.000000
_cell_length_c 12.000000
_cell_angle_alpha 90.000000
_cell_angle_beta 110.000000
_cell_angle_gamma 90.000000
_cell_volume 3044.604091
_symmetry_space_group_name_H-M "C 2/M"
_symmetry_group_IT_number 12
_symmetry_cell_setting 'monoclinic'
loop_
_space_group_symop_operation_xyz
x,y,z
-x,y,-z
-x,-y,-z
x,-y,z
1/2+x,1/2+y,z
1/2-x,1/2+y,-z
1/2-x,1/2-y,-z
1/2+x,1/2-y,z
loop_
_atom_site_type_symbol
_atom_site_label
_atom_site_fract_x
_atom_site_fract_y
_atom_site_fract_z
Si Si1 0.304137 0.323111 0.412652
Si Si2 0.454136 0.173153 0.599871
Si Si3 0.446867 0.661687 0.998555
Si Si4 0.100530 0.336035 0.221636
Si Si5 0.704583 0.831229 0.360917
Si Si6 0.443778 0.173763 0.215948
Si Si7 0.895607 0.176662 0.365949
O O1 0.309605 0.500000 0.413109
O O2 0.304457 0.270740 0.540367
O O3 0.250630 0.284373 0.331416
O O4 0.347192 0.261239 0.378219
O O5 0.414866 0.183684 0.663589
O O6 0.503860 0.219475 0.696397
O O7 0.437781 0.268403 0.482075
O O8 0.457513 0.000000 0.569317
O O9 0.435708 0.500000 0.036655
O O10 0.440145 0.785812 0.084711
O O11 0.500000 0.662594 0.000000
O O12 0.417719 0.701718 0.865473
O O13 0.080653 0.500000 0.172909
O O14 0.156367 0.337950 0.253812
O O15 0.713584 0.000000 0.410776
O O16 0.405096 0.259582 0.253376
O O17 0.439337 0.000000 0.231282
O O18 0.895079 0.000000 0.362636
#
# Coordination Sequence:
#
# PCOD9223754 Si02
#       7
#     8   8   8   8   8   8   8
#     4   9  18  31  49  76 108 138 168 210 261 307
#     4  10  20  34  52  77 106 140 177 212 253 305
#     4  11  23  37  55  78 105 136 172 216 264 310
#     4  10  19  33  55  79 106 138 174 214 256 305
#     4   9  17  31  52  77 104 136 173 211 254 307
#     4  11  23  38  55  73 102 142 183 218 252 304
#     4  11  22  34  51  77 111 143 173 213 262 311
#
# _framework density 9.1965979999999998
#
# number of rings (size 3 to 8) (size 9 to 14) (size 15 to 20)
#    0.000    1.857    2.857    1.714    0.000    5.143 
#    0.000    0.000    0.000    0.857    0.000    0.000 
#    0.000    0.000    0.000    0.000    0.000    0.000 
#
# Total GULP energy -155918.152578 kJ/mol
# GULP energy per Si atom -5568.505449 kJ/mol
# Density = 0.917567 g / cm^3
# Si number density = 9.196598 Si / 1000 Ang^3
#
#
#
# Elastic Constant Matrix: (Units=GPa)
#
#
# Indices 1 2 3 4 5 6 
#
# 1 15.6759 30.0870 5.2317 0.0000 0.3817 0.0000
# 2 30.0870 9.9035 19.6381 0.0000 -0.9821 0.0000
# 3 5.2317 19.6381 26.6711 0.0000 -9.6326 0.0000
# 4 0.0000 0.0000 0.0000 -6.9822 0.0000 -27.6764
# 5 0.3817 -0.9821 -9.6326 0.0000 17.0990 0.0000
# 6 0.0000 0.0000 0.0000 -27.6764 0.0000 0.8841
#
#
#
# Elastic Compliance Matrix: (Units=1/GPa)
#
#
# Indices 1 2 3 4 5 6 
#
# 1 0.009862 0.034076 -0.033140 0.000000 -0.016932 0.000000
# 2 0.034076 -0.019285 0.008588 0.000000 0.002970 0.000000
# 3 -0.033140 0.008588 0.047852 0.000000 0.028190 0.000000
# 4 0.000000 0.000000 0.000000 -0.001145 0.000000 -0.035843
# 5 -0.016932 0.002970 0.028190 0.000000 0.074912 0.000000
# 6 0.000000 0.000000 0.000000 -0.035843 0.000000 0.009043
#
#
# Mechanical properties :
#
#
# Convention : Reuss Voigt Hill
#
# Bulk Modulus (GPa) = 17.39831 18.01825 17.70828
# Shear Modulus (GPa) = 41.20341 2.01973 21.61157
#
# Velocity S-wave (km/s) = 4.73815 1.04903 3.43151
# Velocity P-wave (km/s) = 6.27798 3.35927 5.03477
#
# Compressibility (1/GPa) = 0.05747684
#
# Stress axis : x y z
#
# Youngs Moduli (GPa) = 101.40181 -51.85266 20.89769
#
# Poissons Ratio (x) = 1.76694 0.69256
# Poissons Ratio (y) = -3.45539 -0.17948
# Poissons Ratio (z) = 3.36049 0.44533
#
# Static dielectric constant tensor:
#      x y z
#    x 1.674080 0.000000 0.025960 
#    y 0.000000 1.666670 0.000000 
#    z 0.025960 0.000000 1.617550 
# 
# From -- ./inp_files/186804.got.cif
#   From: 2010.05.17/outbox.ucp.g08.bks.cvg/sg12_94_cif.got.tgz:186804.got - 2010.06.11 11:47:21.
