data_PCOD9223760
_publ_section_title
;
Structure prediction by ZEFSAII (Michael W. Deem and Ramdas Pophale) SiO2 
 PCOD9223760
Probable space group: C 2/M
;
_chemical_formula_sum "Si O2"
_cell_formula_units_Z 26
_cell_length_a 15.000000
_cell_length_b 21.000000
_cell_length_c 18.000000
_cell_angle_alpha 90.000000
_cell_angle_beta 150.000000
_cell_angle_gamma 90.000000
_cell_volume 2835.000000
_symmetry_space_group_name_H-M "C 2/M"
_symmetry_group_IT_number 12
_symmetry_cell_setting 'monoclinic'
loop_
_space_group_symop_operation_xyz
x,y,z
-x,y,-z
-x,-y,-z
x,-y,z
1/2+x,1/2+y,z
1/2-x,1/2+y,-z
1/2-x,1/2-y,-z
1/2+x,1/2-y,z
loop_
_atom_site_type_symbol
_atom_site_label
_atom_site_fract_x
_atom_site_fract_y
_atom_site_fract_z
Si Si1 0.697629 0.187586 0.010044
Si Si2 0.665347 0.426077 0.281515
Si Si3 0.593988 0.671052 0.345518
Si Si4 0.254827 0.925256 0.063901
Si Si5 0.000000 0.749449 0.000000
Si Si6 0.611214 0.749382 0.503158
Si Si7 0.317902 0.849230 0.257701
O O1 0.882005 0.171189 0.184156
O O2 0.750000 0.250000 0.000000
O O3 0.658616 0.126558 0.929819
O O4 0.552329 0.207277 0.966356
O O5 0.714785 0.500000 0.317298
O O6 0.664083 0.395437 0.362683
O O7 0.786603 0.385611 0.312590
O O8 0.460431 0.420310 0.103564
O O9 0.623445 0.692476 0.451772
O O10 0.687490 0.722080 0.355795
O O11 0.300819 0.899964 0.179162
O O12 0.301424 0.000000 0.086997
O O13 0.836099 0.796327 0.863927
O O14 0.500000 0.735969 0.500000
O O15 0.497222 0.807753 0.385647
#
# Coordination Sequence:
#
# PCOD9223760 Si02
#       7
#     8   8   8   8   4   8   8
#     4  11  20  35  57  84 112 143 180 229 278 327
#     4  10  19  33  55  80 110 143 175 218 277 336
#     4  10  21  37  52  78 111 146 183 220 270 325
#     4  10  20  34  54  81 114 145 175 220 280 334
#     4  12  20  32  58  86 110 134 182 236 278 318
#     4  11  22  35  55  78 111 147 183 228 268 316
#     4  12  19  33  53  85 111 139 181 225 280 325
#
# _framework density 9.1710759999999993
#
# number of rings (size 3 to 8) (size 9 to 14) (size 15 to 20)
#    0.000    1.231    6.154    1.385    0.000    1.231 
#    0.000    2.692    0.000    0.462    0.000    0.000 
#    0.000    0.000    0.000    0.000    0.000    0.000 
#
# Total GULP energy -145078.489890 kJ/mol
# GULP energy per Si atom -5579.941919 kJ/mol
# Density = 0.915020 g / cm^3
# Si number density = 9.171076 Si / 1000 Ang^3
#
#
#
# Elastic Constant Matrix: (Units=GPa)
#
#
# Indices 1 2 3 4 5 6 
#
# 1 129.5482 55.5000 2.6992 0.0059 -14.4129 -0.0009
# 2 55.5000 125.6025 12.5650 0.0193 -12.4118 0.0040
# 3 2.6992 12.5650 30.6916 0.0293 -1.9102 0.0050
# 4 0.0059 0.0193 0.0293 19.8107 0.0145 -4.7401
# 5 -14.4129 -12.4118 -1.9102 0.0145 21.7852 0.0005
# 6 -0.0009 0.0040 0.0050 -4.7401 0.0005 37.1581
#
#
#
# Elastic Compliance Matrix: (Units=1/GPa)
#
#
# Indices 1 2 3 4 5 6 
#
# 1 0.009920 -0.004060 0.001060 -0.000004 0.004342 0.000000
# 2 -0.004060 0.010417 -0.003726 -0.000006 0.002922 -0.000002
# 3 0.001060 -0.003726 0.034112 -0.000051 0.001570 -0.000011
# 4 -0.000004 -0.000006 -0.000051 0.052067 -0.000045 0.006642
# 5 0.004342 0.002922 0.001570 -0.000045 0.050578 -0.000007
# 6 0.000000 -0.000002 -0.000011 0.006642 -0.000007 0.027759
#
#
# Mechanical properties :
#
#
# Convention : Reuss Voigt Hill
#
# Bulk Modulus (GPa) = 24.39193 47.48563 35.93878
# Shear Modulus (GPa) = 23.58816 30.08934 26.83875
#
# Velocity S-wave (km/s) = 3.58999 4.05464 3.82937
# Velocity P-wave (km/s) = 5.52369 6.91846 6.26004
#
# Compressibility (1/GPa) = 0.04099716
#
# Stress axis : x y z
#
# Youngs Moduli (GPa) = 100.81083 95.99562 29.31516
#
# Poissons Ratio (x) = 0.38975 -0.03108
# Poissons Ratio (y) = 0.40930 0.10922
# Poissons Ratio (z) = -0.10687 0.35766
#
# Static dielectric constant tensor:
#      x y z
#    x 1.634720 0.000000 -0.007380 
#    y 0.000000 1.622830 0.000000 
#    z -0.007380 0.000000 1.704290 
# 
# From -- ./inp_files/99010.got.cif
#   From: 2010.05.17/outbox.ucp.g08.bks.cvg/sg12_50_cif.got.tgz:99010.got - 2010.06.11 11:47:21.
