data_PCOD9223124
_publ_section_title
;
Structure prediction by ZEFSAII (Michael W. Deem and Ramdas Pophale) SiO2 
 PCOD9223124
Probable space group: C 2/M
;
_chemical_formula_sum "Si O2"
_cell_formula_units_Z 56
_cell_length_a 26.328657
_cell_length_b 7.385834
_cell_length_c 15.695627
_cell_angle_alpha 90.000000
_cell_angle_beta 55.851195
_cell_angle_gamma 90.000000
_cell_volume 2525.911937
_symmetry_space_group_name_H-M "C 2/M"
_symmetry_group_IT_number 12
_symmetry_cell_setting 'monoclinic'
loop_
_space_group_symop_operation_xyz
x,y,z
-x,y,-z
-x,-y,-z
x,-y,z
1/2+x,1/2+y,z
1/2-x,1/2+y,-z
1/2-x,1/2-y,-z
1/2+x,1/2-y,z
loop_
_atom_site_type_symbol
_atom_site_label
_atom_site_fract_x
_atom_site_fract_y
_atom_site_fract_z
Si Si1 0.149788 0.709996 0.573936
Si Si2 0.839206 0.779662 0.987355
Si Si3 0.229311 0.278543 0.204299
Si Si4 0.107964 0.706415 0.245937
Si Si5 0.265381 0.719221 0.356761
Si Si6 0.485916 0.220054 0.278770
Si Si7 0.961872 0.787459 0.956822
O O1 0.144653 0.500000 0.554006
O O2 0.204666 0.785660 0.464326
O O3 0.175527 0.720116 0.645911
O O4 0.081557 0.786112 0.632971
O O5 0.857513 0.706862 0.877999
O O6 0.893454 0.719473 0.000601
O O7 0.840608 0.000000 0.980597
O O8 0.773800 0.722819 0.085626
O O9 0.227369 0.500000 0.204814
O O10 0.159423 0.213644 0.259511
O O11 0.259524 0.224896 0.264891
O O12 0.097143 0.500000 0.284383
O O13 0.041397 0.786092 0.286945
O O14 0.266176 0.500000 0.358739
O O15 0.501879 0.269397 0.166387
O O16 0.486679 0.000000 0.280816
O O17 0.953425 0.000000 0.983217
O O18 0.000000 0.709662 0.000000
#
# Coordination Sequence:
#
# PCOD9223124 Si02
#       7
#     8   8   8   8   8   8   8
#     4   9  18  33  49  69  95 120 150 189 232 277
#     4   9  17  29  44  65  93 121 151 189 227 263
#     4   9  17  29  48  70  91 117 154 193 227 266
#     4   9  17  31  47  66  92 123 155 184 221 273
#     4   9  18  32  51  71  91 118 153 192 232 272
#     4   9  18  31  47  65  92 125 150 181 229 276
#     4   9  18  29  43  66  93 119 154 192 221 263
#
# _framework density 22.170211999999999
#
# number of rings (size 3 to 8) (size 9 to 14) (size 15 to 20)
#    0.000    3.000    0.000    0.429    2.000    0.857 
#    0.000    2.143    0.000    4.286    0.000    0.000 
#    0.000    9.143    0.000    0.000    0.000    0.000 
#
# Total GULP energy -156209.800855 kJ/mol
# GULP energy per Si atom -5578.921459 kJ/mol
# Density = 2.211975 g / cm^3
# Si number density = 22.170212 Si / 1000 Ang^3
#
#
#
# Elastic Constant Matrix: (Units=GPa)
#
#
# Indices 1 2 3 4 5 6 
#
# 1 65.4141 -1.6172 12.1414 0.0004 -34.1863 0.0005
# 2 -1.6172 73.3106 -10.4470 0.0005 -1.2476 0.0013
# 3 12.1414 -10.4470 22.8546 0.0000 -19.3657 0.0000
# 4 0.0004 0.0005 0.0000 13.6455 0.0000 7.1595
# 5 -34.1863 -1.2476 -19.3657 0.0000 35.7406 0.0001
# 6 0.0005 0.0013 0.0000 7.1595 0.0001 16.9683
#
#
#
# Elastic Compliance Matrix: (Units=1/GPa)
#
#
# Indices 1 2 3 4 5 6 
#
# 1 0.035382 0.004784 0.022572 -0.000001 0.046241 -0.000001
# 2 0.004784 0.016455 0.017276 0.000000 0.014511 -0.000001
# 3 0.022572 0.017276 0.108095 -0.000001 0.080763 -0.000002
# 4 -0.000001 0.000000 -0.000001 0.094120 -0.000001 -0.039712
# 5 0.046241 0.014511 0.080763 -0.000001 0.116477 -0.000002
# 6 -0.000001 -0.000001 -0.000002 -0.039712 -0.000002 0.075689
#
#
# Mechanical properties :
#
#
# Convention : Reuss Voigt Hill
#
# Bulk Modulus (GPa) = 4.01291 17.97042 10.99167
# Shear Modulus (GPa) = 11.36315 24.03769 17.70042
#
# Velocity S-wave (km/s) = 2.26639 3.29634 2.82864
# Velocity P-wave (km/s) = 2.94325 4.75511 3.95435
#
# Compressibility (1/GPa) = 0.24919582
#
# Stress axis : x y z
#
# Youngs Moduli (GPa) = 28.26298 60.77177 9.25114
#
# Poissons Ratio (x) = -0.29073 -0.20882
# Poissons Ratio (y) = -0.13521 -0.15982
# Poissons Ratio (z) = -0.63795 -1.04991
#
# Static dielectric constant tensor:
#      x y z
#    x 1.847770 0.000000 -0.011420 
#    y 0.000000 1.795150 0.000000 
#    z -0.011420 0.000000 1.768330 
# 
# From -- ./inp_files/238336.got.cif
#   From: 2010.05.17/outbox.cif.g08.bks.cpg/sg12_120_cif.got.tgz:238336.got - 2010.06.03 13:09:07.
