data_PCOD9223195
_publ_section_title
;
Structure prediction by ZEFSAII (Michael W. Deem and Ramdas Pophale) SiO2 
 PCOD9223195
Probable space group: C 2/M
;
_chemical_formula_sum "Si O2"
_cell_formula_units_Z 24
_cell_length_a 21.000000
_cell_length_b 15.000000
_cell_length_c 15.000000
_cell_angle_alpha 90.000000
_cell_angle_beta 40.000000
_cell_angle_gamma 90.000000
_cell_volume 3037.171456
_symmetry_space_group_name_H-M "C 2/M"
_symmetry_group_IT_number 12
_symmetry_cell_setting 'monoclinic'
loop_
_space_group_symop_operation_xyz
x,y,z
-x,y,-z
-x,-y,-z
x,-y,z
1/2+x,1/2+y,z
1/2-x,1/2+y,-z
1/2-x,1/2-y,-z
1/2+x,1/2-y,z
loop_
_atom_site_type_symbol
_atom_site_label
_atom_site_fract_x
_atom_site_fract_y
_atom_site_fract_z
Si Si1 0.766062 0.275164 0.769666
Si Si2 0.416275 0.601159 0.015402
Si Si3 0.239681 0.603297 0.919429
Si Si4 0.540257 0.396216 0.234294
Si Si5 0.551916 0.752674 0.541282
Si Si6 0.398888 0.893283 0.762764
O O1 0.744252 0.180097 0.840101
O O2 0.833624 0.262603 0.609448
O O3 0.828155 0.339128 0.770623
O O4 0.665139 0.328632 0.866447
O O5 0.374082 0.500000 0.051003
O O6 0.459186 0.624524 0.871625
O O7 0.500000 0.598482 0.000000
O O8 0.232350 0.500000 0.895391
O O9 0.344978 0.611166 0.857783
O O10 0.151743 0.618337 0.085647
O O11 0.510359 0.500000 0.278893
O O12 0.476734 0.328260 0.362281
O O13 0.500000 0.736275 0.500000
O O14 0.503013 0.842008 0.636154
O O15 0.403884 0.000000 0.739732
#
# Coordination Sequence:
#
# PCOD9223195 Si02
#       6
#     8   8   8   8   8   8
#     4  11  19  31  48  72 103 127 159 199 245 294
#     4  10  21  36  55  74  91 125 175 213 240 273
#     4  10  18  29  50  75  99 130 162 199 245 291
#     4  10  18  32  51  72 102 132 160 203 243 282
#     4  10  20  29  43  75 106 133 151 186 247 314
#     4  10  18  28  43  68 101 133 159 189 239 297
#
# _framework density 7.9020890000000001
#
# number of rings (size 3 to 8) (size 9 to 14) (size 15 to 20)
#    0.000    1.833    5.000    2.000    0.000    4.667 
#    0.000    0.833    0.000    0.500    0.000    0.000 
#    0.000    0.000    0.000    0.000    0.000    0.000 
#
# Total GULP energy -133766.258240 kJ/mol
# GULP energy per Si atom -5573.594093 kJ/mol
# Density = 0.788410 g / cm^3
# Si number density = 7.902089 Si / 1000 Ang^3
#
#
#
# Elastic Constant Matrix: (Units=GPa)
#
#
# Indices 1 2 3 4 5 6 
#
# 1 33.0494 31.5622 31.0943 0.0000 1.1234 0.0000
# 2 31.5622 130.6777 91.5351 0.0000 3.5242 0.0000
# 3 31.0943 91.5351 149.9751 0.0000 10.9594 0.0000
# 4 0.0000 0.0000 0.0000 29.0218 0.0000 4.8814
# 5 1.1234 3.5242 10.9594 0.0000 7.3928 0.0000
# 6 0.0000 0.0000 0.0000 4.8814 0.0000 15.4807
#
#
#
# Elastic Compliance Matrix: (Units=1/GPa)
#
#
# Indices 1 2 3 4 5 6 
#
# 1 0.040938 -0.006721 -0.004671 0.000000 0.003908 0.000000
# 2 -0.006721 0.014748 -0.008039 0.000000 0.005909 0.000000
# 3 -0.004671 -0.008039 0.013694 0.000000 -0.015759 0.000000
# 4 0.000000 0.000000 0.000000 0.036387 0.000000 -0.011473
# 5 0.003908 0.005909 -0.015759 0.000000 0.155217 0.000000
# 6 0.000000 0.000000 0.000000 -0.011473 0.000000 0.068214
#
#
# Mechanical properties :
#
#
# Convention : Reuss Voigt Hill
#
# Bulk Modulus (GPa) = 32.76825 69.12060 50.94443
# Shear Modulus (GPa) = 13.21932 21.01311 17.11622
#
# Velocity S-wave (km/s) = 2.89527 3.65031 3.29449
# Velocity P-wave (km/s) = 5.65294 7.84837 6.83932
#
# Compressibility (1/GPa) = 0.03051734
#
# Stress axis : x y z
#
# Youngs Moduli (GPa) = 24.42696 67.80748 73.02208
#
# Poissons Ratio (x) = 0.45574 0.34110
# Poissons Ratio (y) = 0.16418 0.58705
# Poissons Ratio (z) = 0.11410 0.54512
#
# Static dielectric constant tensor:
#      x y z
#    x 1.514700 0.000000 -0.013530 
#    y 0.000000 1.541240 0.000000 
#    z -0.013530 0.000000 1.539920 
# 
# From -- ./inp_files/166550.got.cif
#   From: 2010.05.17/outbox.ucp.g08.bks.cvg/sg12_84_cif.got.tgz:166550.got - 2010.06.11 11:47:21.
