data_PCOD9223502
_publ_section_title
;
Structure prediction by ZEFSAII (Michael W. Deem and Ramdas Pophale) SiO2 
 PCOD9223502
Probable space group: C 2/M
;
_chemical_formula_sum "Si O2"
_cell_formula_units_Z 28
_cell_length_a 15.000000
_cell_length_b 9.000000
_cell_length_c 27.000000
_cell_angle_alpha 90.000000
_cell_angle_beta 60.000000
_cell_angle_gamma 90.000000
_cell_volume 3156.662597
_symmetry_space_group_name_H-M "C 2/M"
_symmetry_group_IT_number 12
_symmetry_cell_setting 'monoclinic'
loop_
_space_group_symop_operation_xyz
x,y,z
-x,y,-z
-x,-y,-z
x,-y,z
1/2+x,1/2+y,z
1/2-x,1/2+y,-z
1/2-x,1/2-y,-z
1/2+x,1/2-y,z
loop_
_atom_site_type_symbol
_atom_site_label
_atom_site_fract_x
_atom_site_fract_y
_atom_site_fract_z
Si Si1 0.027929 0.678888 0.237075
Si Si2 0.462868 0.321653 0.152563
Si Si3 0.241602 0.820436 0.851618
Si Si4 0.855789 0.820258 0.577937
Si Si5 0.632330 0.820696 0.636977
Si Si6 0.075594 0.820483 0.550953
Si Si7 0.303939 0.322112 0.937922
O O1 0.021826 0.500000 0.235405
O O2 0.149333 0.717241 0.205210
O O3 0.975817 0.746531 0.202509
O O4 0.962146 0.728239 0.302633
O O5 0.456621 0.500000 0.160577
O O6 0.361167 0.275547 0.149992
O O7 0.573039 0.289241 0.095991
O O8 0.253976 0.745358 0.901893
O O9 0.237666 0.000000 0.858669
O O10 0.743732 0.773826 0.627245
O O11 0.873089 0.778051 0.515655
O O12 0.955933 0.772349 0.580181
O O13 0.858929 0.000000 0.577667
O O14 0.624252 0.755301 0.584626
O O15 0.630672 0.000000 0.634746
O O16 0.080954 0.000000 0.553564
O O17 0.292113 0.500000 0.941163
O O18 0.250000 0.250000 0.000000
#
# Coordination Sequence:
#
# PCOD9223502 Si02
#       7
#     8   8   8   8   8   8   8
#     4   9  19  33  49  70  97 126 158 196 241 285
#     4   9  19  35  54  72  95 129 165 196 231 275
#     4   9  18  35  54  71  96 131 163 195 235 279
#     4   8  16  31  48  65  92 125 156 191 238 291
#     4  10  19  31  47  70  97 123 152 196 247 286
#     4   9  17  31  49  67  88 123 163 194 230 287
#     4  10  20  34  52  77 104 129 159 196 233 275
#
# _framework density 8.8701279999999993
#
# number of rings (size 3 to 8) (size 9 to 14) (size 15 to 20)
#    0.000    2.857    0.000    1.714    0.000    3.429 
#    0.000    5.000    0.000    0.000    0.000    0.000 
#    0.000    0.000    0.000    0.000    0.000    0.000 
#
# Total GULP energy -156011.699847 kJ/mol
# GULP energy per Si atom -5571.846423 kJ/mol
# Density = 0.884994 g / cm^3
# Si number density = 8.870128 Si / 1000 Ang^3
#
#
#
# Elastic Constant Matrix: (Units=GPa)
#
#
# Indices 1 2 3 4 5 6 
#
# 1 128.8738 15.5029 14.2068 0.0000 -12.2672 0.0000
# 2 15.5029 7.2241 3.3451 0.0000 -5.2107 0.0000
# 3 14.2068 3.3451 7.9084 0.0000 -13.9970 0.0000
# 4 0.0000 0.0000 0.0000 22.7607 0.0000 7.9042
# 5 -12.2672 -5.2107 -13.9970 0.0000 13.9720 0.0000
# 6 0.0000 0.0000 0.0000 7.9042 0.0000 24.4126
#
#
#
# Elastic Compliance Matrix: (Units=1/GPa)
#
#
# Indices 1 2 3 4 5 6 
#
# 1 0.009955 -0.017579 0.008514 0.000000 0.010714 0.000000
# 2 -0.017579 0.201813 -0.067404 0.000000 -0.007695 0.000000
# 3 0.008514 -0.067404 -0.140229 0.000000 -0.158142 0.000000
# 4 0.000000 0.000000 0.000000 0.049501 0.000000 -0.016027
# 5 0.010714 -0.007695 -0.158142 0.000000 -0.080316 0.000000
# 6 0.000000 0.000000 0.000000 -0.016027 0.000000 0.046152
#
#
# Mechanical properties :
#
#
# Convention : Reuss Voigt Hill
#
# Bulk Modulus (GPa) = -12.28529 23.34623 5.53047
# Shear Modulus (GPa) = 23.50927 19.62580 21.56753
#
# Velocity S-wave (km/s) = 3.64427 3.32970 3.49053
# Velocity P-wave (km/s) = 3.28138 5.28877 4.40106
#
# Compressibility (1/GPa) = -0.08139814
#
# Stress axis : x y z
#
# Youngs Moduli (GPa) = 100.44699 4.95509 -7.13121
#
# Poissons Ratio (x) = 0.08711 0.06071
# Poissons Ratio (y) = 1.76577 -0.48067
# Poissons Ratio (z) = -0.85519 0.33399
#
# Static dielectric constant tensor:
#      x y z
#    x 1.602370 0.000000 -0.039300 
#    y 0.000000 1.590610 0.000000 
#    z -0.039300 0.000000 1.605540 
# 
# From -- ./inp_files/308903.got.cif
#   From: 2010.05.17/outbox.ucp.g08.bks.cvg/sg12_155_cif.got.tgz:308903.got - 2010.06.11 11:47:21.
