data_PCOD9223531
_publ_section_title
;
Structure prediction by ZEFSAII (Michael W. Deem and Ramdas Pophale) SiO2 
 PCOD9223531
Probable space group: C 2/M
;
_chemical_formula_sum "Si O2"
_cell_formula_units_Z 32
_cell_length_a 30.000000
_cell_length_b 9.000000
_cell_length_c 15.000000
_cell_angle_alpha 90.000000
_cell_angle_beta 130.000000
_cell_angle_gamma 90.000000
_cell_volume 3102.479995
_symmetry_space_group_name_H-M "C 2/M"
_symmetry_group_IT_number 12
_symmetry_cell_setting 'monoclinic'
loop_
_space_group_symop_operation_xyz
x,y,z
-x,y,-z
-x,-y,-z
x,-y,z
1/2+x,1/2+y,z
1/2-x,1/2+y,-z
1/2-x,1/2-y,-z
1/2+x,1/2-y,z
loop_
_atom_site_type_symbol
_atom_site_label
_atom_site_fract_x
_atom_site_fract_y
_atom_site_fract_z
Si Si1 0.864438 0.328593 0.406331
Si Si2 0.653444 0.177366 0.316623
Si Si3 0.051166 0.338061 0.637262
Si Si4 0.457325 0.669874 0.207716
Si Si5 0.741785 0.821604 0.276520
Si Si6 0.586418 0.322886 0.370773
Si Si7 0.865987 0.327137 0.986834
Si Si8 0.431826 0.668468 0.924574
O O1 0.869816 0.500000 0.443860
O O2 0.888260 0.325818 0.336666
O O3 0.799485 0.269187 0.333217
O O4 0.906077 0.222703 0.517259
O O5 0.711136 0.208993 0.333075
O O6 0.642326 0.238574 0.400379
O O7 0.602688 0.271473 0.203912
O O8 0.644345 0.000000 0.300384
O O9 0.049480 0.500000 0.684083
O O10 0.039697 0.199222 0.684298
O O11 0.000000 0.345821 0.500000
O O12 0.455589 0.500000 0.177382
O O13 0.521154 0.726709 0.256536
O O14 0.395027 0.741494 0.104766
O O15 0.693570 0.782981 0.138930
O O16 0.752087 0.000000 0.286119
O O17 0.590832 0.500000 0.363166
O O18 0.862286 0.500000 0.000472
O O19 0.915165 0.287032 0.977468
O O20 0.411889 0.500000 0.920158
O O21 0.500000 0.663829 0.000000
#
# Coordination Sequence:
#
# PCOD9223531 Si02
#       8
#     8   8   8   8   8   8   8   8
#     4  11  23  39  63  89 112 150 195 237 290 349
#     4  10  21  36  55  80 112 154 200 239 283 339
#     4  10  21  40  63  88 119 149 185 235 291 351
#     4  11  23  37  59  91 122 152 190 238 294 347
#     4   9  21  41  60  82 115 155 197 241 286 335
#     4  11  23  37  56  86 122 155 191 240 294 344
#     4  10  21  37  58  82 113 155 196 236 286 340
#     4  10  19  31  49  76 112 150 191 239 290 340
#
# _framework density 10.314329000000001
#
# number of rings (size 3 to 8) (size 9 to 14) (size 15 to 20)
#    0.000    1.750    1.250    3.750    0.000   10.250 
#    0.000    0.625    0.000    0.000    0.000    0.000 
#    0.000    0.000    0.000    0.000    0.000    0.000 
#
# Total GULP energy -178192.647369 kJ/mol
# GULP energy per Si atom -5568.520230 kJ/mol
# Density = 1.029085 g / cm^3
# Si number density = 10.314329 Si / 1000 Ang^3
#
#
#
# Elastic Constant Matrix: (Units=GPa)
#
#
# Indices 1 2 3 4 5 6 
#
# 1 92.3547 37.7865 16.3050 0.0000 14.7719 0.0000
# 2 37.7865 38.7629 24.3893 0.0000 15.5736 0.0000
# 3 16.3050 24.3893 35.8649 0.0000 1.2542 0.0000
# 4 0.0000 0.0000 0.0000 61.0325 0.0000 -5.8930
# 5 14.7719 15.5736 1.2542 0.0000 17.8305 0.0000
# 6 0.0000 0.0000 0.0000 -5.8930 0.0000 18.5555
#
#
#
# Elastic Compliance Matrix: (Units=1/GPa)
#
#
# Indices 1 2 3 4 5 6 
#
# 1 0.019510 -0.029175 0.010670 0.000000 0.008568 0.000000
# 2 -0.029175 0.143685 -0.081103 0.000000 -0.095622 0.000000
# 3 0.010670 -0.081103 0.076203 0.000000 0.056637 0.000000
# 4 0.000000 0.000000 0.000000 0.016903 0.000000 0.005368
# 5 0.008568 -0.095622 0.056637 0.000000 0.128521 0.000000
# 6 0.000000 0.000000 0.000000 0.005368 0.000000 0.055597
#
#
# Mechanical properties :
#
#
# Convention : Reuss Voigt Hill
#
# Bulk Modulus (GPa) = 24.88554 35.99378 30.43966
# Shear Modulus (GPa) = 7.65664 25.38382 16.52023
#
# Velocity S-wave (km/s) = 1.92865 3.51167 2.83298
# Velocity P-wave (km/s) = 4.12909 5.82484 5.04867
#
# Compressibility (1/GPa) = 0.04018398
#
# Stress axis : x y z
#
# Youngs Moduli (GPa) = 51.25474 6.95968 13.12284
#
# Poissons Ratio (x) = 0.20305 -0.14003
# Poissons Ratio (y) = 1.49536 1.06430
# Poissons Ratio (z) = -0.54691 0.56445
#
# Static dielectric constant tensor:
#      x y z
#    x 1.909440 0.000000 -0.327320 
#    y 0.000000 1.732690 0.000000 
#    z -0.327320 0.000000 2.326000 
# 
# From -- ./inp_files/250077.got.cif
#   From: 2010.05.17/outbox.ucp.g08.bks.cvg/sg12_126_cif.got.tgz:250077.got - 2010.06.11 11:47:21.
