data_PCOD9223414
_publ_section_title
;
Structure prediction by ZEFSAII (Michael W. Deem and Ramdas Pophale) SiO2 
 PCOD9223414
Probable space group: C 2/M
;
_chemical_formula_sum "Si O2"
_cell_formula_units_Z 32
_cell_length_a 21.000000
_cell_length_b 9.000000
_cell_length_c 24.000000
_cell_angle_alpha 90.000000
_cell_angle_beta 50.000000
_cell_angle_gamma 90.000000
_cell_volume 3474.777594
_symmetry_space_group_name_H-M "C 2/M"
_symmetry_group_IT_number 12
_symmetry_cell_setting 'monoclinic'
loop_
_space_group_symop_operation_xyz
x,y,z
-x,y,-z
-x,-y,-z
x,-y,z
1/2+x,1/2+y,z
1/2-x,1/2+y,-z
1/2-x,1/2-y,-z
1/2+x,1/2-y,z
loop_
_atom_site_type_symbol
_atom_site_label
_atom_site_fract_x
_atom_site_fract_y
_atom_site_fract_z
Si Si1 0.811981 0.178672 0.668552
Si Si2 0.535602 0.819796 0.107941
Si Si3 0.645241 0.819223 0.827706
Si Si4 0.283131 0.177276 0.567049
Si Si5 0.673415 0.820515 0.940251
Si Si6 0.568847 0.321301 0.298788
Si Si7 0.650911 0.178645 0.145556
Si Si8 0.875238 0.178314 0.410869
O O1 0.727035 0.225012 0.747675
O O2 0.812044 0.252982 0.608499
O O3 0.889568 0.215011 0.665055
O O4 0.810502 0.000000 0.662852
O O5 0.441589 0.766461 0.150279
O O6 0.584047 0.772259 0.136387
O O7 0.531431 0.000000 0.112520
O O8 0.594985 0.781710 0.022719
O O9 0.655932 0.775540 0.886226
O O10 0.643231 0.000000 0.828635
O O11 0.187047 0.215114 0.605099
O O12 0.337811 0.241363 0.485821
O O13 0.290145 0.000000 0.564967
O O14 0.757702 0.746294 0.914967
O O15 0.683681 0.000000 0.935842
O O16 0.577824 0.500000 0.286119
O O17 0.619251 0.238366 0.222517
O O18 0.471598 0.282844 0.349152
O O19 0.655612 0.000000 0.142172
O O20 0.870642 0.000000 0.421853
#
# Coordination Sequence:
#
# PCOD9223414 Si02
#       8
#     8   8   8   8   8   8   8   8
#     4  10  20  35  57  81 108 144 185 226 266 315
#     4   9  19  32  52  82 108 137 182 232 276 320
#     4   9  17  32  54  81 106 137 185 231 268 312
#     4  10  21  37  58  86 116 144 176 216 270 322
#     4  10  18  35  59  77 103 143 186 228 269 321
#     4  10  21  39  59  80 106 144 190 224 261 316
#     4  11  22  34  51  80 114 143 175 223 281 328
#     4   9  20  39  61  83 111 145 182 221 260 314
#
# _framework density 9.2092220000000005
#
# number of rings (size 3 to 8) (size 9 to 14) (size 15 to 20)
#    0.000    2.250    1.250    1.500    1.750    3.500 
#    0.000    3.125    0.000    3.750    0.000    0.000 
#    0.000    0.000    0.000    0.000    0.000    0.000 
#
# Total GULP energy -178585.150707 kJ/mol
# GULP energy per Si atom -5580.785960 kJ/mol
# Density = 0.918826 g / cm^3
# Si number density = 9.209222 Si / 1000 Ang^3
#
#
#
# Elastic Constant Matrix: (Units=GPa)
#
#
# Indices 1 2 3 4 5 6 
#
# 1 55.3672 3.8437 -14.8918 0.0001 -7.7594 0.0000
# 2 3.8437 9.4273 2.8658 0.0000 -2.3969 0.0000
# 3 -14.8918 2.8658 15.3402 0.0000 -2.1039 0.0000
# 4 0.0001 0.0000 0.0000 19.5136 0.0000 -3.4413
# 5 -7.7594 -2.3969 -2.1039 0.0000 40.8781 0.0000
# 6 0.0000 0.0000 0.0000 -3.4413 0.0000 23.4871
#
#
#
# Elastic Compliance Matrix: (Units=1/GPa)
#
#
# Indices 1 2 3 4 5 6 
#
# 1 0.029194 -0.020392 0.032979 0.000000 0.006043 0.000000
# 2 -0.020392 0.127971 -0.043511 0.000000 0.001393 0.000000
# 3 0.032979 -0.043511 0.106593 0.000000 0.009195 0.000000
# 4 0.000000 0.000000 0.000000 0.052606 0.000000 0.007708
# 5 0.006043 0.001393 0.009195 0.000000 0.026165 0.000000
# 6 0.000000 0.000000 0.000000 0.007708 0.000000 0.043706
#
#
# Mechanical properties :
#
#
# Convention : Reuss Voigt Hill
#
# Bulk Modulus (GPa) = 4.95272 7.08556 6.01914
# Shear Modulus (GPa) = 9.70148 22.66355 16.18251
#
# Velocity S-wave (km/s) = 2.29754 3.51163 2.96734
# Velocity P-wave (km/s) = 3.11979 4.50526 3.87495
#
# Compressibility (1/GPa) = 0.20190922
#
# Stress axis : x y z
#
# Youngs Moduli (GPa) = 34.25367 7.81428 9.38150
#
# Poissons Ratio (x) = 0.15935 -0.30939
# Poissons Ratio (y) = 0.69849 0.40820
# Poissons Ratio (z) = -1.12965 0.34001
#
# Static dielectric constant tensor:
#      x y z
#    x 1.637160 0.000000 -0.004410 
#    y 0.000000 1.612590 0.000000 
#    z -0.004410 0.000000 1.614680 
# 
# From -- ./inp_files/346029.got.cif
#   From: 2010.05.17/outbox.ucp.g08.bks.cvg/sg12_174_cif.got.tgz:346029.got - 2010.06.11 11:47:21.
