data_PCOD9223647
_publ_section_title
;
Structure prediction by ZEFSAII (Michael W. Deem and Ramdas Pophale) SiO2 
 PCOD9223647
Probable space group: C 2/M
;
_chemical_formula_sum "Si O2"
_cell_formula_units_Z 24
_cell_length_a 24.000000
_cell_length_b 9.000000
_cell_length_c 18.000000
_cell_angle_alpha 90.000000
_cell_angle_beta 50.000000
_cell_angle_gamma 90.000000
_cell_volume 2978.380795
_symmetry_space_group_name_H-M "C 2/M"
_symmetry_group_IT_number 12
_symmetry_cell_setting 'monoclinic'
loop_
_space_group_symop_operation_xyz
x,y,z
-x,y,-z
-x,-y,-z
x,-y,z
1/2+x,1/2+y,z
1/2-x,1/2+y,-z
1/2-x,1/2-y,-z
1/2+x,1/2-y,z
loop_
_atom_site_type_symbol
_atom_site_label
_atom_site_fract_x
_atom_site_fract_y
_atom_site_fract_z
Si Si1 0.240086 0.179534 0.888138
Si Si2 0.967299 0.679929 0.302281
Si Si3 0.568446 0.178786 0.495550
Si Si4 0.804130 0.320694 0.390837
Si Si5 0.869022 0.320656 0.896862
Si Si6 0.279183 0.679791 0.692164
O O1 0.313172 0.208015 0.875597
O O2 0.252645 0.249535 0.794370
O O3 0.231889 0.000000 0.888862
O O4 0.171860 0.245624 0.996023
O O5 0.970193 0.500000 0.298226
O O6 0.954969 0.722827 0.399951
O O7 0.889804 0.723123 0.329312
O O8 0.046846 0.725667 0.198229
O O9 0.500000 0.206868 0.500000
O O10 0.641347 0.257711 0.401625
O O11 0.582012 0.000000 0.484754
O O12 0.800753 0.500000 0.403060
O O13 0.750000 0.250000 0.500000
O O14 0.773861 0.286696 0.333513
O O15 0.870345 0.500000 0.907642
O O16 0.282330 0.500000 0.697650
#
# Coordination Sequence:
#
# PCOD9223647 Si02
#       6
#     8   8   8   8   8   8
#     4  10  20  35  56  80 107 140 175 215 269 324
#     4   9  17  32  54  77 103 136 175 218 263 314
#     4  10  19  32  53  79 106 138 175 216 265 321
#     4  10  20  35  54  76 104 142 183 219 263 314
#     4   9  18  35  58  81 104 134 176 221 265 316
#     4  11  22  34  51  78 109 141 179 220 264 315
#
# _framework density 8.0580700000000007
#
# number of rings (size 3 to 8) (size 9 to 14) (size 15 to 20)
#    0.000    2.167    1.667    2.000    0.000    4.333 
#    0.000    2.500    0.000    5.000    0.000    0.000 
#    0.000    0.000    0.000    0.000    0.000    0.000 
#
# Total GULP energy -133679.347696 kJ/mol
# GULP energy per Si atom -5569.972821 kJ/mol
# Density = 0.803973 g / cm^3
# Si number density = 8.058070 Si / 1000 Ang^3
#
#
#
# Elastic Constant Matrix: (Units=GPa)
#
#
# Indices 1 2 3 4 5 6 
#
# 1 143.7882 38.1568 90.6173 0.0001 -3.9009 -0.0001
# 2 38.1568 57.1977 50.8085 0.0002 3.2064 -0.0003
# 3 90.6173 50.8085 195.2256 0.0001 -4.8286 -0.0001
# 4 0.0001 0.0002 0.0001 41.0752 -0.0001 -1.9186
# 5 -3.9009 3.2064 -4.8286 -0.0001 41.4456 0.0001
# 6 -0.0001 -0.0003 -0.0001 -1.9186 0.0001 22.0851
#
#
#
# Elastic Compliance Matrix: (Units=1/GPa)
#
#
# Indices 1 2 3 4 5 6 
#
# 1 0.010346 -0.003509 -0.003869 0.000000 0.000794 0.000000
# 2 -0.003509 0.024183 -0.004733 0.000000 -0.002753 0.000000
# 3 -0.003869 -0.004733 0.008174 0.000000 0.000954 0.000000
# 4 0.000000 0.000000 0.000000 0.024445 0.000000 0.002124
# 5 0.000794 -0.002753 0.000954 0.000000 0.024527 0.000000
# 6 0.000000 0.000000 0.000000 0.002124 0.000000 0.045464
#
#
# Mechanical properties :
#
#
# Convention : Reuss Voigt Hill
#
# Bulk Modulus (GPa) = 54.11416 83.93072 69.02244
# Shear Modulus (GPa) = 29.84707 35.36312 32.60510
#
# Velocity S-wave (km/s) = 4.30815 4.68938 4.50280
# Velocity P-wave (km/s) = 7.64182 9.02841 8.36390
#
# Compressibility (1/GPa) = 0.01847945
#
# Stress axis : x y z
#
# Youngs Moduli (GPa) = 96.65610 41.35178 122.34460
#
# Poissons Ratio (x) = 0.14511 0.47339
# Poissons Ratio (y) = 0.33919 0.57904
# Poissons Ratio (z) = 0.37399 0.19571
#
# Static dielectric constant tensor:
#      x y z
#    x 1.563510 0.000000 0.000700 
#    y 0.000000 1.550010 0.000000 
#    z 0.000700 0.000000 1.533160 
# 
# From -- ./inp_files/287247.got.cif
#   From: 2010.05.17/outbox.ucp.g08.bks.cvg/sg12_144_cif.got.tgz:287247.got - 2010.06.11 11:47:21.
