data_PCOD9223412
_publ_section_title
;
Structure prediction by ZEFSAII (Michael W. Deem and Ramdas Pophale) SiO2 
 PCOD9223412
Probable space group: C 2/M
;
_chemical_formula_sum "Si O2"
_cell_formula_units_Z 28
_cell_length_a 9.000000
_cell_length_b 30.000000
_cell_length_c 21.000000
_cell_angle_alpha 90.000000
_cell_angle_beta 150.000000
_cell_angle_gamma 90.000000
_cell_volume 2835.000000
_symmetry_space_group_name_H-M "C 2/M"
_symmetry_group_IT_number 12
_symmetry_cell_setting 'monoclinic'
loop_
_space_group_symop_operation_xyz
x,y,z
-x,y,-z
-x,-y,-z
x,-y,z
1/2+x,1/2+y,z
1/2-x,1/2+y,-z
1/2-x,1/2-y,-z
1/2+x,1/2-y,z
loop_
_atom_site_type_symbol
_atom_site_label
_atom_site_fract_x
_atom_site_fract_y
_atom_site_fract_z
Si Si1 0.727970 0.598131 0.779852
Si Si2 0.800131 0.765000 0.806465
Si Si3 0.833874 0.097985 0.503499
Si Si4 0.593523 0.000000 0.440552
Si Si5 0.212402 0.747437 0.635103
Si Si6 0.373391 0.824249 0.024163
Si Si7 0.681851 0.857252 0.627706
Si Si8 0.474665 0.500000 0.275785
O O1 0.565965 0.602687 0.649804
O O2 0.489563 0.617192 0.742557
O O3 0.725490 0.544924 0.793818
O O4 0.015008 0.630917 0.896486
O O5 0.530243 0.771608 0.754647
O O6 0.620942 0.753174 0.674860
O O7 0.971094 0.719802 0.888558
O O8 0.028654 0.806731 0.889951
O O9 0.557270 0.132397 0.407152
O O10 0.000000 0.106765 0.500000
O O11 0.694584 0.047692 0.448964
O O12 0.234153 0.000000 0.317481
O O13 0.797242 0.000000 0.579851
O O14 0.250460 0.694105 0.638855
O O15 0.000000 0.764231 0.500000
O O16 0.500000 0.829061 0.000000
O O17 0.500000 0.876771 0.500000
#
# Coordination Sequence:
#
# PCOD9223412 Si02
#       8
#     8   8   8   4   8   8   8   4
#     4  10  18  35  57  84 117 162 207 251 301 359
#     4  11  22  40  62  89 115 159 205 241 306 369
#     4  10  19  31  51  87 126 162 201 253 315 367
#     4   9  15  28  52  82 123 168 196 255 306 362
#     4  11  22  40  62  91 122 155 188 255 321 366
#     4  11  22  40  64  81 117 166 208 253 292 353
#     4   9  17  32  52  75 119 162 197 239 301 356
#     4   9  16  28  57  88 117 157 217 246 298 365
#
# _framework density 9.8765429999999999
#
# number of rings (size 3 to 8) (size 9 to 14) (size 15 to 20)
#    0.000    1.857    4.286    0.643    0.000    0.000 
#    2.571    0.357    3.143    0.000    0.000    0.000 
#    0.000    3.429    0.000    0.643    0.000    0.000 
#
# Total GULP energy -155887.610261 kJ/mol
# GULP energy per Si atom -5567.414652 kJ/mol
# Density = 0.985406 g / cm^3
# Si number density = 9.876543 Si / 1000 Ang^3
#
#
#
# Elastic Constant Matrix: (Units=GPa)
#
#
# Indices 1 2 3 4 5 6 
#
# 1 93.0358 17.4591 26.2163 -0.0001 14.0051 0.0000
# 2 17.4591 95.6614 36.8894 -0.0001 9.4449 0.0000
# 3 26.2163 36.8894 76.0521 0.0018 4.5146 0.0004
# 4 -0.0001 -0.0001 0.0018 35.1546 0.0000 6.1683
# 5 14.0051 9.4449 4.5146 0.0000 31.2714 0.0002
# 6 0.0000 0.0000 0.0004 6.1683 0.0002 18.5066
#
#
#
# Elastic Compliance Matrix: (Units=1/GPa)
#
#
# Indices 1 2 3 4 5 6 
#
# 1 0.012665 -0.000305 -0.003920 0.000000 -0.005014 0.000000
# 2 -0.000305 0.013153 -0.006100 0.000000 -0.002956 0.000000
# 3 -0.003920 -0.006100 0.017394 -0.000001 0.001087 0.000000
# 4 0.000000 0.000000 -0.000001 0.030213 0.000000 -0.010070
# 5 -0.005014 -0.002956 0.001087 0.000000 0.034959 0.000000
# 6 0.000000 0.000000 0.000000 -0.010070 0.000000 0.057391
#
#
# Mechanical properties :
#
#
# Convention : Reuss Voigt Hill
#
# Bulk Modulus (GPa) = 44.31937 47.31990 45.81963
# Shear Modulus (GPa) = 25.78031 29.26548 27.52290
#
# Velocity S-wave (km/s) = 3.61657 3.85329 3.73681
# Velocity P-wave (km/s) = 6.31861 6.61852 6.47030
#
# Compressibility (1/GPa) = 0.02256350
#
# Stress axis : x y z
#
# Youngs Moduli (GPa) = 78.95608 76.02786 57.48972
#
# Poissons Ratio (x) = 0.02316 0.22539
# Poissons Ratio (y) = 0.02405 0.35066
# Poissons Ratio (z) = 0.30955 0.46373
#
# Static dielectric constant tensor:
#      x y z
#    x 1.753290 0.000000 -0.010960 
#    y 0.000000 1.691740 0.000000 
#    z -0.010960 0.000000 1.739200 
# 
# From -- ./inp_files/303090.got.cif
#   From: 2010.05.17/outbox.ucp.g08.bks.cvg/sg12_152_cif.got.tgz:303090.got - 2010.06.11 11:47:21.
