data_PCOD9223036
_publ_section_title
;
Structure prediction by ZEFSAII (Michael W. Deem and Ramdas Pophale) SiO2 
 PCOD9223036
Probable space group: C 2/M
;
_chemical_formula_sum "Si O2"
_cell_formula_units_Z 40
_cell_length_a 20.210465
_cell_length_b 13.256534
_cell_length_c 6.977766
_cell_angle_alpha 90.000000
_cell_angle_beta 60.771675
_cell_angle_gamma 90.000000
_cell_volume 1631.466322
_symmetry_space_group_name_H-M "C 2/M"
_symmetry_group_IT_number 12
_symmetry_cell_setting 'monoclinic'
loop_
_space_group_symop_operation_xyz
x,y,z
-x,y,-z
-x,-y,-z
x,-y,z
1/2+x,1/2+y,z
1/2-x,1/2+y,-z
1/2-x,1/2-y,-z
1/2+x,1/2-y,z
loop_
_atom_site_type_symbol
_atom_site_label
_atom_site_fract_x
_atom_site_fract_y
_atom_site_fract_z
Si Si1 0.432370 0.652713 0.353193
Si Si2 0.267779 0.609313 0.660080
Si Si3 0.744660 0.844748 0.243032
Si Si4 0.581417 0.843372 0.359799
Si Si5 0.593637 0.335877 0.064049
O O1 0.358882 0.600652 0.541381
O O2 0.426552 0.761521 0.458510
O O3 0.517968 0.613810 0.257278
O O4 0.417973 0.661999 0.147279
O O5 0.234890 0.500000 0.768111
O O6 0.251086 0.720929 0.770044
O O7 0.247924 0.623809 0.461672
O O8 0.665740 0.885022 0.271264
O O9 0.822009 0.878383 0.028941
O O10 0.500000 0.897037 0.500000
O O11 0.587933 0.777167 0.156739
#
# Coordination Sequence:
#
# PCOD9223036 Si02
#       5
#     8   8   8   8   8
#     4   8  16  28  44  71  98 127 162 191 242 302
#     4   9  17  31  51  74 102 131 161 202 246 293
#     4   9  17  29  48  74  96 130 171 197 243 296
#     4   9  16  27  47  71  96 129 163 201 246 286
#     4   9  15  27  47  71 100 127 159 200 235 288
#
# _framework density 24.517821000000001
#
# number of rings (size 3 to 8) (size 9 to 14) (size 15 to 20)
#    0.000    3.200    0.000    1.800    0.000    0.000 
#    0.000    8.000    0.000   69.000    0.000   68.600 
#    0.000    0.000    0.000    0.000    0.000    0.000 
#
# Total GULP energy -111412.994650 kJ/mol
# GULP energy per Si atom -5570.649732 kJ/mol
# Density = 2.446202 g / cm^3
# Si number density = 24.517821 Si / 1000 Ang^3
#
#
#
# Elastic Constant Matrix: (Units=GPa)
#
#
# Indices 1 2 3 4 5 6 
#
# 1 156.5180 30.3863 47.7419 0.0000 -51.0201 0.0000
# 2 30.3863 138.5672 15.8522 0.0000 -10.6066 0.0000
# 3 47.7419 15.8522 114.9023 0.0000 -23.6671 0.0000
# 4 0.0000 0.0000 0.0000 -8.5456 0.0000 -2.6248
# 5 -51.0201 -10.6066 -23.6671 0.0000 46.1780 0.0000
# 6 0.0000 0.0000 0.0000 -2.6248 0.0000 -14.8172
#
#
#
# Elastic Compliance Matrix: (Units=1/GPa)
#
#
# Indices 1 2 3 4 5 6 
#
# 1 0.010684 -0.001303 -0.002113 0.000000 0.010422 0.000000
# 2 -0.001303 0.007562 -0.000493 0.000000 0.000044 0.000000
# 3 -0.002113 -0.000493 0.010224 0.000000 0.002793 0.000000
# 4 0.000000 0.000000 0.000000 -0.123753 0.000000 0.021922
# 5 0.010422 0.000044 0.002793 0.000000 0.034611 0.000000
# 6 0.000000 0.000000 0.000000 0.021922 0.000000 -0.071373
#
#
# Mechanical properties :
#
#
# Convention : Reuss Voigt Hill
#
# Bulk Modulus (GPa) = 48.41960 66.43871 57.42916
# Shear Modulus (GPa) = -42.61038 25.63018 -8.49010
#
# Velocity S-wave (km/s) = -4.17338 3.23673 -1.86289
# Velocity P-wave (km/s) = 1.85234 6.41291 4.34133
#
# Compressibility (1/GPa) = 0.02065279
#
# Stress axis : x y z
#
# Youngs Moduli (GPa) = 93.60084 132.23509 97.80881
#
# Poissons Ratio (x) = 0.17235 0.20663
# Poissons Ratio (y) = 0.12200 0.04818
# Poissons Ratio (z) = 0.19774 0.06514
#
# Static dielectric constant tensor:
#      x y z
#    x 2.036220 0.000000 -0.030090 
#    y 0.000000 1.942690 0.000000 
#    z -0.030090 0.000000 1.963040 
# 
# From -- ./inp_files/84946.got.cif
#   From: 2010.05.17/outbox.cif.g08.bks.cpg/sg12_43_cif.got.tgz:84946.got - 2010.06.03 13:09:07.
