data_PCOD9223131
_publ_section_title
;
Structure prediction by ZEFSAII (Michael W. Deem and Ramdas Pophale) SiO2 
 PCOD9223131
Probable space group: C 2/M
;
_chemical_formula_sum "Si O2"
_cell_formula_units_Z 56
_cell_length_a 22.123889
_cell_length_b 31.393276
_cell_length_c 9.366065
_cell_angle_alpha 90.000000
_cell_angle_beta 153.543014
_cell_angle_gamma 90.000000
_cell_volume 2898.198735
_symmetry_space_group_name_H-M "C 2/M"
_symmetry_group_IT_number 12
_symmetry_cell_setting 'monoclinic'
loop_
_space_group_symop_operation_xyz
x,y,z
-x,y,-z
-x,-y,-z
x,-y,z
1/2+x,1/2+y,z
1/2-x,1/2+y,-z
1/2-x,1/2-y,-z
1/2+x,1/2-y,z
loop_
_atom_site_type_symbol
_atom_site_label
_atom_site_fract_x
_atom_site_fract_y
_atom_site_fract_z
Si Si1 0.588058 0.132770 0.879648
Si Si2 0.137663 0.094527 0.878720
Si Si3 0.119379 0.265248 0.433169
Si Si4 0.679466 0.201419 0.258863
Si Si5 0.813282 0.669241 0.208910
Si Si6 0.220942 0.450803 0.072286
Si Si7 0.995383 0.950120 0.154763
O O1 0.430305 0.143198 0.540290
O O2 0.651589 0.160735 0.882313
O O3 0.652918 0.153314 0.156170
O O4 0.617536 0.083725 0.915725
O O5 0.243562 0.066388 0.011199
O O6 0.109775 0.077247 0.976241
O O7 0.000000 0.088565 0.500000
O O8 0.177537 0.143922 0.956121
O O9 0.186726 0.220230 0.534412
O O10 0.180099 0.293295 0.430266
O O11 0.172035 0.283895 0.694719
O O12 0.956051 0.271554 0.077842
O O13 0.179063 0.500000 0.982339
O O14 0.357469 0.447007 0.457532
O O15 0.956683 0.000000 0.079780
O O16 0.000000 0.937185 0.000000
#
# Coordination Sequence:
#
# PCOD9223131 Si02
#       7
#     8   8   8   8   8   8   8
#     4   9  18  33  52  72 100 131 165 204 246 296
#     4   9  17  31  48  69  97 129 163 205 245 297
#     4   9  18  34  53  74  99 135 165 205 248 304
#     4   9  18  34  53  74 102 132 168 202 252 299
#     4   9  18  33  50  71 100 129 161 203 246 293
#     4   9  17  31  50  71  98 132 166 204 247 293
#     4   9  17  29  46  68  95 126 163 207 251 291
#
# _framework density 19.322347000000001
#
# number of rings (size 3 to 8) (size 9 to 14) (size 15 to 20)
#    0.000    3.000    0.000    0.429    0.000    3.429 
#    7.714    6.429    0.000    0.000    0.000   11.000 
#    0.000    0.000    0.000    0.000    0.000    0.000 
#
# Total GULP energy -155934.583179 kJ/mol
# GULP energy per Si atom -5569.092256 kJ/mol
# Density = 1.927837 g / cm^3
# Si number density = 19.322347 Si / 1000 Ang^3
#
#
#
# Elastic Constant Matrix: (Units=GPa)
#
#
# Indices 1 2 3 4 5 6 
#
# 1 33.2809 2.7485 8.9255 0.0000 -6.5349 0.0000
# 2 2.7485 19.5382 3.4599 0.0000 5.2356 0.0000
# 3 8.9255 3.4599 8.5646 0.0000 -3.0504 0.0000
# 4 0.0000 0.0000 0.0000 21.2405 0.0000 -1.0012
# 5 -6.5349 5.2356 -3.0504 0.0000 29.8777 0.0000
# 6 0.0000 0.0000 0.0000 -1.0012 0.0000 24.6057
#
#
#
# Elastic Compliance Matrix: (Units=1/GPa)
#
#
# Indices 1 2 3 4 5 6 
#
# 1 0.042395 0.000262 -0.042549 0.000000 0.004883 0.000000
# 2 0.000262 0.059927 -0.029267 0.000000 -0.013432 0.000000
# 3 -0.042549 -0.029267 0.177907 0.000000 0.013986 0.000000
# 4 0.000000 0.000000 0.000000 0.047170 0.000000 0.001919
# 5 0.004883 -0.013432 0.013986 0.000000 0.038319 0.000000
# 6 0.000000 0.000000 0.000000 0.001919 0.000000 0.040719
#
#
# Mechanical properties :
#
#
# Convention : Reuss Voigt Hill
#
# Bulk Modulus (GPa) = 7.29277 10.18350 8.73813
# Shear Modulus (GPa) = 8.39980 18.22808 13.31394
#
# Velocity S-wave (km/s) = 2.08725 3.07476 2.62781
# Velocity P-wave (km/s) = 3.09698 4.22934 3.70666
#
# Compressibility (1/GPa) = 0.13712218
#
# Stress axis : x y z
#
# Youngs Moduli (GPa) = 23.58750 16.68699 5.62092
#
# Poissons Ratio (x) = -0.00438 0.23916
# Poissons Ratio (y) = -0.00619 0.16451
# Poissons Ratio (z) = 1.00362 0.48838
#
# Static dielectric constant tensor:
#      x y z
#    x 1.681830 0.000000 0.000350 
#    y 0.000000 1.664500 0.000000 
#    z 0.000350 0.000000 1.704400 
# 
# From -- ./inp_files/91612.got.cif
#   From: 2010.05.17/outbox.cif.g08.bks.cpg/sg12_46_cif.got.tgz:91612.got - 2010.06.03 13:09:07.
