data_PCOD9223050
_publ_section_title
;
Structure prediction by ZEFSAII (Michael W. Deem and Ramdas Pophale) SiO2 
 PCOD9223050
Probable space group: C 2/M
;
_chemical_formula_sum "Si O2"
_cell_formula_units_Z 56
_cell_length_a 30.235159
_cell_length_b 7.251930
_cell_length_c 28.542349
_cell_angle_alpha 90.000000
_cell_angle_beta 155.858781
_cell_angle_gamma 90.000000
_cell_volume 2559.558934
_symmetry_space_group_name_H-M "C 2/M"
_symmetry_group_IT_number 12
_symmetry_cell_setting 'monoclinic'
loop_
_space_group_symop_operation_xyz
x,y,z
-x,y,-z
-x,-y,-z
x,-y,z
1/2+x,1/2+y,z
1/2-x,1/2+y,-z
1/2-x,1/2-y,-z
1/2+x,1/2-y,z
loop_
_atom_site_type_symbol
_atom_site_label
_atom_site_fract_x
_atom_site_fract_y
_atom_site_fract_z
Si Si1 0.533968 0.225095 0.634079
Si Si2 0.934328 0.775493 0.800187
Si Si3 0.597529 0.723537 0.881601
Si Si4 0.205147 0.724790 0.616031
Si Si5 0.431087 0.724084 0.978921
Si Si6 0.298715 0.775982 0.279528
Si Si7 0.679206 0.210896 0.859376
O O1 0.409831 0.283968 0.515695
O O2 0.593335 0.278925 0.643350
O O3 0.608671 0.289513 0.749148
O O4 0.532077 0.000000 0.633474
O O5 0.812183 0.715617 0.692058
O O6 0.991364 0.719597 0.807156
O O7 0.934038 0.000000 0.800277
O O8 0.010086 0.717148 0.916860
O O9 0.601571 0.500000 0.884110
O O10 0.610627 0.786656 0.841040
O O11 0.704044 0.788378 0.013171
O O12 0.206565 0.500000 0.617480
O O13 0.210462 0.782391 0.675587
O O14 0.431253 0.500000 0.979776
O O15 0.307507 0.781561 0.852073
O O16 0.500000 0.779265 0.000000
O O17 0.298256 0.000000 0.279888
O O18 0.702399 0.000000 0.867672
#
# Coordination Sequence:
#
# PCOD9223050 Si02
#       7
#     8   8   8   8   8   8   8
#     4   9  16  24  35  52  77 110 140 165 201 248
#     4   9  15  23  35  54  80 108 135 166 207 245
#     4   9  17  29  46  64  82 106 138 175 210 245
#     4   9  15  22  32  50  79 111 138 164 198 247
#     4   9  13  18  29  47  73 103 131 160 198 243
#     4   9  14  20  31  49  75 108 139 164 197 245
#     4   9  17  30  45  62  84 108 137 173 211 246
#
# _framework density 21.878769999999999
#
# number of rings (size 3 to 8) (size 9 to 14) (size 15 to 20)
#    0.000    3.000    1.429    1.286    0.000    5.143 
#    0.000    0.714    0.000    0.000    0.000    0.000 
#    0.000    4.000    0.000    0.429    0.000    0.000 
#
# Total GULP energy -156391.863826 kJ/mol
# GULP energy per Si atom -5585.423708 kJ/mol
# Density = 2.182897 g / cm^3
# Si number density = 21.878770 Si / 1000 Ang^3
#
#
#
# Elastic Constant Matrix: (Units=GPa)
#
#
# Indices 1 2 3 4 5 6 
#
# 1 118.4612 -7.6666 52.7894 0.0000 30.6341 0.0000
# 2 -7.6666 98.5960 -0.1669 -0.0003 0.2309 -0.0005
# 3 52.7894 -0.1669 97.3974 0.0000 20.7343 0.0000
# 4 0.0000 -0.0003 0.0000 -21.5162 0.0000 7.9659
# 5 30.6341 0.2309 20.7343 0.0000 26.9407 0.0000
# 6 0.0000 -0.0005 0.0000 7.9659 0.0000 -22.3929
#
#
#
# Elastic Compliance Matrix: (Units=1/GPa)
#
#
# Indices 1 2 3 4 5 6 
#
# 1 0.013787 0.001092 -0.004941 0.000000 -0.011884 0.000000
# 2 0.001092 0.010229 -0.000348 0.000000 -0.001061 0.000000
# 3 -0.004941 -0.000348 0.014050 0.000000 -0.005192 0.000000
# 4 0.000000 0.000000 0.000000 -0.053526 0.000000 -0.019041
# 5 -0.011884 -0.001061 -0.005192 0.000000 0.054637 0.000000
# 6 0.000000 0.000000 0.000000 -0.019041 0.000000 -0.051431
#
#
# Mechanical properties :
#
#
# Convention : Reuss Voigt Hill
#
# Bulk Modulus (GPa) = 33.70287 44.92961 39.31624
# Shear Modulus (GPa) = 828.91068 14.57290 421.74179
#
# Velocity S-wave (km/s) = 19.48558 2.58364 13.89897
# Velocity P-wave (km/s) = 22.84049 5.42960 16.60073
#
# Compressibility (1/GPa) = 0.02967106
#
# Stress axis : x y z
#
# Youngs Moduli (GPa) = 72.53068 97.75971 71.17520
#
# Poissons Ratio (x) = -0.10671 0.35167
# Poissons Ratio (y) = -0.07917 0.02479
# Poissons Ratio (z) = 0.35837 0.03404
#
# Static dielectric constant tensor:
#      x y z
#    x 1.755570 0.000000 0.011940 
#    y 0.000000 1.909600 0.000000 
#    z 0.011940 0.000000 1.760800 
# 
# From -- ./inp_files/174005.got.cif
#   From: 2010.05.17/outbox.cif.g08.bks.cpg/sg12_88_cif.got.tgz:174005.got - 2010.06.03 13:09:07.
