data_PCOD9223965
_publ_section_title
;
Structure prediction by ZEFSAII (Michael W. Deem and Ramdas Pophale) SiO2 
 PCOD9223965
Probable space group: C 2/M
;
_chemical_formula_sum "Si O2"
_cell_formula_units_Z 32
_cell_length_a 24.000000
_cell_length_b 9.000000
_cell_length_c 30.000000
_cell_angle_alpha 90.000000
_cell_angle_beta 150.000000
_cell_angle_gamma 90.000000
_cell_volume 3240.000000
_symmetry_space_group_name_H-M "C 2/M"
_symmetry_group_IT_number 12
_symmetry_cell_setting 'monoclinic'
loop_
_space_group_symop_operation_xyz
x,y,z
-x,y,-z
-x,-y,-z
x,-y,z
1/2+x,1/2+y,z
1/2-x,1/2+y,-z
1/2-x,1/2-y,-z
1/2+x,1/2-y,z
loop_
_atom_site_type_symbol
_atom_site_label
_atom_site_fract_x
_atom_site_fract_y
_atom_site_fract_z
Si Si1 0.847942 0.329821 0.125369
Si Si2 0.600737 0.324757 0.750066
Si Si3 0.910141 0.171757 0.078797
Si Si4 0.123875 0.322243 0.202070
Si Si5 0.194390 0.322371 0.734991
Si Si6 0.215455 0.820363 0.356237
Si Si7 0.856122 0.821971 0.596265
Si Si8 0.970697 0.679893 0.529808
O O1 0.882355 0.500000 0.159230
O O2 0.877204 0.213678 0.183643
O O3 0.902466 0.271762 0.117708
O O4 0.714324 0.328886 0.026783
O O5 0.611483 0.500000 0.748474
O O6 0.684883 0.229001 0.779065
O O7 0.472020 0.277093 0.654058
O O8 0.003318 0.246526 0.112758
O O9 0.940348 0.000000 0.109872
O O10 0.117779 0.500000 0.197434
O O11 0.209097 0.260673 0.224480
O O12 0.169651 0.262121 0.281275
O O13 0.206031 0.500000 0.738244
O O14 0.074580 0.273580 0.631714
O O15 0.147085 0.785055 0.353425
O O16 0.344805 0.775684 0.454007
O O17 0.212751 0.000000 0.346949
O O18 0.750000 0.750000 0.500000
O O19 0.847455 0.000000 0.587281
O O20 0.970534 0.500000 0.530613
O O21 0.000000 0.727472 0.500000
#
# Coordination Sequence:
#
# PCOD9223965 Si02
#       8
#     8   8   8   8   8   8   8   8
#     4  10  21  39  65  95 120 150 193 236 287 348
#     4  11  23  39  58  85 122 159 197 239 292 352
#     4  10  21  39  64  92 122 152 187 237 291 345
#     4  12  24  37  56  87 120 151 191 240 293 348
#     4  11  22  39  61  82 112 156 202 247 293 347
#     4  10  19  35  57  81 112 152 197 239 290 349
#     4  10  22  37  56  82 115 155 195 239 287 339
#     4   9  16  30  54  81 106 144 197 245 288 339
#
# _framework density 9.8765429999999999
#
# number of rings (size 3 to 8) (size 9 to 14) (size 15 to 20)
#    0.000    1.625    1.250    4.125    0.000    5.000 
#    0.000    2.500    0.000    3.750    0.000    0.000 
#    0.000    0.000    0.000    0.000    0.000    0.000 
#
# Total GULP energy -178732.875775 kJ/mol
# GULP energy per Si atom -5585.402368 kJ/mol
# Density = 0.985406 g / cm^3
# Si number density = 9.876543 Si / 1000 Ang^3
#
#
#
# Elastic Constant Matrix: (Units=GPa)
#
#
# Indices 1 2 3 4 5 6 
#
# 1 105.1260 24.7549 20.2112 0.0000 29.0920 0.0002
# 2 24.7549 64.5906 8.2163 0.0001 22.5255 0.0005
# 3 20.2112 8.2163 33.3531 -0.0001 18.6119 0.0000
# 4 0.0000 0.0001 -0.0001 26.7508 -0.0001 -1.0016
# 5 29.0920 22.5255 18.6119 -0.0001 28.2357 0.0000
# 6 0.0002 0.0005 0.0000 -1.0016 0.0000 26.5863
#
#
#
# Elastic Compliance Matrix: (Units=1/GPa)
#
#
# Indices 1 2 3 4 5 6 
#
# 1 0.013329 -0.000560 -0.000830 0.000000 -0.012739 0.000000
# 2 -0.000560 0.022478 0.007097 0.000000 -0.022033 0.000000
# 3 -0.000830 0.007097 0.049701 0.000000 -0.037567 0.000000
# 4 0.000000 0.000000 0.000000 0.037435 0.000000 0.001410
# 5 -0.012739 -0.022033 -0.037567 0.000000 0.090883 0.000001
# 6 0.000000 0.000000 0.000000 0.001410 0.000001 0.037667
#
#
# Mechanical properties :
#
#
# Convention : Reuss Voigt Hill
#
# Bulk Modulus (GPa) = 10.31760 34.38161 22.34960
# Shear Modulus (GPa) = 18.35633 26.30703 22.33168
#
# Velocity S-wave (km/s) = 3.05173 3.65333 3.36600
# Velocity P-wave (km/s) = 4.20143 5.93627 5.14253
#
# Compressibility (1/GPa) = 0.09692178
#
# Stress axis : x y z
#
# Youngs Moduli (GPa) = 75.02219 44.48796 20.12044
#
# Poissons Ratio (x) = 0.02492 0.01671
# Poissons Ratio (y) = 0.04203 -0.14280
# Poissons Ratio (z) = 0.06230 -0.31575
#
# Static dielectric constant tensor:
#      x y z
#    x 1.685920 0.000000 -0.006580 
#    y 0.000000 1.654200 0.000000 
#    z -0.006580 0.000000 1.728210 
# 
# From -- ./inp_files/382479.got.cif
#   From: 2010.05.17/outbox.ucp.g08.bks.cvg/sg12_192_cif.got.tgz:382479.got - 2010.06.11 11:47:21.
