data_PCOD9223708
_publ_section_title
;
Structure prediction by ZEFSAII (Michael W. Deem and Ramdas Pophale) SiO2 
 PCOD9223708
Probable space group: C 2/M
;
_chemical_formula_sum "Si O2"
_cell_formula_units_Z 32
_cell_length_a 15.000000
_cell_length_b 9.000000
_cell_length_c 27.000000
_cell_angle_alpha 90.000000
_cell_angle_beta 100.000000
_cell_angle_gamma 90.000000
_cell_volume 3589.624260
_symmetry_space_group_name_H-M "C 2/M"
_symmetry_group_IT_number 12
_symmetry_cell_setting 'monoclinic'
loop_
_space_group_symop_operation_xyz
x,y,z
-x,y,-z
-x,-y,-z
x,-y,z
1/2+x,1/2+y,z
1/2-x,1/2+y,-z
1/2-x,1/2-y,-z
1/2+x,1/2-y,z
loop_
_atom_site_type_symbol
_atom_site_label
_atom_site_fract_x
_atom_site_fract_y
_atom_site_fract_z
Si Si1 0.335056 0.678741 0.710877
Si Si2 0.887066 0.178046 0.116414
Si Si3 0.786916 0.321542 0.554152
Si Si4 0.601956 0.171098 0.988943
Si Si5 0.454624 0.320867 0.625512
Si Si6 0.427195 0.320415 0.822786
Si Si7 0.832074 0.178373 0.359620
Si Si8 0.315992 0.179523 0.900564
O O1 0.324269 0.500000 0.710922
O O2 0.408650 0.711930 0.674618
O O3 0.376467 0.728063 0.767680
O O4 0.238445 0.749598 0.686349
O O5 0.897293 0.240955 0.062044
O O6 0.786465 0.217853 0.123555
O O7 0.967560 0.224977 0.160858
O O8 0.890754 0.000000 0.113203
O O9 0.793632 0.500000 0.550097
O O10 0.750000 0.250000 0.500000
O O11 0.884729 0.255422 0.580176
O O12 0.714825 0.289079 0.591576
O O13 0.627615 0.000000 0.981110
O O14 0.500000 0.172648 0.000000
O O15 0.663203 0.226693 0.040704
O O16 0.451511 0.500000 0.617914
O O17 0.561316 0.276219 0.632842
O O18 0.423260 0.500000 0.823221
O O19 0.380493 0.255568 0.867200
O O20 0.830478 0.000000 0.352540
O O21 0.328622 0.000000 0.900563
#
# Coordination Sequence:
#
# PCOD9223708 Si02
#       8
#     8   8   8   8   8   8   8   8
#     4   9  19  35  54  75 102 133 168 213 263 309
#     4  10  21  35  53  76 101 131 170 209 251 306
#     4  10  20  34  52  79 114 146 180 219 259 306
#     4  10  19  33  53  75 102 132 165 206 255 308
#     4   9  18  35  57  78 103 139 178 217 262 306
#     4  10  21  36  52  75 104 132 165 210 258 306
#     4   9  19  35  56  80 104 137 180 219 257 306
#     4  10  21  36  53  75 101 133 169 207 253 309
#
# _framework density 8.9145819999999993
#
# number of rings (size 3 to 8) (size 9 to 14) (size 15 to 20)
#    0.000    2.375    1.250    0.750    0.000    4.250 
#    0.000    5.000    0.000    0.000    0.000    0.000 
#    0.000    0.000    0.000    0.000    0.000    0.000 
#
# Total GULP energy -178426.214138 kJ/mol
# GULP energy per Si atom -5575.819192 kJ/mol
# Density = 0.889429 g / cm^3
# Si number density = 8.914582 Si / 1000 Ang^3
#
#
#
# Elastic Constant Matrix: (Units=GPa)
#
#
# Indices 1 2 3 4 5 6 
#
# 1 133.6946 25.2286 41.5109 0.0000 32.6148 0.0000
# 2 25.2286 13.1347 18.3055 0.0000 9.7080 0.0000
# 3 41.5109 18.3055 103.3951 0.0000 34.8275 0.0000
# 4 0.0000 0.0000 0.0000 29.0156 0.0000 4.5329
# 5 32.6148 9.7080 34.8275 0.0000 28.6127 0.0000
# 6 0.0000 0.0000 0.0000 4.5329 0.0000 26.4421
#
#
#
# Elastic Compliance Matrix: (Units=1/GPa)
#
#
# Indices 1 2 3 4 5 6 
#
# 1 0.013309 -0.020319 0.001766 0.000000 -0.010426 0.000000
# 2 -0.020319 0.140302 -0.014320 0.000000 -0.007012 0.000000
# 3 0.001766 -0.014320 0.017863 0.000000 -0.018898 0.000000
# 4 0.000000 0.000000 0.000000 0.035413 0.000000 -0.006071
# 5 -0.010426 -0.007012 -0.018898 0.000000 0.072216 0.000000
# 6 0.000000 0.000000 0.000000 -0.006071 0.000000 0.038859
#
#
# Mechanical properties :
#
#
# Convention : Reuss Voigt Hill
#
# Bulk Modulus (GPa) = 9.45815 46.70160 28.07988
# Shear Modulus (GPa) = 11.93457 27.82603 19.88030
#
# Velocity S-wave (km/s) = 2.59005 3.95486 3.34285
# Velocity P-wave (km/s) = 3.77636 6.86333 5.53923
#
# Compressibility (1/GPa) = 0.10572890
#
# Stress axis : x y z
#
# Youngs Moduli (GPa) = 75.13660 7.12747 55.98036
#
# Poissons Ratio (x) = 0.14482 -0.09886
# Poissons Ratio (y) = 1.52667 0.80165
# Poissons Ratio (z) = -0.13269 0.10207
#
# Static dielectric constant tensor:
#      x y z
#    x 1.623510 0.000000 0.011360 
#    y 0.000000 1.606350 0.000000 
#    z 0.011360 0.000000 1.596800 
# 
# From -- ./inp_files/359704.got.cif
#   From: 2010.05.17/outbox.ucp.g08.bks.cvg/sg12_180_cif.got.tgz:359704.got - 2010.06.11 11:47:21.
