data_PCOD9223246
_publ_section_title
;
Structure prediction by ZEFSAII (Michael W. Deem and Ramdas Pophale) SiO2 
 PCOD9223246
Probable space group: C 2/M
;
_chemical_formula_sum "Si O2"
_cell_formula_units_Z 32
_cell_length_a 30.000000
_cell_length_b 9.000000
_cell_length_c 15.000000
_cell_angle_alpha 90.000000
_cell_angle_beta 130.000000
_cell_angle_gamma 90.000000
_cell_volume 3102.479995
_symmetry_space_group_name_H-M "C 2/M"
_symmetry_group_IT_number 12
_symmetry_cell_setting 'monoclinic'
loop_
_space_group_symop_operation_xyz
x,y,z
-x,y,-z
-x,-y,-z
x,-y,z
1/2+x,1/2+y,z
1/2-x,1/2+y,-z
1/2-x,1/2-y,-z
1/2+x,1/2-y,z
loop_
_atom_site_type_symbol
_atom_site_label
_atom_site_fract_x
_atom_site_fract_y
_atom_site_fract_z
Si Si1 0.238181 0.178728 0.644055
Si Si2 0.389115 0.177361 0.502692
Si Si3 0.139114 0.826150 0.904848
Si Si4 0.882819 0.174136 0.307530
Si Si5 0.756815 0.672315 0.869863
Si Si6 0.350561 0.671814 0.747596
Si Si7 0.435231 0.325541 0.012196
Si Si8 0.547630 0.328119 0.259322
O O1 0.174579 0.252427 0.554534
O O2 0.263243 0.219113 0.775076
O O3 0.291146 0.239567 0.653196
O O4 0.231624 0.000000 0.630237
O O5 0.401144 0.234059 0.417303
O O6 0.438328 0.237142 0.633611
O O7 0.385262 0.000000 0.500937
O O8 0.351380 0.500000 0.100733
O O9 0.101773 0.770777 0.771893
O O10 0.102022 0.812655 0.946234
O O11 0.201326 0.757286 0.009350
O O12 0.812407 0.185158 0.207691
O O13 0.898074 0.000000 0.341358
O O14 0.772609 0.500000 0.897338
O O15 0.335347 0.500000 0.751765
O O16 0.391461 0.668945 0.714376
O O17 0.393929 0.735290 0.880530
O O18 0.443947 0.500000 0.998856
O O19 0.498700 0.270431 0.126160
O O20 0.531216 0.500000 0.260184
#
# Coordination Sequence:
#
# PCOD9223246 Si02
#       8
#     8   8   8   8   8   8   8   8
#     4  10  20  35  56  83 116 149 178 222 280 332
#     4  11  23  39  58  79 107 145 191 236 272 322
#     4  10  18  30  53  82 111 142 180 225 269 323
#     4   9  19  34  52  78 111 146 181 221 274 331
#     4   9  17  29  46  74 112 146 175 212 270 332
#     4  10  19  34  59  88 114 142 182 227 274 329
#     4   9  18  34  57  86 115 143 183 227 271 325
#     4  10  21  38  59  80 109 150 187 229 279 324
#
# _framework density 10.314329000000001
#
# number of rings (size 3 to 8) (size 9 to 14) (size 15 to 20)
#    0.000    2.250    1.250    3.000    0.000    5.000 
#    0.000    1.875    0.000    5.250    0.000    0.000 
#    0.000    0.000    0.000    0.000    0.000    0.000 
#
# Total GULP energy -178395.753063 kJ/mol
# GULP energy per Si atom -5574.867283 kJ/mol
# Density = 1.029085 g / cm^3
# Si number density = 10.314329 Si / 1000 Ang^3
#
#
#
# Elastic Constant Matrix: (Units=GPa)
#
#
# Indices 1 2 3 4 5 6 
#
# 1 23.9920 -1.7053 -8.9719 0.0000 -7.6054 0.0000
# 2 -1.7053 51.6921 25.1176 0.0000 -2.3041 0.0000
# 3 -8.9719 25.1176 78.7184 0.0000 -4.7490 0.0000
# 4 0.0000 0.0000 0.0000 27.7096 0.0000 1.3010
# 5 -7.6054 -2.3041 -4.7490 0.0000 18.2636 0.0000
# 6 0.0000 0.0000 0.0000 1.3010 0.0000 15.9315
#
#
#
# Elastic Compliance Matrix: (Units=1/GPa)
#
#
# Indices 1 2 3 4 5 6 
#
# 1 0.051913 -0.000952 0.007637 0.000000 0.023484 0.000000
# 2 -0.000952 0.022931 -0.007391 0.000000 0.000575 0.000000
# 3 0.007637 -0.007391 0.016324 0.000000 0.006493 0.000000
# 4 0.000000 0.000000 0.000000 0.036228 0.000000 -0.002958
# 5 0.023484 0.000575 0.006493 0.000000 0.066294 0.000000
# 6 0.000000 0.000000 0.000000 -0.002958 0.000000 0.063010
#
#
# Mechanical properties :
#
#
# Convention : Reuss Voigt Hill
#
# Bulk Modulus (GPa) = 11.14111 20.36483 15.75297
# Shear Modulus (GPa) = 17.35940 21.71174 19.53557
#
# Velocity S-wave (km/s) = 2.90404 3.24775 3.08069
# Velocity P-wave (km/s) = 4.08131 4.89463 4.50636
#
# Compressibility (1/GPa) = 0.08975768
#
# Stress axis : x y z
#
# Youngs Moduli (GPa) = 19.26291 43.60974 61.26013
#
# Poissons Ratio (x) = 0.04150 -0.46785
# Poissons Ratio (y) = 0.01833 0.45275
# Poissons Ratio (z) = -0.14711 0.32230
#
# Static dielectric constant tensor:
#      x y z
#    x 1.873750 0.000000 -0.068420 
#    y 0.000000 1.714880 0.000000 
#    z -0.068420 0.000000 1.761380 
# 
# From -- ./inp_files/250089.got.cif
#   From: 2010.05.17/outbox.ucp.g08.bks.cvg/sg12_126_cif.got.tgz:250089.got - 2010.06.11 11:47:21.
