data_PCOD9223009
_publ_section_title
;
Structure prediction by ZEFSAII (Michael W. Deem and Ramdas Pophale) SiO2 
 PCOD9223009
Probable space group: C 2/M
;
_chemical_formula_sum "Si O2"
_cell_formula_units_Z 56
_cell_length_a 28.566201
_cell_length_b 7.622073
_cell_length_c 16.922036
_cell_angle_alpha 90.000000
_cell_angle_beta 63.935025
_cell_angle_gamma 90.000000
_cell_volume 3309.770175
_symmetry_space_group_name_H-M "C 2/M"
_symmetry_group_IT_number 12
_symmetry_cell_setting 'monoclinic'
loop_
_space_group_symop_operation_xyz
x,y,z
-x,y,-z
-x,-y,-z
x,-y,z
1/2+x,1/2+y,z
1/2-x,1/2+y,-z
1/2-x,1/2-y,-z
1/2+x,1/2-y,z
loop_
_atom_site_type_symbol
_atom_site_label
_atom_site_fract_x
_atom_site_fract_y
_atom_site_fract_z
Si Si1 0.064176 0.785522 0.535174
Si Si2 0.946803 0.789157 0.636065
Si Si3 0.696339 0.791805 0.993482
Si Si4 0.249972 0.294443 0.199834
Si Si5 0.232217 0.208635 0.639789
Si Si6 0.851492 0.290530 0.816938
Si Si7 0.168455 0.212623 0.540126
O O1 0.070722 0.730394 0.438700
O O2 0.112010 0.725687 0.553375
O O3 0.006345 0.729173 0.604313
O O4 0.064668 0.000000 0.535490
O O5 0.905433 0.739892 0.732961
O O6 0.948380 0.000000 0.632059
O O7 0.705109 0.717805 0.899724
O O8 0.691113 0.000000 0.987407
O O9 0.750000 0.750000 0.000000
O O10 0.653733 0.726090 0.088549
O O11 0.239148 0.500000 0.221482
O O12 0.265362 0.218323 0.273312
O O13 0.196774 0.219473 0.200360
O O14 0.189367 0.277877 0.609417
O O15 0.287842 0.236552 0.556380
O O16 0.222678 0.000000 0.652395
O O17 0.843449 0.500000 0.828200
O O18 0.167409 0.000000 0.543294
#
# Coordination Sequence:
#
# PCOD9223009 Si02
#       7
#     8   8   8   8   8   8   8
#     4   8  15  27  40  57  80 104 133 166 194 223
#     4   9  16  26  41  58  77 104 136 164 190 228
#     4   9  17  28  41  58  81 107 132 161 197 237
#     4   9  17  28  40  57  83 109 132 162 198 235
#     4   9  17  27  40  60  83 106 133 165 199 233
#     4   9  17  27  38  56  82 104 124 157 197 233
#     4   9  16  27  42  58  80 109 136 163 197 237
#
# _framework density 16.919605000000001
#
# number of rings (size 3 to 8) (size 9 to 14) (size 15 to 20)
#    0.000    3.143    0.000    3.000    0.000    3.429 
#    0.000    2.143    0.000    0.000    0.000    1.000 
#    0.000    8.000    0.000    0.000    0.000    0.000 
#
# Total GULP energy -155893.194383 kJ/mol
# GULP energy per Si atom -5567.614085 kJ/mol
# Density = 1.688110 g / cm^3
# Si number density = 16.919605 Si / 1000 Ang^3
#
#
#
# Elastic Constant Matrix: (Units=GPa)
#
#
# Indices 1 2 3 4 5 6 
#
# 1 111.6226 -3.0544 65.9568 0.0000 9.6107 0.0000
# 2 -3.0544 24.3373 -12.3045 0.0000 6.4858 -0.0002
# 3 65.9568 -12.3045 141.6496 0.0000 10.8855 0.0000
# 4 0.0000 0.0000 0.0000 18.9234 0.0000 -6.2394
# 5 9.6107 6.4858 10.8855 0.0000 26.1728 0.0000
# 6 0.0000 -0.0002 0.0000 -6.2394 0.0000 7.1416
#
#
#
# Elastic Compliance Matrix: (Units=1/GPa)
#
#
# Indices 1 2 3 4 5 6 
#
# 1 0.012498 -0.000796 -0.005734 0.000000 -0.002007 0.000000
# 2 -0.000796 0.047469 0.005553 0.000001 -0.013781 0.000002
# 3 -0.005734 0.005553 0.010491 0.000000 -0.003634 0.000000
# 4 0.000000 0.000001 0.000000 0.074227 0.000000 0.064850
# 5 -0.002007 -0.013781 -0.003634 0.000000 0.043871 -0.000001
# 6 0.000000 0.000002 0.000000 0.064850 -0.000001 0.196683
#
#
# Mechanical properties :
#
#
# Convention : Reuss Voigt Hill
#
# Bulk Modulus (GPa) = 14.59759 42.08948 28.34353
# Shear Modulus (GPa) = 12.19424 25.58165 18.88795
#
# Velocity S-wave (km/s) = 2.68753 3.89260 3.34478
# Velocity P-wave (km/s) = 4.27513 6.71813 5.63072
#
# Compressibility (1/GPa) = 0.06850448
#
# Stress axis : x y z
#
# Youngs Moduli (GPa) = 80.01111 21.06624 95.31555
#
# Poissons Ratio (x) = 0.01676 0.54659
# Poissons Ratio (y) = 0.06367 -0.52929
# Poissons Ratio (z) = 0.45882 -0.11698
#
# Static dielectric constant tensor:
#      x y z
#    x 1.570400 0.000000 0.014820 
#    y 0.000000 1.670150 0.000000 
#    z 0.014820 0.000000 1.595680 
# 
# From -- ./inp_files/248161.got.cif
#   From: 2010.05.17/outbox.cif.g08.bks.cpg/sg12_125_cif.got.tgz:248161.got - 2010.06.03 13:09:07.
