data_PCOD9223722
_publ_section_title
;
Structure prediction by ZEFSAII (Michael W. Deem and Ramdas Pophale) SiO2 
 PCOD9223722
Probable space group: C 2/M
;
_chemical_formula_sum "Si O2"
_cell_formula_units_Z 28
_cell_length_a 30.000000
_cell_length_b 9.000000
_cell_length_c 12.000000
_cell_angle_alpha 90.000000
_cell_angle_beta 70.000000
_cell_angle_gamma 90.000000
_cell_volume 3044.604091
_symmetry_space_group_name_H-M "C 2/M"
_symmetry_group_IT_number 12
_symmetry_cell_setting 'monoclinic'
loop_
_space_group_symop_operation_xyz
x,y,z
-x,y,-z
-x,-y,-z
x,-y,z
1/2+x,1/2+y,z
1/2-x,1/2+y,-z
1/2-x,1/2-y,-z
1/2+x,1/2-y,z
loop_
_atom_site_type_symbol
_atom_site_label
_atom_site_fract_x
_atom_site_fract_y
_atom_site_fract_z
Si Si1 0.058931 0.180148 0.357909
Si Si2 0.788961 0.830127 0.042588
Si Si3 0.295342 0.170708 0.267714
Si Si4 0.160740 0.827403 0.217716
Si Si5 0.036197 0.823318 0.635443
Si Si6 0.374093 0.828774 0.380298
Si Si7 0.703955 0.823216 0.380860
O O1 0.109778 0.238525 0.285708
O O2 0.049039 0.210354 0.495506
O O3 0.017412 0.232809 0.312283
O O4 0.059982 0.000000 0.347775
O O5 0.800546 0.745159 0.144180
O O6 0.775339 0.000000 0.078177
O O7 0.750000 0.750000 0.000000
O O8 0.832212 0.829888 0.919444
O O9 0.343087 0.177687 0.296489
O O10 0.254176 0.254950 0.369395
O O11 0.280873 0.000000 0.267033
O O12 0.196326 0.731174 0.260984
O O13 0.165032 0.000000 0.252007
O O14 0.076711 0.753265 0.673486
O O15 0.036910 0.000000 0.648390
O O16 0.340003 0.766734 0.507470
O O17 0.383769 0.000000 0.400475
O O18 0.705414 0.000000 0.389422
#
# Coordination Sequence:
#
# PCOD9223722 Si02
#       7
#     8   8   8   8   8   8   8
#     4   8  15  29  50  79 105 131 168 207 253 309
#     4  11  22  35  54  78 103 135 176 219 256 300
#     4  11  23  38  53  70 102 144 179 213 257 306
#     4  10  19  33  54  76 105 138 167 206 260 309
#     4   9  16  29  53  78 103 134 169 207 252 311
#     4  10  22  36  50  75 108 139 171 212 261 311
#     4  11  21  33  51  77 106 134 171 214 255 310
#
# _framework density 9.1965979999999998
#
# number of rings (size 3 to 8) (size 9 to 14) (size 15 to 20)
#    0.000    2.000    2.857    2.571    0.000    2.286 
#    0.000    2.143    0.000    0.857    0.000    6.000 
#    0.000    0.000    0.000    0.000    0.000    0.000 
#
# Total GULP energy -155889.501457 kJ/mol
# GULP energy per Si atom -5567.482195 kJ/mol
# Density = 0.917567 g / cm^3
# Si number density = 9.196598 Si / 1000 Ang^3
#
#
#
# Elastic Constant Matrix: (Units=GPa)
#
#
# Indices 1 2 3 4 5 6 
#
# 1 59.4521 28.2343 -10.9565 0.0000 0.6189 0.0000
# 2 28.2343 49.3356 14.5094 0.0000 6.8269 0.0000
# 3 -10.9565 14.5094 26.0824 0.0000 21.8241 0.0000
# 4 0.0000 0.0000 0.0000 13.6259 0.0000 4.5610
# 5 0.6189 6.8269 21.8241 0.0000 6.1680 0.0000
# 6 0.0000 0.0000 0.0000 4.5610 0.0000 19.2017
#
#
#
# Elastic Compliance Matrix: (Units=1/GPa)
#
#
# Indices 1 2 3 4 5 6 
#
# 1 0.023760 -0.016365 -0.003021 0.000000 0.026420 0.000000
# 2 -0.016365 0.034208 -0.002245 0.000000 -0.028275 0.000000
# 3 -0.003021 -0.002245 -0.018355 0.000000 0.067733 0.000000
# 4 0.000000 0.000000 0.000000 0.079729 0.000000 -0.018938
# 5 0.026420 -0.028275 0.067733 0.000000 -0.048887 0.000000
# 6 0.000000 0.000000 0.000000 -0.018938 0.000000 0.056577
#
#
# Mechanical properties :
#
#
# Convention : Reuss Voigt Hill
#
# Bulk Modulus (GPa) = -273.92936 22.04938 -125.93999
# Shear Modulus (GPa) = 29.57207 14.67132 22.12170
#
# Velocity S-wave (km/s) = 4.01405 2.82733 3.47177
# Velocity P-wave (km/s) = 11.30352 4.76154 7.24905
#
# Compressibility (1/GPa) = -0.00365058
#
# Stress axis : x y z
#
# Youngs Moduli (GPa) = 42.08707 29.23306 -54.48130
#
# Poissons Ratio (x) = 0.47840 -0.16461
# Poissons Ratio (y) = 0.68876 -0.12233
# Poissons Ratio (z) = 0.12716 0.06564
#
# Static dielectric constant tensor:
#      x y z
#    x 1.669640 0.000000 -0.008000 
#    y 0.000000 1.643500 0.000000 
#    z -0.008000 0.000000 1.632090 
# 
# From -- ./inp_files/186422.got.cif
#   From: 2010.05.17/outbox.ucp.g08.bks.cvg/sg12_94_cif.got.tgz:186422.got - 2010.06.11 11:47:21.
