data_PCOD9223599
_publ_section_title
;
Structure prediction by ZEFSAII (Michael W. Deem and Ramdas Pophale) SiO2 
 PCOD9223599
Probable space group: C 2/M
;
_chemical_formula_sum "Si O2"
_cell_formula_units_Z 28
_cell_length_a 18.000000
_cell_length_b 9.000000
_cell_length_c 27.000000
_cell_angle_alpha 90.000000
_cell_angle_beta 40.000000
_cell_angle_gamma 90.000000
_cell_volume 2811.553005
_symmetry_space_group_name_H-M "C 2/M"
_symmetry_group_IT_number 12
_symmetry_cell_setting 'monoclinic'
loop_
_space_group_symop_operation_xyz
x,y,z
-x,y,-z
-x,-y,-z
x,-y,z
1/2+x,1/2+y,z
1/2-x,1/2+y,-z
1/2-x,1/2-y,-z
1/2+x,1/2-y,z
loop_
_atom_site_type_symbol
_atom_site_label
_atom_site_fract_x
_atom_site_fract_y
_atom_site_fract_z
Si Si1 0.407183 0.330632 0.661830
Si Si2 0.915271 0.825288 0.085040
Si Si3 0.210579 0.327303 0.571107
Si Si4 0.580653 0.168710 0.506533
Si Si5 0.191640 0.167480 0.177768
Si Si6 0.829217 0.823444 0.233995
Si Si7 0.044624 0.172519 0.727549
O O1 0.434552 0.500000 0.633093
O O2 0.506277 0.223062 0.591361
O O3 0.377875 0.330364 0.734841
O O4 0.287302 0.269512 0.702148
O O5 0.788393 0.790215 0.129423
O O6 0.904019 0.771907 0.147873
O O7 0.940287 0.000000 0.075721
O O8 0.000000 0.759851 0.000000
O O9 0.204038 0.500000 0.566226
O O10 0.250000 0.250000 0.500000
O O11 0.314525 0.280095 0.554268
O O12 0.098240 0.269087 0.656447
O O13 0.500000 0.171620 0.500000
O O14 0.623042 0.000000 0.491480
O O15 0.089662 0.197543 0.192218
O O16 0.239604 0.000000 0.147588
O O17 0.891874 0.806161 0.253509
O O18 0.802200 0.000000 0.240265
O O19 0.058688 0.000000 0.705367
#
# Coordination Sequence:
#
# PCOD9223599 Si02
#       7
#     8   8   8   8   8   8   8
#     4  10  19  32  51  74 100 132 175 223 267 316
#     4   9  18  34  56  81 108 138 173 211 253 309
#     4  12  25  39  56  78 107 144 185 229 277 325
#     4  11  23  37  53  75 105 141 181 226 276 325
#     4   9  19  34  53  76 101 132 168 209 258 312
#     4   9  18  33  54  77 104 141 178 216 266 320
#     4  10  20  36  55  76 105 139 178 221 267 320
#
# _framework density 9.9589090000000002
#
# number of rings (size 3 to 8) (size 9 to 14) (size 15 to 20)
#    0.000    2.000    0.000    3.857    0.000    7.714 
#    0.000    0.714    0.000    0.000    0.000    0.000 
#    0.000    0.000    0.000    0.000    0.000    0.000 
#
# Total GULP energy -156034.808472 kJ/mol
# GULP energy per Si atom -5572.671731 kJ/mol
# Density = 0.993624 g / cm^3
# Si number density = 9.958909 Si / 1000 Ang^3
#
#
#
# Elastic Constant Matrix: (Units=GPa)
#
#
# Indices 1 2 3 4 5 6 
#
# 1 59.9360 26.6521 9.7059 0.0000 -12.6549 0.0001
# 2 26.6521 41.5957 26.2911 0.0000 4.0385 0.0002
# 3 9.7059 26.2911 76.0746 0.0000 8.5985 -0.0001
# 4 0.0000 0.0000 0.0000 17.3987 0.0000 -3.0345
# 5 -12.6549 4.0385 8.5985 0.0000 0.2299 0.0001
# 6 0.0001 0.0002 -0.0001 -3.0345 0.0001 17.5144
#
#
#
# Elastic Compliance Matrix: (Units=1/GPa)
#
#
# Indices 1 2 3 4 5 6 
#
# 1 0.003193 -0.000330 0.006449 0.000000 -0.059649 0.000000
# 2 -0.000330 0.029408 -0.015593 0.000000 0.048411 -0.000001
# 3 0.006449 -0.015593 0.016537 0.000000 0.010387 0.000000
# 4 0.000000 0.000000 0.000000 0.059266 0.000000 0.010268
# 5 -0.059649 0.048411 0.010387 0.000000 -0.172587 0.000001
# 6 0.000000 -0.000001 0.000000 0.010268 0.000001 0.058875
#
#
# Mechanical properties :
#
#
# Convention : Reuss Voigt Hill
#
# Bulk Modulus (GPa) = 33.12478 33.65606 33.39042
# Shear Modulus (GPa) = 210.93749 14.69243 112.81496
#
# Velocity S-wave (km/s) = 10.30213 2.71892 7.53413
# Velocity P-wave (km/s) = 12.57691 5.17599 9.61690
#
# Compressibility (1/GPa) = 0.03018888
#
# Stress axis : x y z
#
# Youngs Moduli (GPa) = 313.21288 34.00424 60.47008
#
# Poissons Ratio (x) = 0.01124 -0.38996
# Poissons Ratio (y) = 0.10349 0.94291
# Poissons Ratio (z) = -2.01988 0.53023
#
# Static dielectric constant tensor:
#      x y z
#    x 1.894920 0.000000 -0.043150 
#    y 0.000000 1.696590 0.000000 
#    z -0.043150 0.000000 1.704550 
# 
# From -- ./inp_files/342598.got.cif
#   From: 2010.05.17/outbox.ucp.g08.bks.cvg/sg12_172_cif.got.tgz:342598.got - 2010.06.11 11:47:21.
