data_PCOD9223631
_publ_section_title
;
Structure prediction by ZEFSAII (Michael W. Deem and Ramdas Pophale) SiO2 
 PCOD9223631
Probable space group: C 2/M
;
_chemical_formula_sum "Si O2"
_cell_formula_units_Z 28
_cell_length_a 27.000000
_cell_length_b 9.000000
_cell_length_c 18.000000
_cell_angle_alpha 90.000000
_cell_angle_beta 40.000000
_cell_angle_gamma 90.000000
_cell_volume 2811.553005
_symmetry_space_group_name_H-M "C 2/M"
_symmetry_group_IT_number 12
_symmetry_cell_setting 'monoclinic'
loop_
_space_group_symop_operation_xyz
x,y,z
-x,y,-z
-x,-y,-z
x,-y,z
1/2+x,1/2+y,z
1/2-x,1/2+y,-z
1/2-x,1/2-y,-z
1/2+x,1/2-y,z
loop_
_atom_site_type_symbol
_atom_site_label
_atom_site_fract_x
_atom_site_fract_y
_atom_site_fract_z
Si Si1 0.364033 0.821826 0.840467
Si Si2 0.546250 0.676937 0.789205
Si Si3 0.757445 0.326699 0.835460
Si Si4 0.783472 0.822115 0.387068
Si Si5 0.345524 0.828370 0.585604
Si Si6 0.390192 0.823621 0.981056
Si Si7 0.519031 0.673656 0.646400
O O1 0.294576 0.765837 0.869028
O O2 0.371272 0.772949 0.917643
O O3 0.443985 0.768256 0.714106
O O4 0.359406 0.000000 0.845352
O O5 0.538250 0.500000 0.808115
O O6 0.628480 0.727341 0.725448
O O7 0.471959 0.756035 0.908187
O O8 0.545032 0.707644 0.701601
O O9 0.736099 0.500000 0.870221
O O10 0.821602 0.319477 0.698319
O O11 0.683203 0.239237 0.892518
O O12 0.750000 0.750000 0.500000
O O13 0.727867 0.793247 0.381953
O O14 0.786057 0.000000 0.395485
O O15 0.412750 0.718851 0.485801
O O16 0.368014 0.000000 0.543160
O O17 0.393652 0.000000 0.978847
O O18 0.500772 0.500000 0.664260
#
# Coordination Sequence:
#
# PCOD9223631 Si02
#       7
#     8   8   8   8   8   8   8
#     4   9  19  35  55  77 103 136 177 218 259 309
#     4   9  18  33  53  78 105 134 169 212 260 308
#     4  10  21  37  54  74 104 143 177 212 260 311
#     4  10  19  33  55  81 106 134 172 214 257 308
#     4  10  21  35  53  77 107 141 175 210 257 316
#     4  10  20  34  55  80 102 132 175 221 262 302
#     4  10  19  32  52  79 108 137 172 216 263 306
#
# _framework density 9.9589090000000002
#
# number of rings (size 3 to 8) (size 9 to 14) (size 15 to 20)
#    0.000    2.286    1.429    1.286    0.000    3.429 
#    0.000    3.571    0.000    4.286    0.000    0.000 
#    0.000    0.000    0.000    0.000    0.000    0.000 
#
# Total GULP energy -156185.296332 kJ/mol
# GULP energy per Si atom -5578.046298 kJ/mol
# Density = 0.993624 g / cm^3
# Si number density = 9.958909 Si / 1000 Ang^3
#
#
#
# Elastic Constant Matrix: (Units=GPa)
#
#
# Indices 1 2 3 4 5 6 
#
# 1 28.8698 -6.2974 -3.5842 -0.0033 -15.6538 0.0020
# 2 -6.2974 -21.1697 5.4839 -0.0043 -1.5902 0.0029
# 3 -3.5842 5.4839 31.5529 -0.0036 -21.8836 0.0026
# 4 -0.0033 -0.0043 -0.0036 27.4999 0.0014 -5.6037
# 5 -15.6538 -1.5902 -21.8836 0.0014 30.7458 -0.0010
# 6 0.0020 0.0029 0.0026 -5.6037 -0.0010 16.4197
#
#
#
# Elastic Compliance Matrix: (Units=1/GPa)
#
#
# Indices 1 2 3 4 5 6 
#
# 1 0.128960 -0.017794 0.123707 0.000017 0.152787 -0.000017
# 2 -0.017794 -0.042113 -0.004929 -0.000007 -0.014746 0.000007
# 3 0.123707 -0.004929 0.177952 0.000023 0.189388 -0.000024
# 4 0.000017 -0.000007 0.000023 0.039082 0.000023 0.013338
# 5 0.152787 -0.014746 0.189388 0.000023 0.244350 -0.000024
# 6 -0.000017 0.000007 -0.000024 0.013338 -0.000024 0.065455
#
#
# Mechanical properties :
#
#
# Convention : Reuss Voigt Hill
#
# Bulk Modulus (GPa) = 2.14239 3.38416 2.76328
# Shear Modulus (GPa) = 8.81362 17.84312 13.32837
#
# Velocity S-wave (km/s) = 2.10585 2.99630 2.58963
# Velocity P-wave (km/s) = 2.64400 3.69773 3.21434
#
# Compressibility (1/GPa) = 0.46676830
#
# Stress axis : x y z
#
# Youngs Moduli (GPa) = 7.75437 -23.74550 5.61949
#
# Poissons Ratio (x) = -0.42252 -0.69517
# Poissons Ratio (y) = 0.13798 0.02770
# Poissons Ratio (z) = -0.95927 -0.11704
#
# Static dielectric constant tensor:
#      x y z
#    x 1.710180 0.000000 -0.012730 
#    y 0.000000 1.660720 0.000000 
#    z -0.012730 0.000000 1.737450 
# 
# From -- ./inp_files/280909.got.cif
#   From: 2010.05.17/outbox.ucp.g08.bks.cvg/sg12_141_cif.got.tgz:280909.got - 2010.06.11 11:47:21.
