data_PCOD9223690
_publ_section_title
;
Structure prediction by ZEFSAII (Michael W. Deem and Ramdas Pophale) SiO2 
 PCOD9223690
Probable space group: C 2/M
;
_chemical_formula_sum "Si O2"
_cell_formula_units_Z 32
_cell_length_a 24.000000
_cell_length_b 9.000000
_cell_length_c 21.000000
_cell_angle_alpha 90.000000
_cell_angle_beta 50.000000
_cell_angle_gamma 90.000000
_cell_volume 3474.777594
_symmetry_space_group_name_H-M "C 2/M"
_symmetry_group_IT_number 12
_symmetry_cell_setting 'monoclinic'
loop_
_space_group_symop_operation_xyz
x,y,z
-x,y,-z
-x,-y,-z
x,-y,z
1/2+x,1/2+y,z
1/2-x,1/2+y,-z
1/2-x,1/2-y,-z
1/2+x,1/2-y,z
loop_
_atom_site_type_symbol
_atom_site_label
_atom_site_fract_x
_atom_site_fract_y
_atom_site_fract_z
Si Si1 0.073197 0.326605 0.745856
Si Si2 0.177176 0.672674 0.289195
Si Si3 0.423364 0.676297 0.892527
Si Si4 0.418061 0.670526 0.533534
Si Si5 0.451288 0.177232 0.377389
Si Si6 0.426489 0.827825 0.022242
Si Si7 0.183493 0.668318 0.779114
Si Si8 0.893832 0.178599 0.773729
O O1 0.049276 0.500000 0.766660
O O2 0.090451 0.297061 0.659015
O O3 0.137913 0.309891 0.748201
O O4 0.006225 0.226127 0.817473
O O5 0.162587 0.500000 0.289737
O O6 0.125812 0.738503 0.381692
O O7 0.257112 0.706725 0.255500
O O8 0.165147 0.760764 0.232135
O O9 0.418661 0.500000 0.902338
O O10 0.382495 0.718576 0.856525
O O11 0.402394 0.749674 0.974889
O O12 0.500000 0.667901 0.500000
O O13 0.392249 0.500000 0.548305
O O14 0.418275 0.745990 0.463944
O O15 0.530780 0.247237 0.305391
O O16 0.457333 0.000000 0.383335
O O17 0.368481 0.825804 0.121319
O O18 0.442503 0.000000 0.993639
O O19 0.500000 0.763201 0.000000
O O20 0.215220 0.500000 0.753830
O O21 0.899882 0.000000 0.764803
#
# Coordination Sequence:
#
# PCOD9223690 Si02
#       8
#     8   8   8   8   8   8   8   8
#     4   9  18  35  57  82 114 151 188 226 278 338
#     4  12  25  39  58  84 114 147 189 238 282 331
#     4  10  20  32  54  86 117 145 183 238 283 325
#     4  11  22  37  59  84 114 150 188 229 278 339
#     4  10  19  32  57  89 115 141 184 239 281 321
#     4  10  19  35  59  85 113 149 193 232 275 336
#     4  10  21  39  60  81 114 155 189 225 279 344
#     4  10  20  36  55  80 114 152 188 224 282 343
#
# _framework density 9.2092220000000005
#
# number of rings (size 3 to 8) (size 9 to 14) (size 15 to 20)
#    0.000    1.750    2.500    2.625    0.000    3.750 
#    0.000    1.250    0.000    0.000    0.000    0.000 
#    0.000    0.000    0.000    0.000    0.000    0.000 
#
# Total GULP energy -178542.345048 kJ/mol
# GULP energy per Si atom -5579.448283 kJ/mol
# Density = 0.918826 g / cm^3
# Si number density = 9.209222 Si / 1000 Ang^3
#
#
#
# Elastic Constant Matrix: (Units=GPa)
#
#
# Indices 1 2 3 4 5 6 
#
# 1 67.8559 34.6627 34.7344 0.0005 37.0873 -0.0002
# 2 34.6627 76.1930 26.1171 0.0006 19.8033 0.0000
# 3 34.7344 26.1171 54.8330 0.0004 27.0639 -0.0002
# 4 0.0005 0.0006 0.0004 29.6398 -0.0001 3.5892
# 5 37.0873 19.8033 27.0639 -0.0001 36.0406 0.0001
# 6 -0.0002 0.0000 -0.0002 3.5892 0.0001 26.9184
#
#
#
# Elastic Compliance Matrix: (Units=1/GPa)
#
#
# Indices 1 2 3 4 5 6 
#
# 1 0.038511 -0.007522 -0.005232 -0.000001 -0.031568 0.000000
# 2 -0.007522 0.017691 -0.004264 0.000000 0.001222 0.000000
# 3 -0.005232 -0.004264 0.031411 0.000000 -0.015860 0.000000
# 4 -0.000001 0.000000 0.000000 0.034292 0.000001 -0.004572
# 5 -0.031568 0.001222 -0.015860 0.000001 0.071470 -0.000001
# 6 0.000000 0.000000 0.000000 -0.004572 -0.000001 0.037759
#
#
# Mechanical properties :
#
#
# Convention : Reuss Voigt Hill
#
# Bulk Modulus (GPa) = 18.66485 43.32335 30.99410
# Shear Modulus (GPa) = 17.66608 25.41093 21.53851
#
# Velocity S-wave (km/s) = 3.10038 3.71839 3.42336
# Velocity P-wave (km/s) = 4.79294 6.48136 5.70001
#
# Compressibility (1/GPa) = 0.05357663
#
# Stress axis : x y z
#
# Youngs Moduli (GPa) = 25.96641 56.52710 31.83643
#
# Poissons Ratio (x) = 0.42519 0.16655
# Poissons Ratio (y) = 0.19532 0.13577
# Poissons Ratio (z) = 0.13584 0.24106
#
# Static dielectric constant tensor:
#      x y z
#    x 1.656780 0.000000 -0.020760 
#    y 0.000000 1.631290 0.000000 
#    z -0.020760 0.000000 1.713940 
# 
# From -- ./inp_files/324136.got.cif
#   From: 2010.05.17/outbox.ucp.g08.bks.cvg/sg12_163_cif.got.tgz:324136.got - 2010.06.11 11:47:21.
