data_PCOD9223997
_publ_section_title
;
Structure prediction by ZEFSAII (Michael W. Deem and Ramdas Pophale) SiO2 
 PCOD9223997
Probable space group: C 2/M
;
_chemical_formula_sum "Si O2"
_cell_formula_units_Z 28
_cell_length_a 21.000000
_cell_length_b 9.000000
_cell_length_c 18.000000
_cell_angle_alpha 90.000000
_cell_angle_beta 120.000000
_cell_angle_gamma 90.000000
_cell_volume 2946.218424
_symmetry_space_group_name_H-M "C 2/M"
_symmetry_group_IT_number 12
_symmetry_cell_setting 'monoclinic'
loop_
_space_group_symop_operation_xyz
x,y,z
-x,y,-z
-x,-y,-z
x,-y,z
1/2+x,1/2+y,z
1/2-x,1/2+y,-z
1/2-x,1/2-y,-z
1/2+x,1/2-y,z
loop_
_atom_site_type_symbol
_atom_site_label
_atom_site_fract_x
_atom_site_fract_y
_atom_site_fract_z
Si Si1 0.475999 0.820496 0.720837
Si Si2 0.188176 0.176869 0.712257
Si Si3 0.877919 0.679282 0.937293
Si Si4 0.907322 0.178221 0.099529
Si Si5 0.650645 0.821109 0.245343
Si Si6 0.454991 0.171431 0.398058
Si Si7 0.780334 0.321607 0.118399
O O1 0.534187 0.736224 0.806660
O O2 0.396709 0.776177 0.710277
O O3 0.495975 0.789593 0.646449
O O4 0.483761 0.000000 0.735227
O O5 0.263274 0.221119 0.712998
O O6 0.112596 0.216756 0.628886
O O7 0.180840 0.276954 0.781827
O O8 0.193456 0.000000 0.733213
O O9 0.881255 0.500000 0.945091
O O10 0.887003 0.721551 0.855821
O O11 0.797513 0.741720 0.912798
O O12 0.926439 0.754402 0.029618
O O13 0.829951 0.247048 0.083771
O O14 0.902828 0.000000 0.094296
O O15 0.650888 0.000000 0.246029
O O16 0.500000 0.172671 0.500000
O O17 0.429178 0.000000 0.371480
O O18 0.773948 0.500000 0.104751
#
# Coordination Sequence:
#
# PCOD9223997 Si02
#       7
#     8   8   8   8   8   8   8
#     4  10  20  38  60  80 109 150 192 230 280 339
#     4  10  19  35  59  85 113 146 187 232 280 335
#     4  10  20  35  53  77 109 149 195 236 277 326
#     4  12  23  34  50  78 114 148 190 237 283 328
#     4   8  18  36  58  81 108 150 195 231 271 333
#     4  10  21  37  60  89 116 144 184 233 283 337
#     4  11  20  33  53  79 111 148 189 233 283 331
#
# _framework density 9.5037079999999996
#
# number of rings (size 3 to 8) (size 9 to 14) (size 15 to 20)
#    0.000    1.857    1.429    4.714    0.000    0.857 
#    0.000    7.857    0.000    0.000    0.000    0.000 
#    0.000    0.000    0.000    0.000    0.000    0.000 
#
# Total GULP energy -156115.810746 kJ/mol
# GULP energy per Si atom -5575.564669 kJ/mol
# Density = 0.948208 g / cm^3
# Si number density = 9.503708 Si / 1000 Ang^3
#
#
#
# Elastic Constant Matrix: (Units=GPa)
#
#
# Indices 1 2 3 4 5 6 
#
# 1 122.5808 23.0396 42.0959 0.0000 -15.9894 0.0000
# 2 23.0396 80.8687 26.2987 0.0000 -5.9862 0.0000
# 3 42.0959 26.2987 87.3451 0.0000 -12.0554 0.0000
# 4 0.0000 0.0000 0.0000 24.5254 0.0000 4.2145
# 5 -15.9894 -5.9862 -12.0554 0.0000 18.8395 0.0000
# 6 0.0000 0.0000 0.0000 4.2145 0.0000 20.3915
#
#
#
# Elastic Compliance Matrix: (Units=1/GPa)
#
#
# Indices 1 2 3 4 5 6 
#
# 1 0.010509 -0.001298 -0.003839 0.000000 0.006050 0.000000
# 2 -0.001298 0.013929 -0.003411 0.000000 0.001142 0.000000
# 3 -0.003839 -0.003411 0.015057 0.000000 0.005293 0.000000
# 4 0.000000 0.000000 0.000000 0.042276 0.000000 -0.008738
# 5 0.006050 0.001142 0.005293 0.000000 0.061965 0.000000
# 6 0.000000 0.000000 0.000000 -0.008738 0.000000 0.050846
#
#
# Mechanical properties :
#
#
# Convention : Reuss Voigt Hill
#
# Bulk Modulus (GPa) = 44.64364 52.62923 48.63644
# Shear Modulus (GPa) = 22.81610 26.04198 24.42904
#
# Velocity S-wave (km/s) = 3.46841 3.70550 3.58891
# Velocity P-wave (km/s) = 6.29113 6.78649 6.54350
#
# Compressibility (1/GPa) = 0.02239961
#
# Stress axis : x y z
#
# Youngs Moduli (GPa) = 95.15246 71.79158 66.41604
#
# Poissons Ratio (x) = 0.09317 0.25498
# Poissons Ratio (y) = 0.12348 0.22654
# Poissons Ratio (z) = 0.36531 0.24487
#
# Static dielectric constant tensor:
#      x y z
#    x 1.693640 0.000000 0.055080 
#    y 0.000000 1.641880 0.000000 
#    z 0.055080 0.000000 1.766720 
# 
# From -- ./inp_files/281664.got.cif
#   From: 2010.05.17/outbox.ucp.g08.bks.cvg/sg12_141_cif.got.tgz:281664.got - 2010.06.11 11:47:21.
