data_PCOD9223043
_publ_section_title
;
Structure prediction by ZEFSAII (Michael W. Deem and Ramdas Pophale) SiO2 
 PCOD9223043
Probable space group: C 2/M
;
_chemical_formula_sum "Si O2"
_cell_formula_units_Z 32
_cell_length_a 19.221007
_cell_length_b 12.695378
_cell_length_c 9.369686
_cell_angle_alpha 90.000000
_cell_angle_beta 40.522703
_cell_angle_gamma 90.000000
_cell_volume 1485.568328
_symmetry_space_group_name_H-M "C 2/M"
_symmetry_group_IT_number 12
_symmetry_cell_setting 'monoclinic'
loop_
_space_group_symop_operation_xyz
x,y,z
-x,y,-z
-x,-y,-z
x,-y,z
1/2+x,1/2+y,z
1/2-x,1/2+y,-z
1/2-x,1/2-y,-z
1/2+x,1/2-y,z
loop_
_atom_site_type_symbol
_atom_site_label
_atom_site_fract_x
_atom_site_fract_y
_atom_site_fract_z
Si Si1 0.721567 0.190815 0.346213
Si Si2 0.386884 0.125452 0.749363
Si Si3 0.367574 0.621544 0.360604
Si Si4 0.996160 0.316971 0.169415
O O1 0.706203 0.174069 0.202928
O O2 0.712220 0.312518 0.411112
O O3 0.819163 0.139461 0.278116
O O4 0.613679 0.140275 0.587131
O O5 0.500000 0.160339 0.500000
O O6 0.404362 0.154511 0.886872
O O7 0.378578 0.000000 0.750848
O O8 0.378611 0.500000 0.376218
O O9 0.474390 0.691216 0.207416
O O10 0.000000 0.351165 0.000000
#
# Coordination Sequence:
#
# PCOD9223043 Si02
#       4
#     8   8   8   8
#     4   8  17  32  49  72  87 125 164 192 222 274
#     4   9  16  29  49  68  93 125 157 193 231 273
#     4   9  17  31  51  69  93 128 160 187 229 280
#     4   9  18  31  46  76  99 117 152 199 237 276
#
# _framework density 21.540578
#
# number of rings (size 3 to 8) (size 9 to 14) (size 15 to 20)
#    1.500    1.750    0.000    0.750    0.000    2.000 
#    0.000    3.750    0.000    0.000    0.000    0.000 
#    0.000    0.000    0.000    0.000    0.000    0.000 
#
# Total GULP energy -89086.566949 kJ/mol
# GULP energy per Si atom -5567.910434 kJ/mol
# Density = 2.149155 g / cm^3
# Si number density = 21.540578 Si / 1000 Ang^3
#
#
#
# Elastic Constant Matrix: (Units=GPa)
#
#
# Indices 1 2 3 4 5 6 
#
# 1 140.5398 32.9305 13.9504 0.0000 44.1793 0.0000
# 2 32.9305 69.4189 -6.7381 0.0000 11.0422 0.0000
# 3 13.9504 -6.7381 55.4968 0.0000 14.9758 0.0000
# 4 0.0000 0.0000 0.0000 -1.1967 0.0000 -5.9673
# 5 44.1793 11.0422 14.9758 0.0000 36.6451 0.0000
# 6 0.0000 0.0000 0.0000 -5.9673 0.0000 18.8413
#
#
#
# Elastic Compliance Matrix: (Units=1/GPa)
#
#
# Indices 1 2 3 4 5 6 
#
# 1 0.012279 -0.003611 0.000198 0.000000 -0.013796 0.000000
# 2 -0.003611 0.016803 0.003529 0.000000 -0.002152 0.000000
# 3 0.000198 0.003529 0.021073 0.000000 -0.009914 0.000000
# 4 0.000000 0.000000 0.000000 -0.323981 0.000000 -0.102609
# 5 -0.013796 -0.002152 -0.009914 0.000000 0.048621 0.000000
# 6 0.000000 0.000000 0.000000 -0.102609 0.000000 0.020578
#
#
# Mechanical properties :
#
#
# Convention : Reuss Voigt Hill
#
# Bulk Modulus (GPa) = 19.84704 38.41567 29.13136
# Shear Modulus (GPa) = -26.58676 25.87880 -0.35398
#
# Velocity S-wave (km/s) = -3.51702 3.46988 -0.40582
# Velocity P-wave (km/s) = 2.69421 5.82462 3.65154
#
# Compressibility (1/GPa) = 0.05038534
#
# Stress axis : x y z
#
# Youngs Moduli (GPa) = 81.44183 59.51301 47.45430
#
# Poissons Ratio (x) = 0.21490 -0.00939
# Poissons Ratio (y) = 0.29409 -0.16744
# Poissons Ratio (z) = -0.01611 -0.20999
#
# Static dielectric constant tensor:
#      x y z
#    x 1.809910 0.000000 -0.011850 
#    y 0.000000 1.759120 0.000000 
#    z -0.011850 0.000000 1.902580 
# 
# From -- ./inp_files/71774.got.cif
#   From: 2010.05.17/outbox.cif.g08.bks.cpg/sg12_36_cif.got.tgz:71774.got - 2010.06.03 13:09:07.
