data_PCOD9223149
_publ_section_title
;
Structure prediction by ZEFSAII (Michael W. Deem and Ramdas Pophale) SiO2 
 PCOD9223149
Probable space group: C 2/M
;
_chemical_formula_sum "Si O2"
_cell_formula_units_Z 48
_cell_length_a 14.678971
_cell_length_b 7.628187
_cell_length_c 23.155800
_cell_angle_alpha 90.000000
_cell_angle_beta 71.614860
_cell_angle_gamma 90.000000
_cell_volume 2460.501611
_symmetry_space_group_name_H-M "C 2/M"
_symmetry_group_IT_number 12
_symmetry_cell_setting 'monoclinic'
loop_
_space_group_symop_operation_xyz
x,y,z
-x,y,-z
-x,-y,-z
x,-y,z
1/2+x,1/2+y,z
1/2-x,1/2+y,-z
1/2-x,1/2-y,-z
1/2+x,1/2-y,z
loop_
_atom_site_type_symbol
_atom_site_label
_atom_site_fract_x
_atom_site_fract_y
_atom_site_fract_z
Si Si1 0.298616 0.211301 0.402421
Si Si2 0.964974 0.789058 0.068930
Si Si3 0.132954 0.711133 0.735644
Si Si4 0.063262 0.210222 0.166146
Si Si5 0.768654 0.289541 0.167063
Si Si6 0.603117 0.289939 0.499319
O O1 0.331487 0.276858 0.333379
O O2 0.372570 0.254704 0.438796
O O3 0.194194 0.277187 0.444239
O O4 0.293143 0.000000 0.400442
O O5 0.854524 0.748358 0.105409
O O6 0.027319 0.722363 0.110940
O O7 0.974304 0.000000 0.066482
O O8 0.000000 0.722475 0.000000
O O9 0.140898 0.500000 0.733486
O O10 0.195671 0.776923 0.777522
O O11 0.022708 0.753755 0.772069
O O12 0.165894 0.278651 0.166684
O O13 0.071688 0.000000 0.159203
O O14 0.760848 0.500000 0.173560
O O15 0.500000 0.220883 0.500000
O O16 0.601559 0.500000 0.491980
#
# Coordination Sequence:
#
# PCOD9223149 Si02
#       6
#     8   8   8   8   8   8
#     4   9  18  32  48  68  95 123 152 189 232 276
#     4   9  18  32  48  68  96 126 155 191 234 277
#     4   9  18  32  48  67  93 123 153 189 233 276
#     4   9  18  32  49  69  93 122 157 194 231 275
#     4   9  18  32  49  69  93 121 155 194 232 273
#     4   9  18  32  50  71  94 122 156 191 228 272
#
# _framework density 19.508216999999998
#
# number of rings (size 3 to 8) (size 9 to 14) (size 15 to 20)
#    0.000    3.000    0.000    0.000    0.000    4.000 
#    0.000    3.333    0.000    0.000    0.000    0.000 
#    0.000    0.000    0.000    0.000    0.000    0.000 
#
# Total GULP energy -133843.775454 kJ/mol
# GULP energy per Si atom -5576.823977 kJ/mol
# Density = 1.946382 g / cm^3
# Si number density = 19.508217 Si / 1000 Ang^3
#
#
#
# Elastic Constant Matrix: (Units=GPa)
#
#
# Indices 1 2 3 4 5 6 
#
# 1 195.7790 8.3629 108.8437 0.0000 -3.3882 0.0000
# 2 8.3629 36.2359 0.0588 0.0000 1.3501 -0.0001
# 3 108.8437 0.0588 190.2068 0.0000 -4.4276 0.0000
# 4 0.0000 0.0000 0.0000 35.7081 0.0000 48.0615
# 5 -3.3882 1.3501 -4.4276 0.0000 6.1417 0.0000
# 6 0.0000 -0.0001 0.0000 48.0615 0.0000 175.1502
#
#
#
# Elastic Compliance Matrix: (Units=1/GPa)
#
#
# Indices 1 2 3 4 5 6 
#
# 1 0.007613 -0.001805 -0.004321 0.000000 0.001481 0.000000
# 2 -0.001805 0.028257 0.000871 0.000000 -0.006579 0.000000
# 3 -0.004321 0.000871 0.007801 0.000000 0.003048 0.000000
# 4 0.000000 0.000000 0.000000 0.044405 0.000000 -0.012185
# 5 0.001481 -0.006579 0.003048 0.000000 0.167281 0.000000
# 6 0.000000 0.000000 0.000000 -0.012185 0.000000 0.009053
#
#
# Mechanical properties :
#
#
# Convention : Reuss Voigt Hill
#
# Bulk Modulus (GPa) = 30.15651 72.97251 51.56451
# Shear Modulus (GPa) = 17.48401 63.73041 40.60721
#
# Velocity S-wave (km/s) = 2.99697 5.72184 4.56734
# Velocity P-wave (km/s) = 5.24096 9.00776 7.36911
#
# Compressibility (1/GPa) = 0.03316033
#
# Stress axis : x y z
#
# Youngs Moduli (GPa) = 131.35304 35.38905 128.18824
#
# Poissons Ratio (x) = 0.06388 0.55396
# Poissons Ratio (y) = 0.23712 -0.11167
# Poissons Ratio (z) = 0.56764 -0.03083
#
# Static dielectric constant tensor:
#      x y z
#    x 1.670560 0.000000 0.010750 
#    y 0.000000 1.720890 0.000000 
#    z 0.010750 0.000000 1.666830 
# 
# From -- ./inp_files/261616.got.cif
#   From: 2010.05.17/outbox.cif.g08.bks.cpg/sg12_131_cif.got.tgz:261616.got - 2010.06.03 13:09:07.
