data_PCOD9223781
_publ_section_title
;
Structure prediction by ZEFSAII (Michael W. Deem and Ramdas Pophale) SiO2 
 PCOD9223781
Probable space group: C 2/M
;
_chemical_formula_sum "Si O2"
_cell_formula_units_Z 32
_cell_length_a 27.000000
_cell_length_b 15.000000
_cell_length_c 12.000000
_cell_angle_alpha 90.000000
_cell_angle_beta 140.000000
_cell_angle_gamma 90.000000
_cell_volume 3123.947783
_symmetry_space_group_name_H-M "C 2/M"
_symmetry_group_IT_number 12
_symmetry_cell_setting 'monoclinic'
loop_
_space_group_symop_operation_xyz
x,y,z
-x,y,-z
-x,-y,-z
x,-y,z
1/2+x,1/2+y,z
1/2-x,1/2+y,-z
1/2-x,1/2-y,-z
1/2+x,1/2-y,z
loop_
_atom_site_type_symbol
_atom_site_label
_atom_site_fract_x
_atom_site_fract_y
_atom_site_fract_z
Si Si1 0.835251 0.895407 0.143106
Si Si2 0.261664 0.597808 0.340692
Si Si3 0.106563 0.233662 0.419823
Si Si4 0.827932 0.603732 0.020358
Si Si5 0.042311 0.741199 0.679020
Si Si6 0.007598 0.901793 0.142909
Si Si7 0.223601 0.658549 0.509791
Si Si8 0.659157 0.395987 0.100406
O O1 0.909012 0.829343 0.277716
O O2 0.856371 0.000000 0.199521
O O3 0.757096 0.874889 0.075579
O O4 0.810396 0.887118 0.971143
O O5 0.295349 0.500000 0.370412
O O6 0.320616 0.676992 0.409096
O O7 0.236044 0.596403 0.425174
O O8 0.186156 0.609587 0.135839
O O9 0.140726 0.322916 0.423403
O O10 0.031524 0.242807 0.367597
O O11 0.077879 0.163879 0.278479
O O12 0.844781 0.500000 0.079191
O O13 0.893309 0.672845 0.166794
O O14 0.000000 0.700165 0.500000
O O15 0.019936 0.000000 0.217274
O O16 0.927569 0.859413 0.046702
O O17 0.000000 0.913733 0.000000
O O18 0.250000 0.750000 0.500000
O O19 0.282652 0.639348 0.709673
O O20 0.647737 0.500000 0.106764
#
# Coordination Sequence:
#
# PCOD9223781 Si02
#       8
#     8   8   8   8   8   8   8   8
#     4  10  22  41  67  95 124 162 207 255 309 372
#     4  10  21  41  65  87 120 164 209 256 304 366
#     4  11  23  35  56  93 126 155 198 251 315 362
#     4  10  24  45  67  89 120 168 215 256 302 363
#     4  12  26  40  64  95 127 162 200 259 321 374
#     4  10  19  33  55  84 121 160 196 244 309 370
#     4  10  22  35  57  88 123 163 204 247 293 360
#     4  10  20  36  59  86 119 159 203 249 299 362
#
# _framework density 10.243449
#
# number of rings (size 3 to 8) (size 9 to 14) (size 15 to 20)
#    0.000    1.625    1.250    3.375    5.250    3.000 
#    0.000    1.250    0.000    1.500    0.000    0.000 
#    0.000    0.000    0.000    0.000    0.000    0.000 
#
# Total GULP energy -178218.129733 kJ/mol
# GULP energy per Si atom -5569.316554 kJ/mol
# Density = 1.022013 g / cm^3
# Si number density = 10.243449 Si / 1000 Ang^3
#
#
#
# Elastic Constant Matrix: (Units=GPa)
#
#
# Indices 1 2 3 4 5 6 
#
# 1 91.2111 28.3122 34.8180 0.0000 16.9324 0.0000
# 2 28.3122 64.9526 43.4088 0.0000 9.0961 0.0000
# 3 34.8180 43.4088 106.0271 0.0000 5.9801 0.0000
# 4 0.0000 0.0000 0.0000 65.5165 0.0000 11.4826
# 5 16.9324 9.0961 5.9801 0.0000 23.9549 0.0000
# 6 0.0000 0.0000 0.0000 11.4826 0.0000 30.2702
#
#
#
# Elastic Compliance Matrix: (Units=1/GPa)
#
#
# Indices 1 2 3 4 5 6 
#
# 1 0.014673 -0.003188 -0.003039 0.000000 -0.008402 0.000000
# 2 -0.003188 0.022763 -0.008025 0.000000 -0.004387 0.000000
# 3 -0.003039 -0.008025 0.013614 0.000000 0.001797 0.000000
# 4 0.000000 0.000000 0.000000 0.016350 0.000000 -0.006202
# 5 -0.008402 -0.004387 0.001797 0.000000 0.048901 0.000000
# 6 0.000000 0.000000 0.000000 -0.006202 0.000000 0.035388
#
#
# Mechanical properties :
#
#
# Convention : Reuss Voigt Hill
#
# Bulk Modulus (GPa) = 44.35548 52.80765 48.58156
# Shear Modulus (GPa) = 26.63675 34.32511 30.48093
#
# Velocity S-wave (km/s) = 3.60972 4.09769 3.86142
# Velocity P-wave (km/s) = 6.25069 6.94408 6.60649
#
# Compressibility (1/GPa) = 0.02254513
#
# Stress axis : x y z
#
# Youngs Moduli (GPa) = 68.15161 43.93069 73.45425
#
# Poissons Ratio (x) = 0.14005 0.22326
# Poissons Ratio (y) = 0.21726 0.58949
# Poissons Ratio (z) = 0.20714 0.35255
#
# Static dielectric constant tensor:
#      x y z
#    x 1.841060 0.000000 -0.010480 
#    y 0.000000 2.049470 0.000000 
#    z -0.010480 0.000000 1.849350 
# 
# From -- ./inp_files/183834.got.cif
#   From: 2010.05.17/outbox.ucp.g08.bks.cvg/sg12_92_cif.got.tgz:183834.got - 2010.06.11 11:47:21.
