data_PCOD9223490
_publ_section_title
;
Structure prediction by ZEFSAII (Michael W. Deem and Ramdas Pophale) SiO2 
 PCOD9223490
Probable space group: C 2/M
;
_chemical_formula_sum "Si O2"
_cell_formula_units_Z 28
_cell_length_a 30.000000
_cell_length_b 9.000000
_cell_length_c 18.000000
_cell_angle_alpha 90.000000
_cell_angle_beta 40.000000
_cell_angle_gamma 90.000000
_cell_volume 3123.947783
_symmetry_space_group_name_H-M "C 2/M"
_symmetry_group_IT_number 12
_symmetry_cell_setting 'monoclinic'
loop_
_space_group_symop_operation_xyz
x,y,z
-x,y,-z
-x,-y,-z
x,-y,z
1/2+x,1/2+y,z
1/2-x,1/2+y,-z
1/2-x,1/2-y,-z
1/2+x,1/2-y,z
loop_
_atom_site_type_symbol
_atom_site_label
_atom_site_fract_x
_atom_site_fract_y
_atom_site_fract_z
Si Si1 0.063614 0.673472 0.594067
Si Si2 0.346368 0.324063 0.411737
Si Si3 0.367828 0.170104 0.646741
Si Si4 0.296993 0.670946 0.152597
Si Si5 0.808012 0.171522 0.976213
Si Si6 0.433011 0.668332 0.701360
Si Si7 0.284307 0.679129 0.336872
O O1 0.070094 0.500000 0.602523
O O2 0.083578 0.767622 0.640332
O O3 0.113783 0.710076 0.460901
O O4 0.990082 0.716852 0.655208
O O5 0.338571 0.500000 0.429575
O O6 0.338712 0.289439 0.333918
O O7 0.285602 0.246290 0.537768
O O8 0.285366 0.171617 0.756876
O O9 0.401494 0.277831 0.663695
O O10 0.392263 0.000000 0.628460
O O11 0.322812 0.500000 0.124173
O O12 0.304107 0.732663 0.228190
O O13 0.323415 0.735027 0.039534
O O14 0.874859 0.169819 0.838913
O O15 0.785479 0.000000 0.016606
O O16 0.750000 0.250000 0.000000
O O17 0.460566 0.500000 0.659249
O O18 0.274492 0.500000 0.343571
#
# Coordination Sequence:
#
# PCOD9223490 Si02
#       7
#     8   8   8   8   8   8   8
#     4  11  22  36  53  72 100 140 177 203 243 308
#     4  10  19  30  50  78 107 131 161 210 258 297
#     4  10  19  33  53  74  99 137 175 201 239 302
#     4   9  16  31  54  75 100 133 169 205 240 294
#     4  10  20  34  53  74  99 132 169 210 249 290
#     4  11  23  35  49  75 106 133 168 213 256 294
#     4   9  17  32  52  76 103 135 169 201 248 306
#
# _framework density 8.9630179999999999
#
# number of rings (size 3 to 8) (size 9 to 14) (size 15 to 20)
#    0.000    2.000    2.857    1.714    0.000    4.000 
#    0.000    0.714    0.000    0.857    0.000    6.000 
#    0.000    0.000    0.000    0.000    0.000    0.000 
#
# Total GULP energy -155930.033560 kJ/mol
# GULP energy per Si atom -5568.929770 kJ/mol
# Density = 0.894262 g / cm^3
# Si number density = 8.963018 Si / 1000 Ang^3
#
#
#
# Elastic Constant Matrix: (Units=GPa)
#
#
# Indices 1 2 3 4 5 6 
#
# 1 98.5298 30.9832 6.2187 0.0030 33.3966 -0.0011
# 2 30.9832 9.2693 22.3097 0.0005 17.8497 0.0031
# 3 6.2187 22.3097 -6.5428 0.0033 8.9881 -0.0009
# 4 0.0030 0.0005 0.0033 17.2891 0.0036 2.3276
# 5 33.3966 17.8497 8.9881 0.0036 31.0511 -0.0020
# 6 -0.0011 0.0031 -0.0009 2.3276 -0.0020 28.5378
#
#
#
# Elastic Compliance Matrix: (Units=1/GPa)
#
#
# Indices 1 2 3 4 5 6 
#
# 1 0.015873 -0.002712 -0.011069 0.000002 -0.012309 0.000000
# 2 -0.002712 0.032570 0.062081 -0.000005 -0.033777 -0.000004
# 3 -0.011069 0.062081 0.011200 0.000005 -0.027024 -0.000009
# 4 0.000002 -0.000005 0.000005 0.058482 -0.000008 -0.004770
# 5 -0.012309 -0.033777 -0.027024 -0.000008 0.072682 0.000008
# 6 0.000000 -0.000004 -0.000009 -0.004770 0.000008 0.035430
#
#
# Mechanical properties :
#
#
# Convention : Reuss Voigt Hill
#
# Bulk Modulus (GPa) = 6.40022 24.47550 15.43786
# Shear Modulus (GPa) = 27.51519 18.15859 22.83689
#
# Velocity S-wave (km/s) = 3.92207 3.18618 3.57312
# Velocity P-wave (km/s) = 4.90798 5.21717 5.06493
#
# Compressibility (1/GPa) = 0.15624472
#
# Stress axis : x y z
#
# Youngs Moduli (GPa) = 63.00198 30.70285 89.28310
#
# Poissons Ratio (x) = 0.08325 0.98825
# Poissons Ratio (y) = 0.17083 -5.54279
# Poissons Ratio (z) = 0.69735 -1.90607
#
# Static dielectric constant tensor:
#      x y z
#    x 1.638890 -0.000010 -0.047360 
#    y -0.000010 1.668980 0.000040 
#    z -0.047360 0.000040 3.056960 
# 
# From -- ./inp_files/287345.got.cif
#   From: 2010.05.17/outbox.ucp.g08.bks.cvg/sg12_144_cif.got.tgz:287345.got - 2010.06.11 11:47:21.
