data_PCOD9223944
_publ_section_title
;
Structure prediction by ZEFSAII (Michael W. Deem and Ramdas Pophale) SiO2 
 PCOD9223944
Probable space group: C 2/M
;
_chemical_formula_sum "Si O2"
_cell_formula_units_Z 22
_cell_length_a 9.000000
_cell_length_b 27.000000
_cell_length_c 12.000000
_cell_angle_alpha 90.000000
_cell_angle_beta 50.000000
_cell_angle_gamma 90.000000
_cell_volume 2233.785596
_symmetry_space_group_name_H-M "C 2/M"
_symmetry_group_IT_number 12
_symmetry_cell_setting 'monoclinic'
loop_
_space_group_symop_operation_xyz
x,y,z
-x,y,-z
-x,-y,-z
x,-y,z
1/2+x,1/2+y,z
1/2-x,1/2+y,-z
1/2-x,1/2-y,-z
1/2+x,1/2-y,z
loop_
_atom_site_type_symbol
_atom_site_label
_atom_site_fract_x
_atom_site_fract_y
_atom_site_fract_z
Si Si1 0.770997 0.500000 0.972318
Si Si2 0.000000 0.920334 0.000000
Si Si3 0.765403 0.500000 0.237639
Si Si4 0.615693 0.648796 0.132578
Si Si5 0.473481 0.821894 0.799518
Si Si6 0.309141 0.608743 0.658609
Si Si7 0.359640 0.728350 0.176650
O O1 0.681750 0.454020 0.947244
O O2 0.705363 0.500000 0.134573
O O3 0.000791 0.500000 0.868959
O O4 0.984654 0.885894 0.115444
O O5 0.698439 0.549551 0.330468
O O6 0.672729 0.625174 0.221104
O O7 0.478371 0.696256 0.209580
O O8 0.811021 0.662112 0.969265
O O9 0.610855 0.868136 0.704369
O O10 0.624755 0.783308 0.782649
O O11 0.343445 0.795319 0.766000
O O12 0.500000 0.624969 0.500000
O O13 0.500000 0.727506 0.000000
#
# Coordination Sequence:
#
# PCOD9223944 Si02
#       7
#     4   4   4   8   8   8   8
#     4  10  22  34  65  98 117 150 200 263 305 355
#     4  11  18  36  60  98 126 148 192 255 312 350
#     4  11  23  40  63  88 122 155 204 249 305 362
#     4  11  20  37  65  93 126 157 199 250 304 359
#     4  11  21  38  63  94 122 160 204 256 301 356
#     4  12  26  42  60  86 125 167 205 246 302 364
#     4  10  19  34  63  97 125 151 202 257 307 351
#
# _framework density 9.8487519999999993
#
# number of rings (size 3 to 8) (size 9 to 14) (size 15 to 20)
#    0.000    1.091    4.545    6.273    2.545    0.000 
#    0.000    4.545    0.000    1.091    0.000    0.000 
#    0.000    0.000    0.000    0.000    0.000    0.000 
#
# Total GULP energy -122748.455521 kJ/mol
# GULP energy per Si atom -5579.475251 kJ/mol
# Density = 0.982634 g / cm^3
# Si number density = 9.848752 Si / 1000 Ang^3
#
#
#
# Elastic Constant Matrix: (Units=GPa)
#
#
# Indices 1 2 3 4 5 6 
#
# 1 102.2378 34.6173 18.7245 0.0000 -19.0170 0.0000
# 2 34.6173 110.2544 13.7792 0.0000 -8.7531 0.0000
# 3 18.7245 13.7792 45.6495 0.0000 -21.0022 0.0000
# 4 0.0000 0.0000 0.0000 984.6543 0.0000 -450.8713
# 5 -19.0170 -8.7531 -21.0022 0.0000 14.5996 0.0000
# 6 0.0000 0.0000 0.0000 -450.8713 0.0000 229.7831
#
#
#
# Elastic Compliance Matrix: (Units=1/GPa)
#
#
# Indices 1 2 3 4 5 6 
#
# 1 0.014880 -0.003387 0.008581 0.000000 0.029696 0.000000
# 2 -0.003387 0.010302 -0.002686 0.000000 -0.002099 0.000000
# 3 0.008581 -0.002686 0.069786 0.000000 0.109958 0.000000
# 4 0.000000 0.000000 0.000000 0.010003 0.000000 0.019627
# 5 0.029696 -0.002099 0.109958 0.000000 0.264097 0.000000
# 6 0.000000 0.000000 0.000000 0.019627 0.000000 0.042863
#
#
# Mechanical properties :
#
#
# Convention : Reuss Voigt Hill
#
# Bulk Modulus (GPa) = 10.00154 43.59821 26.79987
# Shear Modulus (GPa) = 11.35735 258.54211 134.94973
#
# Velocity S-wave (km/s) = 2.40383 11.46914 8.28612
# Velocity P-wave (km/s) = 3.57675 14.05597 10.25581
#
# Compressibility (1/GPa) = 0.09998462
#
# Stress axis : x y z
#
# Youngs Moduli (GPa) = 67.20447 97.06490 14.32954
#
# Poissons Ratio (x) = 0.32874 -0.12297
# Poissons Ratio (y) = 0.22761 0.03850
# Poissons Ratio (z) = -0.57671 0.26076
#
# Static dielectric constant tensor:
#      x y z
#    x 1.674870 0.000000 -0.001700 
#    y 0.000000 1.854450 0.000000 
#    z -0.001700 0.000000 1.643640 
# 
# From -- ./inp_files/124098.got.cif
#   From: 2010.05.17/outbox.ucp.g08.bks.cvg/sg12_63_cif.got.tgz:124098.got - 2010.06.11 11:47:21.
