data_PCOD9223345
_publ_section_title
;
Structure prediction by ZEFSAII (Michael W. Deem and Ramdas Pophale) SiO2 
 PCOD9223345
Probable space group: C 2/M
;
_chemical_formula_sum "Si O2"
_cell_formula_units_Z 32
_cell_length_a 18.000000
_cell_length_b 18.000000
_cell_length_c 15.000000
_cell_angle_alpha 90.000000
_cell_angle_beta 40.000000
_cell_angle_gamma 90.000000
_cell_volume 3123.947783
_symmetry_space_group_name_H-M "C 2/M"
_symmetry_group_IT_number 12
_symmetry_cell_setting 'monoclinic'
loop_
_space_group_symop_operation_xyz
x,y,z
-x,y,-z
-x,-y,-z
x,-y,z
1/2+x,1/2+y,z
1/2-x,1/2+y,-z
1/2-x,1/2-y,-z
1/2+x,1/2-y,z
loop_
_atom_site_type_symbol
_atom_site_label
_atom_site_fract_x
_atom_site_fract_y
_atom_site_fract_z
Si Si1 0.901102 0.411695 0.795442
Si Si2 0.183446 0.698414 0.990706
Si Si3 0.630232 0.868968 0.366875
Si Si4 0.769566 0.786551 0.713732
Si Si5 0.535688 0.289892 0.868751
Si Si6 0.090246 0.087399 0.680522
Si Si7 0.906843 0.917380 0.508681
Si Si8 0.661030 0.913933 0.527081
O O1 0.904283 0.500000 0.794565
O O2 0.835630 0.388188 0.764685
O O3 0.034315 0.381327 0.663839
O O4 0.840789 0.378164 0.936709
O O5 0.245647 0.693801 0.838594
O O6 0.250000 0.750000 0.000000
O O7 0.060603 0.735580 0.081510
O O8 0.500000 0.896655 0.500000
O O9 0.640073 0.781221 0.370588
O O10 0.692179 0.905986 0.393466
O O11 0.655574 0.753275 0.772213
O O12 0.815167 0.856708 0.620142
O O13 0.543970 0.360566 0.798697
O O14 0.500000 0.314386 0.000000
O O15 0.028014 0.098518 0.643808
O O16 0.221848 0.113413 0.536530
O O17 0.090082 0.000000 0.703793
O O18 0.000000 0.918477 0.500000
O O19 0.855108 0.000000 0.546499
O O20 0.650280 0.000000 0.559611
#
# Coordination Sequence:
#
# PCOD9223345 Si02
#       8
#     8   8   8   8   8   8   8   8
#     4  10  21  37  60  90 121 156 195 244 305 361
#     4  11  24  41  60  84 119 160 205 255 292 355
#     4  10  18  32  57  92 121 150 189 239 305 360
#     4  11  22  40  61  85 120 164 198 250 304 355
#     4  10  24  42  61  89 125 157 204 252 303 360
#     4  10  21  39  65  93 122 159 197 247 308 363
#     4  10  24  42  61  90 124 158 206 259 300 355
#     4   9  18  33  57  90 125 149 185 242 302 367
#
# _framework density 10.243449
#
# number of rings (size 3 to 8) (size 9 to 14) (size 15 to 20)
#    0.000    1.875    2.500    0.750    3.500    4.750 
#    0.000    0.625    0.000    2.250    0.000    0.000 
#    0.000    0.000    0.000    0.000    0.000    0.000 
#
# Total GULP energy -178352.929798 kJ/mol
# GULP energy per Si atom -5573.529056 kJ/mol
# Density = 1.022013 g / cm^3
# Si number density = 10.243449 Si / 1000 Ang^3
#
#
#
# Elastic Constant Matrix: (Units=GPa)
#
#
# Indices 1 2 3 4 5 6 
#
# 1 91.6737 30.6797 22.6684 0.0001 26.9564 -0.0001
# 2 30.6797 79.4403 42.6560 0.0000 21.1662 0.0000
# 3 22.6684 42.6560 30.9884 0.0000 13.4145 0.0000
# 4 0.0001 0.0000 0.0000 -154.8235 0.0000 149.0099
# 5 26.9564 21.1662 13.4145 0.0000 18.4162 0.0000
# 6 -0.0001 0.0000 0.0000 149.0099 0.0000 -100.7370
#
#
#
# Elastic Compliance Matrix: (Units=1/GPa)
#
#
# Indices 1 2 3 4 5 6 
#
# 1 0.019643 0.004091 -0.008060 0.000000 -0.027583 0.000000
# 2 0.004091 0.050492 -0.065405 0.000000 -0.016378 0.000000
# 3 -0.008060 -0.065405 0.132251 0.000000 -0.009363 0.000000
# 4 0.000000 0.000000 0.000000 0.015246 0.000000 0.022552
# 5 -0.027583 -0.016378 -0.009363 0.000000 0.120317 0.000000
# 6 0.000000 0.000000 0.000000 0.022552 0.000000 0.023431
#
#
# Mechanical properties :
#
#
# Convention : Reuss Voigt Hill
#
# Bulk Modulus (GPa) = 15.71433 43.79005 29.75219
# Shear Modulus (GPa) = 9.59067 -40.35563 -15.38248
#
# Velocity S-wave (km/s) = 2.16599 -4.44309 -2.74313
# Velocity P-wave (km/s) = 3.73396 2.21366 2.12628
#
# Compressibility (1/GPa) = 0.06363617
#
# Stress axis : x y z
#
# Youngs Moduli (GPa) = 50.90938 19.80529 7.56139
#
# Poissons Ratio (x) = -0.08103 0.06095
# Poissons Ratio (y) = -0.20828 0.49456
# Poissons Ratio (z) = 0.41034 1.29537
#
# Static dielectric constant tensor:
#      x y z
#    x 1.563910 0.000000 -0.102450 
#    y 0.000000 1.701460 0.000000 
#    z -0.102450 0.000000 1.691050 
# 
# From -- ./inp_files/226836.got.cif
#   From: 2010.05.17/outbox.ucp.g08.bks.cvg/sg12_114_cif.got.tgz:226836.got - 2010.06.11 11:47:21.
