data_PCOD9223408
_publ_section_title
;
Structure prediction by ZEFSAII (Michael W. Deem and Ramdas Pophale) SiO2 
 PCOD9223408
Probable space group: C 2/M
;
_chemical_formula_sum "Si O2"
_cell_formula_units_Z 32
_cell_length_a 21.000000
_cell_length_b 24.000000
_cell_length_c 18.000000
_cell_angle_alpha 90.000000
_cell_angle_beta 20.000000
_cell_angle_gamma 90.000000
_cell_volume 3102.806740
_symmetry_space_group_name_H-M "C 2/M"
_symmetry_group_IT_number 12
_symmetry_cell_setting 'monoclinic'
loop_
_space_group_symop_operation_xyz
x,y,z
-x,y,-z
-x,-y,-z
x,-y,z
1/2+x,1/2+y,z
1/2-x,1/2+y,-z
1/2-x,1/2-y,-z
1/2+x,1/2-y,z
loop_
_atom_site_type_symbol
_atom_site_label
_atom_site_fract_x
_atom_site_fract_y
_atom_site_fract_z
Si Si1 0.419025 0.610022 0.719565
Si Si2 0.880648 0.566546 0.056877
Si Si3 0.028046 0.645125 0.380820
Si Si4 0.121041 0.748353 0.717230
Si Si5 0.656436 0.434165 0.030233
Si Si6 0.196774 0.238150 0.143110
Si Si7 0.701435 0.870028 0.644398
Si Si8 0.189856 0.127078 0.647648
O O1 0.352755 0.584247 0.872054
O O2 0.390828 0.676917 0.753987
O O3 0.639888 0.599310 0.482223
O O4 0.318622 0.587127 0.755977
O O5 0.878388 0.500000 0.058381
O O6 0.013654 0.595435 0.851001
O O7 0.000000 0.583454 0.000000
O O8 0.073990 0.709497 0.306194
O O9 0.000000 0.643802 0.500000
O O10 0.855693 0.619124 0.523605
O O11 0.197228 0.606541 0.169146
O O12 0.250000 0.750000 0.500000
O O13 0.191777 0.693839 0.682766
O O14 0.122472 0.811111 0.744961
O O15 0.902331 0.735801 0.951640
O O16 0.695292 0.500000 0.984248
O O17 0.467721 0.419355 0.191204
O O18 0.250000 0.250000 0.000000
O O19 0.747904 0.866469 0.506358
#
# Coordination Sequence:
#
# PCOD9223408 Si02
#       8
#     8   8   8   8   8   8   8   8
#     4  11  22  41  70  97 128 165 223 283 330 393
#     4  11  25  43  60  88 133 180 221 267 325 391
#     4  12  26  43  65 103 142 179 219 273 345 415
#     4  10  18  34  63  97 124 159 206 267 333 389
#     4  11  24  43  69 100 127 174 236 283 330 392
#     4  12  19  40  70  96 135 170 214 276 340 397
#     4  10  20  38  65  95 118 167 220 273 333 392
#     4  10  21  41  65  92 133 165 219 279 331 390
#
# _framework density 10.313243
#
# number of rings (size 3 to 8) (size 9 to 14) (size 15 to 20)
#    0.000    1.125    3.750    4.875    0.000    4.250 
#    4.500    1.875    0.000    0.000    0.000    0.000 
#    0.000    0.000    0.000    0.000    0.000    0.000 
#
# Total GULP energy -178254.762356 kJ/mol
# GULP energy per Si atom -5570.461324 kJ/mol
# Density = 1.028977 g / cm^3
# Si number density = 10.313243 Si / 1000 Ang^3
#
#
#
# Elastic Constant Matrix: (Units=GPa)
#
#
# Indices 1 2 3 4 5 6 
#
# 1 87.3838 35.2040 17.6059 -0.1265 -21.2549 0.0364
# 2 35.2040 87.2696 10.0307 0.0293 -1.6848 0.0112
# 3 17.6059 10.0307 48.8744 -0.1513 -17.5918 0.0640
# 4 -0.1265 0.0293 -0.1513 -4.3613 0.0702 -6.5221
# 5 -21.2549 -1.6848 -17.5918 0.0702 27.4934 -0.0309
# 6 0.0364 0.0112 0.0640 -6.5221 -0.0309 28.9613
#
#
#
# Elastic Compliance Matrix: (Units=1/GPa)
#
#
# Indices 1 2 3 4 5 6 
#
# 1 0.017313 -0.006708 -0.000248 -0.000243 0.012815 -0.000060
# 2 -0.006708 0.014359 -0.002702 0.000212 -0.006036 0.000050
# 3 -0.000248 -0.002702 0.027251 -0.000464 0.017081 -0.000145
# 4 -0.000243 0.000212 -0.000464 -0.171508 -0.000078 -0.038623
# 5 0.012815 -0.006036 0.017081 -0.000078 0.056839 -0.000008
# 6 -0.000060 0.000050 -0.000145 -0.038623 -0.000008 0.025831
#
#
# Mechanical properties :
#
#
# Convention : Reuss Voigt Hill
#
# Bulk Modulus (GPa) = 25.24826 38.80099 32.02463
# Shear Modulus (GPa) = 1920.33056 21.13116 970.73086
#
# Velocity S-wave (km/s) = 30.54543 3.20420 21.71739
# Velocity P-wave (km/s) = 35.44430 5.70450 25.38543
#
# Compressibility (1/GPa) = 0.03960669
#
# Stress axis : x y z
#
# Youngs Moduli (GPa) = 57.76013 69.64413 36.69560
#
# Poissons Ratio (x) = 0.46717 0.00909
# Poissons Ratio (y) = 0.38745 0.09916
# Poissons Ratio (z) = 0.01431 0.18820
#
# Static dielectric constant tensor:
#      x y z
#    x 1.733060 -0.000010 -0.011980 
#    y -0.000010 1.725600 0.000050 
#    z -0.011980 0.000050 1.793120 
# 
# From -- ./inp_files/286422.got.cif
#   From: 2010.05.17/outbox.ucp.g08.bks.cvg/sg12_144_cif.got.tgz:286422.got - 2010.06.11 11:47:21.
