data_PCOD9223446
_publ_section_title
;
Structure prediction by ZEFSAII (Michael W. Deem and Ramdas Pophale) SiO2 
 PCOD9223446
Probable space group: C 2/M
;
_chemical_formula_sum "Si O2"
_cell_formula_units_Z 32
_cell_length_a 24.000000
_cell_length_b 9.000000
_cell_length_c 18.000000
_cell_angle_alpha 90.000000
_cell_angle_beta 80.000000
_cell_angle_gamma 90.000000
_cell_volume 3828.932544
_symmetry_space_group_name_H-M "C 2/M"
_symmetry_group_IT_number 12
_symmetry_cell_setting 'monoclinic'
loop_
_space_group_symop_operation_xyz
x,y,z
-x,y,-z
-x,-y,-z
x,-y,z
1/2+x,1/2+y,z
1/2-x,1/2+y,-z
1/2-x,1/2-y,-z
1/2+x,1/2-y,z
loop_
_atom_site_type_symbol
_atom_site_label
_atom_site_fract_x
_atom_site_fract_y
_atom_site_fract_z
Si Si1 0.172678 0.321983 0.450871
Si Si2 0.346655 0.179611 0.705836
Si Si3 0.704178 0.178089 0.597173
Si Si4 0.993940 0.820603 0.088898
Si Si5 0.864260 0.826396 0.118074
Si Si6 0.689116 0.675138 0.030307
Si Si7 0.597669 0.178906 0.156286
Si Si8 0.776376 0.675576 0.243804
O O1 0.169737 0.500000 0.449695
O O2 0.141267 0.271029 0.382641
O O3 0.237125 0.266482 0.425996
O O4 0.161801 0.278696 0.539783
O O5 0.391885 0.219271 0.759206
O O6 0.284627 0.244613 0.739905
O O7 0.342289 0.000000 0.707676
O O8 0.690173 0.204339 0.686283
O O9 0.715137 0.000000 0.587458
O O10 0.041994 0.746527 0.129250
O O11 0.928590 0.781495 0.122236
O O12 0.000152 0.000000 0.092875
O O13 0.000000 0.781632 0.000000
O O14 0.816372 0.733370 0.170050
O O15 0.857959 0.000000 0.139880
O O16 0.850458 0.815597 0.033808
O O17 0.696939 0.500000 0.046042
O O18 0.653455 0.758500 0.101749
O O19 0.750000 0.750000 0.000000
O O20 0.595771 0.000000 0.150359
O O21 0.766341 0.500000 0.240015
#
# Coordination Sequence:
#
# PCOD9223446 Si02
#       8
#     8   8   8   8   8   8   8   8
#     4   8  13  24  42  61  88 128 161 183 217 271
#     4   9  18  31  46  68 100 132 159 187 228 283
#     4   8  14  24  39  63  93 123 155 190 225 264
#     4  10  20  39  58  70  86 118 160 202 243 285
#     4  10  21  36  52  67  90 123 158 193 235 285
#     4  11  22  36  51  70  96 127 160 193 231 283
#     4  11  22  34  50  74  98 122 155 198 242 281
#     4  10  19  29  45  72 102 126 155 196 236 274
#
# _framework density 8.3574210000000004
#
# number of rings (size 3 to 8) (size 9 to 14) (size 15 to 20)
#    0.000    2.375    1.250    1.875    0.000    6.250 
#    0.000    0.000    0.000    0.000    0.000    0.875 
#    0.000    7.000    0.000    0.000    0.000    0.000 
#
# Total GULP energy -178142.148271 kJ/mol
# GULP energy per Si atom -5566.942133 kJ/mol
# Density = 0.833840 g / cm^3
# Si number density = 8.357421 Si / 1000 Ang^3
#
#
#
# Elastic Constant Matrix: (Units=GPa)
#
#
# Indices 1 2 3 4 5 6 
#
# 1 77.1700 18.2299 14.9948 0.0000 28.2720 0.0000
# 2 18.2299 28.1401 13.2655 0.0000 10.3711 0.0000
# 3 14.9948 13.2655 67.5065 0.0000 35.4213 0.0000
# 4 0.0000 0.0000 0.0000 17.5086 0.0000 5.2703
# 5 28.2720 10.3711 35.4213 0.0000 30.7845 0.0000
# 6 0.0000 0.0000 0.0000 5.2703 0.0000 25.9805
#
#
#
# Elastic Compliance Matrix: (Units=1/GPa)
#
#
# Indices 1 2 3 4 5 6 
#
# 1 0.027795 -0.010832 0.018760 0.000000 -0.043463 0.000000
# 2 -0.010832 0.044905 -0.009337 0.000000 0.005563 0.000000
# 3 0.018760 -0.009337 0.050146 0.000000 -0.071783 0.000000
# 4 0.000000 0.000000 0.000000 0.060829 0.000000 -0.012340
# 5 -0.043463 0.005563 -0.071783 0.000000 0.153120 0.000000
# 6 0.000000 0.000000 0.000000 -0.012340 0.000000 0.040994
#
#
# Mechanical properties :
#
#
# Convention : Reuss Voigt Hill
#
# Bulk Modulus (GPa) = 8.33130 29.53302 18.93216
# Shear Modulus (GPa) = 11.88732 23.27647 17.58190
#
# Velocity S-wave (km/s) = 2.66970 3.73575 3.24678
# Velocity P-wave (km/s) = 3.80765 6.02619 5.04049
#
# Compressibility (1/GPa) = 0.12002923
#
# Stress axis : x y z
#
# Youngs Moduli (GPa) = 35.97761 22.26924 19.94169
#
# Poissons Ratio (x) = 0.24121 -0.37411
# Poissons Ratio (y) = 0.38970 0.18620
# Poissons Ratio (z) = -0.67494 0.20793
#
# Static dielectric constant tensor:
#      x y z
#    x 1.532390 0.000000 0.039910 
#    y 0.000000 1.563250 0.000000 
#    z 0.039910 0.000000 1.635210 
# 
# From -- ./inp_files/287598.got.cif
#   From: 2010.05.17/outbox.ucp.g08.bks.cvg/sg12_144_cif.got.tgz:287598.got - 2010.06.11 11:47:21.
