data_PCOD9223450
_publ_section_title
;
Structure prediction by ZEFSAII (Michael W. Deem and Ramdas Pophale) SiO2 
 PCOD9223450
Probable space group: C 2/M
;
_chemical_formula_sum "Si O2"
_cell_formula_units_Z 28
_cell_length_a 21.000000
_cell_length_b 27.000000
_cell_length_c 18.000000
_cell_angle_alpha 90.000000
_cell_angle_beta 20.000000
_cell_angle_gamma 90.000000
_cell_volume 3490.657583
_symmetry_space_group_name_H-M "C 2/M"
_symmetry_group_IT_number 12
_symmetry_cell_setting 'monoclinic'
loop_
_space_group_symop_operation_xyz
x,y,z
-x,y,-z
-x,-y,-z
x,-y,z
1/2+x,1/2+y,z
1/2-x,1/2+y,-z
1/2-x,1/2-y,-z
1/2+x,1/2-y,z
loop_
_atom_site_type_symbol
_atom_site_label
_atom_site_fract_x
_atom_site_fract_y
_atom_site_fract_z
Si Si1 0.072342 0.636144 0.709372
Si Si2 0.499584 0.783290 0.914279
Si Si3 0.807115 0.059095 0.538023
Si Si4 0.580404 0.276830 0.328262
Si Si5 0.773724 0.055068 0.742827
Si Si6 0.306325 0.776845 0.516595
Si Si7 0.827147 0.884062 0.823607
O O1 0.187903 0.588343 0.607996
O O2 0.160421 0.667225 0.545427
O O3 0.072806 0.672560 0.781225
O O4 0.855362 0.626789 0.928180
O O5 0.635219 0.736559 0.757191
O O6 0.500000 0.798531 0.000000
O O7 0.299979 0.768987 0.099415
O O8 0.727290 0.068556 0.709287
O O9 0.018863 0.079834 0.310500
O O10 0.807534 0.000000 0.527476
O O11 0.500000 0.270701 0.500000
O O12 0.481461 0.245204 0.371526
O O13 0.566609 0.334183 0.317392
O O14 0.733130 0.093161 0.852100
O O15 0.000000 0.052252 0.500000
O O16 0.700090 0.000000 0.839948
O O17 0.250000 0.750000 0.500000
#
# Coordination Sequence:
#
# PCOD9223450 Si02
#       7
#     8   8   8   8   8   8   8
#     4  10  23  32  49  72 102 138 174 214 261 300
#     4  10  20  33  54  76 102 139 178 215 251 308
#     4  10  20  33  48  67  99 138 177 218 257 293
#     4  11  20  31  53  77 100 136 178 212 256 306
#     4   8  15  27  42  63  92 127 168 214 246 277
#     4  10  21  36  49  73 108 136 174 219 261 305
#     4  10  19  29  47  69  96 134 175 212 247 296
#
# _framework density 8.0214110000000005
#
# number of rings (size 3 to 8) (size 9 to 14) (size 15 to 20)
#    0.000    2.143    1.429    4.286    4.000    7.429 
#    0.000    1.429    0.000    0.000    0.000    0.000 
#    0.000    1.143    0.000    0.143    0.000    0.000 
#
# Total GULP energy -156016.263945 kJ/mol
# GULP energy per Si atom -5572.009427 kJ/mol
# Density = 0.800315 g / cm^3
# Si number density = 8.021411 Si / 1000 Ang^3
#
#
#
# Elastic Constant Matrix: (Units=GPa)
#
#
# Indices 1 2 3 4 5 6 
#
# 1 70.7266 30.6354 9.4936 -0.0136 -18.6902 0.0255
# 2 30.6354 78.6022 26.4527 -0.0187 -2.8547 0.0548
# 3 9.4936 26.4527 41.2623 -0.0090 -7.8852 0.0558
# 4 -0.0136 -0.0187 -0.0090 4.7146 -0.0037 3.7094
# 5 -18.6902 -2.8547 -7.8852 -0.0037 19.1610 -0.0237
# 6 0.0255 0.0548 0.0558 3.7094 -0.0237 26.6280
#
#
#
# Elastic Compliance Matrix: (Units=1/GPa)
#
#
# Indices 1 2 3 4 5 6 
#
# 1 0.024489 -0.010635 0.005911 0.000059 0.024735 0.000000
# 2 -0.010635 0.020914 -0.013401 0.000033 -0.012773 -0.000021
# 3 0.005911 -0.013401 0.034934 0.000081 0.018145 -0.000046
# 4 0.000059 0.000033 0.000081 0.238215 0.000101 -0.033185
# 5 0.024735 -0.012773 0.018145 0.000101 0.081881 0.000024
# 6 0.000000 -0.000021 -0.000046 -0.033185 0.000024 0.042177
#
#
# Mechanical properties :
#
#
# Convention : Reuss Voigt Hill
#
# Bulk Modulus (GPa) = 22.68369 35.97272 29.32821
# Shear Modulus (GPa) = 10.13054 18.36802 14.24928
#
# Velocity S-wave (km/s) = 2.51563 3.38736 2.98351
# Velocity P-wave (km/s) = 4.75479 6.14578 5.49448
#
# Compressibility (1/GPa) = 0.04408454
#
# Stress axis : x y z
#
# Youngs Moduli (GPa) = 40.83509 47.81565 28.62511
#
# Poissons Ratio (x) = 0.50854 -0.16919
# Poissons Ratio (y) = 0.43430 0.38362
# Poissons Ratio (z) = -0.24136 0.64080
#
# Static dielectric constant tensor:
#      x y z
#    x 1.519120 0.000010 -0.009860 
#    y 0.000010 1.561670 0.000100 
#    z -0.009860 0.000100 1.611240 
# 
# From -- ./inp_files/286601.got.cif
#   From: 2010.05.17/outbox.ucp.g08.bks.cvg/sg12_144_cif.got.tgz:286601.got - 2010.06.11 11:47:21.
