data_PCOD9223885
_publ_section_title
;
Structure prediction by ZEFSAII (Michael W. Deem and Ramdas Pophale) SiO2 
 PCOD9223885
Probable space group: C 2/M
;
_chemical_formula_sum "Si O2"
_cell_formula_units_Z 32
_cell_length_a 30.000000
_cell_length_b 9.000000
_cell_length_c 18.000000
_cell_angle_alpha 90.000000
_cell_angle_beta 40.000000
_cell_angle_gamma 90.000000
_cell_volume 3123.947783
_symmetry_space_group_name_H-M "C 2/M"
_symmetry_group_IT_number 12
_symmetry_cell_setting 'monoclinic'
loop_
_space_group_symop_operation_xyz
x,y,z
-x,y,-z
-x,-y,-z
x,-y,z
1/2+x,1/2+y,z
1/2-x,1/2+y,-z
1/2-x,1/2-y,-z
1/2+x,1/2-y,z
loop_
_atom_site_type_symbol
_atom_site_label
_atom_site_fract_x
_atom_site_fract_y
_atom_site_fract_z
Si Si1 0.901792 0.678175 0.764630
Si Si2 0.335392 0.176140 0.702914
Si Si3 0.800852 0.827119 0.490382
Si Si4 0.574737 0.834213 0.665423
Si Si5 0.416409 0.168894 0.913531
Si Si6 0.546762 0.321042 0.546230
Si Si7 0.574611 0.678953 0.940067
Si Si8 0.771705 0.822046 0.281751
O O1 0.919079 0.500000 0.744997
O O2 0.839311 0.699177 0.786479
O O3 0.889547 0.722015 0.866450
O O4 0.966893 0.766020 0.645312
O O5 0.398322 0.268327 0.585495
O O6 0.262508 0.209356 0.755520
O O7 0.349751 0.000000 0.671556
O O8 0.750000 0.750000 0.500000
O O9 0.875413 0.784610 0.362047
O O10 0.780645 0.755772 0.594817
O O11 0.792712 0.000000 0.506077
O O12 0.498976 0.839827 0.794870
O O13 0.569375 0.769666 0.589985
O O14 0.605069 0.000000 0.627664
O O15 0.390518 0.000000 0.960173
O O16 0.411998 0.268257 0.992307
O O17 0.549212 0.500000 0.551027
O O18 0.572334 0.500000 0.941203
O O19 0.648220 0.726143 0.808795
O O20 0.500000 0.731015 0.000000
O O21 0.769637 0.000000 0.295441
#
# Coordination Sequence:
#
# PCOD9223885 Si02
#       8
#     8   8   8   8   8   8   8   8
#     4   9  19  35  55  81 113 156 202 240 291 356
#     4  10  19  34  57  79 111 158 200 240 293 360
#     4  12  25  39  59  88 122 158 194 241 299 358
#     4  10  20  37  58  84 118 157 197 239 292 356
#     4   9  20  38  60  85 115 150 196 248 292 346
#     4  11  20  30  49  82 120 157 195 239 290 344
#     4  10  23  42  63  87 114 150 196 248 304 357
#     4  10  22  41  62  86 118 157 201 247 297 358
#
# _framework density 10.243449
#
# number of rings (size 3 to 8) (size 9 to 14) (size 15 to 20)
#    0.000    1.875    1.250    3.750    1.750    5.250 
#    0.000    0.625    0.000    0.000    0.000    0.000 
#    0.000    0.000    0.000    0.000    0.000    0.000 
#
# Total GULP energy -178238.478251 kJ/mol
# GULP energy per Si atom -5569.952445 kJ/mol
# Density = 1.022013 g / cm^3
# Si number density = 10.243449 Si / 1000 Ang^3
#
#
#
# Elastic Constant Matrix: (Units=GPa)
#
#
# Indices 1 2 3 4 5 6 
#
# 1 77.6708 2.0513 18.8368 0.0029 -9.6070 0.0023
# 2 2.0513 17.5136 30.5161 0.0011 -9.0811 0.0057
# 3 18.8368 30.5161 22.2451 -0.0101 3.8169 0.0032
# 4 0.0029 0.0011 -0.0101 21.1446 0.0060 5.2142
# 5 -9.6070 -9.0811 3.8169 0.0060 13.5652 -0.0041
# 6 0.0023 0.0057 0.0032 5.2142 -0.0041 13.6655
#
#
#
# Elastic Compliance Matrix: (Units=1/GPa)
#
#
# Indices 1 2 3 4 5 6 
#
# 1 0.011778 -0.011135 0.005410 0.000002 -0.000635 0.000001
# 2 -0.011135 -0.014333 0.033719 0.000031 -0.026969 -0.000020
# 3 0.005410 0.033719 -0.010942 -0.000017 0.029483 0.000003
# 4 0.000002 0.000031 -0.000017 0.052205 -0.000003 -0.019919
# 5 -0.000635 -0.026969 0.029483 -0.000003 0.046919 0.000019
# 6 0.000001 -0.000020 0.000003 -0.019919 0.000019 0.080777
#
#
# Mechanical properties :
#
#
# Convention : Reuss Voigt Hill
#
# Bulk Modulus (GPa) = 23.53439 24.47088 24.00264
# Shear Modulus (GPa) = 40.13452 14.07675 27.10563
#
# Velocity S-wave (km/s) = 4.43090 2.62412 3.64135
# Velocity P-wave (km/s) = 6.13919 4.59912 5.42409
#
# Compressibility (1/GPa) = 0.04249101
#
# Stress axis : x y z
#
# Youngs Moduli (GPa) = 84.90081 -69.76748 -91.39332
#
# Poissons Ratio (x) = -0.77684 0.49442
# Poissons Ratio (y) = 0.94534 3.08167
# Poissons Ratio (z) = -0.45929 2.35247
#
# Static dielectric constant tensor:
#      x y z
#    x 1.873370 -0.000040 -0.046870 
#    y -0.000040 1.678410 0.000040 
#    z -0.046870 0.000040 1.762420 
# 
# From -- ./inp_files/295581.got.cif
#   From: 2010.05.17/outbox.ucp.g08.bks.cvg/sg12_148_cif.got.tgz:295581.got - 2010.06.11 11:47:21.
