data_PCOD9223074
_publ_section_title
;
Structure prediction by ZEFSAII (Michael W. Deem and Ramdas Pophale) SiO2 
 PCOD9223074
Probable space group: C 2/M
;
_chemical_formula_sum "Si O2"
_cell_formula_units_Z 64
_cell_length_a 14.116015
_cell_length_b 21.886000
_cell_length_c 10.233588
_cell_angle_alpha 90.000000
_cell_angle_beta 115.263702
_cell_angle_gamma 90.000000
_cell_volume 2859.199570
_symmetry_space_group_name_H-M "C 2/M"
_symmetry_group_IT_number 12
_symmetry_cell_setting 'monoclinic'
loop_
_space_group_symop_operation_xyz
x,y,z
-x,y,-z
-x,-y,-z
x,-y,z
1/2+x,1/2+y,z
1/2-x,1/2+y,-z
1/2-x,1/2-y,-z
1/2+x,1/2-y,z
loop_
_atom_site_type_symbol
_atom_site_label
_atom_site_fract_x
_atom_site_fract_y
_atom_site_fract_z
Si Si1 0.713243 0.709057 0.146776
Si Si2 0.384027 0.586898 0.905498
Si Si3 0.855225 0.930370 0.181865
Si Si4 0.093858 0.068762 0.372257
Si Si5 0.391770 0.861169 0.387935
Si Si6 0.193996 0.426424 0.407516
Si Si7 0.529436 0.926530 0.826725
Si Si8 0.684251 0.160387 0.064925
O O1 0.622066 0.659685 0.109470
O O2 0.805498 0.688925 0.299153
O O3 0.763937 0.689814 0.036777
O O4 0.669592 0.777083 0.135879
O O5 0.356413 0.565480 0.744729
O O6 0.500000 0.565093 0.000000
O O7 0.330198 0.568427 0.009583
O O8 0.974468 0.908007 0.280543
O O9 0.841927 0.000000 0.220364
O O10 0.770955 0.882653 0.181787
O O11 0.184307 0.096350 0.517004
O O12 0.076059 0.000000 0.408861
O O13 0.500000 0.831701 0.500000
O O14 0.350937 0.902179 0.481711
O O15 0.419037 0.905136 0.281147
O O16 0.200679 0.500000 0.411485
O O17 0.095326 0.412539 0.254323
O O18 0.590112 0.882882 0.963377
O O19 0.543224 0.000000 0.856177
#
# Coordination Sequence:
#
# PCOD9223074 Si02
#       8
#     8   8   8   8   8   8   8   8
#     4   9  16  26  36  52  72 101 136 160 191 214
#     4   9  15  23  36  55  75 102 126 157 190 229
#     4   9  16  24  35  53  77 103 128 155 188 225
#     4   9  15  22  34  55  81 104 126 151 184 230
#     4   9  15  23  36  55  75 102 126 157 190 229
#     4   9  15  22  34  55  81 104 126 151 184 230
#     4   9  16  24  35  53  77 103 128 155 188 225
#     4   9  17  26  36  50  73 107 136 162 181 218
#
# _framework density 22.383887999999999
#
# number of rings (size 3 to 8) (size 9 to 14) (size 15 to 20)
#    0.000    3.000    1.250    1.125    0.000    3.000 
#    0.000    0.000    0.000    0.000    3.250    5.250 
#    0.000    4.000    0.000    0.000    0.000    0.000 
#
# Total GULP energy -178173.101392 kJ/mol
# GULP energy per Si atom -5567.909419 kJ/mol
# Density = 2.233294 g / cm^3
# Si number density = 22.383888 Si / 1000 Ang^3
#
#
#
# Elastic Constant Matrix: (Units=GPa)
#
#
# Indices 1 2 3 4 5 6 
#
# 1 51.7452 33.5515 42.2701 0.0000 9.5350 0.0000
# 2 33.5515 148.5829 70.0783 0.0000 24.4706 0.0000
# 3 42.2701 70.0783 179.3015 0.0000 30.9458 0.0000
# 4 0.0000 0.0000 0.0000 11.6884 0.0000 -2.4527
# 5 9.5350 24.4706 30.9458 0.0000 44.1984 0.0000
# 6 0.0000 0.0000 0.0000 -2.4527 0.0000 -6.4588
#
#
#
# Elastic Compliance Matrix: (Units=1/GPa)
#
#
# Indices 1 2 3 4 5 6 
#
# 1 0.025393 -0.003534 -0.004547 0.000000 -0.000338 0.000000
# 2 -0.003534 0.009020 -0.002232 0.000000 -0.002669 0.000000
# 3 -0.004547 -0.002232 0.008120 0.000000 -0.003469 0.000000
# 4 0.000000 0.000000 0.000000 0.079241 0.000000 -0.030091
# 5 -0.000338 -0.002669 -0.003469 0.000000 0.026605 0.000000
# 6 0.000000 0.000000 0.000000 -0.030091 0.000000 -0.143400
#
#
# Mechanical properties :
#
#
# Convention : Reuss Voigt Hill
#
# Bulk Modulus (GPa) = 45.64373 74.60325 60.12349
# Shear Modulus (GPa) = 151.94240 25.46757 88.70499
#
# Velocity S-wave (km/s) = 8.24789 3.37673 6.30198
# Velocity P-wave (km/s) = 10.54225 6.97169 8.93710
#
# Compressibility (1/GPa) = 0.02190882
#
# Stress axis : x y z
#
# Youngs Moduli (GPa) = 39.38022 110.85940 123.15159
#
# Poissons Ratio (x) = 0.39176 0.55996
# Poissons Ratio (y) = 0.13916 0.27484
# Poissons Ratio (z) = 0.17906 0.24741
#
# Static dielectric constant tensor:
#      x y z
#    x 1.909320 0.000000 -0.040500 
#    y 0.000000 1.805390 0.000000 
#    z -0.040500 0.000000 1.907720 
# 
# From -- ./inp_files/285548.got.cif
#   From: 2010.05.17/outbox.cif.g08.bks.cpg/sg12_143_cif.got.tgz:285548.got - 2010.06.03 13:09:07.
