data_PCOD9223362
_publ_section_title
;
Structure prediction by ZEFSAII (Michael W. Deem and Ramdas Pophale) SiO2 
 PCOD9223362
Probable space group: C 2/M
;
_chemical_formula_sum "Si O2"
_cell_formula_units_Z 32
_cell_length_a 18.000000
_cell_length_b 9.000000
_cell_length_c 30.000000
_cell_angle_alpha 90.000000
_cell_angle_beta 40.000000
_cell_angle_gamma 90.000000
_cell_volume 3123.947783
_symmetry_space_group_name_H-M "C 2/M"
_symmetry_group_IT_number 12
_symmetry_cell_setting 'monoclinic'
loop_
_space_group_symop_operation_xyz
x,y,z
-x,y,-z
-x,-y,-z
x,-y,z
1/2+x,1/2+y,z
1/2-x,1/2+y,-z
1/2-x,1/2-y,-z
1/2+x,1/2-y,z
loop_
_atom_site_type_symbol
_atom_site_label
_atom_site_fract_x
_atom_site_fract_y
_atom_site_fract_z
Si Si1 0.828481 0.176594 0.905894
Si Si2 0.898560 0.167180 0.376098
Si Si3 0.923127 0.675731 0.951086
Si Si4 0.460742 0.827108 0.430058
Si Si5 0.336720 0.321253 0.165755
Si Si6 0.664167 0.828655 0.429361
Si Si7 0.225481 0.324546 0.306426
Si Si8 0.881364 0.821446 0.782139
O O1 0.882663 0.270659 0.920768
O O2 0.887730 0.208196 0.831783
O O3 0.841111 0.000000 0.910403
O O4 0.690508 0.206997 0.966781
O O5 0.885164 0.259038 0.426604
O O6 0.779178 0.163287 0.405469
O O7 0.001460 0.222485 0.296916
O O8 0.931527 0.000000 0.374224
O O9 0.944130 0.500000 0.942486
O O10 0.041314 0.759980 0.907310
O O11 0.431754 0.765325 0.492486
O O12 0.592080 0.812192 0.352608
O O13 0.435476 0.000000 0.445553
O O14 0.337016 0.500000 0.165350
O O15 0.310464 0.268681 0.229018
O O16 0.229362 0.260346 0.187012
O O17 0.709785 0.756120 0.362700
O O18 0.629274 0.000000 0.432951
O O19 0.255726 0.500000 0.297882
O O20 0.865802 0.000000 0.784515
#
# Coordination Sequence:
#
# PCOD9223362 Si02
#       8
#     8   8   8   8   8   8   8   8
#     4   9  20  39  62  86 112 148 186 221 268 326
#     4  10  20  33  52  78 107 140 176 219 271 327
#     4  10  21  38  60  87 117 144 179 226 275 326
#     4  10  18  33  55  77 105 138 177 224 271 321
#     4  11  22  36  57  82 112 148 188 230 275 328
#     4   9  18  31  52  79 103 136 182 225 268 321
#     4   9  18  32  52  78 105 137 181 229 268 314
#     4  10  21  37  57  79 110 149 188 229 273 325
#
# _framework density 10.243449
#
# number of rings (size 3 to 8) (size 9 to 14) (size 15 to 20)
#    0.000    2.250    1.250    1.500    1.750    3.000 
#    0.000    2.500    0.000    3.750    0.000    0.000 
#    0.000    0.000    0.000    0.000    0.000    0.000 
#
# Total GULP energy -178332.862908 kJ/mol
# GULP energy per Si atom -5572.901966 kJ/mol
# Density = 1.022013 g / cm^3
# Si number density = 10.243449 Si / 1000 Ang^3
#
#
#
# Elastic Constant Matrix: (Units=GPa)
#
#
# Indices 1 2 3 4 5 6 
#
# 1 36.7469 19.0529 11.0224 -0.0001 10.2481 0.0006
# 2 19.0529 9.5816 13.3969 -0.0001 -1.7648 0.0016
# 3 11.0224 13.3969 58.3485 0.0000 -1.1629 0.0001
# 4 -0.0001 -0.0001 0.0000 15.7362 -0.0001 0.0914
# 5 10.2481 -1.7648 -1.1629 -0.0001 26.6926 0.0001
# 6 0.0006 0.0016 0.0001 0.0914 0.0001 22.2509
#
#
#
# Elastic Compliance Matrix: (Units=1/GPa)
#
#
# Indices 1 2 3 4 5 6 
#
# 1 -0.066522 0.177244 -0.027410 0.000001 0.036064 -0.000011
# 2 0.177244 -0.316533 0.037453 -0.000002 -0.087346 0.000017
# 3 -0.027410 0.037453 0.013988 0.000000 0.013609 -0.000002
# 4 0.000001 -0.000002 0.000000 0.063549 0.000000 -0.000261
# 5 0.036064 -0.087346 0.013609 0.000000 0.018435 0.000005
# 6 -0.000011 0.000017 -0.000002 -0.000261 0.000005 0.044943
#
#
# Mechanical properties :
#
#
# Convention : Reuss Voigt Hill
#
# Bulk Modulus (GPa) = 181.59079 21.29127 101.44103
# Shear Modulus (GPa) = -8.13172 17.01626 4.44227
#
# Velocity S-wave (km/s) = -1.99445 2.88513 1.47413
# Velocity P-wave (km/s) = 9.13926 4.63830 7.24707
#
# Compressibility (1/GPa) = 0.00550689
#
# Stress axis : x y z
#
# Youngs Moduli (GPa) = -15.03269 -3.15923 71.48793
#
# Poissons Ratio (x) = 0.55995 1.95950
# Poissons Ratio (y) = 2.66445 -2.67743
# Poissons Ratio (z) = -0.41205 0.11832
#
# Static dielectric constant tensor:
#      x y z
#    x 1.800450 0.000000 0.029730 
#    y 0.000000 1.702460 0.000000 
#    z 0.029730 0.000000 1.755220 
# 
# From -- ./inp_files/378203.got.cif
#   From: 2010.05.17/outbox.ucp.g08.bks.cvg/sg12_190_cif.got.tgz:378203.got - 2010.06.11 11:47:21.
