data_PCOD9223343
_publ_section_title
;
Structure prediction by ZEFSAII (Michael W. Deem and Ramdas Pophale) SiO2 
 PCOD9223343
Probable space group: C 2/M
;
_chemical_formula_sum "Si O2"
_cell_formula_units_Z 32
_cell_length_a 21.000000
_cell_length_b 15.000000
_cell_length_c 30.000000
_cell_angle_alpha 90.000000
_cell_angle_beta 160.000000
_cell_angle_gamma 90.000000
_cell_volume 3232.090354
_symmetry_space_group_name_H-M "C 2/M"
_symmetry_group_IT_number 12
_symmetry_cell_setting 'monoclinic'
loop_
_space_group_symop_operation_xyz
x,y,z
-x,y,-z
-x,-y,-z
x,-y,z
1/2+x,1/2+y,z
1/2-x,1/2+y,-z
1/2-x,1/2-y,-z
1/2+x,1/2-y,z
loop_
_atom_site_type_symbol
_atom_site_label
_atom_site_fract_x
_atom_site_fract_y
_atom_site_fract_z
Si Si1 0.297146 0.897663 0.951932
Si Si2 0.778711 0.600357 0.047469
Si Si3 0.030574 0.765676 0.120593
Si Si4 0.397886 0.892301 0.600754
Si Si5 0.305270 0.103761 0.638716
Si Si6 0.812797 0.103957 0.847239
Si Si7 0.202517 0.732933 0.620880
Si Si8 0.127104 0.107258 0.341533
O O1 0.094136 0.876779 0.797747
O O2 0.347790 0.000000 0.973555
O O3 0.276027 0.894837 0.992108
O O4 0.451088 0.822420 0.044272
O O5 0.713956 0.500000 0.017979
O O6 0.987824 0.609775 0.203585
O O7 0.647039 0.676348 0.980274
O O8 0.150616 0.829629 0.168629
O O9 0.161988 0.746205 0.248878
O O10 0.323016 0.865146 0.599483
O O11 0.616173 0.869006 0.739939
O O12 0.261177 0.865597 0.470703
O O13 0.394569 0.000000 0.598924
O O14 0.175174 0.173312 0.577832
O O15 0.248655 0.000000 0.603818
O O16 0.794252 0.000000 0.821409
O O17 0.000000 0.109404 0.000000
O O18 0.306453 0.662986 0.657326
O O19 0.000000 0.696524 0.500000
O O20 0.146457 0.000000 0.347167
#
# Coordination Sequence:
#
# PCOD9223343 Si02
#       8
#     8   8   8   8   8   8   8   8
#     4  10  20  35  57  85 114 149 193 238 283 335
#     4  10  18  32  57  87 112 142 186 238 287 336
#     4  12  21  35  58  85 120 151 189 234 294 346
#     4   9  19  38  61  84 113 151 192 234 288 345
#     4  10  21  39  62  85 112 149 194 243 284 329
#     4  10  21  37  58  89 122 152 189 235 287 347
#     4  12  25  37  54  86 120 152 190 231 286 352
#     4  10  21  38  57  83 118 151 189 239 289 342
#
# _framework density 9.9007129999999997
#
# number of rings (size 3 to 8) (size 9 to 14) (size 15 to 20)
#    0.000    1.625    2.500    3.000    0.000    3.500 
#    0.000    1.250    0.000    0.375    0.000    0.875 
#    0.000    0.000    0.000    0.000    0.000    0.000 
#
# Total GULP energy -178711.031121 kJ/mol
# GULP energy per Si atom -5584.719723 kJ/mol
# Density = 0.987818 g / cm^3
# Si number density = 9.900713 Si / 1000 Ang^3
#
#
#
# Elastic Constant Matrix: (Units=GPa)
#
#
# Indices 1 2 3 4 5 6 
#
# 1 55.9254 27.2467 14.9944 0.0101 -8.3884 -0.0004
# 2 27.2467 68.8770 14.9050 0.1168 -2.1473 -0.0726
# 3 14.9944 14.9050 89.9430 0.2074 -19.4904 -0.1405
# 4 0.0101 0.1168 0.2074 4.1696 0.0263 8.8443
# 5 -8.3884 -2.1473 -19.4904 0.0263 13.1089 -0.0399
# 6 -0.0004 -0.0726 -0.1405 8.8443 -0.0399 12.1044
#
#
#
# Elastic Compliance Matrix: (Units=1/GPa)
#
#
# Indices 1 2 3 4 5 6 
#
# 1 0.024553 -0.009405 0.000792 -0.000108 0.015349 0.000083
# 2 -0.009405 0.018690 -0.003206 0.000722 -0.007727 -0.000478
# 3 0.000792 -0.003206 0.016970 0.002670 0.025202 -0.001690
# 4 -0.000108 0.000722 0.002670 -0.435618 0.005861 0.318348
# 5 0.015349 -0.007727 0.025202 0.005861 0.122287 -0.003633
# 6 0.000083 -0.000478 -0.001690 0.318348 -0.003633 -0.150027
#
#
# Mechanical properties :
#
#
# Convention : Reuss Voigt Hill
#
# Bulk Modulus (GPa) = 27.34193 36.55975 31.95084
# Shear Modulus (GPa) = -13.61236 16.38320 1.38542
#
# Velocity S-wave (km/s) = -2.62476 2.87953 0.83736
# Velocity P-wave (km/s) = 2.15690 5.43681 4.13589
#
# Compressibility (1/GPa) = 0.03657387
#
# Stress axis : x y z
#
# Youngs Moduli (GPa) = 40.72791 53.50318 58.92804
#
# Poissons Ratio (x) = 0.50322 -0.04666
# Poissons Ratio (y) = 0.38306 0.18893
# Poissons Ratio (z) = -0.03225 0.17154
#
# Static dielectric constant tensor:
#      x y z
#    x 1.704740 0.000000 -0.029090 
#    y 0.000000 1.709640 -0.000020 
#    z -0.029090 -0.000020 1.684710 
# 
# From -- ./inp_files/381492.got.cif
#   From: 2010.05.17/outbox.ucp.g08.bks.cvg/sg12_191_cif.got.tgz:381492.got - 2010.06.11 11:47:21.
