data_PCOD9223065
_publ_section_title
;
Structure prediction by ZEFSAII (Michael W. Deem and Ramdas Pophale) SiO2 
 PCOD9223065
Probable space group: C 2/M
;
_chemical_formula_sum "Si O2"
_cell_formula_units_Z 64
_cell_length_a 22.652788
_cell_length_b 14.827770
_cell_length_c 22.141688
_cell_angle_alpha 90.000000
_cell_angle_beta 27.560019
_cell_angle_gamma 90.000000
_cell_volume 3441.015558
_symmetry_space_group_name_H-M "C 2/M"
_symmetry_group_IT_number 12
_symmetry_cell_setting 'monoclinic'
loop_
_space_group_symop_operation_xyz
x,y,z
-x,y,-z
-x,-y,-z
x,-y,z
1/2+x,1/2+y,z
1/2-x,1/2+y,-z
1/2-x,1/2-y,-z
1/2+x,1/2-y,z
loop_
_atom_site_type_symbol
_atom_site_label
_atom_site_fract_x
_atom_site_fract_y
_atom_site_fract_z
Si Si1 0.158913 0.653943 0.150019
Si Si2 0.813627 0.201439 0.124182
Si Si3 0.634504 0.650907 0.657841
Si Si4 0.588146 0.096885 0.802088
Si Si5 0.890189 0.798592 0.183664
Si Si6 0.294825 0.903573 0.108593
Si Si7 0.357973 0.633764 0.869127
Si Si8 0.882358 0.362729 0.362651
O O1 0.217888 0.656080 0.163505
O O2 0.147960 0.758116 0.137396
O O3 0.016929 0.616041 0.272262
O O4 0.259374 0.611472 0.012101
O O5 0.819798 0.167562 0.187288
O O6 0.782642 0.308876 0.153761
O O7 0.957421 0.193223 0.966805
O O8 0.641805 0.655136 0.723848
O O9 0.500686 0.608791 0.758408
O O10 0.760149 0.611495 0.512907
O O11 0.625106 0.754829 0.643177
O O12 0.637234 0.191101 0.784324
O O13 0.616773 0.097982 0.705222
O O14 0.631802 0.000000 0.787681
O O15 0.435385 0.100600 0.950828
O O16 0.192544 0.904167 0.147789
O O17 0.287515 0.000000 0.148126
#
# Coordination Sequence:
#
# PCOD9223065 Si02
#       8
#     8   8   8   8   8   8   8   8
#     4   9  14  24  41  59  78 105 137 171 214 249
#     4   9  16  25  40  60  86 117 144 171 205 246
#     4   9  16  26  41  60  82 105 135 176 218 250
#     4   9  16  26  40  59  86 117 144 171 204 247
#     4   9  16  26  39  60  87 115 145 172 203 248
#     4   9  16  25  39  61  87 114 145 175 201 242
#     4   9  14  24  41  58  79 105 134 174 217 244
#     4   9  16  26  41  61  81 105 137 175 216 251
#
# _framework density 18.599160999999999
#
# number of rings (size 3 to 8) (size 9 to 14) (size 15 to 20)
#    0.000    3.000    2.500    0.000    0.000    0.500 
#    0.000    3.750    0.000    0.000    0.000    0.000 
#    0.000   16.000    0.000    0.000    0.000    0.000 
#
# Total GULP energy -178221.254882 kJ/mol
# GULP energy per Si atom -5569.414215 kJ/mol
# Density = 1.855683 g / cm^3
# Si number density = 18.599161 Si / 1000 Ang^3
#
#
#
# Elastic Constant Matrix: (Units=GPa)
#
#
# Indices 1 2 3 4 5 6 
#
# 1 148.4831 -3.3492 58.5416 0.0000 4.8966 0.0000
# 2 -3.3492 24.5540 2.8739 0.0004 -1.7165 -0.0002
# 3 58.5416 2.8739 71.4054 0.0004 -11.2540 -0.0001
# 4 0.0000 0.0004 0.0004 -0.8606 -0.0001 -1.4579
# 5 4.8966 -1.7165 -11.2540 -0.0001 17.3668 0.0000
# 6 0.0000 -0.0002 -0.0001 -1.4579 0.0000 -5.3532
#
#
#
# Elastic Compliance Matrix: (Units=1/GPa)
#
#
# Indices 1 2 3 4 5 6 
#
# 1 0.011515 0.002158 -0.011144 -0.000006 -0.010255 0.000002
# 2 0.002158 0.041496 -0.003218 0.000035 0.001408 -0.000011
# 3 -0.011144 -0.003218 0.026413 0.000018 0.019940 -0.000005
# 4 -0.000006 0.000035 0.000018 -2.157430 0.000010 0.587559
# 5 -0.010255 0.001408 0.019940 0.000010 0.073533 -0.000003
# 6 0.000002 -0.000011 -0.000005 0.587559 -0.000003 -0.346820
#
#
# Mechanical properties :
#
#
# Convention : Reuss Voigt Hill
#
# Bulk Modulus (GPa) = 18.17597 40.06389 29.11993
# Shear Modulus (GPa) = -2.16586 14.65569 6.24491
#
# Velocity S-wave (km/s) = -1.08029 2.81014 1.83437
# Velocity P-wave (km/s) = 2.87013 5.66715 4.49190
#
# Compressibility (1/GPa) = 0.05501769
#
# Stress axis : x y z
#
# Youngs Moduli (GPa) = 86.84118 24.09871 37.86006
#
# Poissons Ratio (x) = -0.05201 0.42191
# Poissons Ratio (y) = -0.18742 0.12182
# Poissons Ratio (z) = 0.96775 0.07754
#
# Static dielectric constant tensor:
#      x y z
#    x 1.625940 0.000000 -0.005960 
#    y 0.000000 1.685320 0.000000 
#    z -0.005960 0.000000 1.616390 
# 
# From -- ./inp_files/168436.got.cif
#   From: 2010.05.17/outbox.cif.g08.bks.cpg/sg12_85_cif.got.tgz:168436.got - 2010.06.03 13:09:07.
