data_PCOD9223024
_publ_section_title
;
Structure prediction by ZEFSAII (Michael W. Deem and Ramdas Pophale) SiO2 
 PCOD9223024
Probable space group: C 2/M
;
_chemical_formula_sum "Si O2"
_cell_formula_units_Z 64
_cell_length_a 14.646449
_cell_length_b 7.524500
_cell_length_c 30.436104
_cell_angle_alpha 90.000000
_cell_angle_beta 76.100944
_cell_angle_gamma 90.000000
_cell_volume 3256.066183
_symmetry_space_group_name_H-M "C 2/M"
_symmetry_group_IT_number 12
_symmetry_cell_setting 'monoclinic'
loop_
_space_group_symop_operation_xyz
x,y,z
-x,y,-z
-x,-y,-z
x,-y,z
1/2+x,1/2+y,z
1/2-x,1/2+y,-z
1/2-x,1/2-y,-z
1/2+x,1/2-y,z
loop_
_atom_site_type_symbol
_atom_site_label
_atom_site_fract_x
_atom_site_fract_y
_atom_site_fract_z
Si Si1 0.603199 0.287384 0.999207
Si Si2 0.731328 0.712149 0.750517
Si Si3 0.088563 0.282537 0.323084
Si Si4 0.482137 0.787855 0.249351
Si Si5 0.036783 0.717462 0.426331
Si Si6 0.337825 0.782410 0.824263
Si Si7 0.786330 0.713643 0.927157
Si Si8 0.356708 0.212157 0.499987
O O1 0.600613 0.500000 0.993311
O O2 0.635124 0.254062 0.045415
O O3 0.500000 0.216967 0.000000
O O4 0.687386 0.218482 0.958366
O O5 0.741166 0.500000 0.750508
O O6 0.808663 0.774850 0.706140
O O7 0.624606 0.750078 0.750581
O O8 0.764483 0.774551 0.794879
O O9 0.087959 0.500000 0.324295
O O10 0.062621 0.221080 0.374708
O O11 0.015231 0.225175 0.293717
O O12 0.559421 0.724976 0.204969
O O13 0.492063 0.000000 0.249347
O O14 0.037386 0.500000 0.425122
O O15 0.110218 0.774828 0.455644
O O16 0.934058 0.774833 0.455611
O O17 0.311639 0.720021 0.875838
O O18 0.337511 0.000000 0.825550
O O19 0.779194 0.500000 0.925365
O O20 0.250000 0.250000 0.500000
O O21 0.366571 0.000000 0.499987
#
# Coordination Sequence:
#
# PCOD9223024 Si02
#       8
#     8   8   8   8   8   8   8   8
#     4   9  18  31  46  67  93 116 141 179 224 260
#     4   9  17  30  48  68  89 115 147 181 218 262
#     4   8  15  29  47  64  87 120 151 177 213 266
#     4   9  17  30  47  66  88 114 146 183 218 255
#     4   8  15  29  46  63  86 120 154 177 210 268
#     4   8  16  31  47  63  87 120 150 173 210 265
#     4   9  17  31  49  65  86 118 151 179 209 256
#     4   9  17  29  46  66  88 115 149 186 220 259
#
# _framework density 19.655619000000002
#
# number of rings (size 3 to 8) (size 9 to 14) (size 15 to 20)
#    0.000    3.375    0.000    2.250    0.000    2.250 
#    0.000    6.250    0.000    1.500    0.000    0.000 
#    0.000    0.000    0.000    0.000    0.000    0.000 
#
# Total GULP energy -178377.634943 kJ/mol
# GULP energy per Si atom -5574.301092 kJ/mol
# Density = 1.961088 g / cm^3
# Si number density = 19.655619 Si / 1000 Ang^3
#
#
#
# Elastic Constant Matrix: (Units=GPa)
#
#
# Indices 1 2 3 4 5 6 
#
# 1 210.5703 0.5870 129.4652 0.0000 6.2169 0.0000
# 2 0.5870 45.2556 6.1760 0.0000 -1.4913 0.0000
# 3 129.4652 6.1760 228.6420 0.0000 -0.0833 0.0000
# 4 0.0000 0.0000 0.0000 4.6135 0.0000 2.0034
# 5 6.2169 -1.4913 -0.0833 0.0000 8.2594 0.0000
# 6 0.0000 0.0000 0.0000 2.0034 0.0000 20.8496
#
#
#
# Elastic Compliance Matrix: (Units=1/GPa)
#
#
# Indices 1 2 3 4 5 6 
#
# 1 0.007551 0.000300 -0.004286 0.000000 -0.005672 0.000000
# 2 0.000300 0.022323 -0.000771 0.000000 0.003797 0.000000
# 3 -0.004286 -0.000771 0.006822 0.000000 0.003155 0.000000
# 4 0.000000 0.000000 0.000000 0.226193 0.000000 -0.021734
# 5 -0.005672 0.003797 0.003155 0.000000 0.126061 0.000000
# 6 0.000000 0.000000 0.000000 -0.021734 0.000000 0.050051
#
#
# Mechanical properties :
#
#
# Convention : Reuss Voigt Hill
#
# Bulk Modulus (GPa) = 36.78907 84.10271 60.44589
# Shear Modulus (GPa) = 10.92714 29.96048 20.44381
#
# Velocity S-wave (km/s) = 2.36037 3.90843 3.22856
# Velocity P-wave (km/s) = 5.11722 7.95291 6.68710
#
# Compressibility (1/GPa) = 0.02718199
#
# Stress axis : x y z
#
# Youngs Moduli (GPa) = 132.44099 44.79633 146.57886
#
# Poissons Ratio (x) = -0.01344 0.62817
# Poissons Ratio (y) = -0.03973 0.11308
# Poissons Ratio (z) = 0.56758 0.03456
#
# Static dielectric constant tensor:
#      x y z
#    x 1.679260 0.000000 -0.008370 
#    y 0.000000 1.744670 0.000000 
#    z -0.008370 0.000000 1.676150 
# 
# From -- ./inp_files/374803.got.cif
#   From: 2010.05.17/outbox.cif.g08.bks.cpg/sg12_188_cif.got.tgz:374803.got - 2010.06.03 13:09:07.
