data_PCOD9223157
_publ_section_title
;
Structure prediction by ZEFSAII (Michael W. Deem and Ramdas Pophale) SiO2 
 PCOD9223157
Probable space group: C 2/M
;
_chemical_formula_sum "Si O2"
_cell_formula_units_Z 20
_cell_length_a 15.000000
_cell_length_b 18.000000
_cell_length_c 24.000000
_cell_angle_alpha 90.000000
_cell_angle_beta 160.000000
_cell_angle_gamma 90.000000
_cell_volume 2216.290529
_symmetry_space_group_name_H-M "C 2/M"
_symmetry_group_IT_number 12
_symmetry_cell_setting 'monoclinic'
loop_
_space_group_symop_operation_xyz
x,y,z
-x,y,-z
-x,-y,-z
x,-y,z
1/2+x,1/2+y,z
1/2-x,1/2+y,-z
1/2-x,1/2-y,-z
1/2+x,1/2-y,z
loop_
_atom_site_type_symbol
_atom_site_label
_atom_site_fract_x
_atom_site_fract_y
_atom_site_fract_z
Si Si1 0.154660 0.775896 0.353244
Si Si2 0.755531 0.583662 0.487079
Si Si3 0.144474 0.917935 0.644430
Si Si4 0.246534 0.331944 0.818629
Si Si5 0.768448 0.259508 0.724697
O O1 0.154480 0.854983 0.384100
O O2 0.129927 0.777629 0.272169
O O3 0.449578 0.745299 0.536939
O O4 0.939685 0.721949 0.253795
O O5 0.754275 0.500000 0.463879
O O6 0.568132 0.585124 0.431029
O O7 0.045739 0.607251 0.676743
O O8 0.329194 0.846974 0.759581
O O9 0.000000 0.910781 0.500000
O O10 0.267939 0.000000 0.718556
O O11 0.350239 0.282750 0.827941
O O12 0.500000 0.360015 0.000000
#
# Coordination Sequence:
#
# PCOD9223157 Si02
#       5
#     8   8   8   8   8
#     4  10  18  34  54  77 101 133 185 218 257 302
#     4  10  19  34  55  77 105 136 175 224 260 302
#     4  10  16  26  51  82 102 124 165 224 273 293
#     4  11  21  33  50  77 113 143 171 208 260 326
#     4  10  17  33  55  75 103 136 178 230 248 299
#
# _framework density 9.0240880000000008
#
# number of rings (size 3 to 8) (size 9 to 14) (size 15 to 20)
#    0.000    1.800    6.000    1.200    0.000    1.200 
#    0.000    8.000    0.000    2.400    0.000    0.000 
#    0.000    0.000    0.000    0.000    0.000    0.000 
#
# Total GULP energy -111545.243786 kJ/mol
# GULP energy per Si atom -5577.262189 kJ/mol
# Density = 0.900355 g / cm^3
# Si number density = 9.024088 Si / 1000 Ang^3
#
#
#
# Elastic Constant Matrix: (Units=GPa)
#
#
# Indices 1 2 3 4 5 6 
#
# 1 92.5761 29.5226 -0.0201 -0.0014 -3.7994 -0.0170
# 2 29.5226 99.3516 -3.8146 0.0198 5.3694 -0.0139
# 3 -0.0201 -3.8146 20.4616 0.0486 1.1984 -0.0686
# 4 -0.0014 0.0198 0.0486 8.2304 -0.0010 4.7876
# 5 -3.7994 5.3694 1.1984 -0.0010 10.1475 0.0102
# 6 -0.0170 -0.0139 -0.0686 4.7876 0.0102 17.2563
#
#
#
# Elastic Compliance Matrix: (Units=1/GPa)
#
#
# Indices 1 2 3 4 5 6 
#
# 1 0.012395 -0.004103 -0.001160 0.000023 0.006949 -0.000006
# 2 -0.004103 0.011826 0.002676 -0.000069 -0.008110 0.000040
# 3 -0.001160 0.002676 0.049825 -0.000501 -0.007735 0.000343
# 4 0.000023 -0.000069 -0.000501 0.144888 0.000160 -0.040200
# 5 0.006949 -0.008110 -0.007735 0.000160 0.106353 -0.000138
# 6 -0.000006 0.000040 0.000343 -0.040200 -0.000138 0.069105
#
#
# Mechanical properties :
#
#
# Convention : Reuss Voigt Hill
#
# Bulk Modulus (GPa) = 14.51988 29.30725 21.91356
# Shear Modulus (GPa) = 11.83364 19.57360 15.70362
#
# Velocity S-wave (km/s) = 2.56338 3.29678 2.95294
# Velocity P-wave (km/s) = 4.10168 5.54664 4.87796
#
# Compressibility (1/GPa) = 0.06887110
#
# Stress axis : x y z
#
# Youngs Moduli (GPa) = 80.67463 84.56183 20.07026
#
# Poissons Ratio (x) = 0.34700 0.02328
# Poissons Ratio (y) = 0.33105 -0.05371
# Poissons Ratio (z) = 0.09358 -0.22628
#
# Static dielectric constant tensor:
#      x y z
#    x 1.626560 0.000000 -0.011130 
#    y 0.000000 1.648240 -0.000020 
#    z -0.011130 -0.000020 1.596580 
# 
# From -- ./inp_files/60828.got.cif
#   From: 2010.05.17/outbox.ucp.g08.bks.cvg/sg12_31_cif.got.tgz:60828.got - 2010.06.11 11:47:21.
