data_PCOD9223154
_publ_section_title
;
Structure prediction by ZEFSAII (Michael W. Deem and Ramdas Pophale) SiO2 
 PCOD9223154
Probable space group: C 2/M
;
_chemical_formula_sum "Si O2"
_cell_formula_units_Z 24
_cell_length_a 14.148632
_cell_length_b 10.508928
_cell_length_c 14.878484
_cell_angle_alpha 90.000000
_cell_angle_beta 29.844112
_cell_angle_gamma 90.000000
_cell_volume 1100.901579
_symmetry_space_group_name_H-M "C 2/M"
_symmetry_group_IT_number 12
_symmetry_cell_setting 'monoclinic'
loop_
_space_group_symop_operation_xyz
x,y,z
-x,y,-z
-x,-y,-z
x,-y,z
1/2+x,1/2+y,z
1/2-x,1/2+y,-z
1/2-x,1/2-y,-z
1/2+x,1/2-y,z
loop_
_atom_site_type_symbol
_atom_site_label
_atom_site_fract_x
_atom_site_fract_y
_atom_site_fract_z
Si Si1 0.993184 0.855803 0.744066
Si Si2 0.969831 0.642247 0.629836
Si Si3 0.108299 0.737790 0.995352
O O1 0.060569 0.754375 0.614243
O O2 0.762291 0.852287 0.917554
O O3 0.057404 0.000000 0.680484
O O4 0.019970 0.800370 0.821823
O O5 0.033037 0.500000 0.600489
O O6 0.746738 0.655734 0.837953
O O7 0.000000 0.663912 0.500000
O O8 0.000000 0.678850 0.000000
#
# Coordination Sequence:
#
# PCOD9223154 Si02
#       3
#     8   8   8
#     4   9  19  33  53  76 102 130 166 211 247 287
#     4   9  18  33  52  73 102 135 163 201 254 301
#     4   9  19  33  54  76  99 132 172 201 244 300
#
# _framework density 21.800314
#
# number of rings (size 3 to 8) (size 9 to 14) (size 15 to 20)
#    2.000    1.000    0.000    1.000    0.000    4.000 
#    0.000    1.667    0.000    0.000    0.000    0.000 
#    0.000    0.000    0.000    0.000    0.000    0.000 
#
# Total GULP energy -66809.170961 kJ/mol
# GULP energy per Si atom -5567.430913 kJ/mol
# Density = 2.175070 g / cm^3
# Si number density = 21.800314 Si / 1000 Ang^3
#
#
#
# Elastic Constant Matrix: (Units=GPa)
#
#
# Indices 1 2 3 4 5 6 
#
# 1 88.0390 10.2851 23.4231 -0.0001 8.5179 0.0000
# 2 10.2851 123.2917 53.8290 0.0000 34.2313 0.0001
# 3 23.4231 53.8290 92.6268 -0.0001 32.2919 0.0002
# 4 -0.0001 0.0000 -0.0001 8.5351 0.0001 18.4407
# 5 8.5179 34.2313 32.2919 0.0001 41.5725 -0.0001
# 6 0.0000 0.0001 0.0002 18.4407 -0.0001 -12.9896
#
#
#
# Elastic Compliance Matrix: (Units=1/GPa)
#
#
# Indices 1 2 3 4 5 6 
#
# 1 0.012200 0.000509 -0.003241 0.000000 -0.000401 0.000000
# 2 0.000509 0.011909 -0.004929 0.000000 -0.006081 0.000000
# 3 -0.003241 -0.004929 0.017600 0.000000 -0.008948 0.000000
# 4 0.000000 0.000000 0.000000 0.028806 0.000000 0.040895
# 5 -0.000401 -0.006081 -0.008948 0.000000 0.036094 0.000000
# 6 0.000000 0.000000 0.000000 0.040895 0.000000 -0.018928
#
#
# Mechanical properties :
#
#
# Convention : Reuss Voigt Hill
#
# Bulk Modulus (GPa) = 37.89941 53.22580 45.56261
# Shear Modulus (GPa) = 44.72277 21.85162 33.28720
#
# Velocity S-wave (km/s) = 4.53423 3.16943 3.91181
# Velocity P-wave (km/s) = 6.69589 6.15320 6.43027
#
# Compressibility (1/GPa) = 0.02638564
#
# Stress axis : x y z
#
# Youngs Moduli (GPa) = 81.96560 83.97012 56.81970
#
# Poissons Ratio (x) = -0.04270 0.18414
# Poissons Ratio (y) = -0.04169 0.28008
# Poissons Ratio (z) = 0.26564 0.41391
#
# Static dielectric constant tensor:
#      x y z
#    x 1.840460 0.000000 -0.090740 
#    y 0.000000 1.750470 0.000000 
#    z -0.090740 0.000000 1.836690 
# 
# From -- ./inp_files/55578.got.cif
#   From: 2010.05.17/outbox.cif.g08.bks.cpg/sg12_28_cif.got.tgz:55578.got - 2010.06.03 13:09:07.
