data_PCOD9223410
_publ_section_title
;
Structure prediction by ZEFSAII (Michael W. Deem and Ramdas Pophale) SiO2 
 PCOD9223410
Probable space group: C 2/M
;
_chemical_formula_sum "Si O2"
_cell_formula_units_Z 32
_cell_length_a 24.000000
_cell_length_b 24.000000
_cell_length_c 18.000000
_cell_angle_alpha 90.000000
_cell_angle_beta 20.000000
_cell_angle_gamma 90.000000
_cell_volume 3546.064846
_symmetry_space_group_name_H-M "C 2/M"
_symmetry_group_IT_number 12
_symmetry_cell_setting 'monoclinic'
loop_
_space_group_symop_operation_xyz
x,y,z
-x,y,-z
-x,-y,-z
x,-y,z
1/2+x,1/2+y,z
1/2-x,1/2+y,-z
1/2-x,1/2-y,-z
1/2+x,1/2-y,z
loop_
_atom_site_type_symbol
_atom_site_label
_atom_site_fract_x
_atom_site_fract_y
_atom_site_fract_z
Si Si1 0.978962 0.138794 0.726304
Si Si2 0.581926 0.838108 0.593408
Si Si3 0.464599 0.256671 0.632335
Si Si4 0.374519 0.702187 0.313183
Si Si5 0.613944 0.899768 0.971993
Si Si6 0.286501 0.935105 0.315556
Si Si7 0.341560 0.066821 0.913964
Si Si8 0.126371 0.282886 0.011757
O O1 0.037607 0.168073 0.730160
O O2 0.112086 0.091103 0.546876
O O3 0.993259 0.187640 0.645788
O O4 0.806208 0.105976 0.933090
O O5 0.550852 0.796171 0.563236
O O6 0.767287 0.834333 0.391062
O O7 0.477101 0.811247 0.792474
O O8 0.504565 0.899854 0.682409
O O9 0.500000 0.262625 0.500000
O O10 0.269520 0.250546 0.874119
O O11 0.250000 0.750000 0.500000
O O12 0.519276 0.739993 0.098839
O O13 0.419729 0.901878 0.198296
O O14 0.676244 0.836114 0.900120
O O15 0.679476 0.928378 0.815217
O O16 0.656782 0.927746 0.997324
O O17 0.299480 0.000000 0.318856
O O18 0.332810 0.000000 0.907056
#
# Coordination Sequence:
#
# PCOD9223410 Si02
#       8
#     8   8   8   8   8   8   8   8
#     4  12  21  33  52  79 110 142 181 225 267 317
#     4  10  20  37  59  78 104 144 181 224 271 320
#     4  12  22  34  53  83 115 143 173 219 277 332
#     4  10  19  33  58  79 103 141 185 224 274 313
#     4  10  20  34  51  68 101 149 187 224 263 307
#     4  11  22  34  46  68 108 152 191 222 255 305
#     4  11  22  36  55  78 105 140 186 226 266 315
#     4  10  18  35  51  78 103 139 178 227 270 313
#
# _framework density 9.0240880000000008
#
# number of rings (size 3 to 8) (size 9 to 14) (size 15 to 20)
#    0.000    1.250    5.000    6.000    0.000    0.000 
#    0.000    1.875    0.000    0.375    0.000    0.000 
#    0.000    2.000    0.000    0.000    0.000    0.000 
#
# Total GULP energy -178319.796114 kJ/mol
# GULP energy per Si atom -5572.493629 kJ/mol
# Density = 0.900355 g / cm^3
# Si number density = 9.024088 Si / 1000 Ang^3
#
#
#
# Elastic Constant Matrix: (Units=GPa)
#
#
# Indices 1 2 3 4 5 6 
#
# 1 96.3138 56.1582 19.7453 0.0014 -26.4036 -0.0030
# 2 56.1582 116.4907 20.6012 -0.0063 -11.8396 0.0055
# 3 19.7453 20.6012 30.0576 0.0038 -21.5512 0.0051
# 4 0.0014 -0.0063 0.0038 23.5897 -0.0003 -5.6637
# 5 -26.4036 -11.8396 -21.5512 -0.0003 29.6876 -0.0037
# 6 -0.0030 0.0055 0.0051 -5.6637 -0.0037 25.4702
#
#
#
# Elastic Compliance Matrix: (Units=1/GPa)
#
#
# Indices 1 2 3 4 5 6 
#
# 1 0.018947 -0.008405 0.006242 -0.000003 0.018030 0.000005
# 2 -0.008405 0.013555 -0.010955 0.000005 -0.010022 -0.000002
# 3 0.006242 -0.010955 0.078258 -0.000017 0.057993 -0.000008
# 4 -0.000003 0.000005 -0.000017 0.044782 -0.000011 0.009958
# 5 0.018030 -0.010022 0.057993 -0.000011 0.087822 0.000003
# 6 0.000005 -0.000002 -0.000008 0.009958 0.000003 0.041476
#
#
# Mechanical properties :
#
#
# Convention : Reuss Voigt Hill
#
# Bulk Modulus (GPa) = 11.83097 48.43018 30.13057
# Shear Modulus (GPa) = 14.73832 25.50664 20.12248
#
# Velocity S-wave (km/s) = 2.86074 3.76340 3.34268
# Velocity P-wave (km/s) = 4.18105 6.76582 5.62395
#
# Compressibility (1/GPa) = 0.08452393
#
# Stress axis : x y z
#
# Youngs Moduli (GPa) = 52.77936 73.77239 12.77819
#
# Poissons Ratio (x) = 0.62008 -0.07976
# Poissons Ratio (y) = 0.44363 0.13998
# Poissons Ratio (z) = -0.32945 0.80817
#
# Static dielectric constant tensor:
#      x y z
#    x 1.617970 -0.000010 -0.010600 
#    y -0.000010 1.639810 0.000020 
#    z -0.010600 0.000020 1.719890 
# 
# From -- ./inp_files/291066.got.cif
#   From: 2010.05.17/outbox.ucp.g08.bks.cvg/sg12_146_cif.got.tgz:291066.got - 2010.06.11 11:47:21.
