data_PCOD9223275
_publ_section_title
;
Structure prediction by ZEFSAII (Michael W. Deem and Ramdas Pophale) SiO2 
 PCOD9223275
Probable space group: C 2/M
;
_chemical_formula_sum "Si O2"
_cell_formula_units_Z 28
_cell_length_a 24.000000
_cell_length_b 9.000000
_cell_length_c 15.000000
_cell_angle_alpha 90.000000
_cell_angle_beta 70.000000
_cell_angle_gamma 90.000000
_cell_volume 3044.604091
_symmetry_space_group_name_H-M "C 2/M"
_symmetry_group_IT_number 12
_symmetry_cell_setting 'monoclinic'
loop_
_space_group_symop_operation_xyz
x,y,z
-x,y,-z
-x,-y,-z
x,-y,z
1/2+x,1/2+y,z
1/2-x,1/2+y,-z
1/2-x,1/2-y,-z
1/2+x,1/2-y,z
loop_
_atom_site_type_symbol
_atom_site_label
_atom_site_fract_x
_atom_site_fract_y
_atom_site_fract_z
Si Si1 0.537336 0.181070 0.790903
Si Si2 0.354024 0.818540 0.621847
Si Si3 0.371350 0.680379 0.127167
Si Si4 0.867064 0.678689 0.412777
Si Si5 0.184562 0.320499 0.020832
Si Si6 0.911632 0.321882 0.775399
Si Si7 0.723772 0.819531 0.684046
O O1 0.567260 0.256847 0.861982
O O2 0.580615 0.220234 0.684085
O O3 0.471485 0.228536 0.794417
O O4 0.538473 0.000000 0.802738
O O5 0.374965 0.772510 0.510650
O O6 0.395377 0.771903 0.683193
O O7 0.288632 0.747434 0.664266
O O8 0.349505 0.000000 0.627119
O O9 0.371932 0.500000 0.125198
O O10 0.320654 0.745151 0.220720
O O11 0.351531 0.746580 0.041976
O O12 0.867547 0.500000 0.415724
O O13 0.805548 0.719449 0.396392
O O14 0.189340 0.500000 0.004555
O O15 0.145002 0.293978 0.130747
O O16 0.250000 0.250000 0.000000
O O17 0.919339 0.500000 0.764320
O O18 0.723728 0.000000 0.692945
#
# Coordination Sequence:
#
# PCOD9223275 Si02
#       7
#     8   8   8   8   8   8   8
#     4   9  18  37  57  78 107 142 181 222 265 319
#     4  10  18  31  51  80 112 144 179 221 267 319
#     4  11  22  37  57  81 106 140 180 227 277 323
#     4   8  16  29  51  79 108 140 179 221 266 316
#     4  11  22  38  58  84 113 145 180 220 268 322
#     4   9  20  35  55  79 107 141 181 222 265 317
#     4  10  19  33  52  79 110 144 181 222 270 325
#
# _framework density 9.1965979999999998
#
# number of rings (size 3 to 8) (size 9 to 14) (size 15 to 20)
#    0.000    2.286    0.000    4.286    0.000    2.286 
#    0.000   11.429    0.000    0.000    0.000    5.000 
#    0.000    0.000    0.000    0.000    0.000    0.000 
#
# Total GULP energy -156090.368136 kJ/mol
# GULP energy per Si atom -5574.656005 kJ/mol
# Density = 0.917567 g / cm^3
# Si number density = 9.196598 Si / 1000 Ang^3
#
#
#
# Elastic Constant Matrix: (Units=GPa)
#
#
# Indices 1 2 3 4 5 6 
#
# 1 151.0808 32.9082 38.8957 0.0000 25.2292 0.0000
# 2 32.9082 72.4443 23.2312 0.0000 10.4479 0.0000
# 3 38.8957 23.2312 80.6367 0.0000 35.4228 0.0000
# 4 0.0000 0.0000 0.0000 19.1549 0.0000 1.8988
# 5 25.2292 10.4479 35.4228 0.0000 39.3456 0.0000
# 6 0.0000 0.0000 0.0000 1.8988 0.0000 33.7149
#
#
#
# Elastic Compliance Matrix: (Units=1/GPa)
#
#
# Indices 1 2 3 4 5 6 
#
# 1 0.008168 -0.002686 -0.001950 0.000000 -0.002769 0.000000
# 2 -0.002686 0.016093 -0.003672 0.000000 0.000755 0.000000
# 3 -0.001950 -0.003672 0.022204 0.000000 -0.017764 0.000000
# 4 0.000000 0.000000 0.000000 0.052499 0.000000 -0.002957
# 5 -0.002769 0.000755 -0.017764 0.000000 0.042984 0.000000
# 6 0.000000 0.000000 0.000000 -0.002957 0.000000 0.029827
#
#
# Mechanical properties :
#
#
# Convention : Reuss Voigt Hill
#
# Bulk Modulus (GPa) = 33.50303 54.91467 44.20885
# Shear Modulus (GPa) = 25.20918 32.38486 28.79702
#
# Velocity S-wave (km/s) = 3.70614 4.20062 3.96110
# Velocity P-wave (km/s) = 6.04718 7.31079 6.70880
#
# Compressibility (1/GPa) = 0.02984805
#
# Stress axis : x y z
#
# Youngs Moduli (GPa) = 122.42273 62.14066 45.03780
#
# Poissons Ratio (x) = 0.16690 0.08782
# Poissons Ratio (y) = 0.32882 0.16540
# Poissons Ratio (z) = 0.23871 0.22821
#
# Static dielectric constant tensor:
#      x y z
#    x 1.643320 0.000000 0.003090 
#    y 0.000000 1.617410 0.000000 
#    z 0.003090 0.000000 1.666880 
# 
# From -- ./inp_files/237464.got.cif
#   From: 2010.05.17/outbox.ucp.g08.bks.cvg/sg12_119_cif.got.tgz:237464.got - 2010.06.11 11:47:21.
