data_PCOD9223161
_publ_section_title
;
Structure prediction by ZEFSAII (Michael W. Deem and Ramdas Pophale) SiO2 
 PCOD9223161
Probable space group: C 2/M
;
_chemical_formula_sum "Si O2"
_cell_formula_units_Z 32
_cell_length_a 30.000000
_cell_length_b 9.000000
_cell_length_c 15.000000
_cell_angle_alpha 90.000000
_cell_angle_beta 80.000000
_cell_angle_gamma 90.000000
_cell_volume 3988.471400
_symmetry_space_group_name_H-M "C 2/M"
_symmetry_group_IT_number 12
_symmetry_cell_setting 'monoclinic'
loop_
_space_group_symop_operation_xyz
x,y,z
-x,y,-z
-x,-y,-z
x,-y,z
1/2+x,1/2+y,z
1/2-x,1/2+y,-z
1/2-x,1/2-y,-z
1/2+x,1/2-y,z
loop_
_atom_site_type_symbol
_atom_site_label
_atom_site_fract_x
_atom_site_fract_y
_atom_site_fract_z
Si Si1 0.469957 0.318500 0.379614
Si Si2 0.036805 0.827791 0.810193
Si Si3 0.306819 0.178869 0.063467
Si Si4 0.405074 0.174826 0.061820
Si Si5 0.638202 0.326046 0.263372
Si Si6 0.785595 0.676229 0.868093
Si Si7 0.430051 0.666921 0.878144
Si Si8 0.066601 0.181068 0.421514
O O1 0.470884 0.500000 0.375600
O O2 0.452364 0.264989 0.291156
O O3 0.440318 0.274469 0.474396
O O4 0.521516 0.272598 0.383485
O O5 0.060350 0.745974 0.882254
O O6 0.982610 0.822648 0.836124
O O7 0.050397 0.000000 0.809815
O O8 0.353626 0.229585 0.090137
O O9 0.263137 0.249770 0.122400
O O10 0.304222 0.000000 0.068316
O O11 0.305217 0.220912 0.958963
O O12 0.405320 0.000000 0.073717
O O13 0.418512 0.215011 0.956816
O O14 0.650193 0.500000 0.268830
O O15 0.680843 0.233704 0.218221
O O16 0.600863 0.317094 0.197688
O O17 0.612321 0.269453 0.359350
O O18 0.781748 0.500000 0.868714
O O19 0.422066 0.500000 0.917665
O O20 0.066622 0.000000 0.417920
#
# Coordination Sequence:
#
# PCOD9223161 Si02
#       8
#     8   8   8   8   8   8   8   8
#     4   8  13  24  43  67  93 118 152 195 227 257
#     4  10  19  31  46  67  93 124 161 196 225 256
#     4   9  19  34  47  63  87 116 152 192 229 271
#     4  11  22  34  46  63  90 125 160 191 227 270
#     4  10  17  27  46  71  96 123 152 183 226 272
#     4  10  19  31  48  68  90 117 149 186 231 278
#     4  10  19  30  44  65  94 126 160 192 218 256
#     4   8  13  23  43  69  93 119 151 188 228 266
#
# _framework density 8.0231239999999993
#
# number of rings (size 3 to 8) (size 9 to 14) (size 15 to 20)
#    0.000    2.500    2.500    1.875    0.000    3.500 
#    0.000    0.000    0.000    0.750    0.000    2.625 
#    0.000    0.000    0.000    0.000    0.000    0.000 
#
# Total GULP energy -178232.241390 kJ/mol
# GULP energy per Si atom -5569.757543 kJ/mol
# Density = 0.800486 g / cm^3
# Si number density = 8.023124 Si / 1000 Ang^3
#
#
#
# Elastic Constant Matrix: (Units=GPa)
#
#
# Indices 1 2 3 4 5 6 
#
# 1 9.0260 12.9999 18.0829 0.0000 -12.2613 0.0000
# 2 12.9999 3.2957 5.4231 0.0000 -3.1428 0.0000
# 3 18.0829 5.4231 21.1994 0.0000 -24.8839 0.0000
# 4 0.0000 0.0000 0.0000 0.4143 0.0000 -11.0110
# 5 -12.2613 -3.1428 -24.8839 0.0000 21.5380 0.0000
# 6 0.0000 0.0000 0.0000 -11.0110 0.0000 6.3779
#
#
#
# Elastic Compliance Matrix: (Units=1/GPa)
#
#
# Indices 1 2 3 4 5 6 
#
# 1 -0.024331 0.090541 0.008868 0.000000 0.009606 0.000000
# 2 0.090541 -0.030410 0.039751 0.000000 0.093033 0.000000
# 3 0.008868 0.039751 -0.118408 0.000000 -0.125954 0.000000
# 4 0.000000 0.000000 0.000000 -0.053777 0.000000 -0.092842
# 5 0.009606 0.093033 -0.125954 0.000000 -0.080048 0.000000
# 6 0.000000 0.000000 0.000000 -0.092842 0.000000 -0.003493
#
#
# Mechanical properties :
#
#
# Convention : Reuss Voigt Hill
#
# Bulk Modulus (GPa) = 9.50826 11.83699 10.67262
# Shear Modulus (GPa) = -9.02963 5.46704 -1.78130
#
# Velocity S-wave (km/s) = -2.37476 1.84782 -1.05476
# Velocity P-wave (km/s) = 1.25734 3.45621 2.27646
#
# Compressibility (1/GPa) = 0.10517173
#
# Stress axis : x y z
#
# Youngs Moduli (GPa) = -41.09963 -32.88391 -8.44535
#
# Poissons Ratio (x) = 2.97736 0.07490
# Poissons Ratio (y) = 3.72122 0.33571
# Poissons Ratio (z) = 0.36449 1.30716
#
# Static dielectric constant tensor:
#      x y z
#    x 1.529150 0.000000 -0.018300 
#    y 0.000000 1.541570 0.000000 
#    z -0.018300 0.000000 1.553860 
# 
# From -- ./inp_files/248298.got.cif
#   From: 2010.05.17/outbox.ucp.g08.bks.cvg/sg12_125_cif.got.tgz:248298.got - 2010.06.11 11:47:21.
