data_PCOD9223880
_publ_section_title
;
Structure prediction by ZEFSAII (Michael W. Deem and Ramdas Pophale) SiO2 
 PCOD9223880
Probable space group: C 2/M
;
_chemical_formula_sum "Si O2"
_cell_formula_units_Z 24
_cell_length_a 21.000000
_cell_length_b 9.000000
_cell_length_c 15.000000
_cell_angle_alpha 90.000000
_cell_angle_beta 90.000000
_cell_angle_gamma 90.000000
_cell_volume 2835.000000
_symmetry_space_group_name_H-M "C 2/M"
_symmetry_group_IT_number 12
_symmetry_cell_setting 'monoclinic'
loop_
_space_group_symop_operation_xyz
x,y,z
-x,y,-z
-x,-y,-z
x,-y,z
1/2+x,1/2+y,z
1/2-x,1/2+y,-z
1/2-x,1/2-y,-z
1/2+x,1/2-y,z
loop_
_atom_site_type_symbol
_atom_site_label
_atom_site_fract_x
_atom_site_fract_y
_atom_site_fract_z
Si Si1 0.389172 0.181167 0.743638
Si Si2 0.193208 0.320718 0.942715
Si Si3 0.753801 0.678793 0.252469
Si Si4 0.431634 0.680445 0.551233
Si Si5 0.934429 0.680122 0.947996
Si Si6 0.310071 0.179823 0.447642
O O1 0.315382 0.239704 0.745294
O O2 0.422125 0.250255 0.652655
O O3 0.421077 0.221150 0.842073
O O4 0.389956 0.000000 0.736692
O O5 0.196075 0.500000 0.948730
O O6 0.207307 0.282890 0.838470
O O7 0.250000 0.250000 0.000000
O O8 0.126230 0.275755 0.989678
O O9 0.741915 0.500000 0.251275
O O10 0.794702 0.709730 0.342549
O O11 0.500000 0.710238 0.500000
O O12 0.425123 0.500000 0.557802
O O13 0.374228 0.748096 0.489936
O O14 0.936363 0.500000 0.946570
O O15 0.000000 0.728083 0.000000
O O16 0.250000 0.250000 0.500000
O O17 0.312372 0.000000 0.459295
#
# Coordination Sequence:
#
# PCOD9223880 Si02
#       6
#     8   8   8   8   8   8
#     4  11  21  35  61  89 113 152 197 244 297 357
#     4  10  19  34  56  83 113 150 190 235 286 337
#     4  10  21  35  57  86 119 155 192 242 297 349
#     4  11  25  43  61  84 120 161 197 246 305 357
#     4   9  19  35  56  85 119 151 190 239 291 345
#     4  11  22  37  60  90 119 154 199 246 295 351
#
# _framework density 8.4656079999999996
#
# number of rings (size 3 to 8) (size 9 to 14) (size 15 to 20)
#    0.000    1.667    3.333    1.500    0.000    3.333 
#    0.000    3.333    0.000    4.500    0.000    0.000 
#    0.000    0.000    0.000    0.000    0.000    0.000 
#
# Total GULP energy -133764.478620 kJ/mol
# GULP energy per Si atom -5573.519943 kJ/mol
# Density = 0.844634 g / cm^3
# Si number density = 8.465608 Si / 1000 Ang^3
#
#
#
# Elastic Constant Matrix: (Units=GPa)
#
#
# Indices 1 2 3 4 5 6 
#
# 1 169.0366 40.6532 92.4147 0.0000 0.1160 0.0000
# 2 40.6532 66.6085 47.1571 0.0000 -0.5212 0.0000
# 3 92.4147 47.1571 208.2864 0.0000 -0.8525 0.0000
# 4 0.0000 0.0000 0.0000 31.5660 0.0000 0.8221
# 5 0.1160 -0.5212 -0.8525 0.0000 41.6150 0.0000
# 6 0.0000 0.0000 0.0000 0.8221 0.0000 31.6002
#
#
#
# Elastic Compliance Matrix: (Units=1/GPa)
#
#
# Indices 1 2 3 4 5 6 
#
# 1 0.008260 -0.002914 -0.003006 0.000000 -0.000121 0.000000
# 2 -0.002914 0.018908 -0.002987 0.000000 0.000184 0.000000
# 3 -0.003006 -0.002987 0.006811 0.000000 0.000111 0.000000
# 4 0.000000 0.000000 0.000000 0.031701 0.000000 -0.000825
# 5 -0.000121 0.000184 0.000111 0.000000 0.024035 0.000000
# 6 0.000000 0.000000 0.000000 -0.000825 0.000000 0.031667
#
#
# Mechanical properties :
#
#
# Convention : Reuss Voigt Hill
#
# Bulk Modulus (GPa) = 61.86050 89.37572 75.61811
# Shear Modulus (GPa) = 34.58182 38.53667 36.55925
#
# Velocity S-wave (km/s) = 4.52429 4.77600 4.65185
# Velocity P-wave (km/s) = 7.99425 9.12774 8.57973
#
# Compressibility (1/GPa) = 0.01616540
#
# Stress axis : x y z
#
# Youngs Moduli (GPa) = 121.06433 52.88756 146.81383
#
# Poissons Ratio (x) = 0.15414 0.44126
# Poissons Ratio (y) = 0.35284 0.43853
# Poissons Ratio (z) = 0.36387 0.15798
#
# Static dielectric constant tensor:
#      x y z
#    x 1.568440 0.000000 -0.004310 
#    y 0.000000 1.573060 0.000000 
#    z -0.004310 0.000000 1.599010 
# 
# From -- ./inp_files/229320.got.cif
#   From: 2010.05.17/outbox.ucp.g08.bks.cvg/sg12_115_cif.got.tgz:229320.got - 2010.06.11 11:47:21.
