data_PCOD9223786
_publ_section_title
;
Structure prediction by ZEFSAII (Michael W. Deem and Ramdas Pophale) SiO2 
 PCOD9223786
Probable space group: C 2/M
;
_chemical_formula_sum "Si O2"
_cell_formula_units_Z 28
_cell_length_a 21.000000
_cell_length_b 9.000000
_cell_length_c 30.000000
_cell_angle_alpha 90.000000
_cell_angle_beta 150.000000
_cell_angle_gamma 90.000000
_cell_volume 2835.000000
_symmetry_space_group_name_H-M "C 2/M"
_symmetry_group_IT_number 12
_symmetry_cell_setting 'monoclinic'
loop_
_space_group_symop_operation_xyz
x,y,z
-x,y,-z
-x,-y,-z
x,-y,z
1/2+x,1/2+y,z
1/2-x,1/2+y,-z
1/2-x,1/2-y,-z
1/2+x,1/2-y,z
loop_
_atom_site_type_symbol
_atom_site_label
_atom_site_fract_x
_atom_site_fract_y
_atom_site_fract_z
Si Si1 0.985122 0.827274 0.781798
Si Si2 0.931820 0.827610 0.585975
Si Si3 0.356290 0.821696 0.780144
Si Si4 0.238354 0.323814 0.040717
Si Si5 0.355232 0.830637 0.625055
Si Si6 0.083725 0.818655 0.591696
Si Si7 0.994202 0.681491 0.946625
O O1 0.967018 0.736122 0.815923
O O2 0.887300 0.772028 0.685775
O O3 0.129088 0.802317 0.853018
O O4 0.968318 0.000000 0.781146
O O5 0.791529 0.822016 0.478864
O O6 0.933251 0.725327 0.629791
O O7 0.025682 0.780524 0.604077
O O8 0.955712 0.000000 0.612970
O O9 0.227664 0.766508 0.679525
O O10 0.377397 0.775592 0.843893
O O11 0.355004 0.000000 0.778401
O O12 0.221666 0.500000 0.023841
O O13 0.250000 0.250000 0.000000
O O14 0.120267 0.269099 0.997457
O O15 0.383621 0.000000 0.654414
O O16 0.000000 0.763650 0.500000
O O17 0.083030 0.000000 0.588779
O O18 0.994144 0.500000 0.948320
O O19 0.000000 0.737426 0.000000
#
# Coordination Sequence:
#
# PCOD9223786 Si02
#       7
#     8   8   8   8   8   8   8
#     4  11  22  34  53  80 109 141 179 224 275 327
#     4   9  18  34  54  77 109 142 178 226 273 318
#     4  10  19  33  56  79 103 141 182 226 274 326
#     4  10  20  35  56  80 107 139 175 223 275 324
#     4  10  20  34  54  78 106 143 182 223 270 324
#     4   9  17  30  51  79 107 138 178 220 266 321
#     4   9  18  33  54  81 108 136 178 228 275 326
#
# _framework density 9.8765429999999999
#
# number of rings (size 3 to 8) (size 9 to 14) (size 15 to 20)
#    0.000    2.286    1.429    1.714    0.000    4.571 
#    0.000    5.000    0.000    3.429    0.000    0.000 
#    0.000    0.000    0.000    0.000    0.000    0.000 
#
# Total GULP energy -156011.438236 kJ/mol
# GULP energy per Si atom -5571.837080 kJ/mol
# Density = 0.985406 g / cm^3
# Si number density = 9.876543 Si / 1000 Ang^3
#
#
#
# Elastic Constant Matrix: (Units=GPa)
#
#
# Indices 1 2 3 4 5 6 
#
# 1 79.8484 -0.8867 55.8022 0.0000 0.9782 0.0000
# 2 -0.8867 -7.7796 22.2967 -0.0002 5.7672 0.0002
# 3 55.8022 22.2967 76.7317 -0.0002 -11.6970 -0.0001
# 4 0.0000 -0.0002 -0.0002 -14.4145 0.0000 -11.0759
# 5 0.9782 5.7672 -11.6970 0.0000 21.9308 0.0000
# 6 0.0000 0.0002 -0.0001 -11.0759 0.0000 14.1765
#
#
#
# Elastic Compliance Matrix: (Units=1/GPa)
#
#
# Indices 1 2 3 4 5 6 
#
# 1 0.016753 -0.019469 -0.006378 0.000000 0.000971 0.000000
# 2 -0.019469 -0.031637 0.026943 0.000000 0.023559 0.000000
# 3 -0.006378 0.026943 0.009584 0.000000 -0.001689 0.000000
# 4 0.000000 0.000000 0.000000 -0.043350 0.000000 -0.033869
# 5 0.000971 0.023559 -0.001689 0.000000 0.038458 0.000000
# 6 0.000000 0.000000 0.000000 -0.033869 0.000000 0.044078
#
#
# Mechanical properties :
#
#
# Convention : Reuss Voigt Hill
#
# Bulk Modulus (GPa) = -321.72130 33.69165 -144.01482
# Shear Modulus (GPa) = 163.09006 9.11112 86.10059
#
# Velocity S-wave (km/s) = 9.09635 2.15000 6.60932
# Velocity P-wave (km/s) = 7.27325 4.82253 3.84990
#
# Compressibility (1/GPa) = -0.00310828
#
# Stress axis : x y z
#
# Youngs Moduli (GPa) = 59.69116 -31.60837 104.33948
#
# Poissons Ratio (x) = -0.61539 0.66547
# Poissons Ratio (y) = 1.16214 -2.81123
# Poissons Ratio (z) = 0.38071 0.85163
#
# Static dielectric constant tensor:
#      x y z
#    x 1.731190 0.000000 0.058450 
#    y 0.000000 1.657640 0.000000 
#    z 0.058450 0.000000 1.776010 
# 
# From -- ./inp_files/380723.got.cif
#   From: 2010.05.17/outbox.ucp.g08.bks.cvg/sg12_191_cif.got.tgz:380723.got - 2010.06.11 11:47:21.
