data_PCOD9223776
_publ_section_title
;
Structure prediction by ZEFSAII (Michael W. Deem and Ramdas Pophale) SiO2 
 PCOD9223776
Probable space group: C 2/M
;
_chemical_formula_sum "Si O2"
_cell_formula_units_Z 28
_cell_length_a 30.000000
_cell_length_b 9.000000
_cell_length_c 21.000000
_cell_angle_alpha 90.000000
_cell_angle_beta 30.000000
_cell_angle_gamma 90.000000
_cell_volume 2835.000000
_symmetry_space_group_name_H-M "C 2/M"
_symmetry_group_IT_number 12
_symmetry_cell_setting 'monoclinic'
loop_
_space_group_symop_operation_xyz
x,y,z
-x,y,-z
-x,-y,-z
x,-y,z
1/2+x,1/2+y,z
1/2-x,1/2+y,-z
1/2-x,1/2-y,-z
1/2+x,1/2-y,z
loop_
_atom_site_type_symbol
_atom_site_label
_atom_site_fract_x
_atom_site_fract_y
_atom_site_fract_z
Si Si1 0.450495 0.166879 0.127521
Si Si2 0.945369 0.678508 0.662600
Si Si3 0.023095 0.821339 0.155380
Si Si4 0.671534 0.677466 0.555070
Si Si5 0.760899 0.677408 0.314568
Si Si6 0.640134 0.822985 0.364575
Si Si7 0.655632 0.677926 0.098519
O O1 0.512513 0.257474 0.098261
O O2 0.354112 0.234007 0.229007
O O3 0.435773 0.000000 0.172477
O O4 0.500000 0.154375 0.000000
O O5 0.939129 0.500000 0.681383
O O6 0.880192 0.714848 0.683721
O O7 0.914159 0.770717 0.761447
O O8 0.046652 0.711258 0.516119
O O9 0.109248 0.774037 0.089384
O O10 0.928297 0.774024 0.303858
O O11 0.024369 0.000000 0.152580
O O12 0.677155 0.500000 0.558033
O O13 0.750000 0.750000 0.500000
O O14 0.690216 0.706681 0.457991
O O15 0.771602 0.500000 0.292675
O O16 0.722497 0.746106 0.297661
O O17 0.652602 0.000000 0.352290
O O18 0.665418 0.500000 0.085522
O O19 0.750000 0.750000 0.000000
#
# Coordination Sequence:
#
# PCOD9223776 Si02
#       7
#     8   8   8   8   8   8   8
#     4  10  22  39  57  79 111 150 190 231 277 335
#     4   9  19  38  59  84 116 149 190 238 288 342
#     4  10  22  39  59  84 114 146 186 237 287 338
#     4  10  19  33  55  83 113 144 182 229 280 335
#     4  10  20  34  53  82 116 147 186 236 284 338
#     4   9  19  35  58  85 115 150 188 235 288 344
#     4  11  24  41  61  86 116 152 195 242 288 340
#
# _framework density 9.8765429999999999
#
# number of rings (size 3 to 8) (size 9 to 14) (size 15 to 20)
#    0.000    2.143    1.429    2.143    0.000    6.000 
#    0.000    4.286    0.000    0.000    0.000    0.000 
#    0.000    0.000    0.000    0.000    0.000    0.000 
#
# Total GULP energy -156227.281918 kJ/mol
# GULP energy per Si atom -5579.545783 kJ/mol
# Density = 0.985406 g / cm^3
# Si number density = 9.876543 Si / 1000 Ang^3
#
#
#
# Elastic Constant Matrix: (Units=GPa)
#
#
# Indices 1 2 3 4 5 6 
#
# 1 168.3427 41.7965 25.1857 0.0011 -24.2563 -0.0001
# 2 41.7965 18.9510 13.0800 -0.0013 -6.9277 -0.0062
# 3 25.1857 13.0800 30.8657 0.0001 -3.5624 -0.0077
# 4 0.0011 -0.0013 0.0001 21.2222 -0.0001 -14.6490
# 5 -24.2563 -6.9277 -3.5624 -0.0001 27.3900 0.0004
# 6 -0.0001 -0.0062 -0.0077 -14.6490 0.0004 -22.7128
#
#
#
# Elastic Compliance Matrix: (Units=1/GPa)
#
#
# Indices 1 2 3 4 5 6 
#
# 1 0.013804 -0.030069 0.002042 0.000002 0.004885 0.000006
# 2 -0.030069 0.146666 -0.036964 -0.000006 0.005659 -0.000023
# 3 0.002042 -0.036964 0.046220 -0.000004 -0.001529 -0.000003
# 4 0.000002 -0.000006 -0.000004 0.032605 0.000000 -0.021029
# 5 0.004885 0.005659 -0.001529 0.000000 0.042068 0.000000
# 6 0.000006 -0.000023 -0.000003 -0.021029 0.000000 -0.030465
#
#
# Mechanical properties :
#
#
# Convention : Reuss Voigt Hill
#
# Bulk Modulus (GPa) = 13.03634 42.03153 27.53393
# Shear Modulus (GPa) = 12.30166 14.38637 13.34402
#
# Velocity S-wave (km/s) = 2.49825 2.70165 2.60194
# Velocity P-wave (km/s) = 3.86466 5.57284 4.79542
#
# Compressibility (1/GPa) = 0.07670866
#
# Stress axis : x y z
#
# Youngs Moduli (GPa) = 72.44159 6.81821 21.63576
#
# Poissons Ratio (x) = 0.20502 -0.04419
# Poissons Ratio (y) = 2.17824 0.79974
# Poissons Ratio (z) = -0.14794 0.25203
#
# Static dielectric constant tensor:
#      x y z
#    x 1.696550 0.000000 0.011460 
#    y 0.000000 1.680470 0.000000 
#    z 0.011460 0.000000 1.725830 
# 
# From -- ./inp_files/295092.got.cif
#   From: 2010.05.17/outbox.ucp.g08.bks.cvg/sg12_148_cif.got.tgz:295092.got - 2010.06.11 11:47:21.
