data_PCOD9223887
_publ_section_title
;
Structure prediction by ZEFSAII (Michael W. Deem and Ramdas Pophale) SiO2 
 PCOD9223887
Probable space group: C 2/M
;
_chemical_formula_sum "Si O2"
_cell_formula_units_Z 20
_cell_length_a 30.000000
_cell_length_b 9.000000
_cell_length_c 9.000000
_cell_angle_alpha 90.000000
_cell_angle_beta 60.000000
_cell_angle_gamma 90.000000
_cell_volume 2104.441731
_symmetry_space_group_name_H-M "C 2/M"
_symmetry_group_IT_number 12
_symmetry_cell_setting 'monoclinic'
loop_
_space_group_symop_operation_xyz
x,y,z
-x,y,-z
-x,-y,-z
x,-y,z
1/2+x,1/2+y,z
1/2-x,1/2+y,-z
1/2-x,1/2-y,-z
1/2+x,1/2-y,z
loop_
_atom_site_type_symbol
_atom_site_label
_atom_site_fract_x
_atom_site_fract_y
_atom_site_fract_z
Si Si1 0.500015 0.818664 0.171972
Si Si2 0.284285 0.164144 0.058006
Si Si3 0.390909 0.820704 0.496298
Si Si4 0.103449 0.679793 0.164438
Si Si5 0.710449 0.334468 0.461244
O O1 0.445963 0.775072 0.336410
O O2 0.551353 0.764964 0.172241
O O3 0.500861 0.000000 0.174397
O O4 0.500000 0.773597 0.000000
O O5 0.246553 0.152344 0.257869
O O6 0.294136 0.000000 0.977734
O O7 0.250000 0.250000 0.000000
O O8 0.341399 0.225214 0.997448
O O9 0.392224 0.780925 0.668846
O O10 0.342155 0.748978 0.494594
O O11 0.386568 0.000000 0.492047
O O12 0.099385 0.500000 0.161059
O O13 0.698175 0.500000 0.537880
O O14 0.750000 0.250000 0.500000
#
# Coordination Sequence:
#
# PCOD9223887 Si02
#       5
#     8   8   8   8   8
#     4   9  18  30  51  82 111 141 184 232 273 319
#     4  10  20  35  57  83 112 142 182 229 277 330
#     4  10  19  34  57  81 110 146 183 227 280 329
#     4   9  17  31  52  80 110 140 178 226 273 322
#     4  11  24  38  56  83 115 149 186 228 278 334
#
# _framework density 9.5037079999999996
#
# number of rings (size 3 to 8) (size 9 to 14) (size 15 to 20)
#    0.000    2.200    2.000    1.200    2.800    3.200 
#    0.000    0.000    0.000    4.200    0.000    0.000 
#    0.000    0.000    0.000    0.000    0.000    0.000 
#
# Total GULP energy -111361.314038 kJ/mol
# GULP energy per Si atom -5568.065702 kJ/mol
# Density = 0.948208 g / cm^3
# Si number density = 9.503708 Si / 1000 Ang^3
#
#
#
# Elastic Constant Matrix: (Units=GPa)
#
#
# Indices 1 2 3 4 5 6 
#
# 1 222.1630 51.1886 35.6068 0.0000 -19.5856 0.0000
# 2 51.1886 37.4804 14.8557 0.0000 5.0663 0.0000
# 3 35.6068 14.8557 26.2582 0.0000 -19.1268 0.0000
# 4 0.0000 0.0000 0.0000 7.6039 0.0000 -4.0969
# 5 -19.5856 5.0663 -19.1268 0.0000 38.8122 0.0000
# 6 0.0000 0.0000 0.0000 -4.0969 0.0000 29.1294
#
#
#
# Elastic Compliance Matrix: (Units=1/GPa)
#
#
# Indices 1 2 3 4 5 6 
#
# 1 0.007475 -0.010657 -0.000540 0.000000 0.004897 0.000000
# 2 -0.010657 0.068017 -0.053686 0.000000 -0.040713 0.000000
# 3 -0.000540 -0.053686 0.115587 0.000000 0.063697 0.000000
# 4 0.000000 0.000000 0.000000 0.142293 0.000000 0.020013
# 5 0.004897 -0.040713 0.063697 0.000000 0.064941 0.000000
# 6 0.000000 0.000000 0.000000 0.020013 0.000000 0.037144
#
#
# Mechanical properties :
#
#
# Convention : Reuss Voigt Hill
#
# Bulk Modulus (GPa) = 16.30984 54.35598 35.33291
# Shear Modulus (GPa) = 8.53736 27.39248 17.96492
#
# Velocity S-wave (km/s) = 2.12164 3.80036 3.07767
# Velocity P-wave (km/s) = 3.82115 6.92216 5.59095
#
# Compressibility (1/GPa) = 0.06131270
#
# Stress axis : x y z
#
# Youngs Moduli (GPa) = 133.78196 14.70216 8.65150
#
# Poissons Ratio (x) = 0.15667 0.00467
# Poissons Ratio (y) = 1.42566 0.46447
# Poissons Ratio (z) = 0.07226 0.78931
#
# Static dielectric constant tensor:
#      x y z
#    x 1.625450 0.000000 -0.022400 
#    y 0.000000 1.754450 0.000000 
#    z -0.022400 0.000000 1.667950 
# 
# From -- ./inp_files/83481.got.cif
#   From: 2010.05.17/outbox.ucp.g08.bks.cvg/sg12_42_cif.got.tgz:83481.got - 2010.06.11 11:47:21.
