data_PCOD9223792
_publ_section_title
;
Structure prediction by ZEFSAII (Michael W. Deem and Ramdas Pophale) SiO2 
 PCOD9223792
Probable space group: C 2/M
;
_chemical_formula_sum "Si O2"
_cell_formula_units_Z 20
_cell_length_a 15.000000
_cell_length_b 12.000000
_cell_length_c 12.000000
_cell_angle_alpha 90.000000
_cell_angle_beta 110.000000
_cell_angle_gamma 90.000000
_cell_volume 2029.736061
_symmetry_space_group_name_H-M "C 2/M"
_symmetry_group_IT_number 12
_symmetry_cell_setting 'monoclinic'
loop_
_space_group_symop_operation_xyz
x,y,z
-x,y,-z
-x,-y,-z
x,-y,z
1/2+x,1/2+y,z
1/2-x,1/2+y,-z
1/2-x,1/2-y,-z
1/2+x,1/2-y,z
loop_
_atom_site_type_symbol
_atom_site_label
_atom_site_fract_x
_atom_site_fract_y
_atom_site_fract_z
Si Si1 0.080373 0.127645 0.942359
Si Si2 0.716988 0.375418 0.191793
Si Si3 0.658748 0.627607 0.559634
Si Si4 0.422129 0.776504 0.277235
Si Si5 0.865292 0.714621 0.662674
O O1 0.082328 0.206654 0.838320
O O2 0.062635 0.000000 0.899293
O O3 0.179820 0.132280 0.050093
O O4 0.000000 0.154595 0.000000
O O5 0.695375 0.500000 0.223777
O O6 0.829501 0.354734 0.246269
O O7 0.655604 0.287479 0.235976
O O8 0.629545 0.500000 0.538990
O O9 0.598787 0.690962 0.629889
O O10 0.773804 0.633815 0.625532
O O11 0.644907 0.697282 0.441770
O O12 0.527775 0.830114 0.313300
#
# Coordination Sequence:
#
# PCOD9223792 Si02
#       5
#     8   8   8   8   8
#     4  10  19  33  56  81 106 139 177 218 265 312
#     4  10  21  36  55  80 109 142 177 215 262 317
#     4  10  22  37  55  80 109 139 176 221 265 312
#     4  11  21  35  57  81 107 139 179 221 262 311
#     4  10  21  37  55  79 109 141 176 217 265 315
#
# _framework density 9.8534980000000001
#
# number of rings (size 3 to 8) (size 9 to 14) (size 15 to 20)
#    0.000    1.800    2.000    2.400    0.000    4.000 
#    0.000    0.000    0.000    7.800    0.000    0.000 
#    0.000    0.000    0.000    0.000    0.000    0.000 
#
# Total GULP energy -111467.165218 kJ/mol
# GULP energy per Si atom -5573.358261 kJ/mol
# Density = 0.983107 g / cm^3
# Si number density = 9.853498 Si / 1000 Ang^3
#
#
#
# Elastic Constant Matrix: (Units=GPa)
#
#
# Indices 1 2 3 4 5 6 
#
# 1 105.5998 -23.5271 -9.4956 0.0000 17.1713 0.0000
# 2 -23.5271 27.5704 6.9297 0.0000 -2.8245 0.0000
# 3 -9.4956 6.9297 38.6803 0.0000 -1.1807 0.0000
# 4 0.0000 0.0000 0.0000 21.8731 0.0000 -9.6184
# 5 17.1713 -2.8245 -1.1807 0.0000 33.1645 0.0000
# 6 0.0000 0.0000 0.0000 -9.6184 0.0000 19.8222
#
#
#
# Elastic Compliance Matrix: (Units=1/GPa)
#
#
# Indices 1 2 3 4 5 6 
#
# 1 0.012725 0.009983 0.001161 0.000000 -0.005697 0.000000
# 2 0.009983 0.046113 -0.005855 0.000000 -0.001450 0.000000
# 3 0.001161 -0.005855 0.027183 0.000000 -0.000132 0.000000
# 4 0.000000 0.000000 0.000000 0.058119 0.000000 0.028201
# 5 -0.005697 -0.001450 -0.000132 0.000000 0.032974 0.000000
# 6 0.000000 0.000000 0.000000 0.028201 0.000000 0.064133
#
#
# Mechanical properties :
#
#
# Convention : Reuss Voigt Hill
#
# Bulk Modulus (GPa) = 10.35201 13.29605 11.82403
# Shear Modulus (GPa) = 19.02101 28.16820 23.59461
#
# Velocity S-wave (km/s) = 3.11012 3.78478 3.46391
# Velocity P-wave (km/s) = 4.26163 5.08536 4.69161
#
# Compressibility (1/GPa) = 0.09659960
#
# Stress axis : x y z
#
# Youngs Moduli (GPa) = 78.58761 21.68591 36.78778
#
# Poissons Ratio (x) = -0.21649 -0.04272
# Poissons Ratio (y) = -0.78454 0.21539
# Poissons Ratio (z) = -0.09127 0.12697
#
# Static dielectric constant tensor:
#      x y z
#    x 1.714940 0.000000 0.071510 
#    y 0.000000 1.660990 0.000000 
#    z 0.071510 0.000000 1.739800 
# 
# From -- ./inp_files/129132.got.cif
#   From: 2010.05.17/outbox.ucp.g08.bks.cvg/sg12_65_cif.got.tgz:129132.got - 2010.06.11 11:47:21.
