data_PCOD9223199
_publ_section_title
;
Structure prediction by ZEFSAII (Michael W. Deem and Ramdas Pophale) SiO2 
 PCOD9223199
Probable space group: C 2/M
;
_chemical_formula_sum "Si O2"
_cell_formula_units_Z 28
_cell_length_a 18.000000
_cell_length_b 9.000000
_cell_length_c 24.000000
_cell_angle_alpha 90.000000
_cell_angle_beta 50.000000
_cell_angle_gamma 90.000000
_cell_volume 2978.380795
_symmetry_space_group_name_H-M "C 2/M"
_symmetry_group_IT_number 12
_symmetry_cell_setting 'monoclinic'
loop_
_space_group_symop_operation_xyz
x,y,z
-x,y,-z
-x,-y,-z
x,-y,z
1/2+x,1/2+y,z
1/2-x,1/2+y,-z
1/2-x,1/2-y,-z
1/2+x,1/2-y,z
loop_
_atom_site_type_symbol
_atom_site_label
_atom_site_fract_x
_atom_site_fract_y
_atom_site_fract_z
Si Si1 0.557849 0.825134 0.915571
Si Si2 0.714506 0.832558 0.320430
Si Si3 0.459057 0.176485 0.751179
Si Si4 0.393332 0.821448 0.409543
Si Si5 0.762780 0.321877 0.814025
Si Si6 0.552455 0.332554 0.805817
Si Si7 0.689519 0.324203 0.446664
O O1 0.668531 0.773768 0.869232
O O2 0.523615 0.725979 0.880320
O O3 0.552405 0.000000 0.904601
O O4 0.500000 0.797967 0.000000
O O5 0.688320 0.792486 0.270013
O O6 0.683704 0.731697 0.386394
O O7 0.831298 0.834543 0.257598
O O8 0.680601 0.000000 0.348384
O O9 0.517727 0.236847 0.669914
O O10 0.348625 0.221758 0.813364
O O11 0.516631 0.219333 0.777576
O O12 0.456654 0.000000 0.744399
O O13 0.383802 0.751808 0.474929
O O14 0.296259 0.786334 0.420377
O O15 0.397456 0.000000 0.412949
O O16 0.740000 0.500000 0.826675
O O17 0.517440 0.500000 0.813158
O O18 0.678417 0.500000 0.454181
#
# Coordination Sequence:
#
# PCOD9223199 Si02
#       7
#     8   8   8   8   8   8   8
#     4  10  21  38  60  84 109 138 173 212 255 308
#     4   9  17  31  49  72 101 134 175 219 262 311
#     4  10  19  35  55  78 109 141 177 218 266 317
#     4   9  18  30  46  70 101 137 173 217 267 311
#     4   9  20  36  56  81 108 140 174 215 265 316
#     4  10  20  33  55  83 108 138 177 217 259 310
#     4  10  18  28  46  72  98 132 179 224 265 307
#
# _framework density 9.4010809999999996
#
# number of rings (size 3 to 8) (size 9 to 14) (size 15 to 20)
#    0.000    2.429    1.429    2.143    0.000    5.143 
#    0.000    1.429    0.000    4.286    0.000    0.000 
#    0.000    0.000    0.000    0.000    0.000    0.000 
#
# Total GULP energy -155936.431978 kJ/mol
# GULP energy per Si atom -5569.158285 kJ/mol
# Density = 0.937968 g / cm^3
# Si number density = 9.401081 Si / 1000 Ang^3
#
#
#
# Elastic Constant Matrix: (Units=GPa)
#
#
# Indices 1 2 3 4 5 6 
#
# 1 15.5831 -13.4116 0.5912 0.0000 -11.9971 0.0002
# 2 -13.4116 -12.1131 13.2511 0.0001 -7.3023 0.0004
# 3 0.5912 13.2511 69.6379 0.0000 6.3084 0.0000
# 4 0.0000 0.0001 0.0000 15.8634 0.0000 26.3163
# 5 -11.9971 -7.3023 6.3084 0.0000 2.5432 0.0000
# 6 0.0002 0.0004 0.0000 26.3163 0.0000 -37.6064
#
#
#
# Elastic Compliance Matrix: (Units=1/GPa)
#
#
# Indices 1 2 3 4 5 6 
#
# 1 0.039166 -0.049999 0.007029 0.000000 0.023761 0.000000
# 2 -0.049999 0.044336 0.002351 0.000000 -0.114392 0.000000
# 3 0.007029 0.002351 0.013205 0.000000 0.007153 0.000000
# 4 0.000000 0.000000 0.000000 0.029172 0.000001 0.020414
# 5 0.023761 -0.114392 0.007153 0.000001 0.159094 0.000000
# 6 0.000000 0.000000 0.000000 0.020414 0.000000 -0.012306
#
#
# Mechanical properties :
#
#
# Convention : Reuss Voigt Hill
#
# Bulk Modulus (GPa) = 64.64952 8.21880 36.43416
# Shear Modulus (GPa) = 13.92513 1.00519 7.46516
#
# Velocity S-wave (km/s) = 2.72437 0.73196 1.99474
# Velocity P-wave (km/s) = 6.65996 2.25722 4.97243
#
# Compressibility (1/GPa) = 0.01546802
#
# Stress axis : x y z
#
# Youngs Moduli (GPa) = 25.53231 22.55508 75.72869
#
# Poissons Ratio (x) = 1.12774 -0.53231
# Poissons Ratio (y) = 1.27660 -0.17801
# Poissons Ratio (z) = -0.17947 -0.05302
#
# Static dielectric constant tensor:
#      x y z
#    x 1.687760 0.000000 -0.016810 
#    y 0.000000 1.632330 0.000000 
#    z -0.016810 0.000000 1.616660 
# 
# From -- ./inp_files/275217.got.cif
#   From: 2010.05.17/outbox.ucp.g08.bks.cvg/sg12_138_cif.got.tgz:275217.got - 2010.06.11 11:47:21.
