data_PCOD9223049
_publ_section_title
;
Structure prediction by ZEFSAII (Michael W. Deem and Ramdas Pophale) SiO2 
 PCOD9223049
Probable space group: C 2/M
;
_chemical_formula_sum "Si O2"
_cell_formula_units_Z 64
_cell_length_a 29.375542
_cell_length_b 7.224789
_cell_length_c 15.044409
_cell_angle_alpha 90.000000
_cell_angle_beta 72.583286
_cell_angle_gamma 90.000000
_cell_volume 3046.521396
_symmetry_space_group_name_H-M "C 2/M"
_symmetry_group_IT_number 12
_symmetry_cell_setting 'monoclinic'
loop_
_space_group_symop_operation_xyz
x,y,z
-x,y,-z
-x,-y,-z
x,-y,z
1/2+x,1/2+y,z
1/2-x,1/2+y,-z
1/2-x,1/2-y,-z
1/2+x,1/2-y,z
loop_
_atom_site_type_symbol
_atom_site_label
_atom_site_fract_x
_atom_site_fract_y
_atom_site_fract_z
Si Si1 0.320220 0.788161 0.385142
Si Si2 0.053208 0.725707 0.001395
Si Si3 0.471650 0.223815 0.302175
Si Si4 0.211257 0.724549 0.406362
Si Si5 0.074999 0.725230 0.189156
Si Si6 0.102213 0.724589 0.799027
Si Si7 0.635796 0.774767 0.312130
Si Si8 0.553496 0.224688 0.495288
O O1 0.265786 0.785656 0.382769
O O2 0.316480 0.711904 0.487825
O O3 0.354174 0.710113 0.288248
O O4 0.336815 0.000000 0.387682
O O5 0.051780 0.500000 0.004053
O O6 0.068096 0.785102 0.091575
O O7 0.092270 0.783671 0.905289
O O8 0.000000 0.781642 0.000000
O O9 0.526513 0.281047 0.268718
O O10 0.445135 0.275469 0.228144
O O11 0.441887 0.283399 0.405290
O O12 0.472440 0.000000 0.304285
O O13 0.211715 0.500000 0.409438
O O14 0.184436 0.782122 0.332309
O O15 0.075733 0.500000 0.187240
O O16 0.119949 0.783887 0.222766
O O17 0.105391 0.500000 0.800807
O O18 0.593875 0.715447 0.404144
O O19 0.636367 0.000000 0.310699
O O20 0.500000 0.278482 0.500000
O O21 0.554936 0.000000 0.491899
#
# Coordination Sequence:
#
# PCOD9223049 Si02
#       8
#     8   8   8   8   8   8   8   8
#     4   9  17  29  44  62  82 106 138 173 207 242
#     4   9  14  20  30  47  74 109 141 162 191 241
#     4   9  13  17  26  43  69 101 129 151 186 238
#     4   9  17  29  44  61  83 108 136 171 208 244
#     4   9  14  19  28  45  72 106 135 157 190 240
#     4   9  15  22  34  51  75 105 134 166 201 238
#     4   9  15  22  32  49  75 106 134 160 198 245
#     4   9  13  16  24  41  67  98 124 146 182 237
#
# _framework density 21.007567000000002
#
# number of rings (size 3 to 8) (size 9 to 14) (size 15 to 20)
#    0.000    3.000    2.500    0.750    0.000    3.000 
#    0.000    0.000    0.000    0.750    0.000    0.000 
#    0.000    2.000    0.000    0.125    0.000    0.125 
#
# Total GULP energy -178505.379406 kJ/mol
# GULP energy per Si atom -5578.293106 kJ/mol
# Density = 2.095975 g / cm^3
# Si number density = 21.007567 Si / 1000 Ang^3
#
#
#
# Elastic Constant Matrix: (Units=GPa)
#
#
# Indices 1 2 3 4 5 6 
#
# 1 82.8905 -5.1302 51.7591 0.0000 18.7397 0.0000
# 2 -5.1302 98.6152 0.4655 0.0000 -0.6264 0.0000
# 3 51.7591 0.4655 141.5410 0.0000 22.1933 0.0000
# 4 0.0000 0.0000 0.0000 -27.2752 0.0000 10.7409
# 5 18.7397 -0.6264 22.1933 0.0000 38.5809 0.0000
# 6 0.0000 0.0000 0.0000 10.7409 0.0000 -35.2944
#
#
#
# Elastic Compliance Matrix: (Units=1/GPa)
#
#
# Indices 1 2 3 4 5 6 
#
# 1 0.016533 0.000853 -0.005267 0.000000 -0.004987 0.000000
# 2 0.000853 0.010186 -0.000337 0.000000 -0.000055 0.000000
# 3 -0.005267 -0.000337 0.009444 0.000000 -0.002880 0.000000
# 4 0.000000 0.000000 0.000000 -0.041655 0.000000 -0.012677
# 5 -0.004987 -0.000055 -0.002880 0.000000 0.029997 0.000000
# 6 0.000000 0.000000 0.000000 -0.012677 0.000000 -0.032191
#
#
# Mechanical properties :
#
#
# Convention : Reuss Voigt Hill
#
# Bulk Modulus (GPa) = 37.50631 46.35950 41.93291
# Shear Modulus (GPa) = 467.20425 13.59908 240.40167
#
# Velocity S-wave (km/s) = 14.92920 2.54705 10.70907
# Velocity P-wave (km/s) = 17.75013 5.54670 13.14977
#
# Compressibility (1/GPa) = 0.02666218
#
# Stress axis : x y z
#
# Youngs Moduli (GPa) = 60.48494 98.17351 105.89108
#
# Poissons Ratio (x) = -0.08377 0.55770
# Poissons Ratio (y) = -0.05161 0.03567
# Poissons Ratio (z) = 0.31856 0.03307
#
# Static dielectric constant tensor:
#      x y z
#    x 1.730730 0.000000 0.022920 
#    y 0.000000 1.857050 0.000000 
#    z 0.022920 0.000000 1.760150 
# 
# From -- ./inp_files/245111.got.cif
#   From: 2010.05.17/outbox.cif.g08.bks.cpg/sg12_123_cif.got.tgz:245111.got - 2010.06.03 13:09:07.
