data_PCOD9223585
_publ_section_title
;
Structure prediction by ZEFSAII (Michael W. Deem and Ramdas Pophale) SiO2 
 PCOD9223585
Probable space group: C 2/M
;
_chemical_formula_sum "Si O2"
_cell_formula_units_Z 32
_cell_length_a 30.000000
_cell_length_b 9.000000
_cell_length_c 15.000000
_cell_angle_alpha 90.000000
_cell_angle_beta 90.000000
_cell_angle_gamma 90.000000
_cell_volume 4050.000000
_symmetry_space_group_name_H-M "C 2/M"
_symmetry_group_IT_number 12
_symmetry_cell_setting 'monoclinic'
loop_
_space_group_symop_operation_xyz
x,y,z
-x,y,-z
-x,-y,-z
x,-y,z
1/2+x,1/2+y,z
1/2-x,1/2+y,-z
1/2-x,1/2-y,-z
1/2+x,1/2-y,z
loop_
_atom_site_type_symbol
_atom_site_label
_atom_site_fract_x
_atom_site_fract_y
_atom_site_fract_z
Si Si1 0.503398 0.333505 0.607410
Si Si2 0.906756 0.675275 0.398557
Si Si3 0.248217 0.322248 0.402846
Si Si4 0.670435 0.825253 0.271021
Si Si5 0.696383 0.323377 0.090674
Si Si6 0.414684 0.173373 0.604758
Si Si7 0.666798 0.676442 0.721753
Si Si8 0.802441 0.676966 0.096562
O O1 0.500000 0.340023 0.500000
O O2 0.512829 0.500000 0.640081
O O3 0.543008 0.220218 0.625956
O O4 0.455892 0.271733 0.636060
O O5 0.898946 0.500000 0.390490
O O6 0.900126 0.716190 0.503585
O O7 0.875162 0.763336 0.332288
O O8 0.243602 0.500000 0.414799
O O9 0.250000 0.250000 0.500000
O O10 0.207577 0.269581 0.340886
O O11 0.291828 0.292134 0.344216
O O12 0.672277 0.740204 0.177877
O O13 0.624679 0.814493 0.324831
O O14 0.679820 0.000000 0.253031
O O15 0.690768 0.500000 0.083909
O O16 0.749277 0.291828 0.104038
O O17 0.682775 0.247406 0.997546
O O18 0.428557 0.000000 0.597756
O O19 0.664363 0.500000 0.735243
O O20 0.674376 0.754118 0.816734
O O21 0.808541 0.500000 0.094568
#
# Coordination Sequence:
#
# PCOD9223585 Si02
#       8
#     8   8   8   8   8   8   8   8
#     4   9  17  30  48  70  97 126 162 207 252 291
#     4  10  19  32  50  71  99 132 169 205 244 295
#     4  10  21  33  46  65  96 135 170 202 236 281
#     4  10  19  33  49  69  98 132 167 202 244 292
#     4  10  20  33  51  73  95 123 162 208 252 293
#     4   9  18  31  49  71  98 133 169 204 243 291
#     4  11  21  33  49  71  99 130 166 206 247 289
#     4  10  20  34  52  71  94 126 163 205 251 297
#
# _framework density 7.9012349999999998
#
# number of rings (size 3 to 8) (size 9 to 14) (size 15 to 20)
#    0.000    2.125    1.250    2.625    0.000    6.000 
#    0.000    0.000    0.000    0.000    0.000    0.875 
#    0.000    7.000    0.000    0.000    0.000    0.000 
#
# Total GULP energy -178447.515591 kJ/mol
# GULP energy per Si atom -5576.484862 kJ/mol
# Density = 0.788325 g / cm^3
# Si number density = 7.901235 Si / 1000 Ang^3
#
#
#
# Elastic Constant Matrix: (Units=GPa)
#
#
# Indices 1 2 3 4 5 6 
#
# 1 33.6244 36.0131 23.6522 0.0000 -14.3118 0.0000
# 2 36.0131 15.3360 46.3617 0.0000 12.6376 0.0000
# 3 23.6522 46.3617 115.6561 0.0000 -7.3934 0.0000
# 4 0.0000 0.0000 0.0000 31.8315 0.0000 1.8314
# 5 -14.3118 12.6376 -7.3934 0.0000 -26.3515 0.0000
# 6 0.0000 0.0000 0.0000 1.8314 0.0000 22.3921
#
#
#
# Elastic Compliance Matrix: (Units=1/GPa)
#
#
# Indices 1 2 3 4 5 6 
#
# 1 -0.036173 0.118521 -0.034602 0.000000 0.086194 0.000000
# 2 0.118521 -0.216677 0.050947 0.000000 -0.182577 0.000000
# 3 -0.034602 0.050947 -0.001903 0.000000 0.043760 0.000000
# 4 0.000000 0.000000 0.000000 0.031564 0.000000 -0.002582
# 5 0.086194 -0.182577 0.043760 0.000000 -0.184598 0.000000
# 6 0.000000 0.000000 0.000000 -0.002582 0.000000 0.044870
#
#
# Mechanical properties :
#
#
# Convention : Reuss Voigt Hill
#
# Bulk Modulus (GPa) = 66.76063 41.85226 54.30644
# Shear Modulus (GPa) = -7.96617 9.48041 0.75712
#
# Velocity S-wave (km/s) = -2.24767 2.45201 0.69293
# Velocity P-wave (km/s) = 5.96679 5.87866 5.92289
#
# Compressibility (1/GPa) = 0.01497889
#
# Stress axis : x y z
#
# Youngs Moduli (GPa) = -27.64526 -4.61517 -525.60651
#
# Poissons Ratio (x) = 0.54699 -18.18728
# Poissons Ratio (y) = 3.27653 26.77821
# Poissons Ratio (z) = -0.95659 0.23513
#
# Static dielectric constant tensor:
#      x y z
#    x 1.540040 0.000000 0.002720 
#    y 0.000000 1.538780 0.000000 
#    z 0.002720 0.000000 1.491080 
# 
# From -- ./inp_files/187488.got.cif
#   From: 2010.05.17/outbox.ucp.g08.bks.cvg/sg12_94_cif.got.tgz:187488.got - 2010.06.11 11:47:21.
