data_PCOD9223290
_publ_section_title
;
Structure prediction by ZEFSAII (Michael W. Deem and Ramdas Pophale) SiO2 
 PCOD9223290
Probable space group: C 2/M
;
_chemical_formula_sum "Si O2"
_cell_formula_units_Z 24
_cell_length_a 15.000000
_cell_length_b 9.000000
_cell_length_c 18.000000
_cell_angle_alpha 90.000000
_cell_angle_beta 90.000000
_cell_angle_gamma 90.000000
_cell_volume 2430.000000
_symmetry_space_group_name_H-M "C 2/M"
_symmetry_group_IT_number 12
_symmetry_cell_setting 'monoclinic'
loop_
_space_group_symop_operation_xyz
x,y,z
-x,y,-z
-x,-y,-z
x,-y,z
1/2+x,1/2+y,z
1/2-x,1/2+y,-z
1/2-x,1/2-y,-z
1/2+x,1/2-y,z
loop_
_atom_site_type_symbol
_atom_site_label
_atom_site_fract_x
_atom_site_fract_y
_atom_site_fract_z
Si Si1 0.608940 0.173039 0.304050
Si Si2 0.406478 0.825078 0.321420
Si Si3 0.639483 0.173319 0.841664
Si Si4 0.151009 0.320372 0.001269
Si Si5 0.739063 0.677771 0.580218
Si Si6 0.144527 0.827864 0.150635
O O1 0.510757 0.181446 0.337709
O O2 0.681920 0.223758 0.363275
O O3 0.610673 0.263330 0.227874
O O4 0.627570 0.000000 0.285625
O O5 0.391149 0.764374 0.237343
O O6 0.349932 0.734230 0.380020
O O7 0.378675 0.000000 0.322634
O O8 0.608544 0.229891 0.922571
O O9 0.747215 0.181751 0.843825
O O10 0.612527 0.000000 0.839536
O O11 0.155850 0.500000 0.000898
O O12 0.250000 0.250000 0.000000
O O13 0.112336 0.263738 0.078909
O O14 0.740788 0.500000 0.573626
O O15 0.750000 0.750000 0.500000
O O16 0.121535 0.000000 0.141263
#
# Coordination Sequence:
#
# PCOD9223290 Si02
#       6
#     8   8   8   8   8   8
#     4  10  22  38  60  88 117 149 191 237 287 340
#     4  10  20  39  63  87 116 152 190 236 286 340
#     4   8  15  29  52  79 107 147 193 233 279 332
#     4   9  16  27  46  77 112 149 196 242 286 334
#     4  11  24  42  63  90 117 148 185 230 287 346
#     4  10  18  31  53  80 112 153 197 238 286 338
#
# _framework density 9.8765429999999999
#
# number of rings (size 3 to 8) (size 9 to 14) (size 15 to 20)
#    0.000    2.333    1.667    2.500    0.000    2.000 
#    0.000    5.000    0.000    5.000    0.000    0.000 
#    0.000    0.000    0.000    0.000    0.000    0.000 
#
# Total GULP energy -133862.709129 kJ/mol
# GULP energy per Si atom -5577.612880 kJ/mol
# Density = 0.985406 g / cm^3
# Si number density = 9.876543 Si / 1000 Ang^3
#
#
#
# Elastic Constant Matrix: (Units=GPa)
#
#
# Indices 1 2 3 4 5 6 
#
# 1 38.1613 21.2582 31.2369 0.0000 -16.7995 0.0000
# 2 21.2582 52.7133 44.1535 0.0000 -17.4350 0.0000
# 3 31.2369 44.1535 138.8707 0.0000 -35.6966 0.0000
# 4 0.0000 0.0000 0.0000 36.5275 0.0000 -6.3136
# 5 -16.7995 -17.4350 -35.6966 0.0000 -13.6222 0.0000
# 6 0.0000 0.0000 0.0000 -6.3136 0.0000 17.1378
#
#
#
# Elastic Compliance Matrix: (Units=1/GPa)
#
#
# Indices 1 2 3 4 5 6 
#
# 1 0.033475 -0.011353 -0.006451 0.000000 -0.009847 0.000000
# 2 -0.011353 0.028665 -0.007404 0.000000 -0.003284 0.000000
# 3 -0.006451 -0.007404 0.009254 0.000000 -0.006817 0.000000
# 4 0.000000 0.000000 0.000000 0.029238 0.000000 0.010772
# 5 -0.009847 -0.003284 -0.006817 0.000000 -0.039199 0.000000
# 6 0.000000 0.000000 0.000000 0.010772 0.000000 0.062319
#
#
# Mechanical properties :
#
#
# Convention : Reuss Voigt Hill
#
# Bulk Modulus (GPa) = 47.67250 47.00470 47.33860
# Shear Modulus (GPa) = 27.59983 16.88173 22.24078
#
# Velocity S-wave (km/s) = 3.74202 2.92659 3.35914
# Velocity P-wave (km/s) = 6.54652 5.93866 6.24998
#
# Compressibility (1/GPa) = 0.02097645
#
# Stress axis : x y z
#
# Youngs Moduli (GPa) = 29.87340 34.88608 108.06243
#
# Poissons Ratio (x) = 0.39606 0.69712
# Poissons Ratio (y) = 0.33915 0.80013
# Poissons Ratio (z) = 0.19272 0.25831
#
# Static dielectric constant tensor:
#      x y z
#    x 1.733860 0.000000 -0.016330 
#    y 0.000000 1.683500 0.000000 
#    z -0.016330 0.000000 1.709800 
# 
# From -- ./inp_files/267684.got.cif
#   From: 2010.05.17/outbox.ucp.g08.bks.cvg/sg12_134_cif.got.tgz:267684.got - 2010.06.11 11:47:21.
