data_PCOD9223505
_publ_section_title
;
Structure prediction by ZEFSAII (Michael W. Deem and Ramdas Pophale) SiO2 
 PCOD9223505
Probable space group: C 2/M
;
_chemical_formula_sum "Si O2"
_cell_formula_units_Z 28
_cell_length_a 18.000000
_cell_length_b 21.000000
_cell_length_c 15.000000
_cell_angle_alpha 90.000000
_cell_angle_beta 30.000000
_cell_angle_gamma 90.000000
_cell_volume 2835.000000
_symmetry_space_group_name_H-M "C 2/M"
_symmetry_group_IT_number 12
_symmetry_cell_setting 'monoclinic'
loop_
_space_group_symop_operation_xyz
x,y,z
-x,y,-z
-x,-y,-z
x,-y,z
1/2+x,1/2+y,z
1/2-x,1/2+y,-z
1/2-x,1/2-y,-z
1/2+x,1/2-y,z
loop_
_atom_site_type_symbol
_atom_site_label
_atom_site_fract_x
_atom_site_fract_y
_atom_site_fract_z
Si Si1 0.262328 0.230023 0.851204
Si Si2 0.101217 0.846794 0.555975
Si Si3 0.837107 0.427078 0.201192
Si Si4 0.272375 0.620019 0.861863
Si Si5 0.968104 0.663889 0.770417
Si Si6 0.136527 0.708322 0.437778
Si Si7 0.567317 0.719555 0.774788
O O1 0.252779 0.306062 0.850621
O O2 0.343216 0.210028 0.857547
O O3 0.362161 0.200067 0.669381
O O4 0.097721 0.202477 0.024412
O O5 0.237443 0.887128 0.374244
O O6 0.083992 0.780174 0.519081
O O7 0.118733 0.823155 0.638512
O O8 0.942121 0.882659 0.718146
O O9 0.857185 0.500000 0.211036
O O10 0.745856 0.424051 0.204170
O O11 0.000000 0.401754 0.000000
O O12 0.133805 0.611413 0.074832
O O13 0.074159 0.656951 0.574125
O O14 0.054789 0.708046 0.750690
O O15 0.312582 0.714057 0.274527
#
# Coordination Sequence:
#
# PCOD9223505 Si02
#       7
#     8   8   8   8   8   8   8
#     4  11  18  32  47  77 111 145 174 213 253 318
#     4  11  20  35  53  72 102 142 182 213 263 312
#     4  11  27  41  55  78 103 133 182 235 273 314
#     4  11  20  34  55  71 102 144 179 215 266 306
#     4  10  19  31  47  73 108 141 177 213 254 314
#     4  11  21  27  49  79 109 144 180 209 254 319
#     4  10  20  31  46  76 106 141 181 216 253 315
#
# _framework density 9.8765429999999999
#
# number of rings (size 3 to 8) (size 9 to 14) (size 15 to 20)
#    0.000    1.286    5.714    3.857    6.000    1.143 
#    0.000    0.000    0.000    0.000    0.000    0.000 
#    0.000    6.857    0.000    0.000    0.000    0.000 
#
# Total GULP energy -156019.093025 kJ/mol
# GULP energy per Si atom -5572.110465 kJ/mol
# Density = 0.985406 g / cm^3
# Si number density = 9.876543 Si / 1000 Ang^3
#
#
#
# Elastic Constant Matrix: (Units=GPa)
#
#
# Indices 1 2 3 4 5 6 
#
# 1 32.8667 5.5579 0.4986 -0.0017 11.0405 0.0005
# 2 5.5579 25.1980 24.2280 -0.0035 4.8722 0.0016
# 3 0.4986 24.2280 151.1503 -0.0054 9.1275 0.0022
# 4 -0.0017 -0.0035 -0.0054 16.5818 0.0017 -0.2114
# 5 11.0405 4.8722 9.1275 0.0017 35.1967 -0.0003
# 6 0.0005 0.0016 0.0022 -0.2114 -0.0003 10.1636
#
#
#
# Elastic Compliance Matrix: (Units=1/GPa)
#
#
# Indices 1 2 3 4 5 6 
#
# 1 0.035155 -0.007364 0.001695 0.000004 -0.010448 -0.000001
# 2 -0.007364 0.049209 -0.007712 0.000007 -0.002502 -0.000005
# 3 0.001695 -0.007712 0.007939 0.000001 -0.001523 -0.000001
# 4 0.000004 0.000007 0.000001 0.060323 -0.000005 0.001254
# 5 -0.010448 -0.002502 -0.001523 -0.000005 0.032430 0.000002
# 6 -0.000001 -0.000005 -0.000001 0.001254 0.000002 0.098416
#
#
# Mechanical properties :
#
#
# Convention : Reuss Voigt Hill
#
# Bulk Modulus (GPa) = 15.25772 29.97602 22.61687
# Shear Modulus (GPa) = 15.05653 24.31712 19.68682
#
# Velocity S-wave (km/s) = 2.76386 3.51244 3.16039
# Velocity P-wave (km/s) = 4.23394 5.62654 4.97917
#
# Compressibility (1/GPa) = 0.06554058
#
# Stress axis : x y z
#
# Youngs Moduli (GPa) = 28.44536 20.32132 125.96791
#
# Poissons Ratio (x) = 0.14965 -0.21356
# Poissons Ratio (y) = 0.20947 0.97152
# Poissons Ratio (z) = -0.04822 0.15673
#
# Static dielectric constant tensor:
#      x y z
#    x 1.761610 0.000000 -0.056880 
#    y 0.000000 1.643530 0.000000 
#    z -0.056880 0.000000 1.837090 
# 
# From -- ./inp_files/79573.got.cif
#   From: 2010.05.17/outbox.ucp.g08.bks.cvg/sg12_40_cif.got.tgz:79573.got - 2010.06.11 11:47:21.
