data_PCOD9223996
_publ_section_title
;
Structure prediction by ZEFSAII (Michael W. Deem and Ramdas Pophale) SiO2 
 PCOD9223996
Probable space group: C 2/M
;
_chemical_formula_sum "Si O2"
_cell_formula_units_Z 24
_cell_length_a 24.000000
_cell_length_b 18.000000
_cell_length_c 18.000000
_cell_angle_alpha 90.000000
_cell_angle_beta 160.000000
_cell_angle_gamma 90.000000
_cell_volume 2659.548635
_symmetry_space_group_name_H-M "C 2/M"
_symmetry_group_IT_number 12
_symmetry_cell_setting 'monoclinic'
loop_
_space_group_symop_operation_xyz
x,y,z
-x,y,-z
-x,-y,-z
x,-y,z
1/2+x,1/2+y,z
1/2-x,1/2+y,-z
1/2-x,1/2-y,-z
1/2+x,1/2-y,z
loop_
_atom_site_type_symbol
_atom_site_label
_atom_site_fract_x
_atom_site_fract_y
_atom_site_fract_z
Si Si1 0.274870 0.163868 0.551980
Si Si2 0.631172 0.194458 0.012441
Si Si3 0.652598 0.915059 0.508987
Si Si4 0.382705 0.784716 0.424284
Si Si5 0.532163 0.695483 0.751583
Si Si6 0.724822 0.084747 0.014483
O O1 0.250000 0.250000 0.500000
O O2 0.453964 0.162377 0.812367
O O3 0.268501 0.117468 0.467764
O O4 0.125434 0.149752 0.418700
O O5 0.593459 0.249386 0.894290
O O6 0.732425 0.237282 0.201988
O O7 0.727444 0.125370 0.097580
O O8 0.676070 0.859691 0.607754
O O9 0.702693 0.000000 0.586137
O O10 0.460448 0.914988 0.247574
O O11 0.500000 0.798605 0.500000
O O12 0.478447 0.740779 0.610266
O O13 0.671432 0.637313 0.908204
O O14 0.781077 0.000000 0.088016
#
# Coordination Sequence:
#
# PCOD9223996 Si02
#       6
#     8   8   8   8   8   8
#     4   9  18  37  60  81 112 156 196 239 286 345
#     4  10  20  36  58  83 115 156 198 238 290 352
#     4  10  21  38  60  89 123 154 192 242 299 352
#     4  12  21  33  62  89 114 158 195 244 289 345
#     4  11  20  38  57  87 117 147 210 243 284 352
#     4  10  19  35  59  84 116 152 189 245 298 335
#
# _framework density 9.0240880000000008
#
# number of rings (size 3 to 8) (size 9 to 14) (size 15 to 20)
#    0.000    1.667    6.667    1.500    0.000    1.667 
#    0.000    2.500    0.000    5.000    0.000    5.833 
#    0.000    0.000    0.000    0.000    0.000    0.000 
#
# Total GULP energy -133802.752970 kJ/mol
# GULP energy per Si atom -5575.114707 kJ/mol
# Density = 0.900355 g / cm^3
# Si number density = 9.024088 Si / 1000 Ang^3
#
#
#
# Elastic Constant Matrix: (Units=GPa)
#
#
# Indices 1 2 3 4 5 6 
#
# 1 83.4279 31.9664 20.9486 0.0000 1.8688 0.0000
# 2 31.9664 87.9328 11.6985 0.0000 -5.8757 0.0000
# 3 20.9486 11.6985 34.3019 0.0000 -11.5905 0.0000
# 4 0.0000 0.0000 0.0000 21.4357 0.0000 -5.9334
# 5 1.8688 -5.8757 -11.5905 0.0000 42.8863 0.0000
# 6 0.0000 0.0000 0.0000 -5.9334 0.0000 24.0229
#
#
#
# Elastic Compliance Matrix: (Units=1/GPa)
#
#
# Indices 1 2 3 4 5 6 
#
# 1 0.016402 -0.004942 -0.009686 0.000000 -0.004010 0.000000
# 2 -0.004942 0.013415 -0.000950 0.000000 0.001797 0.000000
# 3 -0.009686 -0.000950 0.039058 0.000000 0.010848 0.000000
# 4 0.000000 0.000000 0.000000 0.050075 0.000000 0.012368
# 5 -0.004010 0.001797 0.010848 0.000000 0.026670 0.000000
# 6 0.000000 0.000000 0.000000 0.012368 0.000000 0.044682
#
#
# Mechanical properties :
#
#
# Convention : Reuss Voigt Hill
#
# Bulk Modulus (GPa) = 26.51216 37.20998 31.86107
# Shear Modulus (GPa) = 21.36470 27.07226 24.21848
#
# Velocity S-wave (km/s) = 3.44431 3.87718 3.66714
# Velocity P-wave (km/s) = 5.52624 6.38006 5.96844
#
# Compressibility (1/GPa) = 0.03771854
#
# Stress axis : x y z
#
# Youngs Moduli (GPa) = 60.96820 74.54170 25.60299
#
# Poissons Ratio (x) = 0.36838 0.24800
# Poissons Ratio (y) = 0.30130 0.02433
# Poissons Ratio (z) = 0.59056 0.07082
#
# Static dielectric constant tensor:
#      x y z
#    x 1.677640 0.000000 0.065270 
#    y 0.000000 1.628350 0.000000 
#    z 0.065270 0.000000 1.651100 
# 
# From -- ./inp_files/234239.got.cif
#   From: 2010.05.17/outbox.ucp.g08.bks.cvg/sg12_118_cif.got.tgz:234239.got - 2010.06.11 11:47:21.
