data_PCOD9223612
_publ_section_title
;
Structure prediction by ZEFSAII (Michael W. Deem and Ramdas Pophale) SiO2 
 PCOD9223612
Probable space group: C 2/M
;
_chemical_formula_sum "Si O2"
_cell_formula_units_Z 28
_cell_length_a 18.000000
_cell_length_b 9.000000
_cell_length_c 27.000000
_cell_angle_alpha 90.000000
_cell_angle_beta 140.000000
_cell_angle_gamma 90.000000
_cell_volume 2811.553005
_symmetry_space_group_name_H-M "C 2/M"
_symmetry_group_IT_number 12
_symmetry_cell_setting 'monoclinic'
loop_
_space_group_symop_operation_xyz
x,y,z
-x,y,-z
-x,-y,-z
x,-y,z
1/2+x,1/2+y,z
1/2-x,1/2+y,-z
1/2-x,1/2-y,-z
1/2+x,1/2-y,z
loop_
_atom_site_type_symbol
_atom_site_label
_atom_site_fract_x
_atom_site_fract_y
_atom_site_fract_z
Si Si1 0.416633 0.668640 0.155295
Si Si2 0.333486 0.171377 0.922975
Si Si3 0.085705 0.677350 0.319165
Si Si4 0.299019 0.179695 0.474097
Si Si5 0.033406 0.326702 0.914804
Si Si6 0.231113 0.674029 0.216193
Si Si7 0.462570 0.823165 0.362441
O O1 0.460055 0.500000 0.177515
O O2 0.287804 0.669671 0.110786
O O3 0.504515 0.763455 0.233853
O O4 0.404713 0.730345 0.094279
O O5 0.295748 0.244005 0.851785
O O6 0.366385 0.000000 0.926593
O O7 0.430971 0.224573 0.011565
O O8 0.101103 0.500000 0.323561
O O9 0.211694 0.755154 0.388334
O O10 0.016962 0.709511 0.335667
O O11 0.250000 0.250000 0.500000
O O12 0.436298 0.218594 0.546456
O O13 0.290411 0.000000 0.471010
O O14 0.067756 0.500000 0.930479
O O15 0.898946 0.319595 0.829936
O O16 0.263919 0.500000 0.227371
O O17 0.336451 0.749169 0.298787
O O18 0.447874 0.000000 0.358611
#
# Coordination Sequence:
#
# PCOD9223612 Si02
#       7
#     8   8   8   8   8   8   8
#     4  11  21  34  54  78 106 139 176 219 264 314
#     4   9  18  34  55  78 101 134 180 223 262 308
#     4  10  19  32  51  77 106 138 174 215 264 312
#     4   9  17  29  47  75 108 139 171 212 262 309
#     4  10  21  36  53  75 106 141 177 218 264 312
#     4  10  19  33  55  78 103 139 179 218 258 308
#     4   9  18  31  49  76 108 137 167 211 262 308
#
# _framework density 9.9589090000000002
#
# number of rings (size 3 to 8) (size 9 to 14) (size 15 to 20)
#    0.000    2.286    1.429    3.000    0.000    5.143 
#    0.000    1.429    0.000    2.571    0.000    6.000 
#    0.000    0.000    0.000    0.000    0.000    0.000 
#
# Total GULP energy -155976.613047 kJ/mol
# GULP energy per Si atom -5570.593323 kJ/mol
# Density = 0.993624 g / cm^3
# Si number density = 9.958909 Si / 1000 Ang^3
#
#
#
# Elastic Constant Matrix: (Units=GPa)
#
#
# Indices 1 2 3 4 5 6 
#
# 1 22.7268 13.5644 0.2667 0.0000 -0.5744 0.0000
# 2 13.5644 42.0990 23.5635 0.0000 4.3649 0.0000
# 3 0.2667 23.5635 126.8467 0.0000 31.4922 0.0000
# 4 0.0000 0.0000 0.0000 33.2027 0.0000 1.7692
# 5 -0.5744 4.3649 31.4922 0.0000 21.5488 0.0000
# 6 0.0000 0.0000 0.0000 1.7692 0.0000 14.9499
#
#
#
# Elastic Compliance Matrix: (Units=1/GPa)
#
#
# Indices 1 2 3 4 5 6 
#
# 1 0.055918 -0.020017 0.003491 0.000000 0.000444 0.000000
# 2 -0.020017 0.033788 -0.006910 0.000000 0.002721 0.000000
# 3 0.003491 -0.006910 0.013794 0.000000 -0.018667 0.000000
# 4 0.000000 0.000000 0.000000 0.030309 0.000000 -0.003587
# 5 0.000444 0.002721 -0.018667 0.000000 0.073147 0.000000
# 6 0.000000 0.000000 0.000000 -0.003587 0.000000 0.067315
#
#
# Mechanical properties :
#
#
# Convention : Reuss Voigt Hill
#
# Bulk Modulus (GPa) = 17.65896 29.60684 23.63290
# Shear Modulus (GPa) = 14.70503 24.22547 19.46525
#
# Velocity S-wave (km/s) = 2.72009 3.49129 3.12954
# Velocity P-wave (km/s) = 4.33016 5.58112 4.99496
#
# Compressibility (1/GPa) = 0.05662849
#
# Stress axis : x y z
#
# Youngs Moduli (GPa) = 17.88331 29.59588 72.49442
#
# Poissons Ratio (x) = 0.59241 -0.25305
# Poissons Ratio (y) = 0.35796 0.50094
# Poissons Ratio (z) = -0.06242 0.20451
#
# Static dielectric constant tensor:
#      x y z
#    x 1.796860 0.000000 0.014980 
#    y 0.000000 1.682880 0.000000 
#    z 0.014980 0.000000 1.713020 
# 
# From -- ./inp_files/275135.got.cif
#   From: 2010.05.17/outbox.ucp.g08.bks.cvg/sg12_138_cif.got.tgz:275135.got - 2010.06.11 11:47:21.
