data_PCOD9223279
_publ_section_title
;
Structure prediction by ZEFSAII (Michael W. Deem and Ramdas Pophale) SiO2 
 PCOD9223279
Probable space group: C 2/M
;
_chemical_formula_sum "Si O2"
_cell_formula_units_Z 32
_cell_length_a 30.000000
_cell_length_b 9.000000
_cell_length_c 15.000000
_cell_angle_alpha 90.000000
_cell_angle_beta 60.000000
_cell_angle_gamma 90.000000
_cell_volume 3507.402885
_symmetry_space_group_name_H-M "C 2/M"
_symmetry_group_IT_number 12
_symmetry_cell_setting 'monoclinic'
loop_
_space_group_symop_operation_xyz
x,y,z
-x,y,-z
-x,-y,-z
x,-y,z
1/2+x,1/2+y,z
1/2-x,1/2+y,-z
1/2-x,1/2-y,-z
1/2+x,1/2-y,z
loop_
_atom_site_type_symbol
_atom_site_label
_atom_site_fract_x
_atom_site_fract_y
_atom_site_fract_z
Si Si1 0.872583 0.323284 0.328633
Si Si2 0.920147 0.677191 0.541967
Si Si3 0.329079 0.171125 0.871953
Si Si4 0.464363 0.675675 0.320101
Si Si5 0.217987 0.170066 0.917842
Si Si6 0.298356 0.674477 0.271535
Si Si7 0.069097 0.825877 0.286407
Si Si8 0.315150 0.820595 0.567324
O O1 0.875839 0.500000 0.328497
O O2 0.928879 0.254869 0.283625
O O3 0.842892 0.265452 0.273298
O O4 0.838551 0.274004 0.448812
O O5 0.925813 0.500000 0.526151
O O6 0.945939 0.759699 0.433512
O O7 0.941218 0.732209 0.614307
O O8 0.859145 0.715172 0.595544
O O9 0.279597 0.190141 0.858059
O O10 0.375463 0.278146 0.802725
O O11 0.346015 0.000000 0.848993
O O12 0.307471 0.213595 0.990489
O O13 0.455357 0.500000 0.326381
O O14 0.525125 0.704287 0.257477
O O15 0.198764 0.182963 0.837309
O O16 0.208828 0.000000 0.959337
O O17 0.302103 0.500000 0.293351
O O18 0.242123 0.733871 0.357338
O O19 0.066767 0.000000 0.310928
O O20 0.311744 0.000000 0.570561
#
# Coordination Sequence:
#
# PCOD9223279 Si02
#       8
#     8   8   8   8   8   8   8   8
#     4  10  20  33  49  72 102 134 172 216 254 290
#     4  10  19  32  51  76 106 137 171 210 251 296
#     4  10  20  35  56  79 104 134 167 206 252 301
#     4  10  21  36  51  70 100 138 176 211 252 300
#     4   9  19  35  54  78 107 136 165 202 251 306
#     4  10  18  31  52  73  99 136 171 203 246 301
#     4  11  22  34  51  75 103 135 172 211 251 303
#     4   8  16  30  47  71 103 136 168 203 244 292
#
# _framework density 9.1235599999999994
#
# number of rings (size 3 to 8) (size 9 to 14) (size 15 to 20)
#    0.000    2.250    0.000    4.125    0.000    6.500 
#    0.000    4.375    0.000    0.750    0.000    5.250 
#    0.000    0.000    0.000    0.000    0.000    0.000 
#
# Total GULP energy -178496.829937 kJ/mol
# GULP energy per Si atom -5578.025936 kJ/mol
# Density = 0.910279 g / cm^3
# Si number density = 9.123560 Si / 1000 Ang^3
#
#
#
# Elastic Constant Matrix: (Units=GPa)
#
#
# Indices 1 2 3 4 5 6 
#
# 1 108.1464 35.1945 14.1822 0.0000 17.3671 0.0000
# 2 35.1945 28.1739 0.5398 0.0000 15.5956 0.0000
# 3 14.1822 0.5398 10.2320 0.0000 5.8403 0.0000
# 4 0.0000 0.0000 0.0000 19.9949 0.0000 -1.5379
# 5 17.3671 15.5956 5.8403 0.0000 8.0130 0.0000
# 6 0.0000 0.0000 0.0000 -1.5379 0.0000 22.8440
#
#
#
# Elastic Compliance Matrix: (Units=1/GPa)
#
#
# Indices 1 2 3 4 5 6 
#
# 1 0.014103 0.002688 0.001273 0.000000 -0.036725 0.000000
# 2 0.002688 -0.045362 -0.082882 0.000000 0.142872 0.000000
# 3 0.001273 -0.082882 0.016850 0.000000 0.146272 0.000000
# 4 0.000000 0.000000 0.000000 0.050273 0.000000 0.003385
# 5 -0.036725 0.142872 0.146272 0.000000 -0.180288 0.000000
# 6 0.000000 0.000000 0.000000 0.003385 0.000000 0.044003
#
#
# Mechanical properties :
#
#
# Convention : Reuss Voigt Hill
#
# Bulk Modulus (GPa) = -5.80549 27.37615 10.78533
# Shear Modulus (GPa) = 1292406.35181 16.61276 646211.48228
#
# Velocity S-wave (km/s) = 842.50654 3.02061 595.74591
# Velocity P-wave (km/s) = 972.84111 5.21546 687.91243
#
# Compressibility (1/GPa) = -0.17225085
#
# Stress axis : x y z
#
# Youngs Moduli (GPa) = 70.90851 -22.04486 59.34678
#
# Poissons Ratio (x) = 0.05925 -0.07556
# Poissons Ratio (y) = -0.19059 4.91877
# Poissons Ratio (z) = -0.09028 -1.82712
#
# Static dielectric constant tensor:
#      x y z
#    x 1.654500 0.000000 -0.017810 
#    y 0.000000 1.611240 0.000000 
#    z -0.017810 0.000000 1.618020 
# 
# From -- ./inp_files/249006.got.cif
#   From: 2010.05.17/outbox.ucp.g08.bks.cvg/sg12_125_cif.got.tgz:249006.got - 2010.06.11 11:47:21.
