data_PCOD9223704
_publ_section_title
;
Structure prediction by ZEFSAII (Michael W. Deem and Ramdas Pophale) SiO2 
 PCOD9223704
Probable space group: C 2/M
;
_chemical_formula_sum "Si O2"
_cell_formula_units_Z 32
_cell_length_a 30.000000
_cell_length_b 9.000000
_cell_length_c 12.000000
_cell_angle_alpha 90.000000
_cell_angle_beta 90.000000
_cell_angle_gamma 90.000000
_cell_volume 3240.000000
_symmetry_space_group_name_H-M "C 2/M"
_symmetry_group_IT_number 12
_symmetry_cell_setting 'monoclinic'
loop_
_space_group_symop_operation_xyz
x,y,z
-x,y,-z
-x,-y,-z
x,-y,z
1/2+x,1/2+y,z
1/2-x,1/2+y,-z
1/2-x,1/2-y,-z
1/2+x,1/2-y,z
loop_
_atom_site_type_symbol
_atom_site_label
_atom_site_fract_x
_atom_site_fract_y
_atom_site_fract_z
Si Si1 0.394235 0.175509 0.099374
Si Si2 0.183735 0.679642 0.735674
Si Si3 0.616100 0.328118 0.372237
Si Si4 0.366662 0.671278 0.882311
Si Si5 0.798546 0.823108 0.492314
Si Si6 0.526227 0.822503 0.386722
Si Si7 0.994521 0.677051 0.134223
Si Si8 0.765862 0.178901 0.885782
O O1 0.353517 0.228662 0.175634
O O2 0.441974 0.202326 0.152748
O O3 0.388360 0.000000 0.088292
O O4 0.392316 0.241306 0.976379
O O5 0.181069 0.500000 0.721043
O O6 0.179022 0.762552 0.619967
O O7 0.231929 0.716977 0.787472
O O8 0.608836 0.500000 0.407934
O O9 0.613259 0.323350 0.239201
O O10 0.666014 0.287537 0.410619
O O11 0.577082 0.222477 0.412656
O O12 0.364593 0.500000 0.918733
O O13 0.316327 0.728133 0.869890
O O14 0.750000 0.750000 0.500000
O O15 0.792594 0.000000 0.490738
O O16 0.500000 0.770314 0.500000
O O17 0.515002 0.770875 0.256399
O O18 0.520268 0.000000 0.382119
O O19 0.005042 0.500000 0.128299
O O20 0.000000 0.728208 0.000000
O O21 0.764786 0.000000 0.894192
O O22 0.750000 0.250000 0.000000
#
# Coordination Sequence:
#
# PCOD9223704 Si02
#       8
#     8   8   8   8   8   8   8   8
#     4  10  20  34  57  85 115 153 193 238 295 354
#     4  10  21  36  56  83 117 154 197 246 297 352
#     4  10  23  42  62  86 120 160 197 242 301 357
#     4  10  20  35  56  81 116 153 190 240 295 349
#     4  11  24  42  63  87 118 157 202 247 298 358
#     4  10  22  39  63  92 119 153 203 255 300 357
#     4   9  18  34  56  84 118 152 189 242 301 351
#     4  10  19  33  52  78 114 153 190 237 290 345
#
# _framework density 9.8765429999999999
#
# number of rings (size 3 to 8) (size 9 to 14) (size 15 to 20)
#    0.000    2.000    1.250    1.875    1.750    5.750 
#    0.000    1.875    0.000    2.250    0.000    0.000 
#    0.000    0.000    0.000    0.000    0.000    0.000 
#
# Total GULP energy -178217.922227 kJ/mol
# GULP energy per Si atom -5569.310070 kJ/mol
# Density = 0.985406 g / cm^3
# Si number density = 9.876543 Si / 1000 Ang^3
#
#
#
# Elastic Constant Matrix: (Units=GPa)
#
#
# Indices 1 2 3 4 5 6 
#
# 1 33.2281 48.3222 46.1367 0.0000 -5.7562 0.0000
# 2 48.3222 -4.6648 14.3751 0.0000 17.2803 0.0000
# 3 46.1367 14.3751 88.5081 0.0000 31.4883 0.0000
# 4 0.0000 0.0000 0.0000 26.2192 0.0000 1.2115
# 5 -5.7562 17.2803 31.4883 0.0000 11.4435 0.0000
# 6 0.0000 0.0000 0.0000 1.2115 0.0000 20.3535
#
#
#
# Elastic Compliance Matrix: (Units=1/GPa)
#
#
# Indices 1 2 3 4 5 6 
#
# 1 0.007353 0.013731 -0.000095 0.000000 -0.016775 0.000000
# 2 0.013731 0.024032 -0.028829 0.000000 0.049943 0.000000
# 3 -0.000095 -0.028829 0.026567 0.000000 -0.029618 0.000000
# 4 0.000000 0.000000 0.000000 0.038245 0.000000 -0.002277
# 5 -0.016775 0.049943 -0.029618 0.000000 0.085030 0.000000
# 6 0.000000 0.000000 0.000000 -0.002277 0.000000 0.049267
#
#
# Mechanical properties :
#
#
# Convention : Reuss Voigt Hill
#
# Bulk Modulus (GPa) = 36.27562 37.19326 36.73444
# Shear Modulus (GPa) = 18.51384 12.15240 15.33312
#
# Velocity S-wave (km/s) = 3.06480 2.48304 2.78913
# Velocity P-wave (km/s) = 5.56133 5.20487 5.38605
#
# Compressibility (1/GPa) = 0.02756672
#
# Stress axis : x y z
#
# Youngs Moduli (GPa) = 136.00768 41.61077 37.64055
#
# Poissons Ratio (x) = -0.57135 0.00356
# Poissons Ratio (y) = -1.86748 1.08512
# Poissons Ratio (z) = 0.01288 1.19958
#
# Static dielectric constant tensor:
#      x y z
#    x 1.717470 0.000000 -0.010180 
#    y 0.000000 1.671130 0.000000 
#    z -0.010180 0.000000 1.755650 
# 
# From -- ./inp_files/187471.got.cif
#   From: 2010.05.17/outbox.ucp.g08.bks.cvg/sg12_94_cif.got.tgz:187471.got - 2010.06.11 11:47:21.
