data_PCOD9223250
_publ_section_title
;
Structure prediction by ZEFSAII (Michael W. Deem and Ramdas Pophale) SiO2 
 PCOD9223250
Probable space group: C 2/M
;
_chemical_formula_sum "Si O2"
_cell_formula_units_Z 32
_cell_length_a 27.000000
_cell_length_b 9.000000
_cell_length_c 15.000000
_cell_angle_alpha 90.000000
_cell_angle_beta 100.000000
_cell_angle_gamma 90.000000
_cell_volume 3589.624260
_symmetry_space_group_name_H-M "C 2/M"
_symmetry_group_IT_number 12
_symmetry_cell_setting 'monoclinic'
loop_
_space_group_symop_operation_xyz
x,y,z
-x,y,-z
-x,-y,-z
x,-y,z
1/2+x,1/2+y,z
1/2-x,1/2+y,-z
1/2-x,1/2-y,-z
1/2+x,1/2-y,z
loop_
_atom_site_type_symbol
_atom_site_label
_atom_site_fract_x
_atom_site_fract_y
_atom_site_fract_z
Si Si1 0.975719 0.324477 0.288547
Si Si2 0.585332 0.329838 0.870533
Si Si3 0.873185 0.178957 0.774564
Si Si4 0.205681 0.173707 0.098846
Si Si5 0.182385 0.328957 0.905844
Si Si6 0.410234 0.823321 0.615808
Si Si7 0.941352 0.827931 0.450401
Si Si8 0.051269 0.175519 0.054256
O O1 0.969436 0.500000 0.290198
O O2 0.958821 0.262566 0.188416
O O3 0.941743 0.250062 0.354727
O O4 0.033549 0.290069 0.329158
O O5 0.576637 0.500000 0.845379
O O6 0.638265 0.270505 0.853339
O O7 0.586281 0.317221 0.977989
O O8 0.825474 0.209970 0.822652
O O9 0.873965 0.253812 0.678694
O O10 0.920268 0.233603 0.850439
O O11 0.877183 0.000000 0.765842
O O12 0.265401 0.184631 0.129882
O O13 0.194400 0.000000 0.072035
O O14 0.193171 0.275634 0.010282
O O15 0.166154 0.500000 0.901687
O O16 0.409454 0.751927 0.517481
O O17 0.404395 0.000000 0.608106
O O18 0.000000 0.819718 0.500000
O O19 0.927631 0.000000 0.438985
O O20 0.041314 0.000000 0.069920
O O21 0.000000 0.243233 0.000000
#
# Coordination Sequence:
#
# PCOD9223250 Si02
#       8
#     8   8   8   8   8   8   8   8
#     4  10  20  33  48  70 101 131 160 199 244 286
#     4  11  20  32  49  69  95 128 167 202 238 288
#     4  10  18  31  48  67  94 128 168 203 234 281
#     4   9  18  33  50  68  91 125 164 203 245 290
#     4  10  19  31  49  70  94 122 158 205 254 292
#     4  10  20  32  47  71 102 131 159 198 246 287
#     4   9  17  31  51  72  93 124 165 202 237 281
#     4   9  17  28  43  63  90 126 165 200 230 267
#
# _framework density 8.9145819999999993
#
# number of rings (size 3 to 8) (size 9 to 14) (size 15 to 20)
#    0.000    2.250    1.250    2.625    0.000    5.000 
#    0.000    0.000    0.000    2.625    0.000    0.875 
#    0.000    0.000    0.000    0.000    0.000    0.000 
#
# Total GULP energy -178355.444225 kJ/mol
# GULP energy per Si atom -5573.607632 kJ/mol
# Density = 0.889429 g / cm^3
# Si number density = 8.914582 Si / 1000 Ang^3
#
#
#
# Elastic Constant Matrix: (Units=GPa)
#
#
# Indices 1 2 3 4 5 6 
#
# 1 62.2801 21.7919 7.2761 0.0000 -21.4856 0.0000
# 2 21.7919 0.1787 22.7849 0.0000 -15.6309 0.0000
# 3 7.2761 22.7849 38.5591 0.0000 -24.0268 0.0000
# 4 0.0000 0.0000 0.0000 26.3178 0.0000 0.0160
# 5 -21.4856 -15.6309 -24.0268 0.0000 28.2078 0.0000
# 6 0.0000 0.0000 0.0000 0.0160 0.0000 14.2252
#
#
#
# Elastic Compliance Matrix: (Units=1/GPa)
#
#
# Indices 1 2 3 4 5 6 
#
# 1 0.017411 0.020282 -0.000008 0.000000 0.024494 0.000000
# 2 0.020282 -0.050776 0.038936 0.000000 0.020477 0.000000
# 3 -0.000008 0.038936 0.034883 0.000000 0.051283 0.000000
# 4 0.000000 0.000000 0.000000 0.037997 0.000000 -0.000043
# 5 0.024494 0.020477 0.051283 0.000000 0.109137 0.000000
# 6 0.000000 0.000000 0.000000 -0.000043 0.000000 0.070298
#
#
# Mechanical properties :
#
#
# Convention : Reuss Voigt Hill
#
# Bulk Modulus (GPa) = 8.33757 22.74710 15.54233
# Shear Modulus (GPa) = 35.58548 17.02781 26.30665
#
# Velocity S-wave (km/s) = 4.47241 3.09375 3.84537
# Velocity P-wave (km/s) = 5.59969 5.05448 5.33405
#
# Compressibility (1/GPa) = 0.11993905
#
# Stress axis : x y z
#
# Youngs Moduli (GPa) = 57.43572 -19.69425 28.66751
#
# Poissons Ratio (x) = 0.39944 0.00022
# Poissons Ratio (y) = -1.16491 -1.11621
# Poissons Ratio (z) = 0.00043 0.76682
#
# Static dielectric constant tensor:
#      x y z
#    x 1.670610 0.000000 -0.005310 
#    y 0.000000 1.604200 0.000000 
#    z -0.005310 0.000000 1.586850 
# 
# From -- ./inp_files/244056.got.cif
#   From: 2010.05.17/outbox.ucp.g08.bks.cvg/sg12_123_cif.got.tgz:244056.got - 2010.06.11 11:47:21.
