data_PCOD9223422
_publ_section_title
;
Structure prediction by ZEFSAII (Michael W. Deem and Ramdas Pophale) SiO2 
 PCOD9223422
Probable space group: C 2/M
;
_chemical_formula_sum "Si O2"
_cell_formula_units_Z 32
_cell_length_a 24.000000
_cell_length_b 21.000000
_cell_length_c 18.000000
_cell_angle_alpha 90.000000
_cell_angle_beta 160.000000
_cell_angle_gamma 90.000000
_cell_volume 3102.806740
_symmetry_space_group_name_H-M "C 2/M"
_symmetry_group_IT_number 12
_symmetry_cell_setting 'monoclinic'
loop_
_space_group_symop_operation_xyz
x,y,z
-x,y,-z
-x,-y,-z
x,-y,z
1/2+x,1/2+y,z
1/2-x,1/2+y,-z
1/2-x,1/2-y,-z
1/2+x,1/2-y,z
loop_
_atom_site_type_symbol
_atom_site_label
_atom_site_fract_x
_atom_site_fract_y
_atom_site_fract_z
Si Si1 0.159957 0.068821 0.147896
Si Si2 0.269330 0.197923 0.344270
Si Si3 0.277680 0.219563 0.853974
Si Si4 0.892775 0.207236 0.708353
Si Si5 0.047510 0.930954 0.259815
Si Si6 0.761309 0.929921 0.002607
Si Si7 0.631617 0.208315 0.800977
Si Si8 0.807921 0.926876 0.237368
O O1 0.266111 0.130060 0.298528
O O2 0.241055 0.000000 0.261704
O O3 0.089488 0.071040 0.976671
O O4 0.000000 0.070157 0.000000
O O5 0.236100 0.253635 0.245607
O O6 0.134972 0.195909 0.239248
O O7 0.448177 0.208798 0.600598
O O8 0.141530 0.254029 0.735109
O O9 0.268871 0.142716 0.838078
O O10 0.440188 0.253793 0.090493
O O11 0.750000 0.250000 0.500000
O O12 0.871266 0.137355 0.645734
O O13 0.134081 0.000000 0.359137
O O14 0.948736 0.931023 0.211817
O O15 0.685926 0.865919 0.872364
O O16 0.691479 0.000000 0.893191
O O17 0.767757 0.926587 0.099264
O O18 0.750000 0.250000 0.000000
O O19 0.000000 0.922137 0.500000
O O20 0.758239 0.000000 0.201087
#
# Coordination Sequence:
#
# PCOD9223422 Si02
#       8
#     8   8   8   8   8   8   8   8
#     4  10  18  35  61  89 123 163 203 244 297 373
#     4  12  24  38  62  94 123 162 208 254 305 369
#     4  12  23  42  64  90 124 162 204 255 312 371
#     4  12  25  40  61  91 128 165 207 259 308 363
#     4  10  20  38  63  89 125 167 203 241 306 383
#     4  10  21  38  61  89 125 161 199 252 309 368
#     4  12  23  38  61  92 126 160 204 256 312 367
#     4  10  22  40  64  92 120 160 213 265 317 368
#
# _framework density 10.313243
#
# number of rings (size 3 to 8) (size 9 to 14) (size 15 to 20)
#    0.000    1.000    5.000    2.250    0.000    0.500 
#    0.000    0.625    0.000    5.250    0.000    0.000 
#    0.000    0.000    0.000    0.000    0.000    0.000 
#
# Total GULP energy -178303.841623 kJ/mol
# GULP energy per Si atom -5571.995051 kJ/mol
# Density = 1.028977 g / cm^3
# Si number density = 10.313243 Si / 1000 Ang^3
#
#
#
# Elastic Constant Matrix: (Units=GPa)
#
#
# Indices 1 2 3 4 5 6 
#
# 1 24.3823 31.9753 -13.8073 0.0000 10.5509 -0.0001
# 2 31.9753 238.6251 38.4237 0.0000 1.0989 0.0000
# 3 -13.8073 38.4237 45.4149 0.0000 6.7375 -0.0003
# 4 0.0000 0.0000 0.0000 31.3957 0.0000 32.3076
# 5 10.5509 1.0989 6.7375 0.0000 16.9944 -0.0001
# 6 -0.0001 0.0000 -0.0003 32.3076 -0.0001 114.2836
#
#
#
# Elastic Compliance Matrix: (Units=1/GPa)
#
#
# Indices 1 2 3 4 5 6 
#
# 1 -1.524095 0.351877 -0.954193 0.000002 1.301762 -0.000004
# 2 0.351877 -0.076357 0.215960 0.000000 -0.299141 0.000001
# 3 -0.954193 0.215960 -0.570142 0.000001 0.804474 -0.000002
# 4 0.000002 0.000000 0.000001 0.044919 -0.000002 -0.012698
# 5 1.301762 -0.299141 0.804474 -0.000002 -1.048939 0.000003
# 6 -0.000004 0.000001 -0.000002 -0.012698 0.000003 0.012340
#
#
# Mechanical properties :
#
#
# Convention : Reuss Voigt Hill
#
# Bulk Modulus (GPa) = -0.33975 46.84510 23.25267
# Shear Modulus (GPa) = -1.48339 49.32345 23.92003
#
# Velocity S-wave (km/s) = -0.84896 4.89536 3.40910
# Velocity P-wave (km/s) = 1.06115 7.39684 5.17625
#
# Compressibility (1/GPa) = -2.94330606
#
# Stress axis : x y z
#
# Youngs Moduli (GPa) = -0.65613 -13.09641 -1.75395
#
# Poissons Ratio (x) = 4.60832 -1.67361
# Poissons Ratio (y) = 0.23088 0.37878
# Poissons Ratio (z) = -0.62607 2.82831
#
# Static dielectric constant tensor:
#      x y z
#    x 1.842310 0.000000 -0.010650 
#    y 0.000000 1.815270 0.000000 
#    z -0.010650 0.000000 1.740100 
# 
# From -- ./inp_files/290965.got.cif
#   From: 2010.05.17/outbox.ucp.g08.bks.cvg/sg12_146_cif.got.tgz:290965.got - 2010.06.11 11:47:21.
