data_PCOD9223597
_publ_section_title
;
Structure prediction by ZEFSAII (Michael W. Deem and Ramdas Pophale) SiO2 
 PCOD9223597
Probable space group: C 2/M
;
_chemical_formula_sum "Si O2"
_cell_formula_units_Z 24
_cell_length_a 27.000000
_cell_length_b 9.000000
_cell_length_c 12.000000
_cell_angle_alpha 90.000000
_cell_angle_beta 100.000000
_cell_angle_gamma 90.000000
_cell_volume 2871.699408
_symmetry_space_group_name_H-M "C 2/M"
_symmetry_group_IT_number 12
_symmetry_cell_setting 'monoclinic'
loop_
_space_group_symop_operation_xyz
x,y,z
-x,y,-z
-x,-y,-z
x,-y,z
1/2+x,1/2+y,z
1/2-x,1/2+y,-z
1/2-x,1/2-y,-z
1/2+x,1/2-y,z
loop_
_atom_site_type_symbol
_atom_site_label
_atom_site_fract_x
_atom_site_fract_y
_atom_site_fract_z
Si Si1 0.974505 0.679294 0.148179
Si Si2 0.427385 0.679023 0.926694
Si Si3 0.045682 0.328644 0.604295
Si Si4 0.243099 0.177279 0.618981
Si Si5 0.160629 0.178617 0.278309
Si Si6 0.636321 0.676594 0.520563
O O1 0.977167 0.500000 0.137648
O O2 0.967592 0.717297 0.275179
O O3 0.025644 0.754042 0.123579
O O4 0.931778 0.745721 0.049801
O O5 0.432093 0.500000 0.937559
O O6 0.378013 0.714079 0.835053
O O7 0.062116 0.500000 0.617636
O O8 0.088678 0.234478 0.565049
O O9 0.000000 0.321120 0.500000
O O10 0.250000 0.250000 0.500000
O O11 0.284883 0.247987 0.713679
O O12 0.184895 0.212776 0.615037
O O13 0.249614 0.000000 0.615314
O O14 0.141168 0.230839 0.393680
O O15 0.165928 0.000000 0.285091
O O16 0.634500 0.500000 0.510062
#
# Coordination Sequence:
#
# PCOD9223597 Si02
#       6
#     8   8   8   8   8   8
#     4  10  20  33  48  69  97 126 159 196 235 281
#     4  10  19  32  51  72  95 124 159 197 236 281
#     4  10  21  34  48  69  96 126 159 192 230 279
#     4   9  17  29  46  70  98 126 157 194 236 281
#     4   9  18  31  48  73  99 123 157 197 237 282
#     4   9  18  31  47  70  98 125 154 190 233 279
#
# _framework density 8.3574210000000004
#
# number of rings (size 3 to 8) (size 9 to 14) (size 15 to 20)
#    0.000    2.500    0.000    4.500    0.000    6.333 
#    0.000    0.000    0.000    1.000    0.000    0.000 
#    0.000    0.000    0.000    0.000    0.000    0.000 
#
# Total GULP energy -133627.041708 kJ/mol
# GULP energy per Si atom -5567.793405 kJ/mol
# Density = 0.833840 g / cm^3
# Si number density = 8.357421 Si / 1000 Ang^3
#
#
#
# Elastic Constant Matrix: (Units=GPa)
#
#
# Indices 1 2 3 4 5 6 
#
# 1 -36.4644 -2.6568 -30.5210 0.0000 19.8858 0.0000
# 2 -2.6568 11.8321 11.6588 0.0000 16.4686 0.0000
# 3 -30.5210 11.6588 68.4599 0.0000 18.1702 0.0000
# 4 0.0000 0.0000 0.0000 22.1607 0.0000 4.2368
# 5 19.8858 16.4686 18.1702 0.0000 29.3855 0.0000
# 6 0.0000 0.0000 0.0000 4.2368 0.0000 27.7263
#
#
#
# Elastic Compliance Matrix: (Units=1/GPa)
#
#
# Indices 1 2 3 4 5 6 
#
# 1 -0.006905 -0.034187 -0.004285 0.000000 0.026482 0.000000
# 2 -0.034187 0.220670 -0.031270 0.000000 -0.081200 0.000000
# 3 -0.004285 -0.031270 0.015075 0.000000 0.011103 0.000000
# 4 0.000000 0.000000 0.000000 0.046483 0.000000 -0.007103
# 5 0.026482 -0.081200 0.011103 0.000000 0.054751 0.000000
# 6 0.000000 0.000000 0.000000 -0.007103 0.000000 0.037152
#
#
# Mechanical properties :
#
#
# Convention : Reuss Voigt Hill
#
# Bulk Modulus (GPa) = 11.19119 0.08773 5.63946
# Shear Modulus (GPa) = 9.31972 20.21093 14.76532
#
# Velocity S-wave (km/s) = 2.36386 3.48107 2.97537
# Velocity P-wave (km/s) = 3.76302 4.02613 3.89680
#
# Compressibility (1/GPa) = 0.08935600
#
# Stress axis : x y z
#
# Youngs Moduli (GPa) = -144.82678 4.53166 66.33371
#
# Poissons Ratio (x) = 0.15492 0.28423
# Poissons Ratio (y) = -4.95123 2.07426
# Poissons Ratio (z) = -0.62056 0.14171
#
# Static dielectric constant tensor:
#      x y z
#    x 1.587480 0.000000 0.017210 
#    y 0.000000 1.574940 0.000000 
#    z 0.017210 0.000000 1.545470 
# 
# From -- ./inp_files/172288.got.cif
#   From: 2010.05.17/outbox.ucp.g08.bks.cvg/sg12_87_cif.got.tgz:172288.got - 2010.06.11 11:47:21.
