data_PCOD9223568
_publ_section_title
;
Structure prediction by ZEFSAII (Michael W. Deem and Ramdas Pophale) SiO2 
 PCOD9223568
Probable space group: C 2/M
;
_chemical_formula_sum "Si O2"
_cell_formula_units_Z 32
_cell_length_a 18.000000
_cell_length_b 12.000000
_cell_length_c 30.000000
_cell_angle_alpha 90.000000
_cell_angle_beta 150.000000
_cell_angle_gamma 90.000000
_cell_volume 3240.000000
_symmetry_space_group_name_H-M "C 2/M"
_symmetry_group_IT_number 12
_symmetry_cell_setting 'monoclinic'
loop_
_space_group_symop_operation_xyz
x,y,z
-x,y,-z
-x,-y,-z
x,-y,z
1/2+x,1/2+y,z
1/2-x,1/2+y,-z
1/2-x,1/2-y,-z
1/2+x,1/2-y,z
loop_
_atom_site_type_symbol
_atom_site_label
_atom_site_fract_x
_atom_site_fract_y
_atom_site_fract_z
Si Si1 0.044023 0.371281 0.896468
Si Si2 0.612914 0.620059 0.276193
Si Si3 0.605000 0.124862 0.715076
Si Si4 0.272267 0.716764 0.294245
Si Si5 0.176338 0.122325 0.093193
Si Si6 0.592141 0.624594 0.458723
Si Si7 0.202056 0.202863 0.910015
Si Si8 0.849174 0.789270 0.609186
O O1 0.049793 0.500000 0.886137
O O2 0.131482 0.291524 0.907920
O O3 0.869716 0.335949 0.805883
O O4 0.147380 0.354232 0.993779
O O5 0.671932 0.500000 0.291602
O O6 0.698018 0.723630 0.298005
O O7 0.438456 0.625981 0.173312
O O8 0.628635 0.634271 0.336882
O O9 0.651601 0.185950 0.694726
O O10 0.754237 0.121272 0.821922
O O11 0.478299 0.195696 0.673797
O O12 0.550795 0.000000 0.679623
O O13 0.415402 0.638325 0.376258
O O14 0.252072 0.223378 0.107816
O O15 0.212209 0.000000 0.091573
O O16 0.000000 0.134058 0.000000
O O17 0.637752 0.500000 0.496066
O O18 0.693033 0.723238 0.531445
O O19 0.628811 0.642425 0.425147
#
# Coordination Sequence:
#
# PCOD9223568 Si02
#       8
#     8   8   8   8   8   8   8   8
#     4  10  20  35  55  79 113 156 193 233 282 334
#     4  11  22  39  60  86 117 152 190 237 293 340
#     4  10  19  35  57  82 113 149 189 234 281 332
#     4  10  22  37  58  86 118 151 191 237 283 347
#     4  10  19  31  52  80 112 147 186 234 284 327
#     4  10  21  40  62  85 115 152 191 236 290 342
#     4  10  20  35  55  81 114 149 196 237 273 343
#     4  10  21  38  61  87 114 149 193 237 282 348
#
# _framework density 9.8765429999999999
#
# number of rings (size 3 to 8) (size 9 to 14) (size 15 to 20)
#    0.000    1.875    1.250    3.000    0.000    0.500 
#    0.000    8.750    0.000    1.500    0.000    0.000 
#    0.000    0.000    0.000    0.000    0.000    0.000 
#
# Total GULP energy -178318.034391 kJ/mol
# GULP energy per Si atom -5572.438575 kJ/mol
# Density = 0.985406 g / cm^3
# Si number density = 9.876543 Si / 1000 Ang^3
#
#
#
# Elastic Constant Matrix: (Units=GPa)
#
#
# Indices 1 2 3 4 5 6 
#
# 1 28.4551 11.7822 6.8242 0.0000 5.2098 0.0000
# 2 11.7822 87.4693 20.6505 0.0000 4.2043 0.0000
# 3 6.8242 20.6505 47.6452 0.0002 4.8714 0.0001
# 4 0.0000 0.0000 0.0002 19.9552 0.0000 -0.5924
# 5 5.2098 4.2043 4.8714 0.0000 29.1787 0.0000
# 6 0.0000 0.0000 0.0001 -0.5924 0.0000 15.0075
#
#
#
# Elastic Compliance Matrix: (Units=1/GPa)
#
#
# Indices 1 2 3 4 5 6 
#
# 1 0.038689 -0.004194 -0.003133 0.000000 -0.005781 0.000000
# 2 -0.004194 0.013215 -0.005096 0.000000 -0.000305 0.000000
# 3 -0.003133 -0.005096 0.023922 0.000000 -0.002700 0.000000
# 4 0.000000 0.000000 0.000000 0.050171 0.000000 0.001981
# 5 -0.005781 -0.000305 -0.002700 0.000000 0.035798 0.000000
# 6 0.000000 0.000000 0.000000 0.001981 0.000000 0.066711
#
#
# Mechanical properties :
#
#
# Convention : Reuss Voigt Hill
#
# Bulk Modulus (GPa) = 19.61503 26.89815 23.25659
# Shear Modulus (GPa) = 18.49478 21.11578 19.80528
#
# Velocity S-wave (km/s) = 3.06322 3.27308 3.16989
# Velocity P-wave (km/s) = 4.73949 5.28496 5.01964
#
# Compressibility (1/GPa) = 0.05098132
#
# Stress axis : x y z
#
# Youngs Moduli (GPa) = 25.84689 75.67004 41.80264
#
# Poissons Ratio (x) = 0.31737 0.13095
# Poissons Ratio (y) = 0.10840 0.21302
# Poissons Ratio (z) = 0.08097 0.38561
#
# Static dielectric constant tensor:
#      x y z
#    x 1.671630 0.000000 -0.028390 
#    y 0.000000 1.692250 0.000000 
#    z -0.028390 0.000000 1.724450 
# 
# From -- ./inp_files/379122.got.cif
#   From: 2010.05.17/outbox.ucp.g08.bks.cvg/sg12_190_cif.got.tgz:379122.got - 2010.06.11 11:47:21.
