data_PCOD9223808
_publ_section_title
;
Structure prediction by ZEFSAII (Michael W. Deem and Ramdas Pophale) SiO2 
 PCOD9223808
Probable space group: C 2/M
;
_chemical_formula_sum "Si O2"
_cell_formula_units_Z 32
_cell_length_a 18.000000
_cell_length_b 30.000000
_cell_length_c 12.000000
_cell_angle_alpha 90.000000
_cell_angle_beta 30.000000
_cell_angle_gamma 90.000000
_cell_volume 3240.000000
_symmetry_space_group_name_H-M "C 2/M"
_symmetry_group_IT_number 12
_symmetry_cell_setting 'monoclinic'
loop_
_space_group_symop_operation_xyz
x,y,z
-x,y,-z
-x,-y,-z
x,-y,z
1/2+x,1/2+y,z
1/2-x,1/2+y,-z
1/2-x,1/2-y,-z
1/2+x,1/2-y,z
loop_
_atom_site_type_symbol
_atom_site_label
_atom_site_fract_x
_atom_site_fract_y
_atom_site_fract_z
Si Si1 0.332942 0.551506 0.423376
Si Si2 0.396649 0.127436 0.233834
Si Si3 0.803883 0.450182 0.645508
Si Si4 0.588117 0.770552 0.726772
Si Si5 0.558343 0.805699 0.529252
Si Si6 0.596076 0.316528 0.973623
Si Si7 0.070324 0.396144 0.231313
Si Si8 0.136256 0.900218 0.052168
O O1 0.302077 0.500000 0.500909
O O2 0.242462 0.594093 0.588101
O O3 0.287905 0.551852 0.350925
O O4 0.502099 0.565180 0.226636
O O5 0.382113 0.181481 0.252536
O O6 0.489354 0.115332 0.222569
O O7 0.500000 0.114366 0.000000
O O8 0.789825 0.500000 0.708703
O O9 0.975072 0.437399 0.401300
O O10 0.736413 0.414349 0.816213
O O11 0.750000 0.750000 0.500000
O O12 0.526738 0.782465 0.685603
O O13 0.477607 0.732182 0.914366
O O14 0.500000 0.778582 0.500000
O O15 0.464942 0.851486 0.653466
O O16 0.734412 0.812705 0.287238
O O17 0.586149 0.349528 0.091956
O O18 0.500000 0.338799 0.000000
O O19 0.245866 0.403177 0.001046
#
# Coordination Sequence:
#
# PCOD9223808 Si02
#       8
#     8   8   8   8   8   8   8   8
#     4  10  22  38  60  91 117 150 198 242 288 346
#     4  10  23  44  65  81 113 153 201 247 291 349
#     4  10  19  33  56  87 123 158 192 231 289 358
#     4  11  23  38  60  89 116 149 201 246 287 349
#     4  11  21  40  57  83 122 156 195 243 292 348
#     4  12  22  35  61  86 115 163 200 237 291 346
#     4  10  21  38  56  84 120 156 194 237 292 354
#     4  12  21  34  57  87 126 156 185 239 296 348
#
# _framework density 9.8765429999999999
#
# number of rings (size 3 to 8) (size 9 to 14) (size 15 to 20)
#    0.000    1.250    3.750    3.000    1.750    3.250 
#    0.000    0.625    0.000    0.750    0.000    0.000 
#    0.000    0.000    0.000    0.000    0.000    0.000 
#
# Total GULP energy -178280.791449 kJ/mol
# GULP energy per Si atom -5571.274733 kJ/mol
# Density = 0.985406 g / cm^3
# Si number density = 9.876543 Si / 1000 Ang^3
#
#
#
# Elastic Constant Matrix: (Units=GPa)
#
#
# Indices 1 2 3 4 5 6 
#
# 1 27.3087 5.9279 24.5715 -0.0014 -27.1489 -0.0008
# 2 5.9279 116.5313 27.8448 -0.0003 -8.8965 -0.0001
# 3 24.5715 27.8448 43.5560 -0.0007 -17.3187 -0.0003
# 4 -0.0014 -0.0003 -0.0007 26.2315 0.0007 -8.5174
# 5 -27.1489 -8.8965 -17.3187 0.0007 36.0282 0.0003
# 6 -0.0008 -0.0001 -0.0003 -8.5174 0.0003 24.3408
#
#
#
# Elastic Compliance Matrix: (Units=1/GPa)
#
#
# Indices 1 2 3 4 5 6 
#
# 1 0.424974 0.036575 -0.163441 0.000015 0.250703 0.000013
# 2 0.036575 0.013293 -0.020853 0.000001 0.020819 0.000001
# 3 -0.163441 -0.020853 0.095782 -0.000005 -0.082267 -0.000005
# 4 0.000015 0.000001 -0.000005 0.043009 0.000008 0.015050
# 5 0.250703 0.020819 -0.082267 0.000008 0.182267 0.000007
# 6 0.000013 0.000001 -0.000005 0.015050 0.000007 0.046350
#
#
# Mechanical properties :
#
#
# Convention : Reuss Voigt Hill
#
# Bulk Modulus (GPa) = 4.19093 33.78717 18.98905
# Shear Modulus (GPa) = 4.23495 25.92355 15.07925
#
# Velocity S-wave (km/s) = 1.46581 3.62661 2.76594
# Velocity P-wave (km/s) = 2.23407 5.88883 4.45361
#
# Compressibility (1/GPa) = 0.23861050
#
# Stress axis : x y z
#
# Youngs Moduli (GPa) = 2.35309 75.22708 10.44034
#
# Poissons Ratio (x) = -2.75144 1.70638
# Poissons Ratio (y) = -0.08606 0.21772
# Poissons Ratio (z) = 0.38459 1.56873
#
# Static dielectric constant tensor:
#      x y z
#    x 1.669650 0.000000 -0.025320 
#    y 0.000000 1.709420 0.000000 
#    z -0.025320 0.000000 1.701840 
# 
# From -- ./inp_files/161169.got.cif
#   From: 2010.05.17/outbox.ucp.g08.bks.cvg/sg12_81_cif.got.tgz:161169.got - 2010.06.11 11:47:21.
