data_PCOD9223759
_publ_section_title
;
Structure prediction by ZEFSAII (Michael W. Deem and Ramdas Pophale) SiO2 
 PCOD9223759
Probable space group: C 2/M
;
_chemical_formula_sum "Si O2"
_cell_formula_units_Z 32
_cell_length_a 24.000000
_cell_length_b 9.000000
_cell_length_c 30.000000
_cell_angle_alpha 90.000000
_cell_angle_beta 30.000000
_cell_angle_gamma 90.000000
_cell_volume 3240.000000
_symmetry_space_group_name_H-M "C 2/M"
_symmetry_group_IT_number 12
_symmetry_cell_setting 'monoclinic'
loop_
_space_group_symop_operation_xyz
x,y,z
-x,y,-z
-x,-y,-z
x,-y,z
1/2+x,1/2+y,z
1/2-x,1/2+y,-z
1/2-x,1/2-y,-z
1/2+x,1/2-y,z
loop_
_atom_site_type_symbol
_atom_site_label
_atom_site_fract_x
_atom_site_fract_y
_atom_site_fract_z
Si Si1 0.734689 0.820407 0.903172
Si Si2 0.930868 0.319491 0.903826
Si Si3 0.681739 0.181286 0.747357
Si Si4 0.607616 0.322950 0.457163
Si Si5 0.849367 0.666819 0.405613
Si Si6 0.998043 0.332642 0.614404
Si Si7 0.951543 0.680246 0.788783
Si Si8 0.261963 0.678615 0.787355
O O1 0.857715 0.754002 0.823571
O O2 0.702651 0.778817 0.874709
O O3 0.739686 0.000000 0.902398
O O4 0.652439 0.767437 0.999591
O O5 0.928973 0.500000 0.907288
O O6 0.909628 0.278479 0.867379
O O7 0.057870 0.270216 0.822113
O O8 0.781078 0.228169 0.645555
O O9 0.704075 0.228958 0.782312
O O10 0.683688 0.000000 0.744557
O O11 0.500000 0.299951 0.500000
O O12 0.616102 0.500000 0.459345
O O13 0.581590 0.240067 0.520943
O O14 0.810263 0.500000 0.421066
O O15 0.750000 0.750000 0.500000
O O16 0.942893 0.658854 0.379001
O O17 0.922065 0.726072 0.313076
O O18 0.970099 0.500000 0.619125
O O19 0.887159 0.237631 0.696521
O O20 0.950644 0.500000 0.785791
O O21 0.265948 0.500000 0.783917
#
# Coordination Sequence:
#
# PCOD9223759 Si02
#       8
#     8   8   8   8   8   8   8   8
#     4  10  20  34  57  85 107 136 181 228 273 319
#     4   9  19  34  54  82 110 139 179 226 274 322
#     4   9  18  33  53  79 111 143 178 222 269 320
#     4  10  19  33  55  80 106 142 185 219 257 320
#     4  10  23  38  54  80 110 145 182 221 272 326
#     4  11  22  36  53  78 111 144 180 224 272 323
#     4  10  20  37  58  79 109 145 180 218 269 329
#     4  10  19  34  56  81 109 142 181 224 269 320
#
# _framework density 9.8765429999999999
#
# number of rings (size 3 to 8) (size 9 to 14) (size 15 to 20)
#    0.000    2.125    2.500    0.750    1.750    2.250 
#    0.000    2.500    0.000    2.250    0.000    1.750 
#    0.000    0.000    0.000    0.000    0.000    0.000 
#
# Total GULP energy -178336.815706 kJ/mol
# GULP energy per Si atom -5573.025491 kJ/mol
# Density = 0.985406 g / cm^3
# Si number density = 9.876543 Si / 1000 Ang^3
#
#
#
# Elastic Constant Matrix: (Units=GPa)
#
#
# Indices 1 2 3 4 5 6 
#
# 1 60.1052 4.9575 20.7877 -0.0003 16.1757 0.0000
# 2 4.9575 -7.6602 9.7266 -0.0018 11.3075 0.0012
# 3 20.7877 9.7266 139.2797 -0.0008 32.6883 0.0003
# 4 -0.0003 -0.0018 -0.0008 19.3036 0.0004 1.0395
# 5 16.1757 11.3075 32.6883 0.0004 37.9830 0.0000
# 6 0.0000 0.0012 0.0003 1.0395 0.0000 11.8718
#
#
#
# Elastic Compliance Matrix: (Units=1/GPa)
#
#
# Indices 1 2 3 4 5 6 
#
# 1 0.018942 0.000245 -0.001170 0.000000 -0.007132 0.000000
# 2 0.000245 -0.090689 -0.000019 -0.000010 0.026910 0.000010
# 3 -0.001170 -0.000019 0.009069 0.000001 -0.007301 0.000000
# 4 0.000000 -0.000010 0.000001 0.052049 0.000002 -0.004557
# 5 -0.007132 0.026910 -0.007301 0.000002 0.027637 -0.000003
# 6 0.000000 0.000010 0.000000 -0.004557 -0.000003 0.084632
#
#
# Mechanical properties :
#
#
# Convention : Reuss Voigt Hill
#
# Bulk Modulus (GPa) = -15.48778 29.18538 6.84880
# Shear Modulus (GPa) = 60.96963 24.24853 42.60908
#
# Velocity S-wave (km/s) = 5.56173 3.50749 4.64948
# Velocity P-wave (km/s) = 5.77807 5.58663 5.68316
#
# Compressibility (1/GPa) = -0.06456705
#
# Stress axis : x y z
#
# Youngs Moduli (GPa) = 52.79408 -11.02674 110.26205
#
# Poissons Ratio (x) = 0.00270 0.12903
# Poissons Ratio (y) = -0.01291 0.00209
# Poissons Ratio (z) = 0.06178 -0.00021
#
# Static dielectric constant tensor:
#      x y z
#    x 1.759180 0.000000 0.018190 
#    y 0.000000 1.675190 0.000000 
#    z 0.018190 0.000000 1.685200 
# 
# From -- ./inp_files/244081.got.cif
#   From: 2010.05.17/outbox.ucp.g08.bks.cvg/sg12_123_cif.got.tgz:244081.got - 2010.06.11 11:47:21.
