data_PCOD9223339
_publ_section_title
;
Structure prediction by ZEFSAII (Michael W. Deem and Ramdas Pophale) SiO2 
 PCOD9223339
Probable space group: C 2/M
;
_chemical_formula_sum "Si O2"
_cell_formula_units_Z 28
_cell_length_a 15.000000
_cell_length_b 9.000000
_cell_length_c 24.000000
_cell_angle_alpha 90.000000
_cell_angle_beta 120.000000
_cell_angle_gamma 90.000000
_cell_volume 2805.922308
_symmetry_space_group_name_H-M "C 2/M"
_symmetry_group_IT_number 12
_symmetry_cell_setting 'monoclinic'
loop_
_space_group_symop_operation_xyz
x,y,z
-x,y,-z
-x,-y,-z
x,-y,z
1/2+x,1/2+y,z
1/2-x,1/2+y,-z
1/2-x,1/2-y,-z
1/2+x,1/2-y,z
loop_
_atom_site_type_symbol
_atom_site_label
_atom_site_fract_x
_atom_site_fract_y
_atom_site_fract_z
Si Si1 0.910865 0.825228 0.713597
Si Si2 0.731170 0.324469 0.935077
Si Si3 0.704921 0.678200 0.656340
Si Si4 0.989552 0.821098 0.619910
Si Si5 0.977346 0.675223 0.155665
Si Si6 0.078650 0.320065 0.072846
Si Si7 0.666411 0.322273 0.514319
O O1 0.797893 0.785129 0.698378
O O2 0.922545 0.782951 0.652435
O O3 0.979378 0.716844 0.771317
O O4 0.935413 0.000000 0.727515
O O5 0.743325 0.500000 0.945231
O O6 0.620232 0.277233 0.882268
O O7 0.811157 0.270507 0.913832
O O8 0.750000 0.250000 0.000000
O O9 0.727924 0.500000 0.670149
O O10 0.607075 0.721907 0.662197
O O11 0.677623 0.704960 0.582922
O O12 0.940112 0.770416 0.546747
O O13 0.992275 0.000000 0.617714
O O14 0.954635 0.500000 0.143383
O O15 0.050767 0.719225 0.126906
O O16 0.075330 0.500000 0.070622
O O17 0.000000 0.268711 0.000000
O O18 0.674264 0.500000 0.510514
O O19 0.750000 0.250000 0.500000
#
# Coordination Sequence:
#
# PCOD9223339 Si02
#       7
#     8   8   8   8   8   8   8
#     4  11  23  40  58  81 117 154 190 236 290 342
#     4  11  21  37  62  91 119 149 187 231 284 337
#     4  10  20  36  60  85 110 149 199 239 279 341
#     4   9  19  36  58  82 114 154 192 232 287 349
#     4  11  23  41  62  85 116 153 195 236 279 340
#     4   9  18  36  61  86 114 150 185 221 277 345
#     4  10  18  32  57  86 113 145 189 241 290 338
#
# _framework density 9.9788940000000004
#
# number of rings (size 3 to 8) (size 9 to 14) (size 15 to 20)
#    0.000    1.857    2.857    1.714    0.000    2.857 
#    0.000   11.429    0.000    1.714    0.000    0.000 
#    0.000    0.000    0.000    0.000    0.000    0.000 
#
# Total GULP energy -155948.831934 kJ/mol
# GULP energy per Si atom -5569.601140 kJ/mol
# Density = 0.995618 g / cm^3
# Si number density = 9.978894 Si / 1000 Ang^3
#
#
#
# Elastic Constant Matrix: (Units=GPa)
#
#
# Indices 1 2 3 4 5 6 
#
# 1 74.7162 9.4840 -11.3307 0.0000 10.3417 0.0000
# 2 9.4840 6.9357 1.1526 0.0000 -5.9282 0.0000
# 3 -11.3307 1.1526 11.5446 0.0000 3.2428 0.0000
# 4 0.0000 0.0000 0.0000 26.3567 0.0000 2.3580
# 5 10.3417 -5.9282 3.2428 0.0000 6.9610 0.0000
# 6 0.0000 0.0000 0.0000 2.3580 0.0000 38.0474
#
#
#
# Elastic Compliance Matrix: (Units=1/GPa)
#
#
# Indices 1 2 3 4 5 6 
#
# 1 -0.000608 0.041490 -0.017163 0.000000 0.044232 0.000000
# 2 0.041490 -0.056290 0.088732 0.000000 -0.150915 0.000000
# 3 -0.017163 0.088732 0.037425 0.000000 0.083631 0.000000
# 4 0.000000 0.000000 0.000000 0.038153 0.000000 -0.002365
# 5 0.044232 -0.150915 0.083631 0.000000 -0.089540 0.000000
# 6 0.000000 0.000000 0.000000 -0.002365 0.000000 0.026430
#
#
# Mechanical properties :
#
#
# Convention : Reuss Voigt Hill
#
# Bulk Modulus (GPa) = 4.83922 10.20092 7.52007
# Shear Modulus (GPa) = -24.79336 20.53240 -2.13048
#
# Velocity S-wave (km/s) = -3.52844 3.21096 -1.03432
# Velocity P-wave (km/s) = 3.76428 4.34389 1.53289
#
# Compressibility (1/GPa) = 0.20664496
#
# Stress axis : x y z
#
# Youngs Moduli (GPa) = -1645.69933 -17.76510 26.72004
#
# Poissons Ratio (x) = 0.73707 0.45860
# Poissons Ratio (y) = 68.28000 -2.37092
# Poissons Ratio (z) = -28.24543 1.57633
#
# Static dielectric constant tensor:
#      x y z
#    x 1.681930 0.000000 -0.042300 
#    y 0.000000 1.672070 0.000000 
#    z -0.042300 0.000000 1.660250 
# 
# From -- ./inp_files/308959.got.cif
#   From: 2010.05.17/outbox.ucp.g08.bks.cvg/sg12_155_cif.got.tgz:308959.got - 2010.06.11 11:47:21.
