data_PCOD9223879
_publ_section_title
;
Structure prediction by ZEFSAII (Michael W. Deem and Ramdas Pophale) SiO2 
 PCOD9223879
Probable space group: C 2/M
;
_chemical_formula_sum "Si O2"
_cell_formula_units_Z 20
_cell_length_a 18.000000
_cell_length_b 15.000000
_cell_length_c 24.000000
_cell_angle_alpha 90.000000
_cell_angle_beta 160.000000
_cell_angle_gamma 90.000000
_cell_volume 2216.290529
_symmetry_space_group_name_H-M "C 2/M"
_symmetry_group_IT_number 12
_symmetry_cell_setting 'monoclinic'
loop_
_space_group_symop_operation_xyz
x,y,z
-x,y,-z
-x,-y,-z
x,-y,z
1/2+x,1/2+y,z
1/2-x,1/2+y,-z
1/2-x,1/2-y,-z
1/2+x,1/2-y,z
loop_
_atom_site_type_symbol
_atom_site_label
_atom_site_fract_x
_atom_site_fract_y
_atom_site_fract_z
Si Si1 0.801739 0.605679 0.018481
Si Si2 0.227983 0.773968 0.192295
Si Si3 0.900666 0.771874 0.768734
Si Si4 0.624676 0.401373 0.769607
Si Si5 0.192592 0.675134 0.505463
O O1 0.823006 0.500000 0.047437
O O2 0.000336 0.672634 0.171108
O O3 0.595463 0.654811 0.901864
O O4 0.759533 0.611467 0.922019
O O5 0.194397 0.774630 0.235568
O O6 0.307277 0.676878 0.224856
O O7 0.432532 0.838037 0.320782
O O8 0.000000 0.794179 0.000000
O O9 0.749034 0.794616 0.608693
O O10 0.668042 0.500000 0.777285
O O11 0.373764 0.396385 0.614218
O O12 0.250000 0.750000 0.500000
#
# Coordination Sequence:
#
# PCOD9223879 Si02
#       5
#     8   8   8   8   8
#     4   9  18  33  56  83 111 146 187 227 277 334
#     4  11  20  33  56  86 109 143 183 230 278 332
#     4  10  19  34  56  82 113 146 183 233 279 328
#     4   9  18  35  57  83 110 146 187 227 274 335
#     4   9  20  36  55  77 108 150 185 220 272 338
#
# _framework density 9.0240880000000008
#
# number of rings (size 3 to 8) (size 9 to 14) (size 15 to 20)
#    0.000    2.400    2.000    0.600    2.800    1.200 
#    0.000    5.000    0.000   12.000    0.000    0.000 
#    0.000    0.000    0.000    0.000    0.000    0.000 
#
# Total GULP energy -111375.672194 kJ/mol
# GULP energy per Si atom -5568.783610 kJ/mol
# Density = 0.900355 g / cm^3
# Si number density = 9.024088 Si / 1000 Ang^3
#
#
#
# Elastic Constant Matrix: (Units=GPa)
#
#
# Indices 1 2 3 4 5 6 
#
# 1 111.4808 -2.3010 13.8389 0.0103 -1.5922 -0.0139
# 2 -2.3010 62.8913 -6.3404 0.0106 -2.7033 0.0102
# 3 13.8389 -6.3404 94.3375 0.0223 8.8195 0.0029
# 4 0.0103 0.0106 0.0223 11.8260 0.0177 -0.0568
# 5 -1.5922 -2.7033 8.8195 0.0177 24.6027 -0.0064
# 6 -0.0139 0.0102 0.0029 -0.0568 -0.0064 24.6541
#
#
#
# Elastic Compliance Matrix: (Units=1/GPa)
#
#
# Indices 1 2 3 4 5 6 
#
# 1 0.009169 0.000240 -0.001435 -0.000007 0.001134 0.000006
# 2 0.000240 0.016063 0.000908 -0.000019 0.001455 -0.000006
# 3 -0.001435 0.000908 0.011248 -0.000015 -0.004025 -0.000004
# 4 -0.000007 -0.000019 -0.000015 0.084561 -0.000058 0.000195
# 5 0.001134 0.001455 -0.004025 -0.000058 0.042322 0.000011
# 6 0.000006 -0.000006 -0.000004 0.000195 0.000011 0.040562
#
#
# Mechanical properties :
#
#
# Convention : Reuss Voigt Hill
#
# Bulk Modulus (GPa) = 27.84981 31.01160 29.43071
# Shear Modulus (GPa) = 23.09807 29.78404 26.44106
#
# Velocity S-wave (km/s) = 3.58131 4.06674 3.83172
# Velocity P-wave (km/s) = 5.70661 6.26667 5.99318
#
# Compressibility (1/GPa) = 0.03590688
#
# Stress axis : x y z
#
# Youngs Moduli (GPa) = 109.05792 62.25357 88.90365
#
# Poissons Ratio (x) = -0.01491 0.12758
# Poissons Ratio (y) = -0.02613 -0.08077
# Poissons Ratio (z) = 0.15650 -0.05656
#
# Static dielectric constant tensor:
#      x y z
#    x 1.602050 0.000000 0.021130 
#    y 0.000000 1.618280 -0.000010 
#    z 0.021130 -0.000010 1.676130 
# 
# From -- ./inp_files/58986.got.cif
#   From: 2010.05.17/outbox.ucp.g08.bks.cvg/sg12_30_cif.got.tgz:58986.got - 2010.06.11 11:47:21.
