data_PCOD9223638
_publ_section_title
;
Structure prediction by ZEFSAII (Michael W. Deem and Ramdas Pophale) SiO2 
 PCOD9223638
Probable space group: C 2/M
;
_chemical_formula_sum "Si O2"
_cell_formula_units_Z 28
_cell_length_a 30.000000
_cell_length_b 9.000000
_cell_length_c 21.000000
_cell_angle_alpha 90.000000
_cell_angle_beta 30.000000
_cell_angle_gamma 90.000000
_cell_volume 2835.000000
_symmetry_space_group_name_H-M "C 2/M"
_symmetry_group_IT_number 12
_symmetry_cell_setting 'monoclinic'
loop_
_space_group_symop_operation_xyz
x,y,z
-x,y,-z
-x,-y,-z
x,-y,z
1/2+x,1/2+y,z
1/2-x,1/2+y,-z
1/2-x,1/2-y,-z
1/2+x,1/2-y,z
loop_
_atom_site_type_symbol
_atom_site_label
_atom_site_fract_x
_atom_site_fract_y
_atom_site_fract_z
Si Si1 0.745614 0.680974 0.710018
Si Si2 0.068910 0.674747 0.466576
Si Si3 0.202129 0.678462 0.498131
Si Si4 0.482852 0.672533 0.241403
Si Si5 0.043710 0.165453 0.302242
Si Si6 0.244512 0.172397 0.075852
Si Si7 0.864672 0.179856 0.035862
O O1 0.747665 0.500000 0.705405
O O2 0.831975 0.732926 0.643976
O O3 0.758042 0.727448 0.620613
O O4 0.662338 0.722369 0.858480
O O5 0.078086 0.500000 0.441335
O O6 0.000000 0.739582 0.500000
O O7 0.018885 0.706024 0.594495
O O8 0.208384 0.500000 0.492779
O O9 0.250000 0.750000 0.500000
O O10 0.100490 0.731343 0.633333
O O11 0.454495 0.500000 0.268259
O O12 0.550916 0.675646 0.217102
O O13 0.536982 0.720727 0.111832
O O14 0.138481 0.175086 0.218889
O O15 0.005152 0.000000 0.362856
O O16 0.296452 0.251699 0.068704
O O17 0.273220 0.000000 0.035183
O O18 0.250000 0.250000 0.000000
O O19 0.858805 0.000000 0.038607
#
# Coordination Sequence:
#
# PCOD9223638 Si02
#       7
#     8   8   8   8   8   8   8
#     4   9  19  36  59  87 117 151 194 243 293 349
#     4  10  19  32  52  80 112 151 197 239 284 337
#     4  11  23  42  67  93 117 148 194 243 299 359
#     4  10  20  37  60  86 115 149 188 236 294 348
#     4  10  20  33  49  76 112 151 196 239 286 337
#     4  11  21  33  49  77 117 162 208 246 285 340
#     4  10  20  38  60  84 118 157 197 245 293 344
#
# _framework density 9.8765429999999999
#
# number of rings (size 3 to 8) (size 9 to 14) (size 15 to 20)
#    0.000    1.857    2.857    1.714    0.000    3.143 
#    0.000    2.857    0.000    4.286    0.000    0.000 
#    0.000    0.000    0.000    0.000    0.000    0.000 
#
# Total GULP energy -156005.965251 kJ/mol
# GULP energy per Si atom -5571.641616 kJ/mol
# Density = 0.985406 g / cm^3
# Si number density = 9.876543 Si / 1000 Ang^3
#
#
#
# Elastic Constant Matrix: (Units=GPa)
#
#
# Indices 1 2 3 4 5 6 
#
# 1 93.5123 15.4454 43.7547 0.0016 21.5678 -0.0016
# 2 15.4454 21.6184 16.0893 0.0020 3.5912 -0.0015
# 3 43.7547 16.0893 107.4077 0.0027 36.2458 -0.0040
# 4 0.0016 0.0020 0.0027 23.9434 -0.0018 1.5327
# 5 21.5678 3.5912 36.2458 -0.0018 30.4719 0.0016
# 6 -0.0016 -0.0015 -0.0040 1.5327 0.0016 28.2770
#
#
#
# Elastic Compliance Matrix: (Units=1/GPa)
#
#
# Indices 1 2 3 4 5 6 
#
# 1 0.014635 -0.007368 -0.002766 -0.000001 -0.006200 0.000000
# 2 -0.007368 0.056277 -0.008270 -0.000003 0.008419 0.000001
# 3 -0.002766 -0.008270 0.017852 -0.000003 -0.018303 0.000003
# 4 -0.000001 -0.000003 -0.000003 0.041911 0.000006 -0.002272
# 5 -0.006200 0.008419 -0.018303 0.000006 0.057984 -0.000006
# 6 0.000000 0.000001 0.000003 -0.002272 -0.000006 0.035488
#
#
# Mechanical properties :
#
#
# Convention : Reuss Voigt Hill
#
# Bulk Modulus (GPa) = 19.24650 41.45746 30.35198
# Shear Modulus (GPa) = 17.96801 26.35506 22.16153
#
# Velocity S-wave (km/s) = 3.01928 3.65667 3.35315
# Velocity P-wave (km/s) = 4.68182 6.23391 5.51276
#
# Compressibility (1/GPa) = 0.05195751
#
# Stress axis : x y z
#
# Youngs Moduli (GPa) = 68.33000 17.76925 56.01525
#
# Poissons Ratio (x) = 0.13092 0.15493
# Poissons Ratio (y) = 0.50342 0.46324
# Poissons Ratio (z) = 0.18899 0.14695
#
# Static dielectric constant tensor:
#      x y z
#    x 1.721320 0.000000 -0.014450 
#    y 0.000000 1.700510 0.000000 
#    z -0.014450 0.000000 1.770190 
# 
# From -- ./inp_files/329475.got.cif
#   From: 2010.05.17/outbox.ucp.g08.bks.cvg/sg12_165_cif.got.tgz:329475.got - 2010.06.11 11:47:21.
