data_PCOD9223717
_publ_section_title
;
Structure prediction by ZEFSAII (Michael W. Deem and Ramdas Pophale) SiO2 
 PCOD9223717
Probable space group: C 2/M
;
_chemical_formula_sum "Si O2"
_cell_formula_units_Z 32
_cell_length_a 15.000000
_cell_length_b 9.000000
_cell_length_c 30.000000
_cell_angle_alpha 90.000000
_cell_angle_beta 130.000000
_cell_angle_gamma 90.000000
_cell_volume 3102.479995
_symmetry_space_group_name_H-M "C 2/M"
_symmetry_group_IT_number 12
_symmetry_cell_setting 'monoclinic'
loop_
_space_group_symop_operation_xyz
x,y,z
-x,y,-z
-x,-y,-z
x,-y,z
1/2+x,1/2+y,z
1/2-x,1/2+y,-z
1/2-x,1/2-y,-z
1/2+x,1/2-y,z
loop_
_atom_site_type_symbol
_atom_site_label
_atom_site_fract_x
_atom_site_fract_y
_atom_site_fract_z
Si Si1 0.942031 0.177486 0.938016
Si Si2 0.064924 0.831983 0.646216
Si Si3 0.151246 0.174726 0.937943
Si Si4 0.789228 0.833678 0.748043
Si Si5 0.539713 0.321465 0.810362
Si Si6 0.380393 0.670352 0.440419
Si Si7 0.278023 0.169266 0.174890
Si Si8 0.303605 0.678126 0.561697
O O1 0.816594 0.241378 0.888086
O O2 0.032669 0.189345 0.927681
O O3 0.922233 0.000000 0.938774
O O4 0.000000 0.243503 0.000000
O O5 0.169330 0.745021 0.700949
O O6 0.096876 0.834634 0.604370
O O7 0.935973 0.769134 0.610021
O O8 0.063132 0.000000 0.662838
O O9 0.114144 0.232469 0.877189
O O10 0.180395 0.000000 0.943460
O O11 0.250000 0.250000 0.000000
O O12 0.908262 0.763031 0.769299
O O13 0.793253 0.841344 0.802529
O O14 0.782036 0.000000 0.727040
O O15 0.533789 0.500000 0.811650
O O16 0.607775 0.267513 0.789028
O O17 0.500000 0.727318 0.500000
O O18 0.362216 0.500000 0.450818
O O19 0.274642 0.770014 0.422341
O O20 0.310732 0.000000 0.173315
O O21 0.304432 0.500000 0.557182
O O22 0.250000 0.750000 0.500000
#
# Coordination Sequence:
#
# PCOD9223717 Si02
#       8
#     8   8   8   8   8   8   8   8
#     4   9  16  29  52  79 107 141 184 231 279 337
#     4  10  23  41  61  87 122 158 195 241 292 344
#     4  10  19  33  53  80 113 146 184 233 288 344
#     4  10  22  41  61  82 115 156 199 240 282 344
#     4  10  21  38  58  82 115 151 186 239 298 341
#     4  10  20  39  62  87 123 161 195 241 296 346
#     4  10  20  37  60  84 109 148 199 238 280 347
#     4  11  22  38  61  91 124 159 198 242 294 350
#
# _framework density 10.314329000000001
#
# number of rings (size 3 to 8) (size 9 to 14) (size 15 to 20)
#    0.000    2.000    2.500    1.125    0.000    5.250 
#    0.000    5.625    0.000    2.250    0.000    0.000 
#    0.000    0.000    0.000    0.000    0.000    0.000 
#
# Total GULP energy -178276.287131 kJ/mol
# GULP energy per Si atom -5571.133973 kJ/mol
# Density = 1.029085 g / cm^3
# Si number density = 10.314329 Si / 1000 Ang^3
#
#
#
# Elastic Constant Matrix: (Units=GPa)
#
#
# Indices 1 2 3 4 5 6 
#
# 1 77.6434 19.6281 30.0832 0.0000 38.6906 0.0000
# 2 19.6281 15.2546 21.3014 0.0000 20.2945 0.0000
# 3 30.0832 21.3014 63.9898 0.0000 40.9584 0.0000
# 4 0.0000 0.0000 0.0000 14.0575 0.0000 -2.4895
# 5 38.6906 20.2945 40.9584 0.0000 34.8652 0.0000
# 6 0.0000 0.0000 0.0000 -2.4895 0.0000 25.5291
#
#
#
# Elastic Compliance Matrix: (Units=1/GPa)
#
#
# Indices 1 2 3 4 5 6 
#
# 1 0.096263 0.169755 0.120366 0.000000 -0.347038 0.000000
# 2 0.169755 0.628835 0.264979 0.000000 -0.865703 0.000000
# 3 0.120366 0.264979 0.221938 0.000000 -0.548537 0.000000
# 4 0.000000 0.000000 0.000000 0.072386 0.000000 0.007059
# 5 -0.347038 -0.865703 -0.548537 0.000000 1.562111 0.000000
# 6 0.000000 0.000000 0.000000 0.007059 0.000000 0.039859
#
#
# Mechanical properties :
#
#
# Convention : Reuss Voigt Hill
#
# Bulk Modulus (GPa) = 0.48609 33.21259 16.84934
# Shear Modulus (GPa) = 2.27590 20.61538 11.44564
#
# Velocity S-wave (km/s) = 1.05151 3.16469 2.35806
# Velocity P-wave (km/s) = 1.30781 5.43036 3.94963
#
# Compressibility (1/GPa) = 2.05723518
#
# Stress axis : x y z
#
# Youngs Moduli (GPa) = 10.38825 1.59024 4.50576
#
# Poissons Ratio (x) = -0.26995 -0.54234
# Poissons Ratio (y) = -1.76346 -1.19393
# Poissons Ratio (z) = -1.25039 -0.42138
#
# Static dielectric constant tensor:
#      x y z
#    x 1.816100 0.000000 -0.110700 
#    y 0.000000 1.731400 0.000000 
#    z -0.110700 0.000000 1.988780 
# 
# From -- ./inp_files/375674.got.cif
#   From: 2010.05.17/outbox.ucp.g08.bks.cvg/sg12_188_cif.got.tgz:375674.got - 2010.06.11 11:47:21.
