data_PCOD9223518
_publ_section_title
;
Structure prediction by ZEFSAII (Michael W. Deem and Ramdas Pophale) SiO2 
 PCOD9223518
Probable space group: C 2/M
;
_chemical_formula_sum "Si O2"
_cell_formula_units_Z 32
_cell_length_a 30.000000
_cell_length_b 9.000000
_cell_length_c 15.000000
_cell_angle_alpha 90.000000
_cell_angle_beta 60.000000
_cell_angle_gamma 90.000000
_cell_volume 3507.402885
_symmetry_space_group_name_H-M "C 2/M"
_symmetry_group_IT_number 12
_symmetry_cell_setting 'monoclinic'
loop_
_space_group_symop_operation_xyz
x,y,z
-x,y,-z
-x,-y,-z
x,-y,z
1/2+x,1/2+y,z
1/2-x,1/2+y,-z
1/2-x,1/2-y,-z
1/2+x,1/2-y,z
loop_
_atom_site_type_symbol
_atom_site_label
_atom_site_fract_x
_atom_site_fract_y
_atom_site_fract_z
Si Si1 0.615470 0.680346 0.854604
Si Si2 0.902806 0.321761 0.760607
Si Si3 0.582181 0.677053 0.077356
Si Si4 0.478310 0.821664 0.385060
Si Si5 0.816471 0.170972 0.520780
Si Si6 0.961000 0.177612 0.222460
Si Si7 0.387782 0.178038 0.589154
Si Si8 0.290550 0.325694 0.351421
O O1 0.610298 0.500000 0.861484
O O2 0.574627 0.731388 0.821976
O O3 0.672887 0.711651 0.766457
O O4 0.603118 0.737381 0.964009
O O5 0.900284 0.500000 0.771661
O O6 0.890225 0.248209 0.866012
O O7 0.872875 0.270832 0.702685
O O8 0.962274 0.278774 0.680706
O O9 0.588646 0.500000 0.074866
O O10 0.520935 0.705433 0.140974
O O11 0.450688 0.757928 0.325464
O O12 0.444870 0.772504 0.502561
O O13 0.477730 0.000000 0.384141
O O14 0.850195 0.271156 0.550225
O O15 0.757586 0.218819 0.593679
O O16 0.824550 0.189115 0.407086
O O17 0.825368 0.000000 0.534369
O O18 0.954144 0.000000 0.240469
O O19 0.388909 0.000000 0.591864
O O20 0.274387 0.500000 0.364117
#
# Coordination Sequence:
#
# PCOD9223518 Si02
#       8
#     8   8   8   8   8   8   8   8
#     4   9  16  28  48  70  92 123 160 190 221 270
#     4   9  18  32  47  65  93 127 159 191 227 267
#     4   9  17  29  46  68  94 125 159 193 226 262
#     4   9  17  29  45  67  95 125 157 190 223 266
#     4  10  20  33  50  73  98 119 145 188 235 276
#     4   9  16  27  44  68  98 127 154 186 226 271
#     4  10  19  31  49  69  91 124 160 189 225 276
#     4   9  18  33  51  70  95 125 152 181 225 280
#
# _framework density 9.1235599999999994
#
# number of rings (size 3 to 8) (size 9 to 14) (size 15 to 20)
#    0.000    2.750    0.000    1.875    0.000    5.500 
#    0.000    1.875    0.000    7.500    0.000    0.000 
#    0.000    0.000    0.000    0.000    0.000    0.000 
#
# Total GULP energy -178188.487447 kJ/mol
# GULP energy per Si atom -5568.390233 kJ/mol
# Density = 0.910279 g / cm^3
# Si number density = 9.123560 Si / 1000 Ang^3
#
#
#
# Elastic Constant Matrix: (Units=GPa)
#
#
# Indices 1 2 3 4 5 6 
#
# 1 10.7200 -4.9664 28.0679 0.0000 4.0186 0.0000
# 2 -4.9664 -17.9279 20.6239 0.0000 -4.1549 0.0000
# 3 28.0679 20.6239 83.6662 0.0000 31.9269 0.0000
# 4 0.0000 0.0000 0.0000 14.1943 0.0000 3.8420
# 5 4.0186 -4.1549 31.9269 0.0000 3.3072 0.0000
# 6 0.0000 0.0000 0.0000 3.8420 0.0000 18.1948
#
#
#
# Elastic Compliance Matrix: (Units=1/GPa)
#
#
# Indices 1 2 3 4 5 6 
#
# 1 0.132769 -0.055690 -0.021405 0.000000 -0.024654 0.000000
# 2 -0.055690 -0.125433 -0.031266 0.000000 0.211920 0.000000
# 3 -0.021405 -0.031266 -0.011887 0.000000 0.101488 0.000000
# 4 0.000000 0.000000 0.000000 0.074721 0.000000 -0.015778
# 5 -0.024654 0.211920 0.101488 0.000000 -0.381175 0.000000
# 6 0.000000 0.000000 0.000000 -0.015778 0.000000 0.058292
#
#
# Mechanical properties :
#
#
# Convention : Reuss Voigt Hill
#
# Bulk Modulus (GPa) = -4.51928 18.21211 6.84642
# Shear Modulus (GPa) = -45.55873 9.32145 -18.11864
#
# Velocity S-wave (km/s) = -5.00218 2.26264 -3.15454
# Velocity P-wave (km/s) = 5.98703 4.10226 3.08350
#
# Compressibility (1/GPa) = -0.22127441
#
# Stress axis : x y z
#
# Youngs Moduli (GPa) = 7.53187 -7.97236 -84.12266
#
# Poissons Ratio (x) = -0.44398 -1.80066
# Poissons Ratio (y) = 0.41945 -2.63018
# Poissons Ratio (z) = 0.16122 -0.24926
#
# Static dielectric constant tensor:
#      x y z
#    x 1.648450 0.000000 0.024660 
#    y 0.000000 1.608250 0.000000 
#    z 0.024660 0.000000 1.680970 
# 
# From -- ./inp_files/248958.got.cif
#   From: 2010.05.17/outbox.ucp.g08.bks.cvg/sg12_125_cif.got.tgz:248958.got - 2010.06.11 11:47:21.
