data_PCOD9223873
_publ_section_title
;
Structure prediction by ZEFSAII (Michael W. Deem and Ramdas Pophale) SiO2 
 PCOD9223873
Probable space group: C 2/M
;
_chemical_formula_sum "Si O2"
_cell_formula_units_Z 32
_cell_length_a 30.000000
_cell_length_b 15.000000
_cell_length_c 9.000000
_cell_angle_alpha 90.000000
_cell_angle_beta 50.000000
_cell_angle_gamma 90.000000
_cell_volume 3102.479995
_symmetry_space_group_name_H-M "C 2/M"
_symmetry_group_IT_number 12
_symmetry_cell_setting 'monoclinic'
loop_
_space_group_symop_operation_xyz
x,y,z
-x,y,-z
-x,-y,-z
x,-y,z
1/2+x,1/2+y,z
1/2-x,1/2+y,-z
1/2-x,1/2-y,-z
1/2+x,1/2-y,z
loop_
_atom_site_type_symbol
_atom_site_label
_atom_site_fract_x
_atom_site_fract_y
_atom_site_fract_z
Si Si1 0.763764 0.679194 0.184858
Si Si2 0.639475 0.104847 0.821051
Si Si3 0.048913 0.600144 0.523488
Si Si4 0.024124 0.717329 0.114561
Si Si5 0.684118 0.098144 0.186578
Si Si6 0.670932 0.600096 0.570787
Si Si7 0.555748 0.600601 0.987647
Si Si8 0.232627 0.358185 0.394931
O O1 0.813056 0.616074 0.151421
O O2 0.699255 0.648955 0.370251
O O3 0.766833 0.772550 0.261857
O O4 0.780074 0.670883 0.979990
O O5 0.672774 0.154662 0.614991
O O6 0.631279 0.000000 0.803879
O O7 0.579854 0.152135 0.994187
O O8 0.048710 0.500000 0.591190
O O9 0.115067 0.616233 0.331674
O O10 0.000000 0.599706 0.500000
O O11 0.027088 0.674367 0.681645
O O12 0.042029 0.817114 0.125540
O O13 0.000000 0.723063 0.000000
O O14 0.709602 0.095354 0.297323
O O15 0.693931 0.000000 0.101146
O O16 0.658293 0.500000 0.550661
O O17 0.611692 0.632488 0.772694
O O18 0.721817 0.599411 0.587390
O O19 0.567891 0.500000 0.020277
O O20 0.500000 0.592204 0.000000
#
# Coordination Sequence:
#
# PCOD9223873 Si02
#       8
#     8   8   8   8   8   8   8   8
#     4  11  21  35  55  79 107 145 188 225 264 326
#     4  11  21  35  56  83 116 150 184 226 276 330
#     4  10  22  38  55  78 113 155 191 226 275 336
#     4  11  21  34  56  85 112 144 188 234 277 326
#     4  11  22  37  54  77 111 147 184 228 282 335
#     4  10  19  34  56  80 106 137 176 222 274 328
#     4   9  19  36  58  84 112 143 183 233 285 332
#     4  11  21  34  52  79 111 143 181 228 281 327
#
# _framework density 10.314329000000001
#
# number of rings (size 3 to 8) (size 9 to 14) (size 15 to 20)
#    0.000    1.500    0.000    8.250    0.000    4.000 
#    0.000    0.000    0.000    0.375    0.000    1.750 
#    0.000    0.000    0.000    0.000    0.000    0.000 
#
# Total GULP energy -178328.287968 kJ/mol
# GULP energy per Si atom -5572.758999 kJ/mol
# Density = 1.029085 g / cm^3
# Si number density = 10.314329 Si / 1000 Ang^3
#
#
#
# Elastic Constant Matrix: (Units=GPa)
#
#
# Indices 1 2 3 4 5 6 
#
# 1 42.4733 22.4978 18.6886 0.0000 -4.4800 0.0000
# 2 22.4978 100.8612 52.6883 0.0000 -21.0175 0.0000
# 3 18.6886 52.6883 56.9698 0.0000 -12.6932 0.0000
# 4 0.0000 0.0000 0.0000 6.3344 0.0000 6.6526
# 5 -4.4800 -21.0175 -12.6932 0.0000 18.4154 0.0000
# 6 0.0000 0.0000 0.0000 6.6526 0.0000 18.8425
#
#
#
# Elastic Compliance Matrix: (Units=1/GPa)
#
#
# Indices 1 2 3 4 5 6 
#
# 1 0.027937 -0.003012 -0.006652 0.000000 -0.001227 0.000000
# 2 -0.003012 0.021779 -0.016280 0.000000 0.012903 0.000000
# 3 -0.006652 -0.016280 0.035787 0.000000 0.004469 0.000000
# 4 0.000000 0.000000 0.000000 0.250902 0.000000 -0.088584
# 5 -0.001227 0.012903 0.004469 0.000000 0.071811 0.000000
# 6 0.000000 0.000000 0.000000 -0.088584 0.000000 0.084347
#
#
# Mechanical properties :
#
#
# Convention : Reuss Voigt Hill
#
# Bulk Modulus (GPa) = 29.74766 43.11705 36.43236
# Shear Modulus (GPa) = 8.99835 15.81377 12.40606
#
# Velocity S-wave (km/s) = 2.09082 2.77174 2.45500
# Velocity P-wave (km/s) = 4.50339 5.58483 5.07301
#
# Compressibility (1/GPa) = 0.03361609
#
# Stress axis : x y z
#
# Youngs Moduli (GPa) = 35.79431 45.91477 27.94295
#
# Poissons Ratio (x) = 0.13831 0.18588
# Poissons Ratio (y) = 0.10782 0.45490
# Poissons Ratio (z) = 0.23811 0.74748
#
# Static dielectric constant tensor:
#      x y z
#    x 1.741770 0.000000 0.039250 
#    y 0.000000 1.815420 0.000000 
#    z 0.039250 0.000000 1.748790 
# 
# From -- ./inp_files/111946.got.cif
#   From: 2010.05.17/outbox.ucp.g08.bks.cvg/sg12_56_cif.got.tgz:111946.got - 2010.06.11 11:47:21.
