data_PCOD9223835
_publ_section_title
;
Structure prediction by ZEFSAII (Michael W. Deem and Ramdas Pophale) SiO2 
 PCOD9223835
Probable space group: C 2/M
;
_chemical_formula_sum "Si O2"
_cell_formula_units_Z 32
_cell_length_a 15.000000
_cell_length_b 9.000000
_cell_length_c 27.000000
_cell_angle_alpha 90.000000
_cell_angle_beta 100.000000
_cell_angle_gamma 90.000000
_cell_volume 3589.624260
_symmetry_space_group_name_H-M "C 2/M"
_symmetry_group_IT_number 12
_symmetry_cell_setting 'monoclinic'
loop_
_space_group_symop_operation_xyz
x,y,z
-x,y,-z
-x,-y,-z
x,-y,z
1/2+x,1/2+y,z
1/2-x,1/2+y,-z
1/2-x,1/2-y,-z
1/2+x,1/2-y,z
loop_
_atom_site_type_symbol
_atom_site_label
_atom_site_fract_x
_atom_site_fract_y
_atom_site_fract_z
Si Si1 0.996926 0.826083 0.737367
Si Si2 0.380592 0.322131 0.628658
Si Si3 0.649514 0.679147 0.991269
Si Si4 0.031188 0.180174 0.077941
Si Si5 0.305895 0.321428 0.362280
Si Si6 0.182351 0.321794 0.745749
Si Si7 0.138173 0.176071 0.183987
Si Si8 0.480346 0.320120 0.442840
O O1 0.946755 0.788219 0.681256
O O2 0.924838 0.810500 0.774052
O O3 0.084293 0.726871 0.755196
O O4 0.024377 0.000000 0.736893
O O5 0.362235 0.500000 0.629141
O O6 0.288577 0.232040 0.624166
O O7 0.435222 0.287227 0.584372
O O8 0.659738 0.500000 0.988492
O O9 0.596803 0.711712 0.037681
O O10 0.750000 0.750000 0.000000
O O11 0.572824 0.728479 0.943342
O O12 0.082504 0.237668 0.131789
O O13 0.024972 0.000000 0.080598
O O14 0.309995 0.500000 0.358022
O O15 0.310352 0.250016 0.308088
O O16 0.389193 0.271620 0.405480
O O17 0.190163 0.500000 0.741787
O O18 0.263041 0.267535 0.789805
O O19 0.150585 0.000000 0.174786
O O20 0.500000 0.263696 0.500000
O O21 0.473131 0.500000 0.445104
#
# Coordination Sequence:
#
# PCOD9223835 Si02
#       8
#     8   8   8   8   8   8   8   8
#     4  10  19  34  53  76 102 137 175 209 255 309
#     4  10  19  35  56  78 104 136 173 209 255 309
#     4   9  17  31  54  78 101 133 177 214 256 305
#     4   8  16  32  51  73 102 141 176 207 249 314
#     4  11  21  35  56  80 104 134 173 214 257 308
#     4  11  21  34  53  78 104 137 176 213 257 308
#     4   9  18  33  52  73 105 140 174 210 255 309
#     4   9  19  36  56  76 103 139 172 207 257 314
#
# _framework density 8.9145819999999993
#
# number of rings (size 3 to 8) (size 9 to 14) (size 15 to 20)
#    0.000    2.375    2.500    1.500    0.000    2.000 
#    0.000    1.250    0.000    5.625    0.000    0.000 
#    0.000    0.000    0.000    0.000    0.000    0.000 
#
# Total GULP energy -178347.116255 kJ/mol
# GULP energy per Si atom -5573.347383 kJ/mol
# Density = 0.889429 g / cm^3
# Si number density = 8.914582 Si / 1000 Ang^3
#
#
#
# Elastic Constant Matrix: (Units=GPa)
#
#
# Indices 1 2 3 4 5 6 
#
# 1 87.4958 19.5694 -7.9027 0.0000 25.0719 0.0000
# 2 19.5694 24.3503 1.7186 0.0000 6.1201 0.0000
# 3 -7.9027 1.7186 43.1180 0.0000 14.5362 0.0000
# 4 0.0000 0.0000 0.0000 12.7248 0.0000 4.4781
# 5 25.0719 6.1201 14.5362 0.0000 19.5426 0.0000
# 6 0.0000 0.0000 0.0000 4.4781 0.0000 34.2286
#
#
#
# Elastic Compliance Matrix: (Units=1/GPa)
#
#
# Indices 1 2 3 4 5 6 
#
# 1 0.033859 -0.014329 0.026572 0.000000 -0.058716 0.000000
# 2 -0.014329 0.051139 -0.007291 0.000000 0.007791 0.000000
# 3 0.026572 -0.007291 0.052154 0.000000 -0.070599 0.000000
# 4 0.000000 0.000000 0.000000 0.082379 0.000000 -0.010778
# 5 -0.058716 0.007791 -0.070599 0.000000 0.176573 0.000000
# 6 0.000000 0.000000 0.000000 -0.010778 0.000000 0.030625
#
#
# Mechanical properties :
#
#
# Convention : Reuss Voigt Hill
#
# Bulk Modulus (GPa) = 6.80021 20.19276 13.49648
# Shear Modulus (GPa) = 10.73319 22.73780 16.73550
#
# Velocity S-wave (km/s) = 2.45623 3.57503 3.06708
# Velocity P-wave (km/s) = 3.44478 5.32836 4.48653
#
# Compressibility (1/GPa) = 0.14705437
#
# Stress axis : x y z
#
# Youngs Moduli (GPa) = 29.53429 19.55449 19.17409
#
# Poissons Ratio (x) = 0.28020 -0.50948
# Poissons Ratio (y) = 0.42320 0.13980
# Poissons Ratio (z) = -0.78477 0.14258
#
# Static dielectric constant tensor:
#      x y z
#    x 1.607940 0.000000 0.004810 
#    y 0.000000 1.603840 0.000000 
#    z 0.004810 0.000000 1.633130 
# 
# From -- ./inp_files/359920.got.cif
#   From: 2010.05.17/outbox.ucp.g08.bks.cvg/sg12_180_cif.got.tgz:359920.got - 2010.06.11 11:47:21.
