data_PCOD9223138
_publ_section_title
;
Structure prediction by ZEFSAII (Michael W. Deem and Ramdas Pophale) SiO2 
 PCOD9223138
Probable space group: C 2/M
;
_chemical_formula_sum "Si O2"
_cell_formula_units_Z 40
_cell_length_a 9.217521
_cell_length_b 23.725799
_cell_length_c 7.749863
_cell_angle_alpha 90.000000
_cell_angle_beta 82.395392
_cell_angle_gamma 90.000000
_cell_volume 1679.934884
_symmetry_space_group_name_H-M "C 2/M"
_symmetry_group_IT_number 12
_symmetry_cell_setting 'monoclinic'
loop_
_space_group_symop_operation_xyz
x,y,z
-x,y,-z
-x,-y,-z
x,-y,z
1/2+x,1/2+y,z
1/2-x,1/2+y,-z
1/2-x,1/2-y,-z
1/2+x,1/2-y,z
loop_
_atom_site_type_symbol
_atom_site_label
_atom_site_fract_x
_atom_site_fract_y
_atom_site_fract_z
Si Si1 0.431189 0.620833 0.333189
Si Si2 0.308645 0.434767 0.887151
Si Si3 0.085134 0.774259 0.169423
Si Si4 0.168505 0.565560 0.529364
Si Si5 0.156855 0.337704 0.050206
O O1 0.500000 0.599465 0.500000
O O2 0.527877 0.586275 0.181484
O O3 0.481614 0.685806 0.298765
O O4 0.263955 0.608247 0.400290
O O5 0.305198 0.500000 0.930440
O O6 0.209950 0.426129 0.726486
O O7 0.242926 0.395893 0.047847
O O8 0.126610 0.709526 0.201261
O O9 0.238018 0.805646 0.105847
O O10 0.000000 0.771905 0.000000
O O11 0.209784 0.500000 0.486042
O O12 0.000000 0.572130 0.500000
O O13 0.000000 0.351731 0.000000
#
# Coordination Sequence:
#
# PCOD9223138 Si02
#       5
#     8   8   8   8   8
#     4   9  17  31  53  77 105 137 173 211 255 313
#     4   9  17  30  50  76 105 139 174 208 254 311
#     4   9  18  33  53  74 100 136 174 214 260 304
#     4   9  17  29  48  76 108 138 171 214 260 306
#     4   9  18  32  51  71  99 133 172 214 256 303
#
# _framework density 23.810448000000001
#
# number of rings (size 3 to 8) (size 9 to 14) (size 15 to 20)
#    0.000    3.000    0.000    0.600    0.000    4.400 
#    0.000    0.000    0.000   78.600    0.000    0.000 
#    0.000    0.800    0.000    0.000    0.000    0.200 
#
# Total GULP energy -111528.209916 kJ/mol
# GULP energy per Si atom -5576.410496 kJ/mol
# Density = 2.375625 g / cm^3
# Si number density = 23.810448 Si / 1000 Ang^3
#
#
#
# Elastic Constant Matrix: (Units=GPa)
#
#
# Indices 1 2 3 4 5 6 
#
# 1 137.3132 49.2568 16.7359 0.0000 -21.3676 0.0000
# 2 49.2568 185.0400 35.5445 0.0000 -33.3942 0.0000
# 3 16.7359 35.5445 68.5544 0.0000 -5.4445 0.0000
# 4 0.0000 0.0000 0.0000 28.0699 0.0000 -9.2023
# 5 -21.3676 -33.3942 -5.4445 0.0000 28.3407 0.0000
# 6 0.0000 0.0000 0.0000 -9.2023 0.0000 32.8460
#
#
#
# Elastic Compliance Matrix: (Units=1/GPa)
#
#
# Indices 1 2 3 4 5 6 
#
# 1 0.008603 -0.001204 -0.001090 0.000000 0.004858 0.000000
# 2 -0.001204 0.007680 -0.003089 0.000000 0.007549 0.000000
# 3 -0.001090 -0.003089 0.016350 0.000000 -0.001321 0.000000
# 4 0.000000 0.000000 0.000000 0.039228 0.000000 0.010990
# 5 0.004858 0.007549 -0.001321 0.000000 0.047589 0.000000
# 6 0.000000 0.000000 0.000000 0.010990 0.000000 0.033524
#
#
# Mechanical properties :
#
#
# Convention : Reuss Voigt Hill
#
# Bulk Modulus (GPa) = 45.72962 65.99798 55.86380
# Shear Modulus (GPa) = 29.23458 37.14267 33.18863
#
# Velocity S-wave (km/s) = 3.50781 3.95388 3.73750
# Velocity P-wave (km/s) = 5.97107 6.97298 6.49138
#
# Compressibility (1/GPa) = 0.02186767
#
# Stress axis : x y z
#
# Youngs Moduli (GPa) = 116.23283 130.20214 61.16318
#
# Poissons Ratio (x) = 0.15676 0.06668
# Poissons Ratio (y) = 0.13994 0.18892
# Poissons Ratio (z) = 0.12672 0.40216
#
# Static dielectric constant tensor:
#      x y z
#    x 1.974990 0.000000 0.031480 
#    y 0.000000 1.947130 0.000000 
#    z 0.031480 0.000000 1.923970 
# 
# From -- ./inp_files/39225.got.cif
#   From: 2010.05.17/outbox.cif.g08.bks.cpg/sg12_20_cif.got.tgz:39225.got - 2010.06.03 13:09:07.
