data_PCOD9223073
_publ_section_title
;
Structure prediction by ZEFSAII (Michael W. Deem and Ramdas Pophale) SiO2 
 PCOD9223073
Probable space group: C 2/M
;
_chemical_formula_sum "Si O2"
_cell_formula_units_Z 40
_cell_length_a 5.326904
_cell_length_b 20.233651
_cell_length_c 18.781076
_cell_angle_alpha 90.000000
_cell_angle_beta 76.649272
_cell_angle_gamma 90.000000
_cell_volume 1969.568966
_symmetry_space_group_name_H-M "C 2/M"
_symmetry_group_IT_number 12
_symmetry_cell_setting 'monoclinic'
loop_
_space_group_symop_operation_xyz
x,y,z
-x,y,-z
-x,-y,-z
x,-y,z
1/2+x,1/2+y,z
1/2-x,1/2+y,-z
1/2-x,1/2-y,-z
1/2+x,1/2-y,z
loop_
_atom_site_type_symbol
_atom_site_label
_atom_site_fract_x
_atom_site_fract_y
_atom_site_fract_z
Si Si1 0.106259 0.419173 0.211415
Si Si2 0.285155 0.919433 0.957358
Si Si3 0.044713 0.921656 0.292379
Si Si4 0.085943 0.427921 0.413072
Si Si5 0.471751 0.217120 0.588409
O O1 0.111799 0.500000 0.211120
O O2 0.829296 0.395889 0.258855
O O3 0.150223 0.398511 0.127191
O O4 0.336211 0.396848 0.248299
O O5 0.286933 0.000000 0.957266
O O6 0.500000 0.898006 0.000000
O O7 0.000000 0.898722 0.000000
O O8 0.891907 0.918175 0.377757
O O9 0.069174 0.000000 0.277698
O O10 0.017048 0.500000 0.384175
O O11 0.000000 0.432651 0.500000
O O12 0.968312 0.358696 0.396973
O O13 0.500000 0.223548 0.500000
O O14 0.674714 0.262263 0.616650
#
# Coordination Sequence:
#
# PCOD9223073 Si02
#       5
#     8   8   8   8   8
#     4   9  16  26  38  54  80 112 146 185 230 280
#     4   9  15  22  34  52  73 102 144 186 217 258
#     4   9  17  28  41  58  83 115 149 189 238 283
#     4   9  18  33  52  74  98 127 170 218 252 285
#     4   9  18  33  51  70  94 124 158 200 253 306
#
# _framework density 20.309014000000001
#
# number of rings (size 3 to 8) (size 9 to 14) (size 15 to 20)
#    0.000    3.000    0.000    1.200    0.000    6.400 
#    0.000    6.000    0.000   16.800    0.000    0.000 
#    0.000    0.000    0.000    0.000    0.000   70.000 
#
# Total GULP energy -111355.944779 kJ/mol
# GULP energy per Si atom -5567.797239 kJ/mol
# Density = 2.026279 g / cm^3
# Si number density = 20.309014 Si / 1000 Ang^3
#
#
#
# Elastic Constant Matrix: (Units=GPa)
#
#
# Indices 1 2 3 4 5 6 
#
# 1 161.1438 18.8412 76.4082 0.0000 -10.6241 0.0000
# 2 18.8412 67.0396 3.9006 0.0000 9.1693 0.0000
# 3 76.4082 3.9006 150.8629 0.0000 -13.3516 0.0000
# 4 0.0000 0.0000 0.0000 1.9612 0.0000 -0.6605
# 5 -10.6241 9.1693 -13.3516 0.0000 22.8731 0.0000
# 6 0.0000 0.0000 0.0000 -0.6605 0.0000 6.3634
#
#
#
# Elastic Compliance Matrix: (Units=1/GPa)
#
#
# Indices 1 2 3 4 5 6 
#
# 1 0.008601 -0.002543 -0.004056 0.000000 0.002647 0.000000
# 2 -0.002543 0.016684 0.000169 0.000000 -0.007771 0.000000
# 3 -0.004056 0.000169 0.008969 0.000000 0.003284 0.000000
# 4 0.000000 0.000000 0.000000 0.528357 0.000000 0.054839
# 5 0.002647 -0.007771 0.003284 0.000000 0.049981 0.000000
# 6 0.000000 0.000000 0.000000 0.054839 0.000000 0.162840
#
#
# Mechanical properties :
#
#
# Convention : Reuss Voigt Hill
#
# Bulk Modulus (GPa) = 46.74309 64.14959 55.44634
# Shear Modulus (GPa) = 6.28596 24.89929 15.59262
#
# Velocity S-wave (km/s) = 1.76121 3.50526 2.77387
# Velocity P-wave (km/s) = 5.21553 6.93093 6.13349
#
# Compressibility (1/GPa) = 0.02139354
#
# Stress axis : x y z
#
# Youngs Moduli (GPa) = 116.26935 59.93626 111.49435
#
# Poissons Ratio (x) = 0.15243 0.45223
# Poissons Ratio (y) = 0.29570 -0.01884
# Poissons Ratio (z) = 0.47159 -0.01013
#
# Static dielectric constant tensor:
#      x y z
#    x 1.751370 0.000000 -0.007920 
#    y 0.000000 1.718450 0.000000 
#    z -0.007920 0.000000 1.741730 
# 
# From -- ./inp_files/252794.got.cif
#   From: 2010.05.17/outbox.cif.g08.bks.cpg/sg12_127_cif.got.tgz:252794.got - 2010.06.03 13:09:07.
