data_PCOD9223110
_publ_section_title
;
Structure prediction by ZEFSAII (Michael W. Deem and Ramdas Pophale) SiO2 
 PCOD9223110
Probable space group: C 2/M
;
_chemical_formula_sum "Si O2"
_cell_formula_units_Z 48
_cell_length_a 26.576596
_cell_length_b 13.807569
_cell_length_c 9.525453
_cell_angle_alpha 90.000000
_cell_angle_beta 148.457244
_cell_angle_gamma 90.000000
_cell_volume 1828.587442
_symmetry_space_group_name_H-M "C 2/M"
_symmetry_group_IT_number 12
_symmetry_cell_setting 'monoclinic'
loop_
_space_group_symop_operation_xyz
x,y,z
-x,y,-z
-x,-y,-z
x,-y,z
1/2+x,1/2+y,z
1/2-x,1/2+y,-z
1/2-x,1/2-y,-z
1/2+x,1/2-y,z
loop_
_atom_site_type_symbol
_atom_site_label
_atom_site_fract_x
_atom_site_fract_y
_atom_site_fract_z
Si Si1 0.048813 0.113307 0.944541
Si Si2 0.656800 0.767901 0.372650
Si Si3 0.297741 0.110466 0.033413
Si Si4 0.399479 0.109951 0.004698
Si Si5 0.726302 0.389456 0.149340
Si Si6 0.948391 0.237746 0.510434
O O1 0.091861 0.175403 0.176430
O O2 0.132763 0.123122 0.023973
O O3 0.038258 0.000000 0.948195
O O4 0.953556 0.159874 0.647620
O O5 0.750000 0.750000 0.500000
O O6 0.611177 0.858519 0.180639
O O7 0.694671 0.810876 0.609824
O O8 0.212160 0.116213 0.945974
O O9 0.364542 0.196030 0.248233
O O10 0.335252 0.000000 0.143414
O O11 0.303541 0.120409 0.877427
O O12 0.430048 0.000000 0.087201
O O13 0.477924 0.180599 0.255605
O O14 0.759933 0.500000 0.256771
O O15 0.000000 0.189749 0.500000
#
# Coordination Sequence:
#
# PCOD9223110 Si02
#       6
#     8   8   8   8   8   8
#     4   9  18  32  49  68  93 129 170 203 232 277
#     4   9  17  30  47  70  96 128 164 196 236 286
#     4   9  17  30  51  78 103 123 149 197 253 293
#     4   9  16  28  47  70  97 127 158 191 235 294
#     4   9  17  31  52  77 101 122 152 201 252 288
#     4   9  17  30  47  71  98 130 165 193 234 289
#
# _framework density 26.249768
#
# number of rings (size 3 to 8) (size 9 to 14) (size 15 to 20)
#    0.000    3.000    0.000    1.000    0.000    3.000 
#    0.000   16.667    0.000   11.000    0.000    0.000 
#    0.000    0.000    0.000    0.000    0.000    0.000 
#
# Total GULP energy -133850.233189 kJ/mol
# GULP energy per Si atom -5577.093050 kJ/mol
# Density = 2.619002 g / cm^3
# Si number density = 26.249768 Si / 1000 Ang^3
#
#
#
# Elastic Constant Matrix: (Units=GPa)
#
#
# Indices 1 2 3 4 5 6 
#
# 1 80.0989 18.1532 -3.6657 0.0000 -14.3210 0.0000
# 2 18.1532 192.3527 53.8382 0.0000 -8.7928 0.0000
# 3 -3.6657 53.8382 62.3606 0.0000 -16.5275 0.0000
# 4 0.0000 0.0000 0.0000 -5.3001 0.0000 3.4257
# 5 -14.3210 -8.7928 -16.5275 0.0000 41.7531 0.0000
# 6 0.0000 0.0000 0.0000 3.4257 0.0000 -1.5415
#
#
#
# Elastic Compliance Matrix: (Units=1/GPa)
#
#
# Indices 1 2 3 4 5 6 
#
# 1 0.014327 -0.002327 0.004495 0.000000 0.006203 0.000000
# 2 -0.002327 0.007271 -0.006949 0.000000 -0.002017 0.000000
# 3 0.004495 -0.006949 0.024936 0.000000 0.009949 0.000000
# 4 0.000000 0.000000 0.000000 0.432410 0.000000 0.960932
# 5 0.006203 -0.002017 0.009949 0.000000 0.029591 0.000000
# 6 0.000000 0.000000 0.000000 0.960932 0.000000 1.486740
#
#
# Mechanical properties :
#
#
# Convention : Reuss Voigt Hill
#
# Bulk Modulus (GPa) = 27.04713 52.38485 39.71599
# Shear Modulus (GPa) = 2.47873 24.74807 13.61340
#
# Velocity S-wave (km/s) = 0.97280 3.07382 2.27977
# Velocity P-wave (km/s) = 3.40410 5.70942 4.70029
#
# Compressibility (1/GPa) = 0.03697250
#
# Stress axis : x y z
#
# Youngs Moduli (GPa) = 69.80009 137.53151 40.10273
#
# Poissons Ratio (x) = 0.31998 -0.18025
# Poissons Ratio (y) = 0.16240 0.27867
# Poissons Ratio (z) = -0.31374 0.95568
#
# Static dielectric constant tensor:
#      x y z
#    x 2.202250 0.000000 0.022500 
#    y 0.000000 1.997380 0.000000 
#    z 0.022500 0.000000 2.203340 
# 
# From -- ./inp_files/85700.got.cif
#   From: 2010.05.17/outbox.cif.g08.bks.cpg/sg12_43_cif.got.tgz:85700.got - 2010.06.03 13:09:07.
