data_PCOD9223927
_publ_section_title
;
Structure prediction by ZEFSAII (Michael W. Deem and Ramdas Pophale) SiO2 
 PCOD9223927
Probable space group: C 2/M
;
_chemical_formula_sum "Si O2"
_cell_formula_units_Z 32
_cell_length_a 30.000000
_cell_length_b 9.000000
_cell_length_c 15.000000
_cell_angle_alpha 90.000000
_cell_angle_beta 130.000000
_cell_angle_gamma 90.000000
_cell_volume 3102.479995
_symmetry_space_group_name_H-M "C 2/M"
_symmetry_group_IT_number 12
_symmetry_cell_setting 'monoclinic'
loop_
_space_group_symop_operation_xyz
x,y,z
-x,y,-z
-x,-y,-z
x,-y,z
1/2+x,1/2+y,z
1/2-x,1/2+y,-z
1/2-x,1/2-y,-z
1/2+x,1/2-y,z
loop_
_atom_site_type_symbol
_atom_site_label
_atom_site_fract_x
_atom_site_fract_y
_atom_site_fract_z
Si Si1 0.561924 0.328527 0.737238
Si Si2 0.131955 0.825885 0.004842
Si Si3 0.383797 0.825864 0.354676
Si Si4 0.894025 0.675327 0.709327
Si Si5 0.227052 0.321516 0.379454
Si Si6 0.244479 0.679240 0.768084
Si Si7 0.011431 0.832621 0.912105
Si Si8 0.927946 0.825616 0.586414
O O1 0.560164 0.500000 0.702155
O O2 0.610860 0.319294 0.876164
O O3 0.580194 0.214781 0.685746
O O4 0.496972 0.293938 0.688449
O O5 0.075048 0.762308 0.980914
O O6 0.133818 0.000000 0.033840
O O7 0.195973 0.767311 0.107794
O O8 0.315486 0.785772 0.258567
O O9 0.411240 0.730597 0.468409
O O10 0.387879 0.000000 0.380973
O O11 0.894281 0.500000 0.703113
O O12 0.842105 0.717149 0.709028
O O13 0.957036 0.735761 0.814004
O O14 0.885745 0.744651 0.601414
O O15 0.233812 0.500000 0.389799
O O16 0.250000 0.250000 0.500000
O O17 0.255910 0.252077 0.329677
O O18 0.246326 0.500000 0.761828
O O19 0.010368 0.000000 0.868318
O O20 0.000000 0.853508 0.000000
O O21 0.919404 0.000000 0.584519
#
# Coordination Sequence:
#
# PCOD9223927 Si02
#       8
#     8   8   8   8   8   8   8   8
#     4  10  21  39  62  87 116 153 201 249 294 349
#     4   9  18  37  61  86 117 154 199 247 286 340
#     4  11  24  39  58  89 122 153 195 246 307 361
#     4  11  23  37  56  86 123 154 185 238 304 353
#     4  11  24  40  59  86 120 158 201 244 290 351
#     4  10  22  41  63  86 118 159 200 246 296 348
#     4  10  19  34  59  87 113 151 201 240 279 342
#     4  11  22  39  63  89 117 154 203 247 291 354
#
# _framework density 10.314329000000001
#
# number of rings (size 3 to 8) (size 9 to 14) (size 15 to 20)
#    0.000    1.625    1.250    3.375    0.000   10.250 
#    0.000    1.250    0.000    0.000    0.000    0.000 
#    0.000    0.000    0.000    0.000    0.000    0.000 
#
# Total GULP energy -178497.692023 kJ/mol
# GULP energy per Si atom -5578.052876 kJ/mol
# Density = 1.029085 g / cm^3
# Si number density = 10.314329 Si / 1000 Ang^3
#
#
#
# Elastic Constant Matrix: (Units=GPa)
#
#
# Indices 1 2 3 4 5 6 
#
# 1 55.7584 18.7068 -7.4000 0.0000 7.0980 0.0000
# 2 18.7068 11.2529 11.1377 0.0000 15.7996 0.0000
# 3 -7.4000 11.1377 49.2617 0.0000 19.1271 0.0000
# 4 0.0000 0.0000 0.0000 10.5010 0.0000 -9.8782
# 5 7.0980 15.7996 19.1271 0.0000 18.2115 0.0000
# 6 0.0000 0.0000 0.0000 -9.8782 0.0000 27.1126
#
#
#
# Elastic Compliance Matrix: (Units=1/GPa)
#
#
# Indices 1 2 3 4 5 6 
#
# 1 0.013717 0.038570 0.014199 0.000000 -0.053721 0.000000
# 2 0.038570 -0.179332 -0.013901 0.000000 0.155149 0.000000
# 3 0.014199 -0.013901 0.038908 0.000000 -0.034338 0.000000
# 4 0.000000 0.000000 0.000000 0.144887 0.000000 0.052788
# 5 -0.053721 0.155149 -0.034338 0.000000 -0.022689 0.000000
# 6 0.000000 0.000000 0.000000 0.052788 0.000000 0.056116
#
#
# Mechanical properties :
#
#
# Convention : Reuss Voigt Hill
#
# Bulk Modulus (GPa) = -20.42045 17.90690 -1.25677
# Shear Modulus (GPa) = -117.77853 17.42025 -50.17914
#
# Velocity S-wave (km/s) = -7.56430 2.90913 -4.93739
# Velocity P-wave (km/s) = 9.28504 4.47029 5.75450
#
# Compressibility (1/GPa) = -0.04897053
#
# Stress axis : x y z
#
# Youngs Moduli (GPa) = 72.90077 -5.57624 25.70154
#
# Poissons Ratio (x) = 0.21508 -0.36493
# Poissons Ratio (y) = -2.81180 0.35727
# Poissons Ratio (z) = -1.03509 -0.07751
#
# Static dielectric constant tensor:
#      x y z
#    x 1.801930 0.000000 0.004530 
#    y 0.000000 1.720490 0.000000 
#    z 0.004530 0.000000 1.823450 
# 
# From -- ./inp_files/250020.got.cif
#   From: 2010.05.17/outbox.ucp.g08.bks.cvg/sg12_126_cif.got.tgz:250020.got - 2010.06.11 11:47:21.
