data_PCOD9223582
_publ_section_title
;
Structure prediction by ZEFSAII (Michael W. Deem and Ramdas Pophale) SiO2 
 PCOD9223582
Probable space group: C 2/M
;
_chemical_formula_sum "Si O2"
_cell_formula_units_Z 24
_cell_length_a 24.000000
_cell_length_b 9.000000
_cell_length_c 21.000000
_cell_angle_alpha 90.000000
_cell_angle_beta 40.000000
_cell_angle_gamma 90.000000
_cell_volume 2915.684598
_symmetry_space_group_name_H-M "C 2/M"
_symmetry_group_IT_number 12
_symmetry_cell_setting 'monoclinic'
loop_
_space_group_symop_operation_xyz
x,y,z
-x,y,-z
-x,-y,-z
x,-y,z
1/2+x,1/2+y,z
1/2-x,1/2+y,-z
1/2-x,1/2-y,-z
1/2+x,1/2-y,z
loop_
_atom_site_type_symbol
_atom_site_label
_atom_site_fract_x
_atom_site_fract_y
_atom_site_fract_z
Si Si1 0.084282 0.177979 0.237250
Si Si2 0.230832 0.171213 0.773064
Si Si3 0.727961 0.673316 0.927303
Si Si4 0.943068 0.321751 0.110749
Si Si5 0.572392 0.820935 0.383380
Si Si6 0.557137 0.821366 0.133576
O O1 0.182099 0.240396 0.142679
O O2 0.054831 0.240221 0.331714
O O3 0.033824 0.247450 0.221420
O O4 0.083068 0.000000 0.237198
O O5 0.212260 0.175523 0.865107
O O6 0.154157 0.261050 0.807581
O O7 0.330518 0.223406 0.678831
O O8 0.227089 0.000000 0.755366
O O9 0.735443 0.500000 0.940549
O O10 0.649440 0.754843 0.030656
O O11 0.940137 0.500000 0.108898
O O12 0.991013 0.283494 0.134490
O O13 0.000000 0.268029 0.000000
O O14 0.500000 0.791271 0.500000
O O15 0.575680 0.000000 0.369025
O O16 0.562495 0.000000 0.134837
#
# Coordination Sequence:
#
# PCOD9223582 Si02
#       6
#     8   8   8   8   8   8
#     4  11  22  34  50  75 105 134 171 215 260 308
#     4   9  18  31  51  78 104 134 171 211 254 302
#     4  10  19  32  49  72 103 139 176 211 256 306
#     4  10  20  33  49  72 104 143 180 212 251 297
#     4   9  19  38  61  82 104 131 166 212 267 319
#     4  11  21  33  49  70 103 143 178 211 255 306
#
# _framework density 8.2313430000000007
#
# number of rings (size 3 to 8) (size 9 to 14) (size 15 to 20)
#    0.000    2.000    1.667    4.000    0.000    4.667 
#    0.000    0.000    0.000    1.000    0.000    0.000 
#    0.000    0.000    0.000    0.000    0.000    0.000 
#
# Total GULP energy -133914.395249 kJ/mol
# GULP energy per Si atom -5579.766469 kJ/mol
# Density = 0.821261 g / cm^3
# Si number density = 8.231343 Si / 1000 Ang^3
#
#
#
# Elastic Constant Matrix: (Units=GPa)
#
#
# Indices 1 2 3 4 5 6 
#
# 1 126.7067 58.5568 61.7459 0.0000 15.1648 0.0000
# 2 58.5568 78.6800 41.5517 -0.0002 10.9102 0.0004
# 3 61.7459 41.5517 104.6167 0.0000 6.4915 0.0001
# 4 0.0000 -0.0002 0.0000 22.2421 0.0001 1.0375
# 5 15.1648 10.9102 6.4915 0.0001 11.2102 -0.0001
# 6 0.0000 0.0004 0.0001 1.0375 -0.0001 27.0444
#
#
#
# Elastic Compliance Matrix: (Units=1/GPa)
#
#
# Indices 1 2 3 4 5 6 
#
# 1 0.014947 -0.006782 -0.005480 0.000000 -0.010447 0.000000
# 2 -0.006782 0.021013 -0.003780 0.000000 -0.009088 0.000000
# 3 -0.005480 -0.003780 0.014113 0.000000 0.002919 0.000000
# 4 0.000000 0.000000 0.000000 0.045040 0.000000 -0.001728
# 5 -0.010447 -0.009088 0.002919 0.000000 0.110491 0.000000
# 6 0.000000 0.000000 0.000000 -0.001728 0.000000 0.037042
#
#
# Mechanical properties :
#
#
# Convention : Reuss Voigt Hill
#
# Bulk Modulus (GPa) = 55.58401 70.41247 62.99824
# Shear Modulus (GPa) = 17.81091 21.97594 19.89342
#
# Velocity S-wave (km/s) = 3.29279 3.65758 3.47997
# Velocity P-wave (km/s) = 6.94935 7.79109 7.38223
#
# Compressibility (1/GPa) = 0.01799079
#
# Stress axis : x y z
#
# Youngs Moduli (GPa) = 66.90201 47.58955 70.85547
#
# Poissons Ratio (x) = 0.32273 0.38831
# Poissons Ratio (y) = 0.45370 0.26780
# Poissons Ratio (z) = 0.36664 0.17987
#
# Static dielectric constant tensor:
#      x y z
#    x 1.578180 0.000000 0.011640 
#    y 0.000000 1.552570 0.000000 
#    z 0.011640 0.000000 1.534910 
# 
# From -- ./inp_files/323496.got.cif
#   From: 2010.05.17/outbox.ucp.g08.bks.cvg/sg12_162_cif.got.tgz:323496.got - 2010.06.11 11:47:21.
