data_PCOD9223520
_publ_section_title
;
Structure prediction by ZEFSAII (Michael W. Deem and Ramdas Pophale) SiO2 
 PCOD9223520
Probable space group: C 2/M
;
_chemical_formula_sum "Si O2"
_cell_formula_units_Z 32
_cell_length_a 30.000000
_cell_length_b 9.000000
_cell_length_c 15.000000
_cell_angle_alpha 90.000000
_cell_angle_beta 120.000000
_cell_angle_gamma 90.000000
_cell_volume 3507.402885
_symmetry_space_group_name_H-M "C 2/M"
_symmetry_group_IT_number 12
_symmetry_cell_setting 'monoclinic'
loop_
_space_group_symop_operation_xyz
x,y,z
-x,y,-z
-x,-y,-z
x,-y,z
1/2+x,1/2+y,z
1/2-x,1/2+y,-z
1/2-x,1/2-y,-z
1/2+x,1/2-y,z
loop_
_atom_site_type_symbol
_atom_site_label
_atom_site_fract_x
_atom_site_fract_y
_atom_site_fract_z
Si Si1 0.930810 0.824499 0.347056
Si Si2 0.357781 0.823161 0.131798
Si Si3 0.344928 0.826113 0.928048
Si Si4 0.277256 0.671706 0.161452
Si Si5 0.169686 0.173384 0.266420
Si Si6 0.632815 0.176344 0.407993
Si Si7 0.791472 0.675948 0.357666
Si Si8 0.448053 0.324836 0.562151
O O1 0.896888 0.737231 0.243540
O O2 0.925798 0.773256 0.444299
O O3 0.990809 0.808768 0.382554
O O4 0.918549 0.000000 0.331869
O O5 0.302293 0.766005 0.108200
O O6 0.356957 0.000000 0.129442
O O7 0.371106 0.772369 0.045159
O O8 0.283875 0.815037 0.888442
O O9 0.354179 0.733666 0.848954
O O10 0.356353 0.000000 0.923656
O O11 0.289995 0.500000 0.160429
O O12 0.300738 0.731217 0.277724
O O13 0.148671 0.259389 0.329722
O O14 0.231430 0.194774 0.322180
O O15 0.159676 0.000000 0.266347
O O16 0.673556 0.224259 0.524934
O O17 0.578095 0.235428 0.385648
O O18 0.633691 0.000000 0.405743
O O19 0.800035 0.500000 0.348391
O O20 0.436672 0.500000 0.559819
#
# Coordination Sequence:
#
# PCOD9223520 Si02
#       8
#     8   8   8   8   8   8   8   8
#     4   9  19  36  56  77 102 131 163 202 247 296
#     4  11  21  32  50  75 103 133 166 206 250 297
#     4   9  20  36  50  69 100 136 171 208 249 291
#     4  10  19  31  49  72 101 137 172 205 243 290
#     4  10  20  34  52  72  98 134 173 211 247 287
#     4  11  21  32  50  75 103 134 167 204 248 298
#     4   9  19  33  48  72 104 135 168 205 246 293
#     4   9  19  36  55  76 103 132 163 201 246 296
#
# _framework density 9.1235599999999994
#
# number of rings (size 3 to 8) (size 9 to 14) (size 15 to 20)
#    0.000    2.250    0.000    3.750    0.000    6.000 
#    0.000    1.250    0.000    0.750    0.000    5.250 
#    0.000    0.000    0.000    0.000    0.000    0.000 
#
# Total GULP energy -178583.816113 kJ/mol
# GULP energy per Si atom -5580.744254 kJ/mol
# Density = 0.910279 g / cm^3
# Si number density = 9.123560 Si / 1000 Ang^3
#
#
#
# Elastic Constant Matrix: (Units=GPa)
#
#
# Indices 1 2 3 4 5 6 
#
# 1 8.7934 27.0624 21.0912 0.0000 -5.1679 0.0000
# 2 27.0624 32.8726 30.5243 0.0000 -9.7319 0.0000
# 3 21.0912 30.5243 73.0447 0.0000 -12.1160 0.0000
# 4 0.0000 0.0000 0.0000 18.2231 0.0000 -7.3833
# 5 -5.1679 -9.7319 -12.1160 0.0000 16.6979 0.0000
# 6 0.0000 0.0000 0.0000 -7.3833 0.0000 23.6060
#
#
#
# Elastic Compliance Matrix: (Units=1/GPa)
#
#
# Indices 1 2 3 4 5 6 
#
# 1 -0.069762 0.066337 -0.005396 0.000000 0.013157 0.000000
# 2 0.066337 -0.009412 -0.014467 0.000000 0.004549 0.000000
# 3 -0.005396 -0.014467 0.022302 0.000000 0.006081 0.000000
# 4 0.000000 0.000000 0.000000 0.062838 0.000000 0.019654
# 5 0.013157 0.004549 0.006081 0.000000 0.071023 0.000000
# 6 0.000000 0.000000 0.000000 0.019654 0.000000 0.048509
#
#
# Mechanical properties :
#
#
# Convention : Reuss Voigt Hill
#
# Bulk Modulus (GPa) = 27.71800 30.22962 28.97381
# Shear Modulus (GPa) = 112.16721 14.10758 63.13740
#
# Velocity S-wave (km/s) = 7.84886 2.78356 5.88867
# Velocity P-wave (km/s) = 9.86726 5.18977 7.88342
#
# Compressibility (1/GPa) = 0.03607763
#
# Stress axis : x y z
#
# Youngs Moduli (GPa) = -14.33439 -106.25287 44.83832
#
# Poissons Ratio (x) = 7.04850 0.24193
# Poissons Ratio (y) = 0.95090 0.64867
# Poissons Ratio (z) = -0.07734 -1.53716
#
# Static dielectric constant tensor:
#      x y z
#    x 1.625620 0.000000 0.011840 
#    y 0.000000 1.602330 0.000000 
#    z 0.011840 0.000000 1.639050 
# 
# From -- ./inp_files/249256.got.cif
#   From: 2010.05.17/outbox.ucp.g08.bks.cvg/sg12_125_cif.got.tgz:249256.got - 2010.06.11 11:47:21.
