data_PCOD9223350
_publ_section_title
;
Structure prediction by ZEFSAII (Michael W. Deem and Ramdas Pophale) SiO2 
 PCOD9223350
Probable space group: C 2/M
;
_chemical_formula_sum "Si O2"
_cell_formula_units_Z 24
_cell_length_a 18.000000
_cell_length_b 21.000000
_cell_length_c 21.000000
_cell_angle_alpha 90.000000
_cell_angle_beta 160.000000
_cell_angle_gamma 90.000000
_cell_volume 2714.955898
_symmetry_space_group_name_H-M "C 2/M"
_symmetry_group_IT_number 12
_symmetry_cell_setting 'monoclinic'
loop_
_space_group_symop_operation_xyz
x,y,z
-x,y,-z
-x,-y,-z
x,-y,z
1/2+x,1/2+y,z
1/2-x,1/2+y,-z
1/2-x,1/2-y,-z
1/2+x,1/2-y,z
loop_
_atom_site_type_symbol
_atom_site_label
_atom_site_fract_x
_atom_site_fract_y
_atom_site_fract_z
Si Si1 0.893497 0.868330 0.732708
Si Si2 0.150574 0.324176 0.866942
Si Si3 0.735890 0.249882 0.168168
Si Si4 0.289167 0.610245 0.791566
Si Si5 0.951024 0.430279 0.614736
Si Si6 0.722289 0.263402 0.553619
O O1 0.845886 0.896334 0.763793
O O2 0.796578 0.913151 0.600427
O O3 0.755685 0.803507 0.615363
O O4 0.144204 0.849515 0.928923
O O5 0.248258 0.273248 0.893530
O O6 0.057081 0.379230 0.746460
O O7 0.944814 0.302635 0.743568
O O8 0.740057 0.314983 0.213650
O O9 0.973170 0.215621 0.367355
O O10 0.500000 0.221108 0.000000
O O11 0.080992 0.575751 0.652696
O O12 0.500000 0.587662 0.000000
O O13 0.975721 0.500000 0.661266
O O14 0.750000 0.250000 0.500000
#
# Coordination Sequence:
#
# PCOD9223350 Si02
#       6
#     8   8   8   8   8   8
#     4  12  19  32  55  68  96 139 175 207 262 299
#     4  10  20  36  49  71  99 134 175 216 252 301
#     4   9  15  30  48  70  99 126 160 203 257 295
#     4  10  18  33  47  69 101 134 170 215 248 286
#     4  11  23  35  49  70 102 140 183 218 245 284
#     4  10  19  32  51  73  97 130 172 216 257 312
#
# _framework density 8.8399230000000006
#
# number of rings (size 3 to 8) (size 9 to 14) (size 15 to 20)
#    0.000    1.667   10.000    1.000    0.000    2.333 
#    0.000    0.000    0.000    0.000    0.000    0.000 
#    0.000    0.667    0.000    4.500    0.667    1.167 
#
# Total GULP energy -133617.489448 kJ/mol
# GULP energy per Si atom -5567.395394 kJ/mol
# Density = 0.881980 g / cm^3
# Si number density = 8.839923 Si / 1000 Ang^3
#
#
#
# Elastic Constant Matrix: (Units=GPa)
#
#
# Indices 1 2 3 4 5 6 
#
# 1 27.9794 10.3697 25.5151 0.0375 16.3207 0.0184
# 2 10.3697 35.6575 15.6463 0.1974 0.9503 0.0744
# 3 25.5151 15.6463 136.3867 0.1882 23.9074 0.0517
# 4 0.0375 0.1974 0.1882 -1.5941 0.0797 0.9671
# 5 16.3207 0.9503 23.9074 0.0797 38.4413 0.0123
# 6 0.0184 0.0744 0.0517 0.9671 0.0123 6.3142
#
#
#
# Elastic Compliance Matrix: (Units=1/GPa)
#
#
# Indices 1 2 3 4 5 6 
#
# 1 0.058193 -0.013885 -0.005636 -0.001840 -0.020855 0.000362
# 2 -0.013885 0.032913 -0.002325 0.003288 0.006521 -0.000844
# 3 -0.005636 -0.002325 0.009229 0.000448 -0.003291 -0.000094
# 4 -0.001840 0.003288 0.000448 -0.573547 0.001583 0.087802
# 5 -0.020855 0.006521 -0.003291 0.001583 0.036750 -0.000303
# 6 0.000362 -0.000844 -0.000094 0.087802 -0.000303 0.144935
#
#
# Mechanical properties :
#
#
# Convention : Reuss Voigt Hill
#
# Bulk Modulus (GPa) = 17.65458 33.67621 25.66539
# Shear Modulus (GPa) = -21.83853 18.53179 -1.65337
#
# Velocity S-wave (km/s) = -3.51838 3.24108 -0.96809
# Velocity P-wave (km/s) = 2.54912 5.75285 3.64673
#
# Compressibility (1/GPa) = 0.05664251
#
# Stress axis : x y z
#
# Youngs Moduli (GPa) = 17.18422 30.38341 108.34887
#
# Poissons Ratio (x) = 0.42188 0.61063
# Poissons Ratio (y) = 0.23860 0.25196
# Poissons Ratio (z) = 0.09685 0.07066
#
# Static dielectric constant tensor:
#      x y z
#    x 1.602900 -0.000020 -0.002650 
#    y -0.000020 1.636450 -0.000030 
#    z -0.002650 -0.000030 1.716370 
# 
# From -- ./inp_files/317936.got.cif
#   From: 2010.05.17/outbox.ucp.g08.bks.cvg/sg12_159_cif.got.tgz:317936.got - 2010.06.11 11:47:21.
