data_PCOD9223041
_publ_section_title
;
Structure prediction by ZEFSAII (Michael W. Deem and Ramdas Pophale) SiO2 
 PCOD9223041
Probable space group: C 2/M
;
_chemical_formula_sum "Si O2"
_cell_formula_units_Z 56
_cell_length_a 14.769061
_cell_length_b 7.551858
_cell_length_c 25.531945
_cell_angle_alpha 90.000000
_cell_angle_beta 105.194018
_cell_angle_gamma 90.000000
_cell_volume 2748.132404
_symmetry_space_group_name_H-M "C 2/M"
_symmetry_group_IT_number 12
_symmetry_cell_setting 'monoclinic'
loop_
_space_group_symop_operation_xyz
x,y,z
-x,y,-z
-x,-y,-z
x,-y,z
1/2+x,1/2+y,z
1/2-x,1/2+y,-z
1/2-x,1/2-y,-z
1/2+x,1/2-y,z
loop_
_atom_site_type_symbol
_atom_site_label
_atom_site_fract_x
_atom_site_fract_y
_atom_site_fract_z
Si Si1 0.322094 0.288244 0.349583
Si Si2 0.358910 0.785111 0.068860
Si Si3 0.965092 0.711925 0.648228
Si Si4 0.781648 0.712180 0.563384
Si Si5 0.552461 0.783355 0.141095
Si Si6 0.144513 0.294808 0.048681
Si Si7 0.361542 0.216571 0.736886
O O1 0.313501 0.500000 0.349493
O O2 0.428588 0.251158 0.350640
O O3 0.289623 0.222700 0.402124
O O4 0.242828 0.226164 0.296343
O O5 0.443110 0.735480 0.119886
O O6 0.257083 0.716144 0.068881
O O7 0.352579 0.000000 0.066269
O O8 0.380606 0.722374 0.012638
O O9 0.957860 0.500000 0.648196
O O10 0.885827 0.776838 0.595238
O O11 0.931514 0.772552 0.700662
O O12 0.783679 0.500000 0.567785
O O13 0.750000 0.750000 0.500000
O O14 0.600488 0.719131 0.094686
O O15 0.603420 0.722120 0.201339
O O16 0.557078 0.000000 0.142032
O O17 0.114691 0.500000 0.042816
O O18 0.361840 0.000000 0.738148
#
# Coordination Sequence:
#
# PCOD9223041 Si02
#       7
#     8   8   8   8   8   8   8
#     4   9  18  33  51  70  94 124 155 188 228 270
#     4   9  17  29  45  66  91 118 150 188 229 274
#     4   9  18  33  51  70  94 124 155 188 228 270
#     4   9  19  34  50  71  99 126 153 187 225 268
#     4   9  16  28  48  68  87 119 158 189 223 273
#     4   9  17  29  45  66  91 118 150 188 229 274
#     4   8  16  31  48  67  92 121 154 191 229 270
#
# _framework density 20.377475
#
# number of rings (size 3 to 8) (size 9 to 14) (size 15 to 20)
#    0.000    3.143    0.000    2.143    0.000    4.571 
#    0.000    5.714    0.000    5.143    0.000    0.000 
#    0.000    0.000    0.000    0.000    0.000    0.000 
#
# Total GULP energy -156124.791950 kJ/mol
# GULP energy per Si atom -5575.885427 kJ/mol
# Density = 2.033110 g / cm^3
# Si number density = 20.377475 Si / 1000 Ang^3
#
#
#
# Elastic Constant Matrix: (Units=GPa)
#
#
# Indices 1 2 3 4 5 6 
#
# 1 141.7351 -0.8785 75.3214 0.0000 15.6788 0.0000
# 2 -0.8785 46.5360 3.7818 0.0000 0.2520 0.0000
# 3 75.3214 3.7818 127.4535 0.0000 20.2517 0.0000
# 4 0.0000 0.0000 0.0000 8.5401 0.0000 2.7204
# 5 15.6788 0.2520 20.2517 0.0000 15.2501 0.0000
# 6 0.0000 0.0000 0.0000 2.7204 0.0000 23.7310
#
#
#
# Elastic Compliance Matrix: (Units=1/GPa)
#
#
# Indices 1 2 3 4 5 6 
#
# 1 0.010429 0.000675 -0.005676 0.000000 -0.003197 0.000000
# 2 0.000675 0.021589 -0.001106 0.000000 0.000418 0.000000
# 3 -0.005676 -0.001106 0.013058 0.000000 -0.011488 0.000000
# 4 0.000000 0.000000 0.000000 0.121533 0.000000 -0.013932
# 5 -0.003197 0.000418 -0.011488 0.000000 0.084109 0.000000
# 6 0.000000 0.000000 0.000000 -0.013932 0.000000 0.043736
#
#
# Mechanical properties :
#
#
# Convention : Reuss Voigt Hill
#
# Bulk Modulus (GPa) = 30.42826 52.46377 41.44602
# Shear Modulus (GPa) = 15.74200 25.33756 20.53978
#
# Velocity S-wave (km/s) = 2.78244 3.53003 3.17829
# Velocity P-wave (km/s) = 5.02865 6.51281 5.81825
#
# Compressibility (1/GPa) = 0.03286418
#
# Stress axis : x y z
#
# Youngs Moduli (GPa) = 95.88329 46.31966 76.58009
#
# Poissons Ratio (x) = -0.03129 0.43463
# Poissons Ratio (y) = -0.06476 0.08471
# Poissons Ratio (z) = 0.54419 0.05124
#
# Static dielectric constant tensor:
#      x y z
#    x 1.712280 0.000000 0.002340 
#    y 0.000000 1.797150 0.000000 
#    z 0.002340 0.000000 1.716120 
# 
# From -- ./inp_files/359442.got.cif
#   From: 2010.05.17/outbox.cif.g08.bks.cpg/sg12_180_cif.got.tgz:359442.got - 2010.06.03 13:09:07.
