data_PCOD9223409
_publ_section_title
;
Structure prediction by ZEFSAII (Michael W. Deem and Ramdas Pophale) SiO2 
 PCOD9223409
Probable space group: C 2/M
;
_chemical_formula_sum "Si O2"
_cell_formula_units_Z 18
_cell_length_a 9.000000
_cell_length_b 30.000000
_cell_length_c 9.000000
_cell_angle_alpha 90.000000
_cell_angle_beta 130.000000
_cell_angle_gamma 90.000000
_cell_volume 1861.487997
_symmetry_space_group_name_H-M "C 2/M"
_symmetry_group_IT_number 12
_symmetry_cell_setting 'monoclinic'
loop_
_space_group_symop_operation_xyz
x,y,z
-x,y,-z
-x,-y,-z
x,-y,z
1/2+x,1/2+y,z
1/2-x,1/2+y,-z
1/2-x,1/2-y,-z
1/2+x,1/2-y,z
loop_
_atom_site_type_symbol
_atom_site_label
_atom_site_fract_x
_atom_site_fract_y
_atom_site_fract_z
Si Si1 0.809700 0.121190 0.098073
Si Si2 0.146065 0.809355 0.347704
Si Si3 0.099128 0.050601 0.399865
Si Si4 0.500000 0.758615 0.500000
Si Si5 0.614349 0.879059 0.301826
O O1 0.713956 0.124558 0.202173
O O2 0.967559 0.160558 0.174675
O O3 0.948481 0.077511 0.198098
O O4 0.619469 0.120549 0.869533
O O5 0.303524 0.786571 0.340991
O O6 0.289168 0.839127 0.543105
O O7 0.050797 0.772092 0.392009
O O8 0.298052 0.077613 0.557823
O O9 0.000000 0.049739 0.500000
O O10 0.129662 0.000000 0.370363
#
# Coordination Sequence:
#
# PCOD9223409 Si02
#       5
#     8   8   8   4   8
#     4   9  16  28  46  66  94 127 155 188 234 278
#     4  10  18  35  47  69  92 125 153 198 232 280
#     4   8  14  24  40  66  98 127 155 187 225 274
#     4  10  20  32  54  66  92 120 160 196 240 270
#     4   9  16  28  46  66  94 127 155 188 234 278
#
# _framework density 9.6696840000000002
#
# number of rings (size 3 to 8) (size 9 to 14) (size 15 to 20)
#    0.000    2.889    2.222    1.333    0.000    0.889 
#    0.000   12.222    0.000    0.000    0.000   12.444 
#    0.000   14.222    0.000    0.000    0.000    0.000 
#
# Total GULP energy -100307.803364 kJ/mol
# GULP energy per Si atom -5572.655742 kJ/mol
# Density = 0.964767 g / cm^3
# Si number density = 9.669684 Si / 1000 Ang^3
#
#
#
# Elastic Constant Matrix: (Units=GPa)
#
#
# Indices 1 2 3 4 5 6 
#
# 1 78.0490 57.1619 42.7111 0.0000 44.3891 0.0000
# 2 57.1619 135.3931 60.3567 0.0000 36.8022 0.0000
# 3 42.7111 60.3567 129.4626 0.0000 61.5444 0.0000
# 4 0.0000 0.0000 0.0000 11.9736 0.0000 10.5569
# 5 44.3891 36.8022 61.5444 0.0000 44.9894 0.0000
# 6 0.0000 0.0000 0.0000 10.5569 0.0000 5.5837
#
#
#
# Elastic Compliance Matrix: (Units=1/GPa)
#
#
# Indices 1 2 3 4 5 6 
#
# 1 0.047389 -0.011418 0.021380 0.000000 -0.066663 0.000000
# 2 -0.011418 0.012453 -0.007297 0.000000 0.011061 0.000000
# 3 0.021380 -0.007297 0.032209 0.000000 -0.059187 0.000000
# 4 0.000000 0.000000 0.000000 -0.125222 0.000000 0.236753
# 5 -0.066663 0.011061 -0.059187 0.000000 0.159920 0.000000
# 6 0.000000 0.000000 0.000000 0.236753 0.000000 -0.268526
#
#
# Mechanical properties :
#
#
# Convention : Reuss Voigt Hill
#
# Bulk Modulus (GPa) = 10.26893 73.70714 41.98803
# Shear Modulus (GPa) = -43.61173 24.68767 -9.46203
#
# Velocity S-wave (km/s) = -4.75392 3.57676 -2.21433
# Velocity P-wave (km/s) = 4.98112 7.43323 3.90136
#
# Compressibility (1/GPa) = 0.09738109
#
# Stress axis : x y z
#
# Youngs Moduli (GPa) = 21.10212 80.30378 31.04697
#
# Poissons Ratio (x) = 0.91688 -0.66378
# Poissons Ratio (y) = 0.24094 0.22654
# Poissons Ratio (z) = -0.45116 0.58596
#
# Static dielectric constant tensor:
#      x y z
#    x 1.671190 0.000000 -0.011900 
#    y 0.000000 1.724960 0.000000 
#    z -0.011900 0.000000 1.655810 
# 
# From -- ./inp_files/41966.got.cif
#   From: 2010.05.17/outbox.ucp.g08.bks.cvg/sg12_21_cif.got.tgz:41966.got - 2010.06.11 11:47:21.
