data_PCOD9223856
_publ_section_title
;
Structure prediction by ZEFSAII (Michael W. Deem and Ramdas Pophale) SiO2 
 PCOD9223856
Probable space group: C 2/M
;
_chemical_formula_sum "Si O2"
_cell_formula_units_Z 32
_cell_length_a 15.000000
_cell_length_b 9.000000
_cell_length_c 24.000000
_cell_angle_alpha 90.000000
_cell_angle_beta 90.000000
_cell_angle_gamma 90.000000
_cell_volume 3240.000000
_symmetry_space_group_name_H-M "C 2/M"
_symmetry_group_IT_number 12
_symmetry_cell_setting 'monoclinic'
loop_
_space_group_symop_operation_xyz
x,y,z
-x,y,-z
-x,-y,-z
x,-y,z
1/2+x,1/2+y,z
1/2-x,1/2+y,-z
1/2-x,1/2-y,-z
1/2+x,1/2-y,z
loop_
_atom_site_type_symbol
_atom_site_label
_atom_site_fract_x
_atom_site_fract_y
_atom_site_fract_z
Si Si1 0.381160 0.180080 0.047395
Si Si2 0.081452 0.676983 0.659310
Si Si3 0.405030 0.674951 0.677843
Si Si4 0.077912 0.320829 0.078010
Si Si5 0.729239 0.822188 0.744697
Si Si6 0.841929 0.328829 0.566432
Si Si7 0.371803 0.328636 0.454258
Si Si8 0.235691 0.819931 0.133938
O O1 0.473892 0.220061 0.077355
O O2 0.297729 0.231772 0.083016
O O3 0.379080 0.000000 0.046121
O O4 0.386191 0.227174 0.983196
O O5 0.088899 0.500000 0.652063
O O6 0.161430 0.735155 0.698209
O O7 0.083793 0.753733 0.599118
O O8 0.990450 0.724625 0.688324
O O9 0.427124 0.500000 0.676363
O O10 0.328791 0.700813 0.723051
O O11 0.365645 0.726219 0.618467
O O12 0.084481 0.500000 0.081936
O O13 0.137869 0.244182 0.124144
O O14 0.722304 0.768462 0.807717
O O15 0.713704 0.000000 0.746198
O O16 0.868944 0.500000 0.576255
O O17 0.735073 0.326332 0.557314
O O18 0.885590 0.263177 0.510643
O O19 0.399043 0.500000 0.460606
O O20 0.232408 0.000000 0.134056
#
# Coordination Sequence:
#
# PCOD9223856 Si02
#       8
#     8   8   8   8   8   8   8   8
#     4   8  16  31  53  77 111 148 181 216 270 332
#     4  11  22  39  60  83 109 145 187 229 275 334
#     4  11  22  39  59  81 109 145 183 230 283 331
#     4   9  17  32  52  80 111 145 180 223 271 322
#     4   9  21  39  57  76 108 146 184 226 278 329
#     4  10  20  35  58  87 115 145 181 223 272 334
#     4  10  20  35  58  87 116 146 179 223 277 331
#     4  10  19  34  55  79 105 144 186 226 271 325
#
# _framework density 9.8765429999999999
#
# number of rings (size 3 to 8) (size 9 to 14) (size 15 to 20)
#    0.000    2.250    1.250    2.625    0.000    2.500 
#    0.000    8.125    0.000    0.000    0.000    0.000 
#    0.000    0.000    0.000    0.000    0.000    0.000 
#
# Total GULP energy -178607.281700 kJ/mol
# GULP energy per Si atom -5581.477553 kJ/mol
# Density = 0.985406 g / cm^3
# Si number density = 9.876543 Si / 1000 Ang^3
#
#
#
# Elastic Constant Matrix: (Units=GPa)
#
#
# Indices 1 2 3 4 5 6 
#
# 1 25.5448 1.5756 8.8585 0.0000 6.1111 0.0000
# 2 1.5756 33.6003 -0.2343 0.0000 -6.2328 0.0000
# 3 8.8585 -0.2343 23.9994 0.0000 9.9760 0.0000
# 4 0.0000 0.0000 0.0000 17.5858 0.0000 3.1061
# 5 6.1111 -6.2328 9.9760 0.0000 -4.9288 0.0000
# 6 0.0000 0.0000 0.0000 3.1061 0.0000 26.8619
#
#
#
# Elastic Compliance Matrix: (Units=1/GPa)
#
#
# Indices 1 2 3 4 5 6 
#
# 1 0.043621 -0.000023 -0.020960 0.000000 0.011689 0.000000
# 2 -0.000023 0.026493 0.007715 0.000000 -0.017916 0.000000
# 3 -0.020960 0.007715 0.034941 0.000000 0.034977 0.000000
# 4 0.000000 0.000000 0.000000 0.058050 0.000000 -0.006712
# 5 0.011689 -0.017916 0.034977 0.000000 -0.094945 0.000000
# 6 0.000000 0.000000 0.000000 -0.006712 0.000000 0.038004
#
#
# Mechanical properties :
#
#
# Convention : Reuss Voigt Hill
#
# Bulk Modulus (GPa) = 12.73612 11.50488 12.12050
# Shear Modulus (GPa) = 31.47176 12.76675 22.11925
#
# Velocity S-wave (km/s) = 3.99589 2.54503 3.34995
# Velocity P-wave (km/s) = 5.26794 3.80437 4.59481
#
# Compressibility (1/GPa) = 0.07851684
#
# Stress axis : x y z
#
# Youngs Moduli (GPa) = 22.92493 37.74566 28.61983
#
# Poissons Ratio (x) = 0.00088 0.59988
# Poissons Ratio (y) = 0.00053 -0.22079
# Poissons Ratio (z) = 0.48051 -0.29119
#
# Static dielectric constant tensor:
#      x y z
#    x 1.726910 0.000000 0.004810 
#    y 0.000000 1.658850 0.000000 
#    z 0.004810 0.000000 1.691360 
# 
# From -- ./inp_files/338764.got.cif
#   From: 2010.05.17/outbox.ucp.g08.bks.cvg/sg12_170_cif.got.tgz:338764.got - 2010.06.11 11:47:21.
