data_PCOD9223862
_publ_section_title
;
Structure prediction by ZEFSAII (Michael W. Deem and Ramdas Pophale) SiO2 
 PCOD9223862
Probable space group: C 2/M
;
_chemical_formula_sum "Si O2"
_cell_formula_units_Z 28
_cell_length_a 24.000000
_cell_length_b 9.000000
_cell_length_c 15.000000
_cell_angle_alpha 90.000000
_cell_angle_beta 120.000000
_cell_angle_gamma 90.000000
_cell_volume 2805.922308
_symmetry_space_group_name_H-M "C 2/M"
_symmetry_group_IT_number 12
_symmetry_cell_setting 'monoclinic'
loop_
_space_group_symop_operation_xyz
x,y,z
-x,y,-z
-x,-y,-z
x,-y,z
1/2+x,1/2+y,z
1/2-x,1/2+y,-z
1/2-x,1/2-y,-z
1/2+x,1/2-y,z
loop_
_atom_site_type_symbol
_atom_site_label
_atom_site_fract_x
_atom_site_fract_y
_atom_site_fract_z
Si Si1 0.880654 0.830466 0.313972
Si Si2 0.075995 0.820694 0.311061
Si Si3 0.261702 0.826215 0.226766
Si Si4 0.690259 0.674749 0.001085
Si Si5 0.717814 0.678498 0.387812
Si Si6 0.941153 0.177299 0.175694
Si Si7 0.560327 0.174511 0.488631
O O1 0.810586 0.791222 0.222541
O O2 0.929747 0.804969 0.272815
O O3 0.884992 0.713815 0.397304
O O4 0.887054 0.000000 0.349725
O O5 0.143501 0.775078 0.325193
O O6 0.072470 0.761380 0.408732
O O7 0.011791 0.765077 0.210912
O O8 0.074008 0.000000 0.311995
O O9 0.248342 0.784363 0.317607
O O10 0.283092 0.000000 0.237800
O O11 0.199461 0.818403 0.114528
O O12 0.690998 0.500000 0.976416
O O13 0.621599 0.742035 0.919920
O O14 0.750000 0.750000 0.000000
O O15 0.721370 0.500000 0.400412
O O16 0.750000 0.750000 0.500000
O O17 0.941358 0.000000 0.158114
O O18 0.500000 0.226837 0.500000
O O19 0.554069 0.000000 0.466137
#
# Coordination Sequence:
#
# PCOD9223862 Si02
#       7
#     8   8   8   8   8   8   8
#     4  11  20  32  53  79 108 142 181 222 268 327
#     4  10  20  37  57  76 105 146 187 227 269 324
#     4  10  21  36  55  81 114 144 180 230 279 323
#     4  10  19  34  55  81 113 146 179 224 275 327
#     4  10  22  39  58  80 107 145 188 228 274 326
#     4   9  18  32  52  79 108 136 176 223 267 319
#     4  11  22  33  48  76 111 140 173 219 278 336
#
# _framework density 9.9788940000000004
#
# number of rings (size 3 to 8) (size 9 to 14) (size 15 to 20)
#    0.000    1.857    2.857    1.714    0.000    4.000 
#    0.000    1.429    0.000    4.286    0.000    0.000 
#    0.000    4.571    0.000    0.000    0.000    0.000 
#
# Total GULP energy -155898.200374 kJ/mol
# GULP energy per Si atom -5567.792871 kJ/mol
# Density = 0.995618 g / cm^3
# Si number density = 9.978894 Si / 1000 Ang^3
#
#
#
# Elastic Constant Matrix: (Units=GPa)
#
#
# Indices 1 2 3 4 5 6 
#
# 1 97.3210 19.9543 17.7193 0.0000 20.5452 0.0000
# 2 19.9543 -19.2723 -1.1881 0.0000 -5.2858 0.0000
# 3 17.7193 -1.1881 60.8891 0.0000 12.4975 0.0000
# 4 0.0000 0.0000 0.0000 14.8399 0.0000 0.3871
# 5 20.5452 -5.2858 12.4975 0.0000 25.2088 0.0000
# 6 0.0000 0.0000 0.0000 0.3871 0.0000 17.0285
#
#
#
# Elastic Compliance Matrix: (Units=1/GPa)
#
#
# Indices 1 2 3 4 5 6 
#
# 1 0.009268 0.010923 -0.001563 0.000000 -0.004488 0.000000
# 2 0.010923 -0.036102 -0.000559 0.000000 -0.016195 0.000000
# 3 -0.001563 -0.000559 0.018514 0.000000 -0.008022 0.000000
# 4 0.000000 0.000000 0.000000 0.067426 0.000000 -0.001533
# 5 -0.004488 -0.016195 -0.008022 0.000000 0.043908 0.000000
# 6 0.000000 0.000000 0.000000 -0.001533 0.000000 0.058760
#
#
# Mechanical properties :
#
#
# Convention : Reuss Voigt Hill
#
# Bulk Modulus (GPa) = 107.74377 23.54542 65.64460
# Shear Modulus (GPa) = 33.95256 18.24559 26.09908
#
# Velocity S-wave (km/s) = 4.12906 3.02687 3.62016
# Velocity P-wave (km/s) = 8.76557 4.90297 7.10191
#
# Compressibility (1/GPa) = 0.00928128
#
# Stress axis : x y z
#
# Youngs Moduli (GPa) = 107.90195 -27.69904 54.01417
#
# Poissons Ratio (x) = 0.30255 0.08441
# Poissons Ratio (y) = -1.17861 0.03020
# Poissons Ratio (z) = 0.16861 -0.01549
#
# Static dielectric constant tensor:
#      x y z
#    x 1.741340 0.000000 0.104750 
#    y 0.000000 1.701270 0.000000 
#    z 0.104750 0.000000 1.829730 
# 
# From -- ./inp_files/238383.got.cif
#   From: 2010.05.17/outbox.ucp.g08.bks.cvg/sg12_120_cif.got.tgz:238383.got - 2010.06.11 11:47:21.
