data_PCOD9223904
_publ_section_title
;
Structure prediction by ZEFSAII (Michael W. Deem and Ramdas Pophale) SiO2 
 PCOD9223904
Probable space group: C 2/M
;
_chemical_formula_sum "Si O2"
_cell_formula_units_Z 32
_cell_length_a 30.000000
_cell_length_b 9.000000
_cell_length_c 18.000000
_cell_angle_alpha 90.000000
_cell_angle_beta 140.000000
_cell_angle_gamma 90.000000
_cell_volume 3123.947783
_symmetry_space_group_name_H-M "C 2/M"
_symmetry_group_IT_number 12
_symmetry_cell_setting 'monoclinic'
loop_
_space_group_symop_operation_xyz
x,y,z
-x,y,-z
-x,-y,-z
x,-y,z
1/2+x,1/2+y,z
1/2-x,1/2+y,-z
1/2-x,1/2-y,-z
1/2+x,1/2-y,z
loop_
_atom_site_type_symbol
_atom_site_label
_atom_site_fract_x
_atom_site_fract_y
_atom_site_fract_z
Si Si1 0.799101 0.665086 0.620332
Si Si2 0.939744 0.828782 0.796127
Si Si3 0.698519 0.660973 0.630509
Si Si4 0.721553 0.331397 0.163280
Si Si5 0.582762 0.828143 0.793321
Si Si6 0.416171 0.176928 0.028311
Si Si7 0.049872 0.835559 0.368489
Si Si8 0.705886 0.674787 0.879750
O O1 0.817239 0.500000 0.614779
O O2 0.750000 0.750000 0.500000
O O3 0.869383 0.750055 0.730591
O O4 0.750955 0.649806 0.629751
O O5 0.935332 0.826212 0.700397
O O6 0.010699 0.743006 0.904814
O O7 0.943259 0.000000 0.824807
O O8 0.704443 0.500000 0.679554
O O9 0.722740 0.808983 0.701615
O O10 0.621033 0.672371 0.502750
O O11 0.710295 0.500000 0.126258
O O12 0.757376 0.235469 0.145659
O O13 0.648899 0.256637 0.092059
O O14 0.592518 0.790946 0.893714
O O15 0.502983 0.791857 0.677193
O O16 0.628827 0.731180 0.797335
O O17 0.600483 0.000000 0.806604
O O18 0.414419 0.000000 0.016376
O O19 0.017944 0.000000 0.340134
O O20 0.709643 0.500000 0.888500
O O21 0.750000 0.750000 0.000000
#
# Coordination Sequence:
#
# PCOD9223904 Si02
#       8
#     8   8   8   8   8   8   8   8
#     4  11  21  36  59  88 119 154 198 246 294 346
#     4  10  19  34  57  88 120 151 192 245 293 345
#     4  10  22  41  60  83 119 160 197 237 291 354
#     4  12  25  40  60  87 119 156 195 242 294 349
#     4  10  20  34  57  89 119 149 190 242 292 341
#     4  10  20  36  58  85 118 156 193 237 291 349
#     4   9  18  35  57  83 117 156 193 235 291 347
#     4  12  23  38  61  88 118 153 195 243 289 344
#
# _framework density 10.243449
#
# number of rings (size 3 to 8) (size 9 to 14) (size 15 to 20)
#    0.000    1.500    2.500    3.750    0.000    3.000 
#    0.000    1.250    0.000    7.500    0.000    0.000 
#    0.000    0.000    0.000    0.000    0.000    0.000 
#
# Total GULP energy -178510.899087 kJ/mol
# GULP energy per Si atom -5578.465596 kJ/mol
# Density = 1.022013 g / cm^3
# Si number density = 10.243449 Si / 1000 Ang^3
#
#
#
# Elastic Constant Matrix: (Units=GPa)
#
#
# Indices 1 2 3 4 5 6 
#
# 1 32.0558 16.3747 13.1221 0.0000 17.2589 0.0000
# 2 16.3747 102.6473 20.3281 0.0000 8.7616 0.0000
# 3 13.1221 20.3281 38.8367 0.0000 14.5969 0.0000
# 4 0.0000 0.0000 0.0000 24.8752 0.0000 3.9982
# 5 17.2589 8.7616 14.5969 0.0000 21.3717 0.0000
# 6 0.0000 0.0000 0.0000 3.9982 0.0000 21.3414
#
#
#
# Elastic Compliance Matrix: (Units=1/GPa)
#
#
# Indices 1 2 3 4 5 6 
#
# 1 0.057987 -0.005448 0.000027 0.000000 -0.044613 0.000000
# 2 -0.005448 0.011390 -0.005408 0.000000 0.003423 0.000000
# 3 0.000027 -0.005408 0.037327 0.000000 -0.023299 0.000000
# 4 0.000000 0.000000 0.000000 0.041449 0.000000 -0.007765
# 5 -0.044613 0.003423 -0.023299 0.000000 0.097328 0.000000
# 6 0.000000 0.000000 0.000000 -0.007765 0.000000 0.048312
#
#
# Mechanical properties :
#
#
# Convention : Reuss Voigt Hill
#
# Bulk Modulus (GPa) = 11.75825 30.35439 21.05632
# Shear Modulus (GPa) = 14.54337 21.76532 18.15434
#
# Velocity S-wave (km/s) = 2.66726 3.26299 2.98005
# Velocity P-wave (km/s) = 3.90353 5.38932 4.70544
#
# Compressibility (1/GPa) = 0.08504668
#
# Stress axis : x y z
#
# Youngs Moduli (GPa) = 17.24531 87.79743 26.78998
#
# Poissons Ratio (x) = 0.47828 -0.00071
# Poissons Ratio (y) = 0.09395 0.14487
# Poissons Ratio (z) = -0.00046 0.47479
#
# Static dielectric constant tensor:
#      x y z
#    x 0.228800 0.000000 -2.029940 
#    y 0.000000 1.634350 0.000000 
#    z -2.029940 0.000000 -1.068350 
# 
# From -- ./inp_files/295711.got.cif
#   From: 2010.05.17/outbox.ucp.g08.bks.cvg/sg12_148_cif.got.tgz:295711.got - 2010.06.11 11:47:21.
