data_PCOD9223204
_publ_section_title
;
Structure prediction by ZEFSAII (Michael W. Deem and Ramdas Pophale) SiO2 
 PCOD9223204
Probable space group: C 2/M
;
_chemical_formula_sum "Si O2"
_cell_formula_units_Z 32
_cell_length_a 24.000000
_cell_length_b 9.000000
_cell_length_c 18.000000
_cell_angle_alpha 90.000000
_cell_angle_beta 90.000000
_cell_angle_gamma 90.000000
_cell_volume 3888.000000
_symmetry_space_group_name_H-M "C 2/M"
_symmetry_group_IT_number 12
_symmetry_cell_setting 'monoclinic'
loop_
_space_group_symop_operation_xyz
x,y,z
-x,y,-z
-x,-y,-z
x,-y,z
1/2+x,1/2+y,z
1/2-x,1/2+y,-z
1/2-x,1/2-y,-z
1/2+x,1/2-y,z
loop_
_atom_site_type_symbol
_atom_site_label
_atom_site_fract_x
_atom_site_fract_y
_atom_site_fract_z
Si Si1 0.848997 0.174643 0.676250
Si Si2 0.058715 0.177380 0.960109
Si Si3 0.624419 0.825589 0.086989
Si Si4 0.243941 0.678782 0.418521
Si Si5 0.174000 0.824620 0.719798
Si Si6 0.782923 0.673736 0.805298
Si Si7 0.430471 0.177969 0.202570
Si Si8 0.556589 0.823206 0.239566
O O1 0.814798 0.262793 0.613861
O O2 0.813682 0.214124 0.750107
O O3 0.909692 0.236638 0.697104
O O4 0.849559 0.000000 0.661260
O O5 0.069006 0.252351 0.880274
O O6 0.057712 0.000000 0.950620
O O7 0.105869 0.227384 0.018249
O O8 0.000000 0.222183 0.000000
O O9 0.687902 0.805182 0.115459
O O10 0.585322 0.791986 0.159067
O O11 0.616197 0.000000 0.069229
O O12 0.244107 0.500000 0.423048
O O13 0.250000 0.750000 0.500000
O O14 0.291827 0.719117 0.356019
O O15 0.218119 0.807768 0.788046
O O16 0.118698 0.738817 0.744602
O O17 0.161534 0.000000 0.712438
O O18 0.796047 0.500000 0.783935
O O19 0.491593 0.213388 0.235568
O O20 0.425769 0.000000 0.196178
O O21 0.563078 0.000000 0.251379
#
# Coordination Sequence:
#
# PCOD9223204 Si02
#       8
#     8   8   8   8   8   8   8   8
#     4  10  18  28  49  80 108 134 170 213 253 301
#     4  11  22  33  47  71 103 134 172 223 273 315
#     4   9  16  30  51  71  95 129 174 220 265 313
#     4  10  20  36  59  85 113 141 169 207 254 303
#     4   9  19  36  55  77 108 138 167 208 259 309
#     4   8  16  32  51  71  99 136 170 211 264 311
#     4  11  22  35  53  74 101 140 181 217 259 313
#     4   9  18  32  49  71 101 137 174 216 262 305
#
# _framework density 8.2304530000000007
#
# number of rings (size 3 to 8) (size 9 to 14) (size 15 to 20)
#    0.000    2.375    1.250    3.750    0.000    6.000 
#    0.000    0.625    0.000    0.750    0.000    5.250 
#    0.000    0.000    0.000    0.000    0.000    0.000 
#
# Total GULP energy -178271.065383 kJ/mol
# GULP energy per Si atom -5570.970793 kJ/mol
# Density = 0.821172 g / cm^3
# Si number density = 8.230453 Si / 1000 Ang^3
#
#
#
# Elastic Constant Matrix: (Units=GPa)
#
#
# Indices 1 2 3 4 5 6 
#
# 1 109.4501 50.4928 55.7030 0.0000 7.8077 0.0000
# 2 50.4928 66.6888 48.5929 0.0000 6.3051 0.0000
# 3 55.7030 48.5929 97.1973 0.0000 11.9959 0.0000
# 4 0.0000 0.0000 0.0000 29.4036 0.0000 0.4128
# 5 7.8077 6.3051 11.9959 0.0000 23.4628 0.0000
# 6 0.0000 0.0000 0.0000 0.4128 0.0000 26.9061
#
#
#
# Elastic Compliance Matrix: (Units=1/GPa)
#
#
# Indices 1 2 3 4 5 6 
#
# 1 0.015289 -0.008163 -0.004615 0.000000 -0.000535 0.000000
# 2 -0.008163 0.027948 -0.009289 0.000000 -0.000045 0.000000
# 3 -0.004615 -0.009289 0.018230 0.000000 -0.005288 0.000000
# 4 0.000000 0.000000 0.000000 0.034017 0.000000 -0.000522
# 5 -0.000535 -0.000045 -0.005288 0.000000 0.045514 0.000000
# 6 0.000000 0.000000 0.000000 -0.000522 0.000000 0.037174
#
#
# Mechanical properties :
#
#
# Convention : Reuss Voigt Hill
#
# Bulk Modulus (GPa) = 57.69176 64.76820 61.22998
# Shear Modulus (GPa) = 21.92175 23.85766 22.88971
#
# Velocity S-wave (km/s) = 3.65327 3.81117 3.73305
# Velocity P-wave (km/s) = 7.27454 7.66803 7.47388
#
# Compressibility (1/GPa) = 0.01733350
#
# Stress axis : x y z
#
# Youngs Moduli (GPa) = 65.40505 35.78098 54.85491
#
# Poissons Ratio (x) = 0.29207 0.25318
# Poissons Ratio (y) = 0.53388 0.50953
# Poissons Ratio (z) = 0.30187 0.33236
#
# Static dielectric constant tensor:
#      x y z
#    x 1.579900 0.000000 0.023360 
#    y 0.000000 1.552520 0.000000 
#    z 0.023360 0.000000 1.542510 
# 
# From -- ./inp_files/287652.got.cif
#   From: 2010.05.17/outbox.ucp.g08.bks.cvg/sg12_144_cif.got.tgz:287652.got - 2010.06.11 11:47:21.
