data_PCOD9223766
_publ_section_title
;
Structure prediction by ZEFSAII (Michael W. Deem and Ramdas Pophale) SiO2 
 PCOD9223766
Probable space group: C 2/M
;
_chemical_formula_sum "Si O2"
_cell_formula_units_Z 30
_cell_length_a 15.000000
_cell_length_b 24.000000
_cell_length_c 27.000000
_cell_angle_alpha 90.000000
_cell_angle_beta 20.000000
_cell_angle_gamma 90.000000
_cell_volume 3324.435793
_symmetry_space_group_name_H-M "C 2/M"
_symmetry_group_IT_number 12
_symmetry_cell_setting 'monoclinic'
loop_
_space_group_symop_operation_xyz
x,y,z
-x,y,-z
-x,-y,-z
x,-y,z
1/2+x,1/2+y,z
1/2-x,1/2+y,-z
1/2-x,1/2-y,-z
1/2+x,1/2-y,z
loop_
_atom_site_type_symbol
_atom_site_label
_atom_site_fract_x
_atom_site_fract_y
_atom_site_fract_z
Si Si1 0.687810 0.434541 0.026766
Si Si2 0.600556 0.842856 0.005339
Si Si3 0.542042 0.758604 0.212177
Si Si4 0.500000 0.787883 0.500000
Si Si5 0.604656 0.830774 0.549510
Si Si6 0.371611 0.730007 0.717936
Si Si7 0.406149 0.065611 0.704418
Si Si8 0.705664 0.115296 0.132261
O O1 0.728405 0.500000 0.018017
O O2 0.780851 0.393543 0.023191
O O3 0.823937 0.419504 0.902946
O O4 0.383378 0.427681 0.169114
O O5 0.366273 0.812870 0.157672
O O6 0.500000 0.856008 0.000000
O O7 0.806852 0.792216 0.892524
O O8 0.593094 0.748343 0.243610
O O9 0.633945 0.821373 0.155452
O O10 0.238803 0.750907 0.359593
O O11 0.599817 0.825309 0.493019
O O12 0.374319 0.789020 0.688143
O O13 0.578052 0.893000 0.581989
O O14 0.869585 0.803832 0.432112
O O15 0.431286 0.088543 0.747818
O O16 0.466051 0.000000 0.672153
O O17 0.000000 0.116085 0.000000
#
# Coordination Sequence:
#
# PCOD9223766 Si02
#       8
#     8   8   8   4   8   8   8   8
#     4  10  22  36  52  80 114 148 187 229 270 323
#     4  10  21  36  58  83 108 142 186 227 274 331
#     4  10  19  34  54  84 111 139 178 226 280 330
#     4  10  22  32  51  82 115 144 172 222 286 330
#     4  10  19  35  53  77 111 145 177 226 276 327
#     4   9  19  34  54  78 110 140 175 226 281 324
#     4  10  20  36  58  80 108 150 189 223 271 325
#     4  10  19  33  55  81 112 143 180 232 276 321
#
# _framework density 9.0240880000000008
#
# number of rings (size 3 to 8) (size 9 to 14) (size 15 to 20)
#    0.000    2.133    1.333    2.400    3.733    2.400 
#    0.000    1.000    0.000    4.800    0.000    2.800 
#    0.000    0.000    0.000    0.000    0.000    0.000 
#
# Total GULP energy -167067.656430 kJ/mol
# GULP energy per Si atom -5568.921881 kJ/mol
# Density = 0.900355 g / cm^3
# Si number density = 9.024088 Si / 1000 Ang^3
#
#
#
# Elastic Constant Matrix: (Units=GPa)
#
#
# Indices 1 2 3 4 5 6 
#
# 1 67.3210 40.6213 12.2665 0.0444 2.4252 0.0705
# 2 40.6213 126.4493 20.8368 -0.0299 5.1157 0.1227
# 3 12.2665 20.8368 38.9346 0.1118 -0.8599 -0.0269
# 4 0.0444 -0.0299 0.1118 24.4227 -0.1082 1.4140
# 5 2.4252 5.1157 -0.8599 -0.1082 18.8830 0.0413
# 6 0.0705 0.1227 -0.0269 1.4140 0.0413 30.8503
#
#
#
# Elastic Compliance Matrix: (Units=1/GPa)
#
#
# Indices 1 2 3 4 5 6 
#
# 1 0.018749 -0.005487 -0.002994 -0.000031 -0.001058 -0.000021
# 2 -0.005487 0.010405 -0.003890 0.000032 -0.002291 -0.000031
# 3 -0.002994 -0.003890 0.028770 -0.000122 0.002748 0.000049
# 4 -0.000031 0.000032 -0.000122 0.041056 0.000229 -0.001882
# 5 -0.001058 -0.002291 0.002748 0.000229 0.053841 -0.000069
# 6 -0.000021 -0.000031 0.000049 -0.001882 -0.000069 0.032501
#
#
# Mechanical properties :
#
#
# Convention : Reuss Voigt Hill
#
# Bulk Modulus (GPa) = 30.13694 42.23935 36.18814
# Shear Modulus (GPa) = 22.61172 25.42989 24.02080
#
# Velocity S-wave (km/s) = 3.54341 3.75774 3.65215
# Velocity P-wave (km/s) = 5.78578 6.50246 6.15456
#
# Compressibility (1/GPa) = 0.03318187
#
# Stress axis : x y z
#
# Youngs Moduli (GPa) = 53.33752 96.11035 34.75793
#
# Poissons Ratio (x) = 0.52733 0.10405
# Poissons Ratio (y) = 0.29265 0.13522
# Poissons Ratio (z) = 0.15968 0.37391
#
# Static dielectric constant tensor:
#      x y z
#    x 1.638390 0.000020 0.012230 
#    y 0.000020 1.590570 0.000050 
#    z 0.012230 0.000050 1.701480 
# 
# From -- ./inp_files/362247.got.cif
#   From: 2010.05.17/outbox.ucp.g08.bks.cvg/sg12_182_cif.got.tgz:362247.got - 2010.06.11 11:47:21.
