data_PCOD9223102
_publ_section_title
;
Structure prediction by ZEFSAII (Michael W. Deem and Ramdas Pophale) SiO2 
 PCOD9223102
Probable space group: C 2/M
;
_chemical_formula_sum "Si O2"
_cell_formula_units_Z 56
_cell_length_a 30.485049
_cell_length_b 18.139112
_cell_length_c 5.546111
_cell_angle_alpha 90.000000
_cell_angle_beta 49.214631
_cell_angle_gamma 90.000000
_cell_volume 2322.096279
_symmetry_space_group_name_H-M "C 2/M"
_symmetry_group_IT_number 12
_symmetry_cell_setting 'monoclinic'
loop_
_space_group_symop_operation_xyz
x,y,z
-x,y,-z
-x,-y,-z
x,-y,z
1/2+x,1/2+y,z
1/2-x,1/2+y,-z
1/2-x,1/2-y,-z
1/2+x,1/2-y,z
loop_
_atom_site_type_symbol
_atom_site_label
_atom_site_fract_x
_atom_site_fract_y
_atom_site_fract_z
Si Si1 0.328752 0.776544 0.457910
Si Si2 0.365653 0.078429 0.450266
Si Si3 0.258404 0.917775 0.154444
Si Si4 0.433469 0.590039 0.785690
Si Si5 0.803280 0.255034 0.061613
Si Si6 0.474196 0.912497 0.345114
Si Si7 0.876243 0.088104 0.488585
O O1 0.366854 0.849545 0.286838
O O2 0.258428 0.785782 0.738117
O O3 0.333819 0.731363 0.196514
O O4 0.340676 0.748921 0.685416
O O5 0.405534 0.090526 0.542856
O O6 0.382750 0.000000 0.277375
O O7 0.300036 0.074135 0.774773
O O8 0.284178 0.841717 0.170457
O O9 0.192204 0.903775 0.320582
O O10 0.261543 0.000000 0.267053
O O11 0.500000 0.611311 0.500000
O O12 0.431019 0.500000 0.803466
O O13 0.396485 0.612321 0.681803
O O14 0.411584 0.615976 0.127862
O O15 0.500000 0.881310 0.500000
O O16 0.487993 0.000000 0.298679
O O17 0.500000 0.882634 0.000000
O O18 0.886097 0.000000 0.457380
#
# Coordination Sequence:
#
# PCOD9223102 Si02
#       7
#     8   8   8   8   8   8   8
#     4   9  18  32  49  70  96 129 168 205 245 299
#     4   9  18  32  52  77 105 138 174 213 260 314
#     4   9  18  31  48  74 106 136 167 207 257 305
#     4   9  16  27  42  59  83 118 157 195 238 287
#     4   9  18  32  48  68  99 133 164 201 246 301
#     4   9  18  32  48  69  99 132 168 211 256 304
#     4   9  17  27  40  62  90 116 148 193 240 286
#
# _framework density 24.116140999999999
#
# number of rings (size 3 to 8) (size 9 to 14) (size 15 to 20)
#    0.000    3.000    0.000    0.429    0.000    6.857 
#    0.000    8.571    0.000    0.000    0.000    3.000 
#    0.000    0.000    0.000    0.000    0.000    0.000 
#
# Total GULP energy -156010.717773 kJ/mol
# GULP energy per Si atom -5571.811349 kJ/mol
# Density = 2.406125 g / cm^3
# Si number density = 24.116141 Si / 1000 Ang^3
#
#
#
# Elastic Constant Matrix: (Units=GPa)
#
#
# Indices 1 2 3 4 5 6 
#
# 1 123.4768 29.5767 66.9387 0.0000 30.6871 0.0000
# 2 29.5767 90.8519 0.9472 0.0000 1.6725 0.0000
# 3 66.9387 0.9472 130.8505 0.0000 17.8099 0.0000
# 4 0.0000 0.0000 0.0000 -5.4398 0.0000 8.8424
# 5 30.6871 1.6725 17.8099 0.0000 44.2414 0.0000
# 6 0.0000 0.0000 0.0000 8.8424 0.0000 25.3033
#
#
#
# Elastic Compliance Matrix: (Units=1/GPa)
#
#
# Indices 1 2 3 4 5 6 
#
# 1 0.014434 -0.004499 -0.006360 0.000000 -0.007281 0.000000
# 2 -0.004499 0.012417 0.001958 0.000000 0.001863 0.000000
# 3 -0.006360 0.001958 0.010888 0.000000 -0.000045 0.000000
# 4 0.000000 0.000000 0.000000 -0.117236 0.000000 0.040969
# 5 -0.007281 0.001863 -0.000045 0.000000 0.027602 0.000000
# 6 0.000000 0.000000 0.000000 0.040969 0.000000 0.025204
#
#
# Mechanical properties :
#
#
# Convention : Reuss Voigt Hill
#
# Bulk Modulus (GPa) = 50.15871 60.01159 55.08515
# Shear Modulus (GPa) = -2227.90109 29.33539 -1099.28285
#
# Velocity S-wave (km/s) = -30.42741 3.49151 -21.37331
# Velocity P-wave (km/s) = 34.83665 6.41815 24.21156
#
# Compressibility (1/GPa) = 0.01993672
#
# Stress axis : x y z
#
# Youngs Moduli (GPa) = 69.28181 80.53658 91.84412
#
# Poissons Ratio (x) = 0.36230 0.58415
# Poissons Ratio (y) = 0.31167 -0.17982
# Poissons Ratio (z) = 0.44065 -0.15768
#
# Static dielectric constant tensor:
#      x y z
#    x 1.936070 0.000000 0.032590 
#    y 0.000000 2.119670 0.000000 
#    z 0.032590 0.000000 1.941640 
# 
# From -- ./inp_files/29587.got.cif
#   From: 2010.05.17/outbox.cif.g08.bks.cpg/sg12_15_cif.got.tgz:29587.got - 2010.06.03 13:09:07.
