data_PCOD9223973
_publ_section_title
;
Structure prediction by ZEFSAII (Michael W. Deem and Ramdas Pophale) SiO2 
 PCOD9223973
Probable space group: C 2/M
;
_chemical_formula_sum "Si O2"
_cell_formula_units_Z 32
_cell_length_a 12.000000
_cell_length_b 15.000000
_cell_length_c 27.000000
_cell_angle_alpha 90.000000
_cell_angle_beta 40.000000
_cell_angle_gamma 90.000000
_cell_volume 3123.947783
_symmetry_space_group_name_H-M "C 2/M"
_symmetry_group_IT_number 12
_symmetry_cell_setting 'monoclinic'
loop_
_space_group_symop_operation_xyz
x,y,z
-x,y,-z
-x,-y,-z
x,-y,z
1/2+x,1/2+y,z
1/2-x,1/2+y,-z
1/2-x,1/2-y,-z
1/2+x,1/2-y,z
loop_
_atom_site_type_symbol
_atom_site_label
_atom_site_fract_x
_atom_site_fract_y
_atom_site_fract_z
Si Si1 0.034677 0.897963 0.835173
Si Si2 0.330358 0.765461 0.395599
Si Si3 0.731041 0.894598 0.498067
Si Si4 0.863858 0.097111 0.001316
Si Si5 0.878372 0.097557 0.596316
Si Si6 0.339415 0.776901 0.869181
Si Si7 0.353916 0.900003 0.227962
Si Si8 0.203875 0.264795 0.222545
O O1 0.223677 0.852848 0.774914
O O2 0.925683 0.819896 0.845466
O O3 0.033562 0.000000 0.816202
O O4 0.954047 0.901146 0.917635
O O5 0.374419 0.831790 0.427189
O O6 0.260220 0.670650 0.440466
O O7 0.189630 0.819342 0.411544
O O8 0.500703 0.755291 0.303613
O O9 0.921010 0.898532 0.458475
O O10 0.678614 0.000000 0.508158
O O11 0.750857 0.184339 0.051428
O O12 0.770299 0.000000 0.035864
O O13 0.000000 0.095969 0.000000
O O14 0.780130 0.099027 0.681645
O O15 0.837143 0.000000 0.587154
O O16 0.470321 0.857663 0.811494
O O17 0.232644 0.771376 0.855466
O O18 0.290520 0.825469 0.212068
O O19 0.370015 0.000000 0.203077
#
# Coordination Sequence:
#
# PCOD9223973 Si02
#       8
#     8   8   8   8   8   8   8   8
#     4  10  23  39  56  82 117 152 187 228 276 334
#     4  11  21  35  59  85 112 143 187 236 279 329
#     4  10  22  39  58  81 111 149 188 228 280 337
#     4  10  19  35  60  86 111 147 191 233 277 324
#     4  10  19  35  58  81 105 139 183 227 276 327
#     4  11  21  37  60  85 113 150 189 229 280 331
#     4  10  21  36  56  83 113 143 183 232 277 330
#     4  11  22  36  57  84 114 145 184 232 282 331
#
# _framework density 10.243449
#
# number of rings (size 3 to 8) (size 9 to 14) (size 15 to 20)
#    0.000    1.625    3.750    1.500    0.000    3.000 
#    0.000    0.000    0.000    7.125    0.000    0.000 
#    0.000    0.000    0.000    0.000    0.000    0.000 
#
# Total GULP energy -178200.836819 kJ/mol
# GULP energy per Si atom -5568.776151 kJ/mol
# Density = 1.022013 g / cm^3
# Si number density = 10.243449 Si / 1000 Ang^3
#
#
#
# Elastic Constant Matrix: (Units=GPa)
#
#
# Indices 1 2 3 4 5 6 
#
# 1 29.2176 26.9892 -7.5495 0.0001 4.1570 0.0000
# 2 26.9892 170.5968 2.5113 0.0002 11.9958 -0.0001
# 3 -7.5495 2.5113 43.7491 0.0004 12.5969 -0.0003
# 4 0.0001 0.0002 0.0004 30.8703 -0.0001 8.2078
# 5 4.1570 11.9958 12.5969 -0.0001 4.5238 0.0001
# 6 0.0000 -0.0001 -0.0003 8.2078 0.0001 22.8261
#
#
#
# Elastic Compliance Matrix: (Units=1/GPa)
#
#
# Indices 1 2 3 4 5 6 
#
# 1 -0.008967 -0.016283 -0.077788 0.000003 0.268029 -0.000003
# 2 -0.016283 0.005239 -0.017250 0.000001 0.049106 -0.000001
# 3 -0.077788 -0.017250 -0.117699 0.000005 0.444973 -0.000005
# 4 0.000003 0.000001 0.000005 0.035818 -0.000017 -0.012879
# 5 0.268029 0.049106 0.444973 -0.000017 -1.394545 0.000016
# 6 -0.000003 -0.000001 -0.000005 -0.012879 0.000016 0.048441
#
#
# Mechanical properties :
#
#
# Convention : Reuss Voigt Hill
#
# Bulk Modulus (GPa) = -2.90638 31.94062 14.51712
# Shear Modulus (GPa) = -3.77711 26.41820 11.32054
#
# Velocity S-wave (km/s) = -1.35929 3.59488 2.35324
# Velocity P-wave (km/s) = 1.97112 5.73197 3.80593
#
# Compressibility (1/GPa) = -0.34407025
#
# Stress axis : x y z
#
# Youngs Moduli (GPa) = -111.51771 190.88275 -8.49622
#
# Poissons Ratio (x) = 3.10818 -0.66090
# Poissons Ratio (y) = -1.81586 -0.14656
# Poissons Ratio (z) = -8.67474 3.29272
#
# Static dielectric constant tensor:
#      x y z
#    x 1.777680 0.000000 -0.003220 
#    y 0.000000 1.749880 0.000000 
#    z -0.003220 0.000000 1.805420 
# 
# From -- ./inp_files/358391.got.cif
#   From: 2010.05.17/outbox.ucp.g08.bks.cvg/sg12_180_cif.got.tgz:358391.got - 2010.06.11 11:47:21.
