data_PCOD9223135
_publ_section_title
;
Structure prediction by ZEFSAII (Michael W. Deem and Ramdas Pophale) SiO2 
 PCOD9223135
Probable space group: C 2/M
;
_chemical_formula_sum "Si O2"
_cell_formula_units_Z 40
_cell_length_a 10.352369
_cell_length_b 24.593968
_cell_length_c 11.152715
_cell_angle_alpha 90.000000
_cell_angle_beta 142.404913
_cell_angle_gamma 90.000000
_cell_volume 1732.342513
_symmetry_space_group_name_H-M "C 2/M"
_symmetry_group_IT_number 12
_symmetry_cell_setting 'monoclinic'
loop_
_space_group_symop_operation_xyz
x,y,z
-x,y,-z
-x,-y,-z
x,-y,z
1/2+x,1/2+y,z
1/2-x,1/2+y,-z
1/2-x,1/2-y,-z
1/2+x,1/2-y,z
loop_
_atom_site_type_symbol
_atom_site_label
_atom_site_fract_x
_atom_site_fract_y
_atom_site_fract_z
Si Si1 0.143537 0.000000 0.253566
Si Si2 0.077639 0.787103 0.805219
Si Si3 0.455846 0.000000 0.267184
Si Si4 0.329982 0.906951 0.716099
Si Si5 0.177995 0.282015 0.234453
Si Si6 0.426954 0.589434 0.240844
O O1 0.248183 0.000000 0.198897
O O2 0.347086 0.000000 0.493525
O O3 0.998077 0.050241 0.187142
O O4 0.109762 0.779552 0.687611
O O5 0.860121 0.765612 0.699735
O O6 0.108647 0.851199 0.841060
O O7 0.250000 0.750000 0.000000
O O8 0.494518 0.053344 0.212243
O O9 0.366707 0.842069 0.746785
O O10 0.128135 0.911437 0.479348
O O11 0.260054 0.923010 0.800629
O O12 0.000000 0.275530 0.000000
#
# Coordination Sequence:
#
# PCOD9223135 Si02
#       6
#     4   8   4   8   8   8
#     4   9  17  29  47  74 103 128 160 200 251 294
#     4   9  18  32  49  69  94 127 163 199 244 292
#     4   9  17  29  46  72 104 132 158 202 249 288
#     4   9  17  30  48  70  97 129 166 200 241 292
#     4   9  18  32  48  68  93 127 165 203 244 292
#     4   9  17  30  49  72  98 129 162 200 243 294
#
# _framework density 23.090122000000001
#
# number of rings (size 3 to 8) (size 9 to 14) (size 15 to 20)
#    0.000    3.000    0.000    0.600    0.000    4.800 
#    0.000    0.500    0.000    3.600    0.000   18.900 
#    0.000    0.000    0.000    0.000    0.000    1.800 
#
# Total GULP energy -111608.412826 kJ/mol
# GULP energy per Si atom -5580.420641 kJ/mol
# Density = 2.303757 g / cm^3
# Si number density = 23.090122 Si / 1000 Ang^3
#
#
#
# Elastic Constant Matrix: (Units=GPa)
#
#
# Indices 1 2 3 4 5 6 
#
# 1 226.6893 146.9269 21.5305 0.0000 -15.3310 0.0000
# 2 146.9269 154.8111 23.6504 0.0000 -26.2387 0.0000
# 3 21.5305 23.6504 75.7966 0.0000 -14.6571 0.0000
# 4 0.0000 0.0000 0.0000 24.1441 0.0000 -0.9247
# 5 -15.3310 -26.2387 -14.6571 0.0000 33.1325 0.0000
# 6 0.0000 0.0000 0.0000 -0.9247 0.0000 33.3852
#
#
#
# Elastic Compliance Matrix: (Units=1/GPa)
#
#
# Indices 1 2 3 4 5 6 
#
# 1 0.011912 -0.011938 -0.000460 0.000000 -0.004146 0.000000
# 2 -0.011938 0.019543 -0.000855 0.000000 0.009574 0.000000
# 3 -0.000460 -0.000855 0.014674 0.000000 0.005601 0.000000
# 4 0.000000 0.000000 0.000000 0.041462 0.000000 0.001148
# 5 -0.004146 0.009574 0.005601 0.000000 0.038323 0.000000
# 6 0.000000 0.000000 0.000000 0.001148 0.000000 0.029985
#
#
# Mechanical properties :
#
#
# Convention : Reuss Voigt Hill
#
# Bulk Modulus (GPa) = 50.96451 93.50140 72.23296
# Shear Modulus (GPa) = 26.46251 35.81163 31.13707
#
# Velocity S-wave (km/s) = 3.38901 3.94248 3.67618
# Velocity P-wave (km/s) = 6.11832 7.82983 7.02638
#
# Compressibility (1/GPa) = 0.01962150
#
# Stress axis : x y z
#
# Youngs Moduli (GPa) = 83.94936 51.17051 68.14772
#
# Poissons Ratio (x) = 0.61085 0.03138
# Poissons Ratio (y) = 1.00215 0.05829
# Poissons Ratio (z) = 0.03866 0.04377
#
# Static dielectric constant tensor:
#      x y z
#    x 1.975250 0.000000 0.095980 
#    y 0.000000 1.817380 0.000000 
#    z 0.095980 0.000000 1.957120 
# 
# From -- ./inp_files/122199.got.cif
#   From: 2010.05.17/outbox.cif.g08.bks.cpg/sg12_62_cif.got.tgz:122199.got - 2010.06.03 13:09:07.
