data_PCOD9223351
_publ_section_title
;
Structure prediction by ZEFSAII (Michael W. Deem and Ramdas Pophale) SiO2 
 PCOD9223351
Probable space group: C 2/M
;
_chemical_formula_sum "Si O2"
_cell_formula_units_Z 28
_cell_length_a 21.000000
_cell_length_b 27.000000
_cell_length_c 18.000000
_cell_angle_alpha 90.000000
_cell_angle_beta 160.000000
_cell_angle_gamma 90.000000
_cell_volume 3490.657583
_symmetry_space_group_name_H-M "C 2/M"
_symmetry_group_IT_number 12
_symmetry_cell_setting 'monoclinic'
loop_
_space_group_symop_operation_xyz
x,y,z
-x,y,-z
-x,-y,-z
x,-y,z
1/2+x,1/2+y,z
1/2-x,1/2+y,-z
1/2-x,1/2-y,-z
1/2+x,1/2-y,z
loop_
_atom_site_type_symbol
_atom_site_label
_atom_site_fract_x
_atom_site_fract_y
_atom_site_fract_z
Si Si1 0.211465 0.388622 0.340207
Si Si2 0.192962 0.637963 0.063339
Si Si3 0.701879 0.193769 0.924573
Si Si4 0.341584 0.770410 0.480694
Si Si5 0.514232 0.554630 0.604801
Si Si6 0.109137 0.821135 0.346906
Si Si7 0.278679 0.196953 0.765525
O O1 0.316168 0.437163 0.427509
O O2 0.287993 0.367166 0.501723
O O3 0.270510 0.348866 0.341847
O O4 0.988430 0.387617 0.099477
O O5 0.348180 0.597504 0.218000
O O6 0.266716 0.679697 0.201468
O O7 0.137569 0.665922 0.928153
O O8 0.529059 0.198423 0.681458
O O9 0.750000 0.250000 0.000000
O O10 0.889910 0.169988 0.101448
O O11 0.189126 0.803370 0.356001
O O12 0.363778 0.724058 0.563484
O O13 0.301566 0.746130 0.358007
O O14 0.500000 0.559431 0.500000
O O15 0.587003 0.500000 0.700935
O O16 0.500000 0.202594 0.000000
#
# Coordination Sequence:
#
# PCOD9223351 Si02
#       7
#     8   8   8   8   8   8   8
#     4  10  18  33  48  64  82 116 158 200 240 274
#     4  11  20  34  49  69  91 125 167 200 239 276
#     4  10  19  27  46  69  87 117 158 197 228 282
#     4   9  17  30  40  64  91 112 150 195 230 274
#     4  11  23  35  47  65  90 122 163 211 251 280
#     4   9  16  27  46  61  85 111 143 196 232 274
#     4   9  19  29  45  64  91 125 155 201 231 269
#
# _framework density 8.0214110000000005
#
# number of rings (size 3 to 8) (size 9 to 14) (size 15 to 20)
#    0.000    2.143    4.286    0.000    6.000    0.571 
#    0.000    1.429    0.000    0.000    0.000    0.000 
#    0.000    0.000    0.000    0.000    0.000   18.571 
#
# Total GULP energy -155938.604632 kJ/mol
# GULP energy per Si atom -5569.235880 kJ/mol
# Density = 0.800315 g / cm^3
# Si number density = 8.021411 Si / 1000 Ang^3
#
#
#
# Elastic Constant Matrix: (Units=GPa)
#
#
# Indices 1 2 3 4 5 6 
#
# 1 31.4850 23.2707 30.3242 0.0000 9.1331 0.0000
# 2 23.2707 42.7206 24.6167 0.0000 -9.8629 0.0000
# 3 30.3242 24.6167 56.2692 0.0003 5.3078 0.0003
# 4 0.0000 0.0000 0.0003 5.6863 0.0001 1.3297
# 5 9.1331 -9.8629 5.3078 0.0001 19.4844 0.0001
# 6 0.0000 0.0000 0.0003 1.3297 0.0001 5.3812
#
#
#
# Elastic Compliance Matrix: (Units=1/GPa)
#
#
# Indices 1 2 3 4 5 6 
#
# 1 0.203576 -0.118369 -0.044414 0.000004 -0.143242 0.000003
# 2 -0.118369 0.110267 0.005185 -0.000002 0.109888 -0.000001
# 3 -0.044414 0.005185 0.038209 -0.000002 0.013035 -0.000001
# 4 0.000004 -0.000002 -0.000002 0.186646 -0.000003 -0.046122
# 5 -0.143242 0.109888 0.013035 -0.000003 0.170539 -0.000002
# 6 0.000003 -0.000001 -0.000001 -0.046122 -0.000002 0.197231
#
#
# Mechanical properties :
#
#
# Convention : Reuss Voigt Hill
#
# Bulk Modulus (GPa) = 27.13188 31.87756 29.50472
# Shear Modulus (GPa) = 4.05203 9.59459 6.82331
#
# Velocity S-wave (km/s) = 1.59099 2.44818 2.06456
# Velocity P-wave (km/s) = 4.50820 5.28251 4.91064
#
# Compressibility (1/GPa) = 0.03685701
#
# Stress axis : x y z
#
# Youngs Moduli (GPa) = 4.91217 9.06887 26.17189
#
# Poissons Ratio (x) = 1.07347 1.16239
# Poissons Ratio (y) = 0.58145 -0.13571
# Poissons Ratio (z) = 0.21817 -0.04702
#
# Static dielectric constant tensor:
#      x y z
#    x 1.599570 0.000000 0.063800 
#    y 0.000000 1.702170 0.000000 
#    z 0.063800 0.000000 1.639700 
# 
# From -- ./inp_files/286645.got.cif
#   From: 2010.05.17/outbox.ucp.g08.bks.cvg/sg12_144_cif.got.tgz:286645.got - 2010.06.11 11:47:21.
