data_PCOD9223144
_publ_section_title
;
Structure prediction by ZEFSAII (Michael W. Deem and Ramdas Pophale) SiO2 
 PCOD9223144
Probable space group: C 2/M
;
_chemical_formula_sum "Si O2"
_cell_formula_units_Z 40
_cell_length_a 14.432359
_cell_length_b 14.117593
_cell_length_c 27.562646
_cell_angle_alpha 90.000000
_cell_angle_beta 18.865644
_cell_angle_gamma 90.000000
_cell_volume 1815.899622
_symmetry_space_group_name_H-M "C 2/M"
_symmetry_group_IT_number 12
_symmetry_cell_setting 'monoclinic'
loop_
_space_group_symop_operation_xyz
x,y,z
-x,y,-z
-x,-y,-z
x,-y,z
1/2+x,1/2+y,z
1/2-x,1/2+y,-z
1/2-x,1/2-y,-z
1/2+x,1/2-y,z
loop_
_atom_site_type_symbol
_atom_site_label
_atom_site_fract_x
_atom_site_fract_y
_atom_site_fract_z
Si Si1 0.360112 0.110458 0.616551
Si Si2 0.839743 0.386758 0.329421
Si Si3 0.134898 0.611717 0.280810
Si Si4 0.819346 0.398261 0.039722
Si Si5 0.845561 0.191144 0.023332
O O1 0.500000 0.155628 0.500000
O O2 0.431511 0.153345 0.633559
O O3 0.017650 0.107122 0.781103
O O4 0.458371 0.000000 0.569476
O O5 0.500000 0.376381 0.500000
O O6 0.904194 0.500000 0.293605
O O7 0.963504 0.350242 0.319623
O O8 0.019863 0.336819 0.197246
O O9 0.074574 0.500000 0.312864
O O10 0.471327 0.624152 0.102099
O O11 0.874580 0.500000 0.987599
O O12 0.885226 0.297399 0.983461
O O13 0.000000 0.399171 0.000000
O O14 0.000000 0.185413 0.000000
#
# Coordination Sequence:
#
# PCOD9223144 Si02
#       5
#     8   8   8   8   8
#     4   9  18  33  52  73 101 140 180 217 260 308
#     4   9  17  30  50  78 110 140 172 214 262 313
#     4   9  17  31  52  78 107 140 177 211 253 316
#     4   9  18  33  52  73  99 134 178 223 261 302
#     4   9  17  30  51  75 104 138 172 212 264 318
#
# _framework density 22.027650000000001
#
# number of rings (size 3 to 8) (size 9 to 14) (size 15 to 20)
#    0.000    3.000    0.000    0.600    0.000    4.000 
#    0.000    2.000    0.000   21.600    0.000    0.000 
#    0.000    2.400    0.000    0.000    0.000    0.000 
#
# Total GULP energy -111489.320501 kJ/mol
# GULP energy per Si atom -5574.466025 kJ/mol
# Density = 2.197751 g / cm^3
# Si number density = 22.027650 Si / 1000 Ang^3
#
#
#
# Elastic Constant Matrix: (Units=GPa)
#
#
# Indices 1 2 3 4 5 6 
#
# 1 90.9141 5.6907 40.3967 0.0126 10.8070 -0.0205
# 2 5.6907 49.9691 -10.1628 0.1010 2.8196 -0.0563
# 3 40.3967 -10.1628 69.5669 -0.2614 8.8320 -0.0620
# 4 0.0126 0.1010 -0.2614 -7.0323 -0.0471 1.0326
# 5 10.8070 2.8196 8.8320 -0.0471 32.0614 0.0030
# 6 -0.0205 -0.0563 -0.0620 1.0326 0.0030 10.5403
#
#
#
# Elastic Compliance Matrix: (Units=1/GPa)
#
#
# Indices 1 2 3 4 5 6 
#
# 1 0.015633 -0.003535 -0.009289 0.000328 -0.002399 -0.000075
# 2 -0.003535 0.021659 0.005500 0.000134 -0.002228 0.000129
# 3 -0.009289 0.005500 0.020967 -0.000667 -0.003130 0.000201
# 4 0.000328 0.000134 -0.000667 -0.140156 -0.000146 0.013728
# 5 -0.002399 -0.002228 -0.003130 -0.000146 0.033057 -0.000030
# 6 -0.000075 0.000129 0.000201 0.013728 -0.000030 0.093531
#
#
# Mechanical properties :
#
#
# Convention : Reuss Voigt Hill
#
# Bulk Modulus (GPa) = 22.92900 31.36659 27.14780
# Shear Modulus (GPa) = 67.68249 18.74892 43.21571
#
# Velocity S-wave (km/s) = 5.54913 2.92062 4.43412
# Velocity P-wave (km/s) = 7.17558 5.06398 6.21019
#
# Compressibility (1/GPa) = 0.04361289
#
# Stress axis : x y z
#
# Youngs Moduli (GPa) = 63.96694 46.16985 47.69424
#
# Poissons Ratio (x) = 0.16320 0.44301
# Poissons Ratio (y) = 0.22611 -0.26233
# Poissons Ratio (z) = 0.59416 -0.25395
#
# Static dielectric constant tensor:
#      x y z
#    x 1.906820 0.000070 0.014160 
#    y 0.000070 1.858110 0.000020 
#    z 0.014160 0.000020 1.770020 
# 
# From -- ./inp_files/59239.got.cif
#   From: 2010.05.17/outbox.cif.g08.bks.cpg/sg12_30_cif.got.tgz:59239.got - 2010.06.03 13:09:07.
