data_PCOD9223203
_publ_section_title
;
Structure prediction by ZEFSAII (Michael W. Deem and Ramdas Pophale) SiO2 
 PCOD9223203
Probable space group: C 2/M
;
_chemical_formula_sum "Si O2"
_cell_formula_units_Z 32
_cell_length_a 21.000000
_cell_length_b 9.000000
_cell_length_c 27.000000
_cell_angle_alpha 90.000000
_cell_angle_beta 50.000000
_cell_angle_gamma 90.000000
_cell_volume 3909.124793
_symmetry_space_group_name_H-M "C 2/M"
_symmetry_group_IT_number 12
_symmetry_cell_setting 'monoclinic'
loop_
_space_group_symop_operation_xyz
x,y,z
-x,y,-z
-x,-y,-z
x,-y,z
1/2+x,1/2+y,z
1/2-x,1/2+y,-z
1/2-x,1/2-y,-z
1/2+x,1/2-y,z
loop_
_atom_site_type_symbol
_atom_site_label
_atom_site_fract_x
_atom_site_fract_y
_atom_site_fract_z
Si Si1 0.427063 0.820939 0.771056
Si Si2 0.021727 0.320784 0.367347
Si Si3 0.161449 0.320343 0.795734
Si Si4 0.013732 0.819988 0.153541
Si Si5 0.175664 0.179106 0.004711
Si Si6 0.174748 0.820500 0.351636
Si Si7 0.227939 0.179197 0.865769
Si Si8 0.080811 0.825932 0.495474
O O1 0.470197 0.781761 0.695893
O O2 0.462665 0.742962 0.803190
O O3 0.327542 0.788326 0.817456
O O4 0.435626 0.000000 0.772677
O O5 0.020978 0.500000 0.370588
O O6 0.104676 0.256959 0.352534
O O7 0.945837 0.258437 0.440249
O O8 0.153957 0.500000 0.802381
O O9 0.235529 0.287630 0.718346
O O10 0.188542 0.256791 0.836546
O O11 0.073904 0.249246 0.821486
O O12 0.088416 0.783867 0.076531
O O13 0.007537 0.000000 0.158988
O O14 0.183780 0.000000 0.002198
O O15 0.250000 0.250000 0.000000
O O16 0.187732 0.220643 0.939981
O O17 0.154696 0.778888 0.419697
O O18 0.162985 0.000000 0.355263
O O19 0.218696 0.000000 0.864912
O O20 0.000000 0.814957 0.500000
O O21 0.093351 0.000000 0.501447
#
# Coordination Sequence:
#
# PCOD9223203 Si02
#       8
#     8   8   8   8   8   8   8   8
#     4  10  20  35  56  81 111 145 180 223 272 321
#     4  10  18  28  48  80 110 137 174 222 269 314
#     4  11  23  38  57  81 111 147 185 226 270 322
#     4  11  24  39  57  82 110 143 183 226 273 327
#     4  10  21  37  59  83 109 142 179 224 273 322
#     4   9  18  32  50  73 105 144 181 217 264 318
#     4  10  20  37  59  82 110 144 180 223 273 322
#     4   8  15  28  45  70 105 141 175 216 265 315
#
# _framework density 8.1859760000000001
#
# number of rings (size 3 to 8) (size 9 to 14) (size 15 to 20)
#    0.000    2.125    2.500    1.875    0.000    5.750 
#    0.000    2.500    0.000    0.750    0.000    0.000 
#    0.000    0.000    0.000    0.000    0.000    0.000 
#
# Total GULP energy -178274.746839 kJ/mol
# GULP energy per Si atom -5571.085839 kJ/mol
# Density = 0.816734 g / cm^3
# Si number density = 8.185976 Si / 1000 Ang^3
#
#
#
# Elastic Constant Matrix: (Units=GPa)
#
#
# Indices 1 2 3 4 5 6 
#
# 1 117.4835 44.0570 75.4637 0.0001 7.4908 0.0004
# 2 44.0570 60.7296 53.3350 0.0000 4.8826 0.0008
# 3 75.4637 53.3350 202.0081 0.0000 16.5203 0.0000
# 4 0.0001 0.0000 0.0000 34.8385 0.0000 5.5179
# 5 7.4908 4.8826 16.5203 0.0000 32.9063 0.0000
# 6 0.0004 0.0008 0.0000 5.5179 0.0000 31.6176
#
#
#
# Elastic Compliance Matrix: (Units=1/GPa)
#
#
# Indices 1 2 3 4 5 6 
#
# 1 0.013025 -0.006734 -0.003053 0.000000 -0.000433 0.000000
# 2 -0.006734 0.024922 -0.004054 0.000000 -0.000130 -0.000001
# 3 -0.003053 -0.004054 0.007357 0.000000 -0.002397 0.000000
# 4 0.000000 0.000000 0.000000 0.029520 0.000000 -0.005152
# 5 -0.000433 -0.000130 -0.002397 0.000000 0.031711 0.000000
# 6 0.000000 -0.000001 0.000000 -0.005152 0.000000 0.032527
#
#
# Mechanical properties :
#
#
# Convention : Reuss Voigt Hill
#
# Bulk Modulus (GPa) = 56.74010 80.65917 68.69964
# Shear Modulus (GPa) = 28.96575 33.69683 31.33129
#
# Velocity S-wave (km/s) = 4.21078 4.54167 4.37935
# Velocity P-wave (km/s) = 7.64023 8.76789 8.22341
#
# Compressibility (1/GPa) = 0.01762422
#
# Stress axis : x y z
#
# Youngs Moduli (GPa) = 76.77295 40.12474 135.92466
#
# Poissons Ratio (x) = 0.27019 0.41492
# Poissons Ratio (y) = 0.51697 0.55103
# Poissons Ratio (z) = 0.23435 0.16266
#
# Static dielectric constant tensor:
#      x y z
#    x 1.523180 0.000000 -0.002980 
#    y 0.000000 1.554600 0.000000 
#    z -0.002980 0.000000 1.592160 
# 
# From -- ./inp_files/365185.got.cif
#   From: 2010.05.17/outbox.ucp.g08.bks.cvg/sg12_183_cif.got.tgz:365185.got - 2010.06.11 11:47:21.
