data_PCOD9223562
_publ_section_title
;
Structure prediction by ZEFSAII (Michael W. Deem and Ramdas Pophale) SiO2 
 PCOD9223562
Probable space group: C 2/M
;
_chemical_formula_sum "Si O2"
_cell_formula_units_Z 28
_cell_length_a 24.000000
_cell_length_b 9.000000
_cell_length_c 15.000000
_cell_angle_alpha 90.000000
_cell_angle_beta 60.000000
_cell_angle_gamma 90.000000
_cell_volume 2805.922308
_symmetry_space_group_name_H-M "C 2/M"
_symmetry_group_IT_number 12
_symmetry_cell_setting 'monoclinic'
loop_
_space_group_symop_operation_xyz
x,y,z
-x,y,-z
-x,-y,-z
x,-y,z
1/2+x,1/2+y,z
1/2-x,1/2+y,-z
1/2-x,1/2-y,-z
1/2+x,1/2-y,z
loop_
_atom_site_type_symbol
_atom_site_label
_atom_site_fract_x
_atom_site_fract_y
_atom_site_fract_z
Si Si1 0.938241 0.171780 0.394593
Si Si2 0.929580 0.677098 0.706256
Si Si3 0.797417 0.174744 0.532119
Si Si4 0.439865 0.822583 0.905791
Si Si5 0.571432 0.670306 0.812528
Si Si6 0.666328 0.820827 0.865863
Si Si7 0.303080 0.326016 0.733012
O O1 0.869814 0.238243 0.476451
O O2 0.931760 0.173337 0.292364
O O3 0.001408 0.256130 0.376589
O O4 0.942554 0.000000 0.421050
O O5 0.930913 0.500000 0.697682
O O6 0.925453 0.718890 0.814850
O O7 0.868064 0.740728 0.704068
O O8 0.750000 0.250000 0.500000
O O9 0.779071 0.184559 0.649876
O O10 0.801905 0.000000 0.504093
O O11 0.504966 0.749998 0.889814
O O12 0.448821 0.000000 0.900349
O O13 0.381372 0.782312 0.015893
O O14 0.572073 0.500000 0.841414
O O15 0.632783 0.751430 0.805453
O O16 0.738449 0.772197 0.833192
O O17 0.667935 0.000000 0.853932
O O18 0.315550 0.500000 0.741408
#
# Coordination Sequence:
#
# PCOD9223562 Si02
#       7
#     8   8   8   8   8   8   8
#     4   9  19  36  56  77 106 142 173 209 260 311
#     4  10  21  37  56  78 103 135 178 221 258 301
#     4  10  21  37  58  83 109 138 171 209 257 311
#     4   9  19  35  53  74 103 139 176 213 257 311
#     4  10  19  31  51  80 108 134 171 217 261 306
#     4  10  20  34  52  74 104 142 176 210 259 313
#     4  10  22  38  55  77 106 139 174 213 259 311
#
# _framework density 9.9788940000000004
#
# number of rings (size 3 to 8) (size 9 to 14) (size 15 to 20)
#    0.000    2.286    0.000    2.143    0.000    6.286 
#    0.000    2.857    0.000    0.000    0.000    0.000 
#    0.000    0.000    0.000    0.000    0.000    0.000 
#
# Total GULP energy -156161.318096 kJ/mol
# GULP energy per Si atom -5577.189932 kJ/mol
# Density = 0.995618 g / cm^3
# Si number density = 9.978894 Si / 1000 Ang^3
#
#
#
# Elastic Constant Matrix: (Units=GPa)
#
#
# Indices 1 2 3 4 5 6 
#
# 1 161.7110 53.2653 26.9386 0.0000 -27.5612 0.0000
# 2 53.2653 35.1074 14.0857 0.0000 -8.8482 0.0000
# 3 26.9386 14.0857 31.7575 0.0000 -24.0075 0.0000
# 4 0.0000 0.0000 0.0000 8.1589 0.0000 3.9330
# 5 -27.5612 -8.8482 -24.0075 0.0000 33.1190 0.0000
# 6 0.0000 0.0000 0.0000 3.9330 0.0000 35.0934
#
#
#
# Elastic Compliance Matrix: (Units=1/GPa)
#
#
# Indices 1 2 3 4 5 6 
#
# 1 0.013646 -0.020097 0.004124 0.000000 0.008977 0.000000
# 2 -0.020097 0.064508 -0.024731 0.000000 -0.017417 0.000000
# 3 0.004124 -0.024731 0.080881 0.000000 0.055454 0.000000
# 4 0.000000 0.000000 0.000000 0.129565 0.000000 -0.014521
# 5 0.008977 -0.017417 0.055454 0.000000 0.073209 0.000000
# 6 0.000000 0.000000 0.000000 -0.014521 0.000000 0.030123
#
#
# Mechanical properties :
#
#
# Convention : Reuss Voigt Hill
#
# Bulk Modulus (GPa) = 12.88216 46.35059 29.61637
# Shear Modulus (GPa) = 10.01573 24.22670 17.12121
#
# Velocity S-wave (km/s) = 2.24262 3.48788 2.93212
# Velocity P-wave (km/s) = 3.62967 6.28452 5.13175
#
# Compressibility (1/GPa) = 0.07762675
#
# Stress axis : x y z
#
# Youngs Moduli (GPa) = 73.27982 15.50206 12.36385
#
# Poissons Ratio (x) = 0.31154 -0.05099
# Poissons Ratio (y) = 1.47267 0.30578
# Poissons Ratio (z) = -0.30220 0.38339
#
# Static dielectric constant tensor:
#      x y z
#    x 1.658510 0.000000 -0.034480 
#    y 0.000000 1.681240 0.000000 
#    z -0.034480 0.000000 1.850990 
# 
# From -- ./inp_files/238306.got.cif
#   From: 2010.05.17/outbox.ucp.g08.bks.cvg/sg12_120_cif.got.tgz:238306.got - 2010.06.11 11:47:21.
