data_PCOD9223349
_publ_section_title
;
Structure prediction by ZEFSAII (Michael W. Deem and Ramdas Pophale) SiO2 
 PCOD9223349
Probable space group: C 2/M
;
_chemical_formula_sum "Si O2"
_cell_formula_units_Z 28
_cell_length_a 18.000000
_cell_length_b 27.000000
_cell_length_c 9.000000
_cell_angle_alpha 90.000000
_cell_angle_beta 40.000000
_cell_angle_gamma 90.000000
_cell_volume 2811.553005
_symmetry_space_group_name_H-M "C 2/M"
_symmetry_group_IT_number 12
_symmetry_cell_setting 'monoclinic'
loop_
_space_group_symop_operation_xyz
x,y,z
-x,y,-z
-x,-y,-z
x,-y,z
1/2+x,1/2+y,z
1/2-x,1/2+y,-z
1/2-x,1/2-y,-z
1/2+x,1/2-y,z
loop_
_atom_site_type_symbol
_atom_site_label
_atom_site_fract_x
_atom_site_fract_y
_atom_site_fract_z
Si Si1 0.244095 0.556969 0.113968
Si Si2 0.507228 0.444546 0.820425
Si Si3 0.532906 0.793994 0.287438
Si Si4 0.084061 0.808451 0.080789
Si Si5 0.804082 0.356965 0.587197
Si Si6 0.345680 0.360107 0.461573
Si Si7 0.734296 0.647626 0.101308
O O1 0.202355 0.500000 0.170953
O O2 0.186882 0.593615 0.324624
O O3 0.378576 0.555223 0.955666
O O4 0.243634 0.589521 0.964841
O O5 0.551844 0.500000 0.764081
O O6 0.593109 0.411946 0.594284
O O7 0.500000 0.424257 0.000000
O O8 0.500000 0.773017 0.500000
O O9 0.566417 0.749600 0.127825
O O10 0.423512 0.826830 0.404464
O O11 0.648519 0.825961 0.130682
O O12 0.125319 0.833611 0.172468
O O13 0.957235 0.829076 0.235329
O O14 0.195666 0.823924 0.813492
O O15 0.755555 0.369661 0.499897
O O16 0.291225 0.338108 0.691968
#
# Coordination Sequence:
#
# PCOD9223349 Si02
#       7
#     8   8   8   8   8   8   8
#     4  10  20  38  64  94 122 156 209 256 309 375
#     4  10  18  32  60  92 122 160 199 249 318 379
#     4  12  24  43  65  85 121 168 221 253 304 373
#     4  11  23  40  65  88 118 164 212 256 309 362
#     4  11  24  42  63  91 128 166 208 258 308 373
#     4  12  22  39  60  92 134 160 196 262 317 370
#     4  11  24  40  62  91 125 164 206 258 312 366
#
# _framework density 9.9589090000000002
#
# number of rings (size 3 to 8) (size 9 to 14) (size 15 to 20)
#    0.000    1.000    7.143    2.143    2.000    1.714 
#    2.571    2.857    0.000    0.000    0.000    3.000 
#    0.000    0.000    0.000    0.000    0.000    0.000 
#
# Total GULP energy -156109.736061 kJ/mol
# GULP energy per Si atom -5575.347716 kJ/mol
# Density = 0.993624 g / cm^3
# Si number density = 9.958909 Si / 1000 Ang^3
#
#
#
# Elastic Constant Matrix: (Units=GPa)
#
#
# Indices 1 2 3 4 5 6 
#
# 1 34.7580 15.5194 2.1123 0.0000 -12.7138 0.0000
# 2 15.5194 120.9834 14.4921 0.0000 -15.4380 0.0000
# 3 2.1123 14.4921 53.8377 0.0000 -2.6514 0.0000
# 4 0.0000 0.0000 0.0000 0.7462 0.0000 -4.8076
# 5 -12.7138 -15.4380 -2.6514 0.0000 18.5225 0.0000
# 6 0.0000 0.0000 0.0000 -4.8076 0.0000 22.0034
#
#
#
# Elastic Compliance Matrix: (Units=1/GPa)
#
#
# Indices 1 2 3 4 5 6 
#
# 1 0.038751 -0.001787 0.000199 0.000000 0.025138 0.000000
# 2 -0.001787 0.009580 -0.002191 0.000000 0.006444 0.000000
# 3 0.000199 -0.002191 0.019209 0.000000 0.001060 0.000000
# 4 0.000000 0.000000 0.000000 -3.286430 -0.000001 -0.718068
# 5 0.025138 0.006444 0.001060 -0.000001 0.076765 0.000000
# 6 0.000000 0.000000 0.000000 -0.718068 0.000000 -0.111447
#
#
# Mechanical properties :
#
#
# Convention : Reuss Voigt Hill
#
# Bulk Modulus (GPa) = 16.67220 30.42519 23.54869
# Shear Modulus (GPa) = -1.54990 20.08476 9.26743
#
# Velocity S-wave (km/s) = -0.88308 3.17895 2.15938
# Velocity P-wave (km/s) = 2.71088 5.36496 4.25039
#
# Compressibility (1/GPa) = 0.05998009
#
# Stress axis : x y z
#
# Youngs Moduli (GPa) = 25.80576 104.38858 52.06013
#
# Poissons Ratio (x) = 0.18654 -0.01034
# Poissons Ratio (y) = 0.04612 0.11407
# Poissons Ratio (z) = -0.00513 0.22873
#
# Static dielectric constant tensor:
#      x y z
#    x 1.733690 0.000000 0.091530 
#    y 0.000000 1.742160 0.000000 
#    z 0.091530 0.000000 1.761760 
# 
# From -- ./inp_files/53157.got.cif
#   From: 2010.05.17/outbox.ucp.g08.bks.cvg/sg12_27_cif.got.tgz:53157.got - 2010.06.11 11:47:21.
