data_PCOD9223577
_publ_section_title
;
Structure prediction by ZEFSAII (Michael W. Deem and Ramdas Pophale) SiO2 
 PCOD9223577
Probable space group: C 2/M
;
_chemical_formula_sum "Si O2"
_cell_formula_units_Z 28
_cell_length_a 21.000000
_cell_length_b 9.000000
_cell_length_c 21.000000
_cell_angle_alpha 90.000000
_cell_angle_beta 50.000000
_cell_angle_gamma 90.000000
_cell_volume 3040.430395
_symmetry_space_group_name_H-M "C 2/M"
_symmetry_group_IT_number 12
_symmetry_cell_setting 'monoclinic'
loop_
_space_group_symop_operation_xyz
x,y,z
-x,y,-z
-x,-y,-z
x,-y,z
1/2+x,1/2+y,z
1/2-x,1/2+y,-z
1/2-x,1/2-y,-z
1/2+x,1/2-y,z
loop_
_atom_site_type_symbol
_atom_site_label
_atom_site_fract_x
_atom_site_fract_y
_atom_site_fract_z
Si Si1 0.096924 0.325450 0.129752
Si Si2 0.831001 0.170984 0.471953
Si Si3 0.906119 0.675002 0.546253
Si Si4 0.864675 0.169720 0.692638
Si Si5 0.431727 0.180958 0.992541
Si Si6 0.741685 0.324307 0.112294
Si Si7 0.003164 0.167474 0.702704
O O1 0.112330 0.500000 0.115642
O O2 0.056164 0.276947 0.089164
O O3 0.183436 0.250547 0.096374
O O4 0.032488 0.285549 0.226179
O O5 0.750000 0.250000 0.500000
O O6 0.867315 0.247611 0.510751
O O7 0.900619 0.179045 0.372565
O O8 0.814798 0.000000 0.496670
O O9 0.908662 0.500000 0.534198
O O10 0.854779 0.717579 0.641962
O O11 0.000000 0.727946 0.500000
O O12 0.804398 0.194181 0.790806
O O13 0.955221 0.184659 0.666706
O O14 0.855232 0.000000 0.675840
O O15 0.433106 0.000000 0.995893
O O16 0.500000 0.234355 0.000000
O O17 0.335712 0.228780 0.062559
O O18 0.744864 0.500000 0.095584
O O19 0.981376 0.000000 0.739439
#
# Coordination Sequence:
#
# PCOD9223577 Si02
#       7
#     8   8   8   8   8   8   8
#     4  10  19  31  55  85 107 136 180 227 268 314
#     4  11  23  40  59  80 111 150 189 228 276 331
#     4  11  22  35  56  84 113 145 183 231 278 320
#     4   9  17  32  54  81 106 140 186 225 271 324
#     4   9  18  34  54  78 110 142 177 220 266 322
#     4   9  18  34  56  79 107 143 181 221 269 324
#     4   9  19  36  57  79 110 146 179 222 274 329
#
# _framework density 9.2092220000000005
#
# number of rings (size 3 to 8) (size 9 to 14) (size 15 to 20)
#    0.000    2.286    1.429    2.571    0.000    4.000 
#    2.571    0.714    0.000    3.857    0.000    0.000 
#    0.000    0.000    0.000    0.000    0.000    0.000 
#
# Total GULP energy -155976.967700 kJ/mol
# GULP energy per Si atom -5570.605989 kJ/mol
# Density = 0.918826 g / cm^3
# Si number density = 9.209222 Si / 1000 Ang^3
#
#
#
# Elastic Constant Matrix: (Units=GPa)
#
#
# Indices 1 2 3 4 5 6 
#
# 1 150.3649 61.3156 40.2141 0.0001 11.0698 0.0001
# 2 61.3156 43.1861 43.2632 0.0002 6.7126 0.0004
# 3 40.2141 43.2632 43.8395 0.0000 10.3053 0.0000
# 4 0.0001 0.0002 0.0000 44.3569 0.0000 17.1934
# 5 11.0698 6.7126 10.3053 0.0000 14.0605 0.0000
# 6 0.0001 0.0004 0.0000 17.1934 0.0000 34.9518
#
#
#
# Elastic Compliance Matrix: (Units=1/GPa)
#
#
# Indices 1 2 3 4 5 6 
#
# 1 0.000974 0.040238 -0.043381 0.000000 0.011818 0.000000
# 2 0.040238 -0.206102 0.182189 0.000000 -0.066815 0.000002
# 3 -0.043381 0.182189 -0.126581 0.000000 0.039949 -0.000002
# 4 0.000000 0.000000 0.000000 0.027856 0.000000 -0.013703
# 5 0.011818 -0.066815 0.039949 0.000000 0.064435 0.000001
# 6 0.000000 0.000002 -0.000002 -0.013703 0.000001 0.035352
#
#
# Mechanical properties :
#
#
# Convention : Reuss Voigt Hill
#
# Bulk Modulus (GPa) = 37.90316 58.55291 48.22803
# Shear Modulus (GPa) = -9.03564 24.84701 7.90569
#
# Velocity S-wave (km/s) = -2.21730 3.67690 2.07403
# Velocity P-wave (km/s) = 3.75078 7.06297 5.65481
#
# Compressibility (1/GPa) = 0.02638303
#
# Stress axis : x y z
#
# Youngs Moduli (GPa) = 1026.58195 -4.85196 -7.90010
#
# Poissons Ratio (x) = 0.19523 -0.34271
# Poissons Ratio (y) = -41.30758 1.43931
# Poissons Ratio (z) = 44.53367 0.88397
#
# Static dielectric constant tensor:
#      x y z
#    x 1.606840 0.000000 -0.017800 
#    y 0.000000 1.632850 0.000000 
#    z -0.017800 0.000000 1.676600 
# 
# From -- ./inp_files/319667.got.cif
#   From: 2010.05.17/outbox.ucp.g08.bks.cvg/sg12_160_cif.got.tgz:319667.got - 2010.06.11 11:47:21.
