data_PCOD9223331
_publ_section_title
;
Structure prediction by ZEFSAII (Michael W. Deem and Ramdas Pophale) SiO2 
 PCOD9223331
Probable space group: C 2/M
;
_chemical_formula_sum "Si O2"
_cell_formula_units_Z 32
_cell_length_a 18.000000
_cell_length_b 18.000000
_cell_length_c 21.000000
_cell_angle_alpha 90.000000
_cell_angle_beta 150.000000
_cell_angle_gamma 90.000000
_cell_volume 3402.000000
_symmetry_space_group_name_H-M "C 2/M"
_symmetry_group_IT_number 12
_symmetry_cell_setting 'monoclinic'
loop_
_space_group_symop_operation_xyz
x,y,z
-x,y,-z
-x,-y,-z
x,-y,z
1/2+x,1/2+y,z
1/2-x,1/2+y,-z
1/2-x,1/2-y,-z
1/2+x,1/2-y,z
loop_
_atom_site_type_symbol
_atom_site_label
_atom_site_fract_x
_atom_site_fract_y
_atom_site_fract_z
Si Si1 0.288130 0.838785 0.211224
Si Si2 0.297458 0.911080 0.995910
Si Si3 0.428248 0.633039 0.061172
Si Si4 0.253421 0.915344 0.318489
Si Si5 0.482527 0.781519 0.801966
Si Si6 0.396210 0.912341 0.561787
Si Si7 0.214071 0.819051 0.519435
Si Si8 0.109150 0.805027 0.769342
O O1 0.286822 0.861834 0.284069
O O2 0.447800 0.872187 0.308979
O O3 0.294133 0.751534 0.200882
O O4 0.150641 0.869376 0.066701
O O5 0.194851 0.896418 0.981416
O O6 0.203192 0.873613 0.867764
O O7 0.325081 0.000000 0.008769
O O8 0.437892 0.857038 0.115238
O O9 0.575002 0.585684 0.184934
O O10 0.481454 0.717033 0.119485
O O11 0.323266 0.891940 0.438500
O O12 0.305921 0.000000 0.344431
O O13 0.311452 0.800042 0.654870
O O14 0.556473 0.744093 0.792672
O O15 0.286344 0.888820 0.536720
O O16 0.419573 0.000000 0.577841
O O17 0.250000 0.750000 0.500000
O O18 0.035849 0.825802 0.380613
#
# Coordination Sequence:
#
# PCOD9223331 Si02
#       8
#     8   8   8   8   8   8   8   8
#     4  12  21  36  54  73 111 156 187 220 262 317
#     4  11  20  33  55  82 112 142 174 226 290 332
#     4  11  21  36  55  77 112 146 183 227 267 323
#     4  11  25  38  51  79 115 152 191 224 258 315
#     4  10  18  35  54  80 105 141 181 230 278 331
#     4  11  22  37  54  79 114 147 184 227 272 320
#     4  10  18  32  56  76 102 143 185 224 275 321
#     4  10  19  35  53  78 105 142 189 225 269 332
#
# _framework density 9.4062319999999993
#
# number of rings (size 3 to 8) (size 9 to 14) (size 15 to 20)
#    0.000    1.250    5.000    4.500    0.000    6.500 
#    0.000    0.000    0.000    0.000    0.000    1.750 
#    0.000    3.000    0.000    0.000    0.000    0.000 
#
# Total GULP energy -178470.341158 kJ/mol
# GULP energy per Si atom -5577.198161 kJ/mol
# Density = 0.938482 g / cm^3
# Si number density = 9.406232 Si / 1000 Ang^3
#
#
#
# Elastic Constant Matrix: (Units=GPa)
#
#
# Indices 1 2 3 4 5 6 
#
# 1 15.7662 6.6945 -2.3323 0.0006 -5.7451 0.0003
# 2 6.6945 115.9680 37.9203 -0.0004 -6.7526 -0.0001
# 3 -2.3323 37.9203 150.8841 0.0018 -10.6116 0.0013
# 4 0.0006 -0.0004 0.0018 32.2021 0.0009 -5.3731
# 5 -5.7451 -6.7526 -10.6116 0.0009 23.3771 0.0006
# 6 0.0003 -0.0001 0.0013 -5.3731 0.0006 22.0007
#
#
#
# Elastic Compliance Matrix: (Units=1/GPa)
#
#
# Indices 1 2 3 4 5 6 
#
# 1 0.072349 -0.004253 0.003462 -0.000003 0.018123 -0.000002
# 2 -0.004253 0.009711 -0.002461 0.000000 0.000643 0.000000
# 3 0.003462 -0.002461 0.007551 -0.000001 0.003567 -0.000001
# 4 -0.000003 0.000000 -0.000001 0.032373 -0.000002 0.007906
# 5 0.018123 0.000643 0.003567 -0.000002 0.049036 -0.000002
# 6 -0.000002 0.000000 -0.000001 0.007906 -0.000002 0.047384
#
#
# Mechanical properties :
#
#
# Convention : Reuss Voigt Hill
#
# Bulk Modulus (GPa) = 12.03290 40.79813 26.41551
# Shear Modulus (GPa) = 19.79339 31.53838 25.66588
#
# Velocity S-wave (km/s) = 3.24719 4.09890 3.69765
# Velocity P-wave (km/s) = 4.52428 6.64343 5.68350
#
# Compressibility (1/GPa) = 0.08310547
#
# Stress axis : x y z
#
# Youngs Moduli (GPa) = 13.82189 102.97864 132.44122
#
# Poissons Ratio (x) = 0.43799 -0.45849
# Poissons Ratio (y) = 0.05879 0.32595
# Poissons Ratio (z) = -0.04785 0.25344
#
# Static dielectric constant tensor:
#      x y z
#    x 1.714420 0.000000 0.040750 
#    y 0.000000 1.576740 0.000000 
#    z 0.040750 0.000000 1.683350 
# 
# From -- ./inp_files/317392.got.cif
#   From: 2010.05.17/outbox.ucp.g08.bks.cvg/sg12_159_cif.got.tgz:317392.got - 2010.06.11 11:47:21.
