data_PCOD9223891
_publ_section_title
;
Structure prediction by ZEFSAII (Michael W. Deem and Ramdas Pophale) SiO2 
 PCOD9223891
Probable space group: C 2/M
;
_chemical_formula_sum "Si O2"
_cell_formula_units_Z 32
_cell_length_a 9.000000
_cell_length_b 24.000000
_cell_length_c 15.000000
_cell_angle_alpha 90.000000
_cell_angle_beta 90.000000
_cell_angle_gamma 90.000000
_cell_volume 3240.000000
_symmetry_space_group_name_H-M "C 2/M"
_symmetry_group_IT_number 12
_symmetry_cell_setting 'monoclinic'
loop_
_space_group_symop_operation_xyz
x,y,z
-x,y,-z
-x,-y,-z
x,-y,z
1/2+x,1/2+y,z
1/2-x,1/2+y,-z
1/2-x,1/2-y,-z
1/2+x,1/2-y,z
loop_
_atom_site_type_symbol
_atom_site_label
_atom_site_fract_x
_atom_site_fract_y
_atom_site_fract_z
Si Si1 0.167214 0.666621 0.119180
Si Si2 0.687716 0.160683 0.910842
Si Si3 0.822566 0.888107 0.414095
Si Si4 0.343882 0.433213 0.603091
Si Si5 0.193697 0.563851 0.786597
Si Si6 0.159625 0.564880 0.241515
Si Si7 0.452786 0.265711 0.396310
Si Si8 0.779094 0.767564 0.742822
O O1 0.205193 0.605751 0.159988
O O2 0.213321 0.708879 0.200132
O O3 0.988536 0.672388 0.105008
O O4 0.225839 0.673049 0.015512
O O5 0.713326 0.097396 0.878468
O O6 0.770225 0.192910 0.829985
O O7 0.774595 0.904820 0.514543
O O8 0.717466 0.909406 0.334816
O O9 0.856057 0.822140 0.409712
O O10 0.982094 0.917922 0.399505
O O11 0.324280 0.500000 0.595748
O O12 0.278561 0.414510 0.698325
O O13 0.239064 0.500000 0.799106
O O14 0.019405 0.565720 0.761652
O O15 0.207454 0.500000 0.233416
O O16 0.500000 0.249039 0.500000
O O17 0.356760 0.227533 0.328080
O O18 0.588715 0.277153 0.328255
#
# Coordination Sequence:
#
# PCOD9223891 Si02
#       8
#     8   8   8   8   8   8   8   8
#     4  10  21  39  60  91 119 159 207 255 303 361
#     4  10  21  38  64  87 119 160 206 254 308 355
#     4  11  20  35  57  84 118 155 201 242 295 361
#     4  10  19  34  57  82 116 160 202 240 292 358
#     4   9  20  37  58  88 119 154 199 250 301 358
#     4  10  20  36  59  88 122 155 196 251 303 353
#     4  12  25  42  63  89 124 157 201 249 302 366
#     4  12  23  43  63  90 123 160 204 254 303 357
#
# _framework density 9.8765429999999999
#
# number of rings (size 3 to 8) (size 9 to 14) (size 15 to 20)
#    0.000    1.500    3.750    3.000    0.000    1.000 
#    0.000    4.375    0.000    0.000    0.000    3.500 
#    0.000    0.000    0.000    0.000    0.000    0.000 
#
# Total GULP energy -178297.813736 kJ/mol
# GULP energy per Si atom -5571.806679 kJ/mol
# Density = 0.985406 g / cm^3
# Si number density = 9.876543 Si / 1000 Ang^3
#
#
#
# Elastic Constant Matrix: (Units=GPa)
#
#
# Indices 1 2 3 4 5 6 
#
# 1 14.5488 -7.7744 3.7983 0.0000 -5.8546 0.0000
# 2 -7.7744 48.2625 21.9128 0.0000 -2.0835 0.0000
# 3 3.7983 21.9128 158.5963 0.0000 -8.7662 0.0000
# 4 0.0000 0.0000 0.0000 32.8352 0.0000 1.8577
# 5 -5.8546 -2.0835 -8.7662 0.0000 38.5472 0.0000
# 6 0.0000 0.0000 0.0000 1.8577 0.0000 14.0431
#
#
#
# Elastic Compliance Matrix: (Units=1/GPa)
#
#
# Indices 1 2 3 4 5 6 
#
# 1 0.082991 0.015470 -0.003425 0.000000 0.012662 0.000000
# 2 0.015470 0.025000 -0.003666 0.000000 0.002867 0.000000
# 3 -0.003425 -0.003666 0.006941 0.000000 0.000860 0.000000
# 4 0.000000 0.000000 0.000000 0.030685 0.000000 -0.004059
# 5 0.012662 0.002867 0.000860 0.000000 0.028216 0.000000
# 6 0.000000 0.000000 0.000000 -0.004059 0.000000 0.071746
#
#
# Mechanical properties :
#
#
# Convention : Reuss Voigt Hill
#
# Bulk Modulus (GPa) = 7.59358 28.58679 18.09018
# Shear Modulus (GPa) = 18.33392 30.64983 24.49188
#
# Velocity S-wave (km/s) = 3.04987 3.94337 3.52504
# Velocity P-wave (km/s) = 4.03173 5.93608 5.07405
#
# Compressibility (1/GPa) = 0.13169027
#
# Stress axis : x y z
#
# Youngs Moduli (GPa) = 12.04955 39.99927 144.06203
#
# Poissons Ratio (x) = -0.61880 0.49344
# Poissons Ratio (y) = -0.18641 0.52817
# Poissons Ratio (z) = 0.04127 0.14665
#
# Static dielectric constant tensor:
#      x y z
#    x 1.741680 0.000000 -0.012440 
#    y 0.000000 1.781720 0.000000 
#    z -0.012440 0.000000 1.669870 
# 
# From -- ./inp_files/198900.got.cif
#   From: 2010.05.17/outbox.ucp.g08.bks.cvg/sg12_100_cif.got.tgz:198900.got - 2010.06.11 11:47:21.
