data_PCOD9223232
_publ_section_title
;
Structure prediction by ZEFSAII (Michael W. Deem and Ramdas Pophale) SiO2 
 PCOD9223232
Probable space group: C 2/M
;
_chemical_formula_sum "Si O2"
_cell_formula_units_Z 32
_cell_length_a 24.000000
_cell_length_b 9.000000
_cell_length_c 30.000000
_cell_angle_alpha 90.000000
_cell_angle_beta 150.000000
_cell_angle_gamma 90.000000
_cell_volume 3240.000000
_symmetry_space_group_name_H-M "C 2/M"
_symmetry_group_IT_number 12
_symmetry_cell_setting 'monoclinic'
loop_
_space_group_symop_operation_xyz
x,y,z
-x,y,-z
-x,-y,-z
x,-y,z
1/2+x,1/2+y,z
1/2-x,1/2+y,-z
1/2-x,1/2-y,-z
1/2+x,1/2-y,z
loop_
_atom_site_type_symbol
_atom_site_label
_atom_site_fract_x
_atom_site_fract_y
_atom_site_fract_z
Si Si1 0.878849 0.661099 0.936708
Si Si2 0.843772 0.824329 0.133831
Si Si3 0.876273 0.825316 0.779107
Si Si4 0.919579 0.177342 0.285619
Si Si5 0.360512 0.833740 0.587397
Si Si6 0.121495 0.173230 0.977240
Si Si7 0.933128 0.334383 0.738797
Si Si8 0.223885 0.169058 0.742456
O O1 0.858640 0.500000 0.946359
O O2 0.799834 0.665703 0.839566
O O3 0.876047 0.797976 0.968056
O O4 0.000000 0.656757 0.000000
O O5 0.853472 0.787314 0.193786
O O6 0.945737 0.739161 0.182156
O O7 0.858586 0.000000 0.138485
O O8 0.726777 0.767334 0.034500
O O9 0.858063 0.768412 0.717218
O O10 0.785239 0.761096 0.748392
O O11 0.000635 0.771291 0.878425
O O12 0.879333 0.000000 0.784398
O O13 0.882999 0.238519 0.308261
O O14 0.040925 0.234132 0.361886
O O15 0.914037 0.000000 0.285372
O O16 0.250000 0.750000 0.500000
O O17 0.381092 0.842830 0.654235
O O18 0.363403 0.000000 0.571072
O O19 0.134449 0.000000 0.975049
O O20 0.941855 0.500000 0.763759
O O21 0.207932 0.000000 0.715780
#
# Coordination Sequence:
#
# PCOD9223232 Si02
#       8
#     8   8   8   8   8   8   8   8
#     4  10  18  30  48  70  99 140 191 238 280 318
#     4  10  19  34  55  77 104 142 186 234 282 325
#     4  11  24  37  50  74 108 152 195 230 273 321
#     4   9  18  33  55  84 114 142 176 220 272 322
#     4  10  21  38  64  94 116 136 166 208 265 326
#     4  11  22  32  46  72 106 144 191 239 281 320
#     4  10  22  40  59  81 108 141 180 222 269 326
#     4  10  19  33  53  77 107 146 188 229 274 322
#
# _framework density 9.8765429999999999
#
# number of rings (size 3 to 8) (size 9 to 14) (size 15 to 20)
#    0.000    1.875    2.500    1.875    0.000    5.250 
#    0.000    0.000    0.000    0.750    0.000    5.250 
#    0.000    0.000    0.000    0.000    0.000    0.000 
#
# Total GULP energy -178233.657791 kJ/mol
# GULP energy per Si atom -5569.801806 kJ/mol
# Density = 0.985406 g / cm^3
# Si number density = 9.876543 Si / 1000 Ang^3
#
#
#
# Elastic Constant Matrix: (Units=GPa)
#
#
# Indices 1 2 3 4 5 6 
#
# 1 111.4844 26.0763 36.0983 0.0000 5.8836 0.0001
# 2 26.0763 -11.2885 17.5364 0.0002 7.5229 0.0002
# 3 36.0983 17.5364 36.1214 0.0002 27.7961 0.0000
# 4 0.0000 0.0002 0.0002 14.5201 0.0000 -8.0129
# 5 5.8836 7.5229 27.7961 0.0000 -9.8346 0.0000
# 6 0.0001 0.0002 0.0000 -8.0129 0.0000 5.6367
#
#
#
# Elastic Compliance Matrix: (Units=1/GPa)
#
#
# Indices 1 2 3 4 5 6 
#
# 1 0.010054 0.006864 -0.006945 -0.000001 -0.008363 -0.000002
# 2 0.006864 -0.048905 0.013389 0.000007 0.004540 0.000012
# 3 -0.006945 0.013389 0.007383 -0.000002 0.026954 -0.000004
# 4 -0.000001 0.000007 -0.000002 0.319568 -0.000002 0.454288
# 5 -0.008363 0.004540 0.026954 -0.000002 -0.027030 -0.000003
# 6 -0.000002 0.000012 -0.000004 0.454288 -0.000003 0.823210
#
#
# Mechanical properties :
#
#
# Convention : Reuss Voigt Hill
#
# Bulk Modulus (GPa) = -206.15477 32.85990 -86.64744
# Shear Modulus (GPa) = 4.73464 5.83819 5.28641
#
# Velocity S-wave (km/s) = 1.54988 1.72105 1.63770
# Velocity P-wave (km/s) = 10.06924 4.54101 6.35487
#
# Compressibility (1/GPa) = -0.00485072
#
# Stress axis : x y z
#
# Youngs Moduli (GPa) = 99.45805 -20.44793 135.44813
#
# Poissons Ratio (x) = 0.14035 0.94066
# Poissons Ratio (y) = -0.68266 -1.81356
# Poissons Ratio (z) = 0.69072 0.27378
#
# Static dielectric constant tensor:
#      x y z
#    x 1.501250 0.000000 -0.204050 
#    y 0.000000 1.699050 0.000000 
#    z -0.204050 0.000000 1.516630 
# 
# From -- ./inp_files/382523.got.cif
#   From: 2010.05.17/outbox.ucp.g08.bks.cvg/sg12_192_cif.got.tgz:382523.got - 2010.06.11 11:47:21.
