data_PCOD9223800
_publ_section_title
;
Structure prediction by ZEFSAII (Michael W. Deem and Ramdas Pophale) SiO2 
 PCOD9223800
Probable space group: C 2/M
;
_chemical_formula_sum "Si O2"
_cell_formula_units_Z 24
_cell_length_a 27.000000
_cell_length_b 9.000000
_cell_length_c 15.000000
_cell_angle_alpha 90.000000
_cell_angle_beta 140.000000
_cell_angle_gamma 90.000000
_cell_volume 2342.960837
_symmetry_space_group_name_H-M "C 2/M"
_symmetry_group_IT_number 12
_symmetry_cell_setting 'monoclinic'
loop_
_space_group_symop_operation_xyz
x,y,z
-x,y,-z
-x,-y,-z
x,-y,z
1/2+x,1/2+y,z
1/2-x,1/2+y,-z
1/2-x,1/2-y,-z
1/2+x,1/2-y,z
loop_
_atom_site_type_symbol
_atom_site_label
_atom_site_fract_x
_atom_site_fract_y
_atom_site_fract_z
Si Si1 0.314250 0.175672 0.707695
Si Si2 0.305880 0.825993 0.216219
Si Si3 0.069510 0.173978 0.485384
Si Si4 0.145488 0.678184 0.044182
Si Si5 0.421601 0.175453 0.227278
Si Si6 0.151832 0.673384 0.446687
O O1 0.362359 0.216490 0.862183
O O2 0.237943 0.275973 0.593685
O O3 0.355934 0.188856 0.670360
O O4 0.291493 0.000000 0.685159
O O5 0.372558 0.765095 0.372635
O O6 0.228896 0.737530 0.130723
O O7 0.339524 0.809801 0.163171
O O8 0.292998 0.000000 0.215369
O O9 0.096145 0.218435 0.422772
O O10 0.982572 0.231376 0.367695
O O11 0.075763 0.000000 0.511734
O O12 0.145066 0.500000 0.037737
O O13 0.086335 0.727478 0.885903
O O14 0.442964 0.000000 0.259873
O O15 0.139382 0.500000 0.452606
#
# Coordination Sequence:
#
# PCOD9223800 Si02
#       6
#     8   8   8   8   8   8
#     4   9  18  33  56  86 114 143 182 226 276 333
#     4  11  22  37  59  85 112 147 190 233 279 333
#     4  12  24  38  57  82 112 149 193 237 282 331
#     4  10  20  37  60  86 116 148 183 227 277 335
#     4  10  23  40  57  81 116 152 186 228 281 338
#     4  10  19  33  56  84 113 145 183 230 280 330
#
# _framework density 10.243449
#
# number of rings (size 3 to 8) (size 9 to 14) (size 15 to 20)
#    0.000    1.667    1.667    3.500    0.000    4.667 
#    0.000    0.833    0.000    5.000    0.000    0.000 
#    0.000    0.000    0.000    0.000    0.000    0.000 
#
# Total GULP energy -133999.563982 kJ/mol
# GULP energy per Si atom -5583.315166 kJ/mol
# Density = 1.022013 g / cm^3
# Si number density = 10.243449 Si / 1000 Ang^3
#
#
#
# Elastic Constant Matrix: (Units=GPa)
#
#
# Indices 1 2 3 4 5 6 
#
# 1 38.6367 -4.1131 2.4690 0.0000 -14.6469 0.0000
# 2 -4.1131 -21.7902 -10.7322 0.0000 -15.1525 0.0000
# 3 2.4690 -10.7322 81.7430 0.0000 -27.2606 0.0000
# 4 0.0000 0.0000 0.0000 17.2907 0.0000 3.0579
# 5 -14.6469 -15.1525 -27.2606 0.0000 30.6614 0.0000
# 6 0.0000 0.0000 0.0000 3.0579 0.0000 28.2051
#
#
#
# Elastic Compliance Matrix: (Units=1/GPa)
#
#
# Indices 1 2 3 4 5 6 
#
# 1 0.027760 -0.011109 0.000419 0.000000 0.008143 0.000000
# 2 -0.011109 -0.020893 -0.010832 0.000000 -0.025263 0.000000
# 3 0.000419 -0.010832 0.012907 0.000000 0.006322 0.000000
# 4 0.000000 0.000000 0.000000 0.058965 0.000000 -0.006393
# 5 0.008143 -0.025263 0.006322 0.000000 0.029641 0.000000
# 6 0.000000 0.000000 0.000000 -0.006393 0.000000 0.036148
#
#
# Mechanical properties :
#
#
# Convention : Reuss Voigt Hill
#
# Bulk Modulus (GPa) = -42.97178 8.20409 -17.38385
# Shear Modulus (GPa) = 27.80626 22.62916 25.21771
#
# Velocity S-wave (km/s) = 3.68811 3.32711 3.51225
# Velocity P-wave (km/s) = 1.69840 4.33276 2.81853
#
# Compressibility (1/GPa) = -0.02327109
#
# Stress axis : x y z
#
# Youngs Moduli (GPa) = 36.02330 -47.86320 77.47727
#
# Poissons Ratio (x) = -0.53170 -0.03244
# Poissons Ratio (y) = 0.40018 0.83927
# Poissons Ratio (z) = -0.01508 -0.51847
#
# Static dielectric constant tensor:
#      x y z
#    x 1.809160 0.000000 -0.023890 
#    y 0.000000 1.677600 0.000000 
#    z -0.023890 0.000000 1.734320 
# 
# From -- ./inp_files/230398.got.cif
#   From: 2010.05.17/outbox.ucp.g08.bks.cvg/sg12_116_cif.got.tgz:230398.got - 2010.06.11 11:47:21.
