data_PCOD9223484
_publ_section_title
;
Structure prediction by ZEFSAII (Michael W. Deem and Ramdas Pophale) SiO2 
 PCOD9223484
Probable space group: C 2/M
;
_chemical_formula_sum "Si O2"
_cell_formula_units_Z 32
_cell_length_a 24.000000
_cell_length_b 9.000000
_cell_length_c 21.000000
_cell_angle_alpha 90.000000
_cell_angle_beta 50.000000
_cell_angle_gamma 90.000000
_cell_volume 3474.777594
_symmetry_space_group_name_H-M "C 2/M"
_symmetry_group_IT_number 12
_symmetry_cell_setting 'monoclinic'
loop_
_space_group_symop_operation_xyz
x,y,z
-x,y,-z
-x,-y,-z
x,-y,z
1/2+x,1/2+y,z
1/2-x,1/2+y,-z
1/2-x,1/2-y,-z
1/2+x,1/2-y,z
loop_
_atom_site_type_symbol
_atom_site_label
_atom_site_fract_x
_atom_site_fract_y
_atom_site_fract_z
Si Si1 0.544975 0.172314 0.127768
Si Si2 0.756801 0.676167 0.688966
Si Si3 0.761259 0.327905 0.831044
Si Si4 0.108114 0.821577 0.453240
Si Si5 0.604426 0.824889 0.803242
Si Si6 0.883580 0.175727 0.809842
Si Si7 0.031331 0.819648 0.376427
Si Si8 0.382417 0.168868 0.060833
O O1 0.462438 0.226823 0.189882
O O2 0.594128 0.263291 0.138783
O O3 0.547492 0.000000 0.145265
O O4 0.568490 0.177173 0.037083
O O5 0.759732 0.500000 0.684425
O O6 0.776331 0.722116 0.747428
O O7 0.813979 0.748671 0.599980
O O8 0.676416 0.734617 0.737317
O O9 0.779866 0.500000 0.824005
O O10 0.804463 0.230111 0.848786
O O11 0.677039 0.295978 0.902194
O O12 0.074117 0.776910 0.409443
O O13 0.051489 0.775750 0.549109
O O14 0.113597 0.000000 0.449043
O O15 0.585081 0.812109 0.892703
O O16 0.616706 0.000000 0.783111
O O17 0.934254 0.234688 0.714453
O O18 0.887707 0.000000 0.806688
O O19 0.033754 0.000000 0.373388
O O20 0.350103 0.000000 0.085074
#
# Coordination Sequence:
#
# PCOD9223484 Si02
#       8
#     8   8   8   8   8   8   8   8
#     4  10  21  36  53  75 100 129 168 211 254 296
#     4  10  19  30  48  78 109 131 158 205 257 297
#     4  10  20  33  49  73 105 136 165 202 250 298
#     4   9  15  29  52  75 100 130 166 204 243 292
#     4   9  18  34  56  76  96 129 170 209 249 296
#     4  11  21  34  52  73 102 138 171 201 242 301
#     4   8  16  29  49  75 100 130 168 205 238 288
#     4   9  18  34  56  77  97 125 166 214 254 294
#
# _framework density 9.2092220000000005
#
# number of rings (size 3 to 8) (size 9 to 14) (size 15 to 20)
#    0.000    2.500    1.250    2.250    0.000    4.000 
#    0.000    2.500    0.000    4.500    0.000    0.000 
#    0.000    0.000    0.000    0.000    0.000    0.000 
#
# Total GULP energy -178162.720468 kJ/mol
# GULP energy per Si atom -5567.585015 kJ/mol
# Density = 0.918826 g / cm^3
# Si number density = 9.209222 Si / 1000 Ang^3
#
#
#
# Elastic Constant Matrix: (Units=GPa)
#
#
# Indices 1 2 3 4 5 6 
#
# 1 21.6518 10.4073 0.5942 -0.0015 -19.0987 0.0018
# 2 10.4073 0.3528 4.7096 -0.0029 -7.2817 0.0036
# 3 0.5942 4.7096 9.2652 0.0003 -2.7431 -0.0005
# 4 -0.0015 -0.0029 0.0003 3.1346 0.0005 9.0782
# 5 -19.0987 -7.2817 -2.7431 0.0005 -4.8740 -0.0004
# 6 0.0018 0.0036 -0.0005 9.0782 -0.0004 5.4109
#
#
#
# Elastic Compliance Matrix: (Units=1/GPa)
#
#
# Indices 1 2 3 4 5 6 
#
# 1 -0.007523 0.055099 -0.037003 -0.000044 -0.032014 0.000034
# 2 0.055099 -0.156935 0.070058 0.000099 -0.020874 -0.000076
# 3 -0.037003 0.070058 0.074260 -0.000030 -0.001463 0.000023
# 4 -0.000044 0.000099 -0.000030 -0.082670 0.000023 0.138699
# 5 -0.032014 -0.020874 -0.001463 0.000023 -0.047714 -0.000017
# 6 0.000034 -0.000076 0.000023 0.138699 -0.000017 -0.047891
#
#
# Mechanical properties :
#
#
# Convention : Reuss Voigt Hill
#
# Bulk Modulus (GPa) = 11.61306 6.96576 9.28941
# Shear Modulus (GPa) = -12.01697 1.77155 -5.12271
#
# Velocity S-wave (km/s) = -2.55707 0.98180 -1.66953
# Velocity P-wave (km/s) = 1.54897 2.25286 1.15674
#
# Compressibility (1/GPa) = 0.08610996
#
# Stress axis : x y z
#
# Youngs Moduli (GPa) = -132.93198 -6.37205 13.46625
#
# Poissons Ratio (x) = 0.35109 0.49829
# Poissons Ratio (y) = 7.32441 -0.94342
# Poissons Ratio (z) = -4.91889 0.44641
#
# Static dielectric constant tensor:
#      x y z
#    x 1.631570 0.000000 -0.034570 
#    y 0.000000 1.617140 0.000000 
#    z -0.034570 0.000000 1.658400 
# 
# From -- ./inp_files/324173.got.cif
#   From: 2010.05.17/outbox.ucp.g08.bks.cvg/sg12_163_cif.got.tgz:324173.got - 2010.06.11 11:47:21.
