data_PCOD9223395
_publ_section_title
;
Structure prediction by ZEFSAII (Michael W. Deem and Ramdas Pophale) SiO2 
 PCOD9223395
Probable space group: C 2/M
;
_chemical_formula_sum "Si O2"
_cell_formula_units_Z 28
_cell_length_a 15.000000
_cell_length_b 12.000000
_cell_length_c 30.000000
_cell_angle_alpha 90.000000
_cell_angle_beta 30.000000
_cell_angle_gamma 90.000000
_cell_volume 2700.000000
_symmetry_space_group_name_H-M "C 2/M"
_symmetry_group_IT_number 12
_symmetry_cell_setting 'monoclinic'
loop_
_space_group_symop_operation_xyz
x,y,z
-x,y,-z
-x,-y,-z
x,-y,z
1/2+x,1/2+y,z
1/2-x,1/2+y,-z
1/2-x,1/2-y,-z
1/2+x,1/2-y,z
loop_
_atom_site_type_symbol
_atom_site_label
_atom_site_fract_x
_atom_site_fract_y
_atom_site_fract_z
Si Si1 0.184628 0.875458 0.212929
Si Si2 0.921840 0.727472 0.272792
Si Si3 0.333760 0.128781 0.907534
Si Si4 0.163409 0.220620 0.461237
Si Si5 0.020019 0.208525 0.898631
Si Si6 0.456408 0.312800 0.391697
Si Si7 0.217167 0.372835 0.288249
O O1 0.348336 0.793419 0.134185
O O2 0.027330 0.826588 0.251335
O O3 0.112875 0.871586 0.295402
O O4 0.231354 0.000000 0.180818
O O5 0.803406 0.671612 0.363661
O O6 0.796936 0.788864 0.290732
O O7 0.067343 0.655328 0.182246
O O8 0.419988 0.213930 0.905598
O O9 0.369538 0.000000 0.903261
O O10 0.122136 0.150958 0.007039
O O11 0.278312 0.313748 0.438504
O O12 0.083399 0.155441 0.539551
O O13 0.000000 0.257196 0.500000
O O14 0.151019 0.132238 0.811732
O O15 0.528017 0.184491 0.359396
O O16 0.202338 0.500000 0.309719
#
# Coordination Sequence:
#
# PCOD9223395 Si02
#       7
#     8   8   8   8   8   8   8
#     4  10  20  38  59  83 116 151 193 245 296 349
#     4  10  21  35  57  87 116 151 195 243 298 351
#     4  10  20  38  60  84 116 153 194 238 289 354
#     4  10  18  37  59  80 121 158 189 253 297 338
#     4   9  20  36  58  86 113 151 195 236 289 351
#     4   9  20  35  58  85 115 158 198 237 300 357
#     4  10  18  34  58  85 116 150 193 243 294 348
#
# _framework density 10.370369999999999
#
# number of rings (size 3 to 8) (size 9 to 14) (size 15 to 20)
#    0.000    2.286    1.429    1.286    0.000    0.571 
#    0.000   19.286    0.000    3.000    0.000    0.000 
#    0.000    0.000    0.000    0.000    0.000    0.000 
#
# Total GULP energy -155883.779057 kJ/mol
# GULP energy per Si atom -5567.277823 kJ/mol
# Density = 1.034677 g / cm^3
# Si number density = 10.370370 Si / 1000 Ang^3
#
#
#
# Elastic Constant Matrix: (Units=GPa)
#
#
# Indices 1 2 3 4 5 6 
#
# 1 83.2186 -3.4112 27.0599 0.0000 -1.7636 0.0000
# 2 -3.4112 54.3490 17.5501 0.0000 6.2210 0.0000
# 3 27.0599 17.5501 133.0840 -0.0003 21.5387 0.0000
# 4 0.0000 0.0000 -0.0003 -4.1876 0.0000 12.1940
# 5 -1.7636 6.2210 21.5387 0.0000 33.9238 0.0001
# 6 0.0000 0.0000 0.0000 12.1940 0.0001 -3.7308
#
#
#
# Elastic Compliance Matrix: (Units=1/GPa)
#
#
# Indices 1 2 3 4 5 6 
#
# 1 0.013208 0.001610 -0.003301 0.000000 0.002487 0.000000
# 2 0.001610 0.019554 -0.002607 0.000000 -0.001847 0.000000
# 3 -0.003301 -0.002607 0.009450 0.000000 -0.005694 0.000000
# 4 0.000000 0.000000 0.000000 0.028036 0.000000 0.091635
# 5 0.002487 -0.001847 -0.005694 0.000000 0.033561 0.000000
# 6 0.000000 0.000000 0.000000 0.091635 0.000000 0.031469
#
#
# Mechanical properties :
#
#
# Convention : Reuss Voigt Hill
#
# Bulk Modulus (GPa) = 29.74605 39.22769 34.48687
# Shear Modulus (GPa) = 32.24158 20.49795 26.36976
#
# Velocity S-wave (km/s) = 3.94700 3.14712 3.56954
# Velocity P-wave (km/s) = 5.92830 5.67100 5.80108
#
# Compressibility (1/GPa) = 0.03361791
#
# Stress axis : x y z
#
# Youngs Moduli (GPa) = 75.70900 51.14056 105.81522
#
# Poissons Ratio (x) = -0.08234 0.34924
# Poissons Ratio (y) = -0.12190 0.27587
# Poissons Ratio (z) = 0.24988 0.13333
#
# Static dielectric constant tensor:
#      x y z
#    x 1.796840 0.000000 -0.031110 
#    y 0.000000 1.696460 0.000000 
#    z -0.031110 0.000000 1.806150 
# 
# From -- ./inp_files/376226.got.cif
#   From: 2010.05.17/outbox.ucp.g08.bks.cvg/sg12_189_cif.got.tgz:376226.got - 2010.06.11 11:47:21.
