data_PCOD9223497
_publ_section_title
;
Structure prediction by ZEFSAII (Michael W. Deem and Ramdas Pophale) SiO2 
 PCOD9223497
Probable space group: C 2/M
;
_chemical_formula_sum "Si O2"
_cell_formula_units_Z 28
_cell_length_a 18.000000
_cell_length_b 24.000000
_cell_length_c 21.000000
_cell_angle_alpha 90.000000
_cell_angle_beta 160.000000
_cell_angle_gamma 90.000000
_cell_volume 3102.806740
_symmetry_space_group_name_H-M "C 2/M"
_symmetry_group_IT_number 12
_symmetry_cell_setting 'monoclinic'
loop_
_space_group_symop_operation_xyz
x,y,z
-x,y,-z
-x,-y,-z
x,-y,z
1/2+x,1/2+y,z
1/2-x,1/2+y,-z
1/2-x,1/2-y,-z
1/2+x,1/2-y,z
loop_
_atom_site_type_symbol
_atom_site_label
_atom_site_fract_x
_atom_site_fract_y
_atom_site_fract_z
Si Si1 0.402111 0.250533 0.489674
Si Si2 0.493771 0.939062 0.837180
Si Si3 0.154906 0.870467 0.510983
Si Si4 0.820869 0.736287 0.907671
Si Si5 0.272367 0.063883 0.790178
Si Si6 0.138464 0.132650 0.835764
Si Si7 0.929572 0.792408 0.114642
O O1 0.500000 0.234778 0.500000
O O2 0.344316 0.315934 0.445023
O O3 0.594909 0.245753 0.695232
O O4 0.178152 0.222614 0.329424
O O5 0.391075 0.896665 0.705316
O O6 0.313643 0.937191 0.748137
O O7 0.503025 0.000000 0.817182
O O8 0.721576 0.922939 0.051981
O O9 0.943613 0.904731 0.364416
O O10 0.086411 0.862891 0.382538
O O11 0.781574 0.680482 0.916717
O O12 0.905020 0.784844 0.020437
O O13 0.000000 0.723785 0.000000
O O14 0.255966 0.000000 0.798966
O O15 0.500000 0.087488 0.000000
O O16 0.114508 0.148990 0.889411
O O17 0.750000 0.750000 0.000000
#
# Coordination Sequence:
#
# PCOD9223497 Si02
#       7
#     8   8   8   8   8   8   8
#     4  11  21  32  53  78 102 137 181 216 258 314
#     4  11  22  34  49  70 100 138 181 221 258 300
#     4  11  21  30  49  70  98 137 179 214 255 301
#     4  10  20  33  56  77 102 142 181 217 255 311
#     4  10  19  31  46  65  96 135 178 226 257 285
#     4  10  23  34  52  72 105 141 174 217 268 302
#     4  10  21  37  51  75 109 136 176 223 267 309
#
# _framework density 9.0240880000000008
#
# number of rings (size 3 to 8) (size 9 to 14) (size 15 to 20)
#    0.000    1.571    2.857    3.429    4.000    8.000 
#    0.000    0.000    0.000    0.000    0.000    0.000 
#    0.000    1.143    0.000    0.143    0.000    0.000 
#
# Total GULP energy -155878.082559 kJ/mol
# GULP energy per Si atom -5567.074377 kJ/mol
# Density = 0.900355 g / cm^3
# Si number density = 9.024088 Si / 1000 Ang^3
#
#
#
# Elastic Constant Matrix: (Units=GPa)
#
#
# Indices 1 2 3 4 5 6 
#
# 1 14.8316 25.7470 11.1464 -0.0349 -0.7657 0.0187
# 2 25.7470 23.9835 14.1800 -0.0809 1.7996 -0.0405
# 3 11.1464 14.1800 73.5965 -0.0935 15.3951 -0.0647
# 4 -0.0349 -0.0809 -0.0935 -27.0904 -0.0374 -2.3365
# 5 -0.7657 1.7996 15.3951 -0.0374 14.5731 -0.0119
# 6 0.0187 -0.0405 -0.0647 -2.3365 -0.0119 10.2403
#
#
#
# Elastic Compliance Matrix: (Units=1/GPa)
#
#
# Indices 1 2 3 4 5 6 
#
# 1 -0.074900 0.082519 -0.002054 -0.000161 -0.011955 0.000400
# 2 0.082519 -0.043591 -0.007872 0.000056 0.018034 -0.000340
# 3 -0.002054 -0.007872 0.019556 -0.000020 -0.019795 0.000069
# 4 -0.000161 0.000056 -0.000020 -0.036201 -0.000094 -0.008259
# 5 -0.011955 0.018034 -0.019795 -0.000094 0.086676 0.000048
# 6 0.000400 -0.000340 0.000069 -0.008259 0.000048 0.095768
#
#
# Mechanical properties :
#
#
# Convention : Reuss Voigt Hill
#
# Bulk Modulus (GPa) = 21.62086 23.83981 22.73034
# Shear Modulus (GPa) = -60.63413 3.63380 -28.50016
#
# Velocity S-wave (km/s) = -5.80247 1.42048 -3.97812
# Velocity P-wave (km/s) = 5.73463 3.99099 2.91187
#
# Compressibility (1/GPa) = 0.04625162
#
# Stress axis : x y z
#
# Youngs Moduli (GPa) = -13.35109 -22.94048 51.13463
#
# Poissons Ratio (x) = 1.89303 0.10505
# Poissons Ratio (y) = 1.10172 0.40251
# Poissons Ratio (z) = -0.02743 -0.18058
#
# Static dielectric constant tensor:
#      x y z
#    x 1.679540 -0.000260 -0.064670 
#    y -0.000260 1.691150 -0.000380 
#    z -0.064670 -0.000380 1.647450 
# 
# From -- ./inp_files/286600.got.cif
#   From: 2010.05.17/outbox.ucp.g08.bks.cvg/sg12_144_cif.got.tgz:286600.got - 2010.06.11 11:47:21.
