data_PCOD9223055
_publ_section_title
;
Structure prediction by ZEFSAII (Michael W. Deem and Ramdas Pophale) SiO2 
 PCOD9223055
Probable space group: C 2/M
;
_chemical_formula_sum "Si O2"
_cell_formula_units_Z 48
_cell_length_a 9.825009
_cell_length_b 27.875215
_cell_length_c 7.867909
_cell_angle_alpha 90.000000
_cell_angle_beta 71.378587
_cell_angle_gamma 90.000000
_cell_volume 2042.011030
_symmetry_space_group_name_H-M "C 2/M"
_symmetry_group_IT_number 12
_symmetry_cell_setting 'monoclinic'
loop_
_space_group_symop_operation_xyz
x,y,z
-x,y,-z
-x,-y,-z
x,-y,z
1/2+x,1/2+y,z
1/2-x,1/2+y,-z
1/2-x,1/2-y,-z
1/2+x,1/2-y,z
loop_
_atom_site_type_symbol
_atom_site_label
_atom_site_fract_x
_atom_site_fract_y
_atom_site_fract_z
Si Si1 0.587514 0.444408 0.645221
Si Si2 0.066226 0.700368 0.778653
Si Si3 0.094167 0.553430 0.136333
Si Si4 0.151538 0.603560 0.616726
Si Si5 0.153816 0.779814 0.169862
Si Si6 0.663986 0.388472 0.105781
O O1 0.500000 0.444036 0.500000
O O2 0.620626 0.500000 0.667810
O O3 0.729475 0.412174 0.565387
O O4 0.476451 0.420668 0.819285
O O5 0.064010 0.653481 0.662634
O O6 0.234703 0.712618 0.723142
O O7 0.981662 0.746414 0.745509
O O8 0.000000 0.690008 0.000000
O O9 0.153978 0.500000 0.122408
O O10 0.972445 0.564128 0.321533
O O11 0.222182 0.591476 0.073907
O O12 0.000000 0.556398 0.000000
O O13 0.245754 0.606153 0.753723
O O14 0.123095 0.832620 0.108914
O O15 0.250000 0.750000 0.000000
#
# Coordination Sequence:
#
# PCOD9223055 Si02
#       6
#     8   8   8   8   8   8
#     4   9  16  25  37  56  85 116 140 166 210 264
#     4   9  16  27  43  62  86 114 144 177 214 255
#     4   9  14  20  33  53  77 105 137 171 208 254
#     4   9  15  24  37  56  82 111 139 171 212 253
#     4   9  16  27  43  62  85 113 144 177 214 254
#     4   9  16  25  37  55  81 112 141 171 211 253
#
# _framework density 23.506239000000001
#
# number of rings (size 3 to 8) (size 9 to 14) (size 15 to 20)
#    0.000    3.000    0.000    4.500    0.000    4.000 
#    0.000    0.833    0.000    0.000    0.000    0.000 
#    0.000   48.000    0.000    0.000    0.000    0.000 
#
# Total GULP energy -133952.522981 kJ/mol
# GULP energy per Si atom -5581.355124 kJ/mol
# Density = 2.345274 g / cm^3
# Si number density = 23.506239 Si / 1000 Ang^3
#
#
#
# Elastic Constant Matrix: (Units=GPa)
#
#
# Indices 1 2 3 4 5 6 
#
# 1 80.6814 42.1089 56.1524 0.0000 -15.0764 0.0000
# 2 42.1089 171.3603 54.0003 0.0000 -31.7312 0.0000
# 3 56.1524 54.0003 90.3309 0.0000 -18.6583 0.0000
# 4 0.0000 0.0000 0.0000 17.6036 0.0000 -27.9903
# 5 -15.0764 -31.7312 -18.6583 0.0000 42.4171 0.0000
# 6 0.0000 0.0000 0.0000 -27.9903 0.0000 9.2892
#
#
#
# Elastic Compliance Matrix: (Units=1/GPa)
#
#
# Indices 1 2 3 4 5 6 
#
# 1 0.022167 -0.001157 -0.012802 0.000000 0.001382 0.000000
# 2 -0.001157 0.007867 -0.003138 0.000000 0.004093 0.000000
# 3 -0.012802 -0.003138 0.021427 0.000000 0.002527 0.000000
# 4 0.000000 0.000000 0.000000 -0.014984 0.000000 -0.045151
# 5 0.001382 0.004093 0.002527 0.000000 0.028240 0.000000
# 6 0.000000 0.000000 0.000000 -0.045151 0.000000 -0.028396
#
#
# Mechanical properties :
#
#
# Convention : Reuss Voigt Hill
#
# Bulk Modulus (GPa) = 57.91955 71.87734 64.89845
# Shear Modulus (GPa) = 65.55607 26.53604 46.04605
#
# Velocity S-wave (km/s) = 5.28671 3.36355 4.43073
# Velocity P-wave (km/s) = 7.87143 6.76232 7.33786
#
# Compressibility (1/GPa) = 0.01726533
#
# Stress axis : x y z
#
# Youngs Moduli (GPa) = 45.11288 127.11571 46.67040
#
# Poissons Ratio (x) = 0.14705 0.59750
# Poissons Ratio (y) = 0.05219 0.14646
# Poissons Ratio (z) = 0.57756 0.39892
#
# Static dielectric constant tensor:
#      x y z
#    x 23.048480 0.000000 14.869420 
#    y 0.000000 1.660760 0.000000 
#    z 14.869420 0.000000 12.307510 
# 
# From -- ./inp_files/51991.got.cif
#   From: 2010.05.17/outbox.cif.g08.bks.cpg/sg12_26_cif.got.tgz:51991.got - 2010.06.03 13:09:07.
