data_PCOD9223429
_publ_section_title
;
Structure prediction by ZEFSAII (Michael W. Deem and Ramdas Pophale) SiO2 
 PCOD9223429
Probable space group: C 2/M
;
_chemical_formula_sum "Si O2"
_cell_formula_units_Z 32
_cell_length_a 15.000000
_cell_length_b 9.000000
_cell_length_c 24.000000
_cell_angle_alpha 90.000000
_cell_angle_beta 90.000000
_cell_angle_gamma 90.000000
_cell_volume 3240.000000
_symmetry_space_group_name_H-M "C 2/M"
_symmetry_group_IT_number 12
_symmetry_cell_setting 'monoclinic'
loop_
_space_group_symop_operation_xyz
x,y,z
-x,y,-z
-x,-y,-z
x,-y,z
1/2+x,1/2+y,z
1/2-x,1/2+y,-z
1/2-x,1/2-y,-z
1/2+x,1/2-y,z
loop_
_atom_site_type_symbol
_atom_site_label
_atom_site_fract_x
_atom_site_fract_y
_atom_site_fract_z
Si Si1 0.382323 0.320098 0.243982
Si Si2 0.047845 0.819269 0.876801
Si Si3 0.647275 0.327944 0.129032
Si Si4 0.437707 0.678707 0.367925
Si Si5 0.611147 0.829658 0.360835
Si Si6 0.809448 0.827934 0.744954
Si Si7 0.222379 0.828688 0.556441
Si Si8 0.213429 0.175920 0.944511
O O1 0.379842 0.500000 0.243130
O O2 0.426840 0.269483 0.185939
O O3 0.425789 0.275458 0.303053
O O4 0.283481 0.255084 0.246374
O O5 0.117758 0.769491 0.923008
O O6 0.948267 0.779413 0.893019
O O7 0.050664 0.000000 0.874823
O O8 0.666425 0.500000 0.112889
O O9 0.641817 0.325489 0.195736
O O10 0.721686 0.220507 0.105822
O O11 0.434651 0.500000 0.368023
O O12 0.531439 0.738944 0.387871
O O13 0.360377 0.735239 0.408562
O O14 0.636834 0.753194 0.302990
O O15 0.696210 0.826385 0.400491
O O16 0.584923 0.000000 0.351670
O O17 0.795096 0.000000 0.729589
O O18 0.250000 0.750000 0.500000
O O19 0.201554 0.000000 0.542994
O O20 0.210059 0.000000 0.952293
O O21 0.250000 0.250000 0.000000
#
# Coordination Sequence:
#
# PCOD9223429 Si02
#       8
#     8   8   8   8   8   8   8   8
#     4  10  18  36  62  86 120 157 193 235 288 356
#     4   9  19  36  61  85 112 155 193 226 285 354
#     4  10  21  39  61  87 117 151 193 238 284 345
#     4  10  21  39  62  88 119 155 194 242 294 348
#     4  11  23  40  61  88 121 157 196 240 293 355
#     4  11  21  34  59  92 123 153 190 239 294 348
#     4  10  23  42  62  84 116 157 200 247 296 345
#     4  11  23  40  61  84 113 153 198 244 293 344
#
# _framework density 9.8765429999999999
#
# number of rings (size 3 to 8) (size 9 to 14) (size 15 to 20)
#    0.000    1.750    2.500    1.875    0.000    5.500 
#    0.000    6.875    0.000    0.000    0.000    0.000 
#    0.000    0.000    0.000    0.000    0.000    0.000 
#
# Total GULP energy -178567.341648 kJ/mol
# GULP energy per Si atom -5580.229427 kJ/mol
# Density = 0.985406 g / cm^3
# Si number density = 9.876543 Si / 1000 Ang^3
#
#
#
# Elastic Constant Matrix: (Units=GPa)
#
#
# Indices 1 2 3 4 5 6 
#
# 1 42.2752 -11.3569 -31.6106 0.0000 17.8118 0.0000
# 2 -11.3569 4.2454 13.4999 0.0000 3.6148 0.0000
# 3 -31.6106 13.4999 31.1048 0.0000 4.6433 0.0000
# 4 0.0000 0.0000 0.0000 32.2671 0.0000 0.0254
# 5 17.8118 3.6148 4.6433 0.0000 -60.2505 0.0000
# 6 0.0000 0.0000 0.0000 0.0254 0.0000 19.2734
#
#
#
# Elastic Compliance Matrix: (Units=1/GPa)
#
#
# Indices 1 2 3 4 5 6 
#
# 1 0.041612 0.078204 0.005744 0.000000 0.017436 0.000000
# 2 0.078204 -0.489243 0.289415 0.000000 0.016070 0.000000
# 3 0.005744 0.289415 -0.089440 0.000000 0.012169 0.000000
# 4 0.000000 0.000000 0.000000 0.030991 0.000000 -0.000041
# 5 0.017436 0.016070 0.012169 0.000000 -0.009541 0.000000
# 6 0.000000 0.000000 0.000000 -0.000041 0.000000 0.051885
#
#
# Mechanical properties :
#
#
# Convention : Reuss Voigt Hill
#
# Bulk Modulus (GPa) = 4.76976 2.07670 3.42323
# Shear Modulus (GPa) = -4.38375 5.39751 0.50688
#
# Velocity S-wave (km/s) = -1.49134 1.65482 0.50712
# Velocity P-wave (km/s) = 0.73859 2.16906 1.44210
#
# Compressibility (1/GPa) = 0.20965417
#
# Stress axis : x y z
#
# Youngs Moduli (GPa) = 24.03157 -2.04397 -11.18067
#
# Poissons Ratio (x) = 0.15985 0.06422
# Poissons Ratio (y) = -1.87935 3.23585
# Poissons Ratio (z) = -0.13804 0.59156
#
# Static dielectric constant tensor:
#      x y z
#    x 1.718280 0.000000 0.014220 
#    y 0.000000 1.669960 0.000000 
#    z 0.014220 0.000000 1.689650 
# 
# From -- ./inp_files/338736.got.cif
#   From: 2010.05.17/outbox.ucp.g08.bks.cvg/sg12_170_cif.got.tgz:338736.got - 2010.06.11 11:47:21.
