data_PCOD9223400
_publ_section_title
;
Structure prediction by ZEFSAII (Michael W. Deem and Ramdas Pophale) SiO2 
 PCOD9223400
Probable space group: C 2/M
;
_chemical_formula_sum "Si O2"
_cell_formula_units_Z 28
_cell_length_a 15.000000
_cell_length_b 9.000000
_cell_length_c 21.000000
_cell_angle_alpha 90.000000
_cell_angle_beta 90.000000
_cell_angle_gamma 90.000000
_cell_volume 2835.000000
_symmetry_space_group_name_H-M "C 2/M"
_symmetry_group_IT_number 12
_symmetry_cell_setting 'monoclinic'
loop_
_space_group_symop_operation_xyz
x,y,z
-x,y,-z
-x,-y,-z
x,-y,z
1/2+x,1/2+y,z
1/2-x,1/2+y,-z
1/2-x,1/2-y,-z
1/2+x,1/2-y,z
loop_
_atom_site_type_symbol
_atom_site_label
_atom_site_fract_x
_atom_site_fract_y
_atom_site_fract_z
Si Si1 0.630187 0.322530 0.453001
Si Si2 0.004045 0.178682 0.215815
Si Si3 0.983526 0.821580 0.354581
Si Si4 0.175202 0.324993 0.587074
Si Si5 0.151989 0.676049 0.851277
Si Si6 0.152444 0.819903 0.119454
Si Si7 0.104679 0.172700 0.982760
O O1 0.623673 0.500000 0.466411
O O2 0.544438 0.273590 0.413631
O O3 0.718928 0.299239 0.410820
O O4 0.644407 0.237435 0.518555
O O5 0.027263 0.221553 0.287614
O O6 0.907525 0.239020 0.199066
O O7 0.070891 0.235511 0.161656
O O8 0.004396 0.000000 0.212239
O O9 0.885385 0.756159 0.361613
O O10 0.979056 0.000000 0.356834
O O11 0.159785 0.500000 0.590395
O O12 0.140306 0.500000 0.845343
O O13 0.255749 0.713021 0.846135
O O14 0.122842 0.730015 0.921299
O O15 0.144115 0.000000 0.114579
O O16 0.152287 0.768509 0.046496
O O17 0.129672 0.000000 0.969872
O O18 0.000000 0.172624 0.000000
#
# Coordination Sequence:
#
# PCOD9223400 Si02
#       7
#     8   8   8   8   8   8   8
#     4   9  19  36  56  81 111 145 182 217 261 320
#     4  10  21  40  58  74 103 147 190 219 257 321
#     4  10  21  36  57  79 104 144 188 224 258 312
#     4  10  20  34  56  85 114 141 172 221 276 318
#     4  11  22  35  55  84 112 136 172 228 281 316
#     4   9  19  36  57  79 105 142 181 217 264 325
#     4  10  18  34  60  81 104 142 181 216 262 325
#
# _framework density 9.8765429999999999
#
# number of rings (size 3 to 8) (size 9 to 14) (size 15 to 20)
#    0.000    2.143    1.429    1.714    0.000    4.857 
#    0.000    5.000    0.000    0.000    0.000    0.000 
#    0.000    0.000    0.000    0.000    0.000    0.000 
#
# Total GULP energy -156216.268200 kJ/mol
# GULP energy per Si atom -5579.152436 kJ/mol
# Density = 0.985406 g / cm^3
# Si number density = 9.876543 Si / 1000 Ang^3
#
#
#
# Elastic Constant Matrix: (Units=GPa)
#
#
# Indices 1 2 3 4 5 6 
#
# 1 42.5971 -0.8931 9.8395 0.0000 -2.4064 0.0000
# 2 -0.8931 -9.8566 2.9359 0.0000 -7.2498 0.0000
# 3 9.8395 2.9359 33.0735 0.0000 -8.9758 0.0000
# 4 0.0000 0.0000 0.0000 14.7070 0.0000 -0.4600
# 5 -2.4064 -7.2498 -8.9758 0.0000 6.2787 0.0000
# 6 0.0000 0.0000 0.0000 -0.4600 0.0000 22.9332
#
#
#
# Elastic Compliance Matrix: (Units=1/GPa)
#
#
# Indices 1 2 3 4 5 6 
#
# 1 0.025167 -0.001589 -0.008539 0.000000 -0.004397 0.000000
# 2 -0.001589 -0.047624 -0.016974 0.000000 -0.079865 0.000000
# 3 -0.008539 -0.016974 0.045873 0.000000 0.042707 0.000000
# 4 0.000000 0.000000 0.000000 0.068037 0.000000 0.001365
# 5 -0.004397 -0.079865 0.042707 0.000000 0.126419 0.000000
# 6 0.000000 0.000000 0.000000 0.001365 0.000000 0.043632
#
#
# Mechanical properties :
#
#
# Convention : Reuss Voigt Hill
#
# Bulk Modulus (GPa) = -32.47756 9.95319 -11.26219
# Shear Modulus (GPa) = 16.36945 12.37923 14.37434
#
# Velocity S-wave (km/s) = 2.88184 2.50611 2.70052
# Velocity P-wave (km/s) = 2.32467 3.66386 2.00247
#
# Compressibility (1/GPa) = -0.03079049
#
# Stress axis : x y z
#
# Youngs Moduli (GPa) = 39.73529 -20.99777 21.79921
#
# Poissons Ratio (x) = -0.03337 0.18615
# Poissons Ratio (y) = 0.06315 0.37002
# Poissons Ratio (z) = 0.33932 -0.35642
#
# Static dielectric constant tensor:
#      x y z
#    x 1.712980 0.000000 -0.003680 
#    y 0.000000 1.661250 0.000000 
#    z -0.003680 0.000000 1.708360 
# 
# From -- ./inp_files/309018.got.cif
#   From: 2010.05.17/outbox.ucp.g08.bks.cvg/sg12_155_cif.got.tgz:309018.got - 2010.06.11 11:47:21.
