data_PCOD9223565
_publ_section_title
;
Structure prediction by ZEFSAII (Michael W. Deem and Ramdas Pophale) SiO2 
 PCOD9223565
Probable space group: C 2/M
;
_chemical_formula_sum "Si O2"
_cell_formula_units_Z 32
_cell_length_a 30.000000
_cell_length_b 9.000000
_cell_length_c 18.000000
_cell_angle_alpha 90.000000
_cell_angle_beta 140.000000
_cell_angle_gamma 90.000000
_cell_volume 3123.947783
_symmetry_space_group_name_H-M "C 2/M"
_symmetry_group_IT_number 12
_symmetry_cell_setting 'monoclinic'
loop_
_space_group_symop_operation_xyz
x,y,z
-x,y,-z
-x,-y,-z
x,-y,z
1/2+x,1/2+y,z
1/2-x,1/2+y,-z
1/2-x,1/2-y,-z
1/2+x,1/2-y,z
loop_
_atom_site_type_symbol
_atom_site_label
_atom_site_fract_x
_atom_site_fract_y
_atom_site_fract_z
Si Si1 0.357827 0.329750 0.566584
Si Si2 0.580148 0.827883 0.921417
Si Si3 0.600403 0.821017 0.779074
Si Si4 0.243386 0.324977 0.297503
Si Si5 0.657002 0.178286 0.695716
Si Si6 0.600566 0.673964 0.106555
Si Si7 0.543712 0.676618 0.449392
Si Si8 0.427964 0.830331 0.781693
O O1 0.365385 0.500000 0.601255
O O2 0.288940 0.313549 0.430184
O O3 0.415192 0.302797 0.575675
O O4 0.368023 0.229812 0.651638
O O5 0.609079 0.777180 0.877570
O O6 0.496355 0.823984 0.817036
O O7 0.601635 0.000000 0.958951
O O8 0.596007 0.739754 0.017210
O O9 0.655745 0.791878 0.783203
O O10 0.531959 0.739756 0.662058
O O11 0.589744 0.000000 0.766709
O O12 0.226332 0.500000 0.265228
O O13 0.285830 0.265917 0.279777
O O14 0.178526 0.220065 0.226290
O O15 0.585332 0.235077 0.566266
O O16 0.663828 0.000000 0.694028
O O17 0.587804 0.500000 0.087468
O O18 0.560265 0.741907 0.126565
O O19 0.543680 0.500000 0.466395
O O20 0.415333 0.000000 0.787238
#
# Coordination Sequence:
#
# PCOD9223565 Si02
#       8
#     8   8   8   8   8   8   8   8
#     4   9  19  35  57  87 120 153 189 239 292 343
#     4  10  22  41  62  87 119 154 196 242 292 347
#     4  10  20  35  56  85 118 155 195 240 292 346
#     4  10  22  42  63  85 118 157 199 243 290 345
#     4  10  20  34  56  85 119 155 195 239 289 347
#     4  12  26  42  62  86 114 153 198 245 296 349
#     4  10  19  31  51  82 122 160 195 236 288 345
#     4  11  22  38  64  91 118 153 192 237 294 353
#
# _framework density 10.243449
#
# number of rings (size 3 to 8) (size 9 to 14) (size 15 to 20)
#    0.000    1.750    1.250    4.125    0.000    8.500 
#    0.000    0.625    0.000    0.000    0.000    0.000 
#    0.000    0.000    0.000    0.000    0.000    0.000 
#
# Total GULP energy -178541.671611 kJ/mol
# GULP energy per Si atom -5579.427238 kJ/mol
# Density = 1.022013 g / cm^3
# Si number density = 10.243449 Si / 1000 Ang^3
#
#
#
# Elastic Constant Matrix: (Units=GPa)
#
#
# Indices 1 2 3 4 5 6 
#
# 1 63.6966 28.0047 28.7672 0.0000 -33.1240 0.0000
# 2 28.0047 80.0277 22.6163 0.0000 -31.8595 0.0000
# 3 28.7672 22.6163 38.6601 0.0000 -28.2625 0.0000
# 4 0.0000 0.0000 0.0000 29.8776 0.0000 -6.0413
# 5 -33.1240 -31.8595 -28.2625 0.0000 39.0516 0.0000
# 6 0.0000 0.0000 0.0000 -6.0413 0.0000 25.2296
#
#
#
# Elastic Compliance Matrix: (Units=1/GPa)
#
#
# Indices 1 2 3 4 5 6 
#
# 1 0.029141 -0.000592 -0.007689 0.000000 0.018671 0.000000
# 2 -0.000592 0.018522 0.000605 0.000000 0.015046 0.000000
# 3 -0.007689 0.000605 0.056967 0.000000 0.035200 0.000000
# 4 0.000000 0.000000 0.000000 0.035173 0.000000 0.008422
# 5 0.018671 0.015046 0.035200 0.000000 0.079194 0.000000
# 6 0.000000 0.000000 0.000000 0.008422 0.000000 0.041653
#
#
# Mechanical properties :
#
#
# Convention : Reuss Voigt Hill
#
# Bulk Modulus (GPa) = 11.20094 37.90675 24.55385
# Shear Modulus (GPa) = 16.35263 25.69817 21.02540
#
# Velocity S-wave (km/s) = 2.82831 3.54555 3.20704
# Velocity P-wave (km/s) = 4.01808 5.94175 5.07195
#
# Compressibility (1/GPa) = 0.08927819
#
# Stress axis : x y z
#
# Youngs Moduli (GPa) = 34.31539 53.98996 17.55406
#
# Poissons Ratio (x) = 0.03195 0.13497
# Poissons Ratio (y) = 0.02031 -0.01061
# Poissons Ratio (z) = 0.26385 -0.03265
#
# Static dielectric constant tensor:
#      x y z
#    x 1.783890 0.000000 0.044220 
#    y 0.000000 1.700610 0.000000 
#    z 0.044220 0.000000 1.767260 
# 
# From -- ./inp_files/295738.got.cif
#   From: 2010.05.17/outbox.ucp.g08.bks.cvg/sg12_148_cif.got.tgz:295738.got - 2010.06.11 11:47:21.
