data_PCOD9223875
_publ_section_title
;
Structure prediction by ZEFSAII (Michael W. Deem and Ramdas Pophale) SiO2 
 PCOD9223875
Probable space group: C 2/M
;
_chemical_formula_sum "Si O2"
_cell_formula_units_Z 32
_cell_length_a 24.000000
_cell_length_b 9.000000
_cell_length_c 30.000000
_cell_angle_alpha 90.000000
_cell_angle_beta 30.000000
_cell_angle_gamma 90.000000
_cell_volume 3240.000000
_symmetry_space_group_name_H-M "C 2/M"
_symmetry_group_IT_number 12
_symmetry_cell_setting 'monoclinic'
loop_
_space_group_symop_operation_xyz
x,y,z
-x,y,-z
-x,-y,-z
x,-y,z
1/2+x,1/2+y,z
1/2-x,1/2+y,-z
1/2-x,1/2-y,-z
1/2+x,1/2-y,z
loop_
_atom_site_type_symbol
_atom_site_label
_atom_site_fract_x
_atom_site_fract_y
_atom_site_fract_z
Si Si1 0.945416 0.178417 0.584939
Si Si2 0.322224 0.321146 0.988924
Si Si3 0.283991 0.820862 0.842398
Si Si4 0.151892 0.677566 0.674675
Si Si5 0.980900 0.177890 0.305264
Si Si6 0.866678 0.820752 0.472682
Si Si7 0.076353 0.176763 0.811791
Si Si8 0.233831 0.176236 0.777838
O O1 0.830504 0.246868 0.681866
O O2 0.000000 0.228364 0.500000
O O3 0.032528 0.212557 0.563891
O O4 0.932144 0.000000 0.590742
O O5 0.316772 0.500000 0.989013
O O6 0.449775 0.274542 0.894405
O O7 0.250000 0.250000 0.000000
O O8 0.281254 0.282842 0.067153
O O9 0.398820 0.731766 0.763198
O O10 0.229030 0.782779 0.833029
O O11 0.303500 0.000000 0.829719
O O12 0.150405 0.500000 0.675834
O O13 0.046486 0.744506 0.722201
O O14 0.256172 0.733727 0.573433
O O15 0.152970 0.738890 0.723472
O O16 0.895820 0.231343 0.402966
O O17 0.975261 0.000000 0.305198
O O18 0.858096 0.000000 0.475922
O O19 0.119259 0.204232 0.831660
O O20 0.083496 0.000000 0.798116
O O21 0.256494 0.000000 0.760379
#
# Coordination Sequence:
#
# PCOD9223875 Si02
#       8
#     8   8   8   8   8   8   8   8
#     4  10  19  34  56  80 112 155 198 235 278 337
#     4  10  22  40  62  86 115 149 189 234 287 347
#     4  10  21  38  60  87 115 150 193 239 287 340
#     4  11  22  37  57  82 113 150 193 240 286 339
#     4  11  21  36  57  82 115 152 190 236 288 344
#     4   9  19  34  52  79 112 149 191 231 281 339
#     4  10  22  40  59  84 116 150 187 232 288 344
#     4  10  21  37  58  85 117 148 189 239 286 337
#
# _framework density 9.8765429999999999
#
# number of rings (size 3 to 8) (size 9 to 14) (size 15 to 20)
#    0.000    1.875    1.250    2.625    0.000    5.250 
#    0.000    5.625    0.000    0.000    0.000    3.500 
#    0.000    0.000    0.000    0.000    0.000    0.000 
#
# Total GULP energy -178564.790098 kJ/mol
# GULP energy per Si atom -5580.149691 kJ/mol
# Density = 0.985406 g / cm^3
# Si number density = 9.876543 Si / 1000 Ang^3
#
#
#
# Elastic Constant Matrix: (Units=GPa)
#
#
# Indices 1 2 3 4 5 6 
#
# 1 98.9000 23.2917 35.4900 -0.0033 20.0301 0.0098
# 2 23.2917 11.3320 19.3783 -0.0052 3.7144 0.0061
# 3 35.4900 19.3783 81.9917 -0.0012 16.6567 0.0018
# 4 -0.0033 -0.0052 -0.0012 15.6545 0.0008 -8.1872
# 5 20.0301 3.7144 16.6567 0.0008 30.7466 -0.0056
# 6 0.0098 0.0061 0.0018 -8.1872 -0.0056 10.7114
#
#
#
# Elastic Compliance Matrix: (Units=1/GPa)
#
#
# Indices 1 2 3 4 5 6 
#
# 1 0.022643 -0.050344 0.004336 -0.000017 -0.011018 -0.000011
# 2 -0.050344 0.260075 -0.044897 0.000046 0.025701 -0.000047
# 3 0.004336 -0.044897 0.022926 -0.000008 -0.009821 0.000006
# 4 -0.000017 0.000046 -0.000008 0.106422 0.000022 0.081343
# 5 -0.011018 0.025701 -0.009821 0.000022 0.041917 0.000036
# 6 -0.000011 -0.000047 0.000006 0.081343 0.000036 0.155533
#
#
# Mechanical properties :
#
#
# Convention : Reuss Voigt Hill
#
# Bulk Modulus (GPa) = 8.07535 38.72709 23.40122
# Shear Modulus (GPa) = 6.00525 19.02674 12.51600
#
# Velocity S-wave (km/s) = 1.74550 3.10696 2.51992
# Velocity P-wave (km/s) = 2.85646 5.70255 4.50990
#
# Compressibility (1/GPa) = 0.12383370
#
# Stress axis : x y z
#
# Youngs Moduli (GPa) = 44.16352 3.84504 43.61863
#
# Poissons Ratio (x) = 0.19357 -0.18912
# Poissons Ratio (y) = 2.22335 1.95836
# Poissons Ratio (z) = -0.19148 0.17263
#
# Static dielectric constant tensor:
#      x y z
#    x 1.740200 0.000000 -0.012630 
#    y 0.000000 1.660970 0.000000 
#    z -0.012630 0.000000 1.710270 
# 
# From -- ./inp_files/382260.got.cif
#   From: 2010.05.17/outbox.ucp.g08.bks.cvg/sg12_192_cif.got.tgz:382260.got - 2010.06.11 11:47:21.
