data_PCOD9223713
_publ_section_title
;
Structure prediction by ZEFSAII (Michael W. Deem and Ramdas Pophale) SiO2 
 PCOD9223713
Probable space group: C 2/M
;
_chemical_formula_sum "Si O2"
_cell_formula_units_Z 28
_cell_length_a 24.000000
_cell_length_b 9.000000
_cell_length_c 18.000000
_cell_angle_alpha 90.000000
_cell_angle_beta 130.000000
_cell_angle_gamma 90.000000
_cell_volume 2978.380795
_symmetry_space_group_name_H-M "C 2/M"
_symmetry_group_IT_number 12
_symmetry_cell_setting 'monoclinic'
loop_
_space_group_symop_operation_xyz
x,y,z
-x,y,-z
-x,-y,-z
x,-y,z
1/2+x,1/2+y,z
1/2-x,1/2+y,-z
1/2-x,1/2-y,-z
1/2+x,1/2-y,z
loop_
_atom_site_type_symbol
_atom_site_label
_atom_site_fract_x
_atom_site_fract_y
_atom_site_fract_z
Si Si1 0.019209 0.824039 0.330970
Si Si2 0.308443 0.672873 0.273191
Si Si3 0.643036 0.174717 0.151100
Si Si4 0.620912 0.828385 0.970200
Si Si5 0.360698 0.180171 0.175848
Si Si6 0.051152 0.672674 0.210056
Si Si7 0.923482 0.670815 0.477568
O O1 0.058070 0.771397 0.288984
O O2 0.065575 0.770716 0.440709
O O3 0.941840 0.737380 0.266082
O O4 0.006539 0.000000 0.321173
O O5 0.329844 0.500000 0.284633
O O6 0.228426 0.679644 0.239219
O O7 0.308766 0.747159 0.192092
O O8 0.364079 0.761507 0.371905
O O9 0.595893 0.233565 0.178483
O O10 0.620198 0.000000 0.125625
O O11 0.632708 0.243102 0.060494
O O12 0.653427 0.768402 0.921046
O O13 0.534225 0.830133 0.883157
O O14 0.647176 0.000000 0.997753
O O15 0.359780 0.000000 0.177896
O O16 0.072264 0.500000 0.243150
O O17 0.906682 0.500000 0.482751
O O18 0.000000 0.671825 0.500000
#
# Coordination Sequence:
#
# PCOD9223713 Si02
#       7
#     8   8   8   8   8   8   8
#     4  11  21  34  56  84 111 135 171 224 277 318
#     4  11  22  34  52  80 114 144 176 221 273 321
#     4   9  18  33  53  80 111 146 184 223 264 309
#     4   8  15  29  54  82 106 139 187 228 257 303
#     4  10  19  33  53  79 109 144 183 220 263 317
#     4   9  17  33  58  82 108 143 185 223 259 310
#     4  11  22  37  59  81 104 137 180 221 263 323
#
# _framework density 9.4010809999999996
#
# number of rings (size 3 to 8) (size 9 to 14) (size 15 to 20)
#    0.000    2.143    1.429    3.857    0.000    2.857 
#    0.000    2.143    0.000   15.429    0.000    0.000 
#    0.000    0.000    0.000    0.000    0.000    0.000 
#
# Total GULP energy -156168.485930 kJ/mol
# GULP energy per Si atom -5577.445926 kJ/mol
# Density = 0.937968 g / cm^3
# Si number density = 9.401081 Si / 1000 Ang^3
#
#
#
# Elastic Constant Matrix: (Units=GPa)
#
#
# Indices 1 2 3 4 5 6 
#
# 1 58.8718 5.5923 21.9116 0.0000 -11.9927 0.0000
# 2 5.5923 65.3397 12.0778 0.0000 -1.4097 0.0000
# 3 21.9116 12.0778 46.9521 0.0000 -21.1454 0.0000
# 4 0.0000 0.0000 0.0000 -7.8277 0.0000 -3.4778
# 5 -11.9927 -1.4097 -21.1454 0.0000 13.0466 0.0000
# 6 0.0000 0.0000 0.0000 -3.4778 0.0000 17.8295
#
#
#
# Elastic Compliance Matrix: (Units=1/GPa)
#
#
# Indices 1 2 3 4 5 6 
#
# 1 0.021157 -0.000876 -0.003452 0.000000 0.013758 0.000000
# 2 -0.000876 0.017390 -0.013259 0.000000 -0.020416 0.000000
# 3 -0.003452 -0.013259 0.089774 0.000000 0.140896 0.000000
# 4 0.000000 0.000000 0.000000 -0.117564 0.000000 -0.022932
# 5 0.013758 -0.020416 0.140896 0.000000 0.315447 0.000000
# 6 0.000000 0.000000 0.000000 -0.022932 0.000000 0.051614
#
#
# Mechanical properties :
#
#
# Convention : Reuss Voigt Hill
#
# Bulk Modulus (GPa) = 10.73571 27.81410 19.27491
# Shear Modulus (GPa) = 11.26024 13.38183 12.32103
#
# Velocity S-wave (km/s) = 2.44986 2.67070 2.56266
# Velocity P-wave (km/s) = 3.70468 4.93308 4.36234
#
# Compressibility (1/GPa) = 0.09314705
#
# Stress axis : x y z
#
# Youngs Moduli (GPa) = 47.26639 57.50436 11.13908
#
# Poissons Ratio (x) = 0.05036 0.03845
# Poissons Ratio (y) = 0.04140 0.14769
# Poissons Ratio (z) = 0.16316 0.76245
#
# Static dielectric constant tensor:
#      x y z
#    x 1.665960 0.000000 -0.024600 
#    y 0.000000 1.634430 0.000000 
#    z -0.024600 0.000000 1.661410 
# 
# From -- ./inp_files/288373.got.cif
#   From: 2010.05.17/outbox.ucp.g08.bks.cvg/sg12_145_cif.got.tgz:288373.got - 2010.06.11 11:47:21.
