data_PCOD9223952
_publ_section_title
;
Structure prediction by ZEFSAII (Michael W. Deem and Ramdas Pophale) SiO2 
 PCOD9223952
Probable space group: C 2/M
;
_chemical_formula_sum "Si O2"
_cell_formula_units_Z 24
_cell_length_a 30.000000
_cell_length_b 9.000000
_cell_length_c 18.000000
_cell_angle_alpha 90.000000
_cell_angle_beta 150.000000
_cell_angle_gamma 90.000000
_cell_volume 2430.000000
_symmetry_space_group_name_H-M "C 2/M"
_symmetry_group_IT_number 12
_symmetry_cell_setting 'monoclinic'
loop_
_space_group_symop_operation_xyz
x,y,z
-x,y,-z
-x,-y,-z
x,-y,z
1/2+x,1/2+y,z
1/2-x,1/2+y,-z
1/2-x,1/2-y,-z
1/2+x,1/2-y,z
loop_
_atom_site_type_symbol
_atom_site_label
_atom_site_fract_x
_atom_site_fract_y
_atom_site_fract_z
Si Si1 0.748267 0.672791 0.126598
Si Si2 0.728829 0.170089 0.661077
Si Si3 0.561731 0.821311 0.658958
Si Si4 0.426784 0.834631 0.099791
Si Si5 0.904878 0.330709 0.891690
Si Si6 0.952326 0.827260 0.632017
O O1 0.729000 0.500000 0.080129
O O2 0.766232 0.676811 0.241535
O O3 0.836702 0.723319 0.211425
O O4 0.663058 0.775251 0.991492
O O5 0.819871 0.227972 0.756059
O O6 0.647224 0.271034 0.519756
O O7 0.711433 0.000000 0.616045
O O8 0.500000 0.779137 0.500000
O O9 0.515168 0.753256 0.662868
O O10 0.561101 0.000000 0.662777
O O11 0.505913 0.722035 0.230105
O O12 0.449294 0.000000 0.158516
O O13 0.410321 0.839924 0.988597
O O14 0.891939 0.500000 0.844346
O O15 0.000000 0.275656 0.000000
O O16 0.957510 0.000000 0.627554
#
# Coordination Sequence:
#
# PCOD9223952 Si02
#       6
#     8   8   8   8   8   8
#     4   9  18  34  56  79 107 144 185 229 272 320
#     4  10  19  35  58  83 111 145 185 224 272 330
#     4  10  19  35  56  79 109 147 189 231 274 320
#     4  10  21  37  57  80 111 147 181 222 277 332
#     4   9  19  38  63  89 113 138 175 225 277 332
#     4  12  24  36  53  80 114 149 187 231 275 319
#
# _framework density 9.8765429999999999
#
# number of rings (size 3 to 8) (size 9 to 14) (size 15 to 20)
#    0.000    2.000    1.667    2.500    0.000    3.333 
#    0.000    0.833    0.000    0.000    0.000    0.000 
#    0.000    0.000    0.000    0.000    0.000    0.000 
#
# Total GULP energy -133936.787121 kJ/mol
# GULP energy per Si atom -5580.699463 kJ/mol
# Density = 0.985406 g / cm^3
# Si number density = 9.876543 Si / 1000 Ang^3
#
#
#
# Elastic Constant Matrix: (Units=GPa)
#
#
# Indices 1 2 3 4 5 6 
#
# 1 51.3925 19.5271 20.2683 0.0000 37.5097 0.0000
# 2 19.5271 13.9746 15.0491 0.0000 6.4535 0.0000
# 3 20.2683 15.0491 50.6045 0.0000 14.3626 0.0000
# 4 0.0000 0.0000 0.0000 24.4020 0.0000 2.7513
# 5 37.5097 6.4535 14.3626 0.0000 27.7137 0.0000
# 6 0.0000 0.0000 0.0000 2.7513 0.0000 13.5343
#
#
#
# Elastic Compliance Matrix: (Units=1/GPa)
#
#
# Indices 1 2 3 4 5 6 
#
# 1 -0.087698 0.099675 -0.025346 0.000000 0.108621 0.000000
# 2 0.099675 -0.005736 -0.000359 0.000000 -0.133386 0.000000
# 3 -0.025346 -0.000359 0.023753 0.000000 0.022079 0.000000
# 4 0.000000 0.000000 0.000000 0.041942 0.000000 -0.008526
# 5 0.108621 -0.133386 0.022079 0.000000 -0.091314 0.000000
# 6 0.000000 0.000000 0.000000 -0.008526 0.000000 0.075619
#
#
# Mechanical properties :
#
#
# Convention : Reuss Voigt Hill
#
# Bulk Modulus (GPa) = 12.77789 25.07339 18.92564
# Shear Modulus (GPa) = -30.25005 17.20514 -6.52246
#
# Velocity S-wave (km/s) = -3.91757 2.95449 -1.81911
# Velocity P-wave (km/s) = 3.73902 4.93555 2.27809
#
# Compressibility (1/GPa) = 0.07826021
#
# Stress axis : x y z
#
# Youngs Moduli (GPa) = -11.40282 -174.32348 42.09986
#
# Poissons Ratio (x) = 17.37576 1.06707
# Poissons Ratio (y) = 1.13658 0.01510
# Poissons Ratio (z) = -0.28902 -0.06252
#
# Static dielectric constant tensor:
#      x y z
#    x 1.686910 0.000000 -0.037150 
#    y 0.000000 1.674900 0.000000 
#    z -0.037150 0.000000 1.730670 
# 
# From -- ./inp_files/244588.got.cif
#   From: 2010.05.17/outbox.ucp.g08.bks.cvg/sg12_123_cif.got.tgz:244588.got - 2010.06.11 11:47:21.
