data_PCOD9223662
_publ_section_title
;
Structure prediction by ZEFSAII (Michael W. Deem and Ramdas Pophale) SiO2 
 PCOD9223662
Probable space group: C 2/M
;
_chemical_formula_sum "Si O2"
_cell_formula_units_Z 32
_cell_length_a 15.000000
_cell_length_b 9.000000
_cell_length_c 30.000000
_cell_angle_alpha 90.000000
_cell_angle_beta 130.000000
_cell_angle_gamma 90.000000
_cell_volume 3102.479995
_symmetry_space_group_name_H-M "C 2/M"
_symmetry_group_IT_number 12
_symmetry_cell_setting 'monoclinic'
loop_
_space_group_symop_operation_xyz
x,y,z
-x,y,-z
-x,-y,-z
x,-y,z
1/2+x,1/2+y,z
1/2-x,1/2+y,-z
1/2-x,1/2-y,-z
1/2+x,1/2-y,z
loop_
_atom_site_type_symbol
_atom_site_label
_atom_site_fract_x
_atom_site_fract_y
_atom_site_fract_z
Si Si1 0.982725 0.821692 0.134596
Si Si2 0.055022 0.181423 0.064031
Si Si3 0.196363 0.824789 0.262077
Si Si4 0.179280 0.678253 0.843433
Si Si5 0.533956 0.175126 0.282300
Si Si6 0.629016 0.325230 0.541050
Si Si7 0.372841 0.824004 0.587833
Si Si8 0.406955 0.670032 0.369514
O O1 0.977967 0.775524 0.081797
O O2 0.114277 0.788627 0.193837
O O3 0.892078 0.742927 0.137790
O O4 0.967980 0.000000 0.133794
O O5 0.188171 0.231950 0.113431
O O6 0.057133 0.000000 0.064556
O O7 0.000000 0.231353 0.000000
O O8 0.116033 0.774402 0.277668
O O9 0.320004 0.747246 0.307299
O O10 0.216416 0.000000 0.269120
O O11 0.183248 0.500000 0.848354
O O12 0.098943 0.710711 0.774381
O O13 0.568795 0.193915 0.344559
O O14 0.553618 0.000000 0.277635
O O15 0.500000 0.256498 0.500000
O O16 0.617148 0.500000 0.523786
O O17 0.740443 0.265096 0.550197
O O18 0.656029 0.324346 0.602574
O O19 0.465617 0.743279 0.586451
O O20 0.368111 0.000000 0.576394
O O21 0.424044 0.500000 0.362727
#
# Coordination Sequence:
#
# PCOD9223662 Si02
#       8
#     8   8   8   8   8   8   8   8
#     4   9  19  34  53  77 106 138 174 219 266 313
#     4   9  18  33  53  76 102 139 183 217 254 314
#     4  10  19  32  54  80 110 142 177 219 269 321
#     4   9  18  32  53  77 104 137 176 218 260 312
#     4   9  17  32  54  78 108 142 177 216 266 321
#     4   9  19  38  60  78 105 146 184 217 261 318
#     4  10  20  35  56  82 110 144 180 217 265 318
#     4  11  22  36  55  83 112 142 179 221 268 315
#
# _framework density 10.314329000000001
#
# number of rings (size 3 to 8) (size 9 to 14) (size 15 to 20)
#    0.000    2.500    1.250    0.750    1.750    2.000 
#    0.000    0.625    0.000    3.375    0.000    0.000 
#    0.000    0.000    0.000    0.000    0.000    0.000 
#
# Total GULP energy -178506.842258 kJ/mol
# GULP energy per Si atom -5578.338821 kJ/mol
# Density = 1.029085 g / cm^3
# Si number density = 10.314329 Si / 1000 Ang^3
#
#
#
# Elastic Constant Matrix: (Units=GPa)
#
#
# Indices 1 2 3 4 5 6 
#
# 1 91.6904 13.8356 16.4137 0.0000 12.2607 0.0000
# 2 13.8356 9.8171 13.0628 0.0000 2.0208 0.0000
# 3 16.4137 13.0628 51.2957 0.0000 2.0897 0.0000
# 4 0.0000 0.0000 0.0000 11.5320 0.0000 5.2961
# 5 12.2607 2.0208 2.0897 0.0000 33.9712 0.0000
# 6 0.0000 0.0000 0.0000 5.2961 0.0000 24.0664
#
#
#
# Elastic Compliance Matrix: (Units=1/GPa)
#
#
# Indices 1 2 3 4 5 6 
#
# 1 0.014398 -0.020497 0.000776 0.000000 -0.004025 0.000000
# 2 -0.020497 0.184818 -0.040461 0.000000 -0.001107 0.000000
# 3 0.000776 -0.040461 0.029538 0.000000 0.000310 0.000000
# 4 0.000000 0.000000 0.000000 0.096464 0.000000 -0.021228
# 5 -0.004025 -0.001107 0.000310 0.000000 0.030936 0.000000
# 6 0.000000 0.000000 0.000000 -0.021228 0.000000 0.046223
#
#
# Mechanical properties :
#
#
# Convention : Reuss Voigt Hill
#
# Bulk Modulus (GPa) = 9.22595 26.60304 17.91449
# Shear Modulus (GPa) = 8.94662 21.21333 15.07997
#
# Velocity S-wave (km/s) = 2.08480 3.21026 2.70667
# Velocity P-wave (km/s) = 3.20582 5.16383 4.29782
#
# Compressibility (1/GPa) = 0.10838989
#
# Stress axis : x y z
#
# Youngs Moduli (GPa) = 69.45223 5.41074 33.85525
#
# Poissons Ratio (x) = 0.11090 -0.02629
# Poissons Ratio (y) = 1.42356 1.36983
# Poissons Ratio (z) = -0.05392 0.21893
#
# Static dielectric constant tensor:
#      x y z
#    x 1.740580 0.000000 -0.005820 
#    y 0.000000 1.694780 0.000000 
#    z -0.005820 0.000000 1.792250 
# 
# From -- ./inp_files/359953.got.cif
#   From: 2010.05.17/outbox.ucp.g08.bks.cvg/sg12_180_cif.got.tgz:359953.got - 2010.06.11 11:47:21.
