data_PCOD9223971
_publ_section_title
;
Structure prediction by ZEFSAII (Michael W. Deem and Ramdas Pophale) SiO2 
 PCOD9223971
Probable space group: C 2/M
;
_chemical_formula_sum "Si O2"
_cell_formula_units_Z 32
_cell_length_a 24.000000
_cell_length_b 21.000000
_cell_length_c 9.000000
_cell_angle_alpha 90.000000
_cell_angle_beta 50.000000
_cell_angle_gamma 90.000000
_cell_volume 3474.777594
_symmetry_space_group_name_H-M "C 2/M"
_symmetry_group_IT_number 12
_symmetry_cell_setting 'monoclinic'
loop_
_space_group_symop_operation_xyz
x,y,z
-x,y,-z
-x,-y,-z
x,-y,z
1/2+x,1/2+y,z
1/2-x,1/2+y,-z
1/2-x,1/2-y,-z
1/2+x,1/2-y,z
loop_
_atom_site_type_symbol
_atom_site_label
_atom_site_fract_x
_atom_site_fract_y
_atom_site_fract_z
Si Si1 0.529223 0.803918 0.783334
Si Si2 0.775271 0.372044 0.773299
Si Si3 0.671407 0.636134 0.700547
Si Si4 0.182909 0.760072 0.442956
Si Si5 0.923358 0.072009 0.382917
Si Si6 0.059978 0.424647 0.529734
Si Si7 0.052196 0.176765 0.146515
Si Si8 0.157346 0.862989 0.227886
O O1 0.609566 0.773028 0.631451
O O2 0.532731 0.872165 0.696054
O O3 0.478460 0.748476 0.800744
O O4 0.500000 0.811831 0.000000
O O5 0.727640 0.398437 0.715969
O O6 0.777890 0.298204 0.711095
O O7 0.856507 0.401311 0.649453
O O8 0.728589 0.377928 0.005365
O O9 0.707050 0.693092 0.538423
O O10 0.633876 0.588266 0.649229
O O11 0.606132 0.664980 0.914311
O O12 0.170950 0.810086 0.330121
O O13 0.881101 0.081106 0.611881
O O14 0.986440 0.125461 0.259070
O O15 0.951412 0.000000 0.321446
O O16 0.062732 0.500000 0.568912
O O17 0.000000 0.420543 0.500000
O O18 0.099158 0.163958 0.211618
#
# Coordination Sequence:
#
# PCOD9223971 Si02
#       8
#     8   8   8   8   8   8   8   8
#     4  11  20  36  64  93 121 160 194 249 302 351
#     4  10  22  38  62  87 115 155 194 252 304 360
#     4  10  20  37  57  87 123 158 200 241 294 359
#     4  10  19  35  57  87 125 154 192 242 300 354
#     4  11  23  37  55  84 127 170 206 238 279 341
#     4  10  25  46  66  88 116 153 203 257 313 370
#     4  11  20  35  59  91 128 159 201 245 289 353
#     4  10  22  35  57  89 124 160 201 242 290 356
#
# _framework density 9.2092220000000005
#
# number of rings (size 3 to 8) (size 9 to 14) (size 15 to 20)
#    0.000    1.625    3.750    1.500    3.500    3.250 
#    0.000    5.000    0.000    0.000    0.000    0.000 
#    0.000    0.000    0.000    0.000    0.000    0.000 
#
# Total GULP energy -178378.671541 kJ/mol
# GULP energy per Si atom -5574.333486 kJ/mol
# Density = 0.918826 g / cm^3
# Si number density = 9.209222 Si / 1000 Ang^3
#
#
#
# Elastic Constant Matrix: (Units=GPa)
#
#
# Indices 1 2 3 4 5 6 
#
# 1 84.4937 34.3011 49.6884 0.0000 0.7644 0.0000
# 2 34.3011 116.4803 33.9268 0.0000 4.5626 0.0000
# 3 49.6884 33.9268 115.3327 0.0000 7.4769 0.0000
# 4 0.0000 0.0000 0.0000 19.6654 0.0000 0.2739
# 5 0.7644 4.5626 7.4769 0.0000 31.8639 0.0000
# 6 0.0000 0.0000 0.0000 0.2739 0.0000 20.5852
#
#
#
# Elastic Compliance Matrix: (Units=1/GPa)
#
#
# Indices 1 2 3 4 5 6 
#
# 1 0.016897 -0.003158 -0.006452 0.000000 0.001561 0.000000
# 2 -0.003158 0.009995 -0.001515 0.000000 -0.001000 0.000000
# 3 -0.006452 -0.001515 0.012055 0.000000 -0.002457 0.000000
# 4 0.000000 0.000000 0.000000 0.050860 0.000000 -0.000677
# 5 0.001561 -0.001000 -0.002457 0.000000 0.032066 0.000000
# 6 0.000000 0.000000 0.000000 -0.000677 0.000000 0.048587
#
#
# Mechanical properties :
#
#
# Convention : Reuss Voigt Hill
#
# Bulk Modulus (GPa) = 59.88650 61.34881 60.61765
# Shear Modulus (GPa) = 25.21718 27.64891 26.43305
#
# Velocity S-wave (km/s) = 3.70418 3.87868 3.79243
# Velocity P-wave (km/s) = 7.13300 7.31023 7.22216
#
# Compressibility (1/GPa) = 0.01669825
#
# Stress axis : x y z
#
# Youngs Moduli (GPa) = 59.18093 100.04505 82.95126
#
# Poissons Ratio (x) = 0.31592 0.53521
# Poissons Ratio (y) = 0.18688 0.12567
# Poissons Ratio (z) = 0.38184 0.15157
#
# Static dielectric constant tensor:
#      x y z
#    x 1.680940 0.000000 -0.010790 
#    y 0.000000 1.644040 0.000000 
#    z -0.010790 0.000000 1.635180 
# 
# From -- ./inp_files/99097.got.cif
#   From: 2010.05.17/outbox.ucp.g08.bks.cvg/sg12_50_cif.got.tgz:99097.got - 2010.06.11 11:47:21.
