data_PCOD9223837
_publ_section_title
;
Structure prediction by ZEFSAII (Michael W. Deem and Ramdas Pophale) SiO2 
 PCOD9223837
Probable space group: C 2/M
;
_chemical_formula_sum "Si O2"
_cell_formula_units_Z 32
_cell_length_a 15.000000
_cell_length_b 9.000000
_cell_length_c 27.000000
_cell_angle_alpha 90.000000
_cell_angle_beta 80.000000
_cell_angle_gamma 90.000000
_cell_volume 3589.624260
_symmetry_space_group_name_H-M "C 2/M"
_symmetry_group_IT_number 12
_symmetry_cell_setting 'monoclinic'
loop_
_space_group_symop_operation_xyz
x,y,z
-x,y,-z
-x,-y,-z
x,-y,z
1/2+x,1/2+y,z
1/2-x,1/2+y,-z
1/2-x,1/2-y,-z
1/2+x,1/2-y,z
loop_
_atom_site_type_symbol
_atom_site_label
_atom_site_fract_x
_atom_site_fract_y
_atom_site_fract_z
Si Si1 0.703920 0.822032 0.052195
Si Si2 0.640883 0.180113 0.209115
Si Si3 0.522882 0.820115 0.123902
Si Si4 0.160441 0.320687 0.400774
Si Si5 0.678203 0.678768 0.860341
Si Si6 0.539336 0.180741 0.319811
Si Si7 0.127789 0.820657 0.614860
Si Si8 0.149271 0.679755 0.510979
O O1 0.599771 0.776340 0.075447
O O2 0.768934 0.791302 0.093118
O O3 0.701548 0.000000 0.046350
O O4 0.750000 0.750000 0.000000
O O5 0.573798 0.220687 0.170393
O O6 0.744941 0.228015 0.187578
O O7 0.593155 0.224758 0.264879
O O8 0.645176 0.000000 0.208646
O O9 0.421820 0.751703 0.130950
O O10 0.514562 0.000000 0.122915
O O11 0.162199 0.500000 0.399237
O O12 0.101032 0.271263 0.360425
O O13 0.266494 0.276050 0.386834
O O14 0.117012 0.282928 0.458430
O O15 0.666741 0.500000 0.856979
O O16 0.441434 0.254229 0.338316
O O17 0.530145 0.000000 0.320852
O O18 0.103303 0.751849 0.563318
O O19 0.123047 0.000000 0.614054
O O20 0.151445 0.500000 0.515955
O O21 0.250000 0.750000 0.500000
#
# Coordination Sequence:
#
# PCOD9223837 Si02
#       8
#     8   8   8   8   8   8   8   8
#     4   9  19  34  51  74 109 142 171 208 251 294
#     4   8  17  34  53  71  97 129 164 204 250 299
#     4   9  18  34  53  75 102 134 168 207 251 296
#     4   8  17  32  50  70  95 125 159 196 240 294
#     4   9  18  34  54  76 100 134 175 211 245 294
#     4  10  19  34  54  73  93 127 167 201 243 300
#     4  10  20  34  49  72 102 128 158 203 250 296
#     4   9  16  30  50  71  96 129 163 198 242 297
#
# _framework density 8.9145819999999993
#
# number of rings (size 3 to 8) (size 9 to 14) (size 15 to 20)
#    0.000    3.000    0.000    3.000    0.000    3.000 
#    0.000   13.125    0.000    0.000    0.000    0.000 
#    0.000    0.000    0.000    0.000    0.000    0.000 
#
# Total GULP energy -178198.334138 kJ/mol
# GULP energy per Si atom -5568.697942 kJ/mol
# Density = 0.889429 g / cm^3
# Si number density = 8.914582 Si / 1000 Ang^3
#
#
#
# Elastic Constant Matrix: (Units=GPa)
#
#
# Indices 1 2 3 4 5 6 
#
# 1 111.9796 22.6044 29.6792 0.0000 -25.4748 0.0000
# 2 22.6044 35.5764 21.6093 0.0000 -8.5591 0.0000
# 3 29.6792 21.6093 99.0017 0.0000 -30.0254 0.0000
# 4 0.0000 0.0000 0.0000 24.6770 0.0000 -8.2180
# 5 -25.4748 -8.5591 -30.0254 0.0000 30.3976 0.0000
# 6 0.0000 0.0000 0.0000 -8.2180 0.0000 32.4927
#
#
#
# Elastic Compliance Matrix: (Units=1/GPa)
#
#
# Indices 1 2 3 4 5 6 
#
# 1 0.011989 -0.005697 0.000300 0.000000 0.008739 0.000000
# 2 -0.005697 0.035312 -0.006328 0.000000 -0.001082 0.000000
# 3 0.000300 -0.006328 0.015602 0.000000 0.013880 0.000000
# 4 0.000000 0.000000 0.000000 0.044251 0.000000 0.011192
# 5 0.008739 -0.001082 0.013880 0.000000 0.053627 0.000000
# 6 0.000000 0.000000 0.000000 0.011192 0.000000 0.033607
#
#
# Mechanical properties :
#
#
# Convention : Reuss Voigt Hill
#
# Bulk Modulus (GPa) = 25.34702 43.81596 34.58149
# Shear Modulus (GPa) = 21.64617 29.02444 25.33530
#
# Velocity S-wave (km/s) = 3.48816 4.03912 3.77371
# Velocity P-wave (km/s) = 5.52000 6.81040 6.19887
#
# Compressibility (1/GPa) = 0.03945238
#
# Stress axis : x y z
#
# Youngs Moduli (GPa) = 83.41036 28.31932 64.09532
#
# Poissons Ratio (x) = 0.16134 -0.01923
# Poissons Ratio (y) = 0.47520 0.40558
# Poissons Ratio (z) = -0.02502 0.17920
#
# Static dielectric constant tensor:
#      x y z
#    x 1.625310 0.000000 0.001410 
#    y 0.000000 1.598160 0.000000 
#    z 0.001410 0.000000 1.644030 
# 
# From -- ./inp_files/359806.got.cif
#   From: 2010.05.17/outbox.ucp.g08.bks.cvg/sg12_180_cif.got.tgz:359806.got - 2010.06.11 11:47:21.
