data_PCOD9223187
_publ_section_title
;
Structure prediction by ZEFSAII (Michael W. Deem and Ramdas Pophale) SiO2 
 PCOD9223187
Probable space group: C 2/M
;
_chemical_formula_sum "Si O2"
_cell_formula_units_Z 24
_cell_length_a 24.000000
_cell_length_b 18.000000
_cell_length_c 18.000000
_cell_angle_alpha 90.000000
_cell_angle_beta 160.000000
_cell_angle_gamma 90.000000
_cell_volume 2659.548635
_symmetry_space_group_name_H-M "C 2/M"
_symmetry_group_IT_number 12
_symmetry_cell_setting 'monoclinic'
loop_
_space_group_symop_operation_xyz
x,y,z
-x,y,-z
-x,-y,-z
x,-y,z
1/2+x,1/2+y,z
1/2-x,1/2+y,-z
1/2-x,1/2-y,-z
1/2+x,1/2-y,z
loop_
_atom_site_type_symbol
_atom_site_label
_atom_site_fract_x
_atom_site_fract_y
_atom_site_fract_z
Si Si1 0.734914 0.585540 0.442402
Si Si2 0.900533 0.086534 0.118860
Si Si3 0.094362 0.215052 0.764545
Si Si4 0.243746 0.291557 0.653897
Si Si5 0.265222 0.286768 0.856065
Si Si6 0.604634 0.206837 0.275045
O O1 0.769049 0.500000 0.468400
O O2 0.567919 0.589665 0.280795
O O3 0.719595 0.634746 0.348330
O O4 0.872157 0.623916 0.666237
O O5 0.923401 0.132378 0.224368
O O6 0.857562 0.000000 0.075188
O O7 0.773294 0.135328 0.910887
O O8 0.132002 0.232323 0.725679
O O9 0.937458 0.262792 0.588933
O O10 0.250000 0.250000 0.000000
O O11 0.255729 0.301502 0.756733
O O12 0.357478 0.226344 0.762872
O O13 0.435315 0.244238 0.082325
O O14 0.750000 0.250000 0.500000
#
# Coordination Sequence:
#
# PCOD9223187 Si02
#       6
#     8   8   8   8   8   8
#     4  10  19  33  56  82 109 142 181 222 265 317
#     4  10  19  34  56  81 108 143 182 221 264 319
#     4  10  20  37  56  77 106 147 189 217 254 324
#     4  11  20  34  56  82 112 138 177 225 274 314
#     4  11  21  34  55  84 111 141 177 225 273 318
#     4  10  17  34  54  76 106 142 187 217 250 316
#
# _framework density 9.0240880000000008
#
# number of rings (size 3 to 8) (size 9 to 14) (size 15 to 20)
#    0.000    1.667    5.000    4.000    0.000    0.667 
#    0.000    9.167    0.000   11.000    0.000    0.000 
#    0.000    0.000    0.000    0.000    0.000    0.000 
#
# Total GULP energy -133671.166580 kJ/mol
# GULP energy per Si atom -5569.631941 kJ/mol
# Density = 0.900355 g / cm^3
# Si number density = 9.024088 Si / 1000 Ang^3
#
#
#
# Elastic Constant Matrix: (Units=GPa)
#
#
# Indices 1 2 3 4 5 6 
#
# 1 123.4552 89.3643 26.8117 0.0003 1.5225 0.0001
# 2 89.3643 115.2806 21.6416 0.0001 -30.2159 0.0001
# 3 26.8117 21.6416 60.6938 0.0004 -2.6834 0.0002
# 4 0.0003 0.0001 0.0004 13.8238 0.0002 4.9851
# 5 1.5225 -30.2159 -2.6834 0.0002 24.7663 0.0001
# 6 0.0001 0.0001 0.0002 4.9851 0.0001 23.9298
#
#
#
# Elastic Compliance Matrix: (Units=1/GPa)
#
#
# Indices 1 2 3 4 5 6 
#
# 1 0.059946 -0.068331 -0.005994 0.000001 -0.087702 0.000000
# 2 -0.068331 0.091621 0.002657 -0.000001 0.116270 0.000000
# 3 -0.005994 0.002657 0.018424 -0.000001 0.005606 0.000000
# 4 0.000001 -0.000001 -0.000001 0.078215 -0.000002 -0.016294
# 5 -0.087702 0.116270 0.005606 -0.000002 0.188230 0.000000
# 6 0.000000 0.000000 0.000000 -0.016294 0.000000 0.045183
#
#
# Mechanical properties :
#
#
# Convention : Reuss Voigt Hill
#
# Bulk Modulus (GPa) = 37.51736 63.89610 50.70673
# Shear Modulus (GPa) = 7.88842 23.27811 15.58327
#
# Velocity S-wave (km/s) = 2.09290 3.59524 2.94160
# Velocity P-wave (km/s) = 5.16457 7.26046 6.30028
#
# Compressibility (1/GPa) = 0.02665433
#
# Stress axis : x y z
#
# Youngs Moduli (GPa) = 16.68174 10.91456 54.27587
#
# Poissons Ratio (x) = 0.74581 0.32532
# Poissons Ratio (y) = 1.13989 -0.14421
# Poissons Ratio (z) = 0.09999 -0.02900
#
# Static dielectric constant tensor:
#      x y z
#    x 1.715880 0.000000 -0.007090 
#    y 0.000000 1.623980 0.000000 
#    z -0.007090 0.000000 1.667360 
# 
# From -- ./inp_files/74459.got.cif
#   From: 2010.05.17/outbox.ucp.g08.bks.cvg/sg12_38_cif.got.tgz:74459.got - 2010.06.11 11:47:21.
