data_PCOD9223185
_publ_section_title
;
Structure prediction by ZEFSAII (Michael W. Deem and Ramdas Pophale) SiO2 
 PCOD9223185
Probable space group: C 2/M
;
_chemical_formula_sum "Si O2"
_cell_formula_units_Z 28
_cell_length_a 15.000000
_cell_length_b 18.000000
_cell_length_c 18.000000
_cell_angle_alpha 90.000000
_cell_angle_beta 40.000000
_cell_angle_gamma 90.000000
_cell_volume 3123.947783
_symmetry_space_group_name_H-M "C 2/M"
_symmetry_group_IT_number 12
_symmetry_cell_setting 'monoclinic'
loop_
_space_group_symop_operation_xyz
x,y,z
-x,y,-z
-x,-y,-z
x,-y,z
1/2+x,1/2+y,z
1/2-x,1/2+y,-z
1/2-x,1/2-y,-z
1/2+x,1/2-y,z
loop_
_atom_site_type_symbol
_atom_site_label
_atom_site_fract_x
_atom_site_fract_y
_atom_site_fract_z
Si Si1 0.634932 0.914122 0.860254
Si Si2 0.812127 0.811639 0.405268
Si Si3 0.450093 0.086151 0.446575
Si Si4 0.340744 0.316416 0.976406
Si Si5 0.672098 0.184530 0.220868
Si Si6 0.623082 0.242443 0.794616
Si Si7 0.104129 0.852429 0.217761
O O1 0.627503 0.846006 0.806320
O O2 0.775888 0.896309 0.816021
O O3 0.637073 0.000000 0.831936
O O4 0.500000 0.906749 0.000000
O O5 0.750000 0.750000 0.500000
O O6 0.693288 0.870282 0.464323
O O7 0.857295 0.766293 0.302811
O O8 0.945940 0.859692 0.344944
O O9 0.500000 0.089256 0.500000
O O10 0.555022 0.130542 0.326088
O O11 0.439299 0.000000 0.431785
O O12 0.477803 0.274654 0.916017
O O13 0.378405 0.367026 0.881588
O O14 0.250000 0.250000 0.000000
O O15 0.260780 0.350693 0.097046
O O16 0.763634 0.212560 0.231134
O O17 0.622517 0.263903 0.220496
#
# Coordination Sequence:
#
# PCOD9223185 Si02
#       7
#     8   8   8   8   8   8   8
#     4  10  20  36  57  85 122 155 182 225 289 352
#     4  11  21  37  60  84 112 148 195 242 280 333
#     4  11  23  39  57  81 111 148 189 237 292 341
#     4   9  17  29  53  84 111 136 182 236 281 321
#     4  10  17  33  56  80 107 143 188 232 271 336
#     4  10  19  33  57  84 108 147 195 235 278 334
#     4   9  19  33  57  85 112 146 187 231 275 334
#
# _framework density 8.9630179999999999
#
# number of rings (size 3 to 8) (size 9 to 14) (size 15 to 20)
#    0.000    2.000    2.857    3.000    0.000    0.571 
#    0.000    1.429    0.000    3.429    0.000    0.000 
#    0.000    0.000    0.000    0.000    0.000    0.000 
#
# Total GULP energy -155925.093629 kJ/mol
# GULP energy per Si atom -5568.753344 kJ/mol
# Density = 0.894262 g / cm^3
# Si number density = 8.963018 Si / 1000 Ang^3
#
#
#
# Elastic Constant Matrix: (Units=GPa)
#
#
# Indices 1 2 3 4 5 6 
#
# 1 66.4350 14.5231 29.4115 -0.0001 -19.9980 0.0001
# 2 14.5231 73.5628 25.8427 -0.0003 -16.4992 0.0002
# 3 29.4115 25.8427 100.3653 -0.0003 -12.5105 0.0003
# 4 -0.0001 -0.0003 -0.0003 20.4420 0.0000 -3.9697
# 5 -19.9980 -16.4992 -12.5105 0.0000 34.2740 -0.0001
# 6 0.0001 0.0002 0.0003 -3.9697 -0.0001 7.8013
#
#
#
# Elastic Compliance Matrix: (Units=1/GPa)
#
#
# Indices 1 2 3 4 5 6 
#
# 1 0.020136 -0.000105 -0.004626 0.000000 0.010010 0.000000
# 2 -0.000105 0.016256 -0.003339 0.000000 0.006545 0.000000
# 3 -0.004626 -0.003339 0.012197 0.000000 0.000146 0.000000
# 4 0.000000 0.000000 0.000000 0.054283 0.000000 0.027622
# 5 0.010010 0.006545 0.000146 0.000000 0.038221 0.000000
# 6 0.000000 0.000000 0.000000 0.027622 0.000000 0.142240
#
#
# Mechanical properties :
#
#
# Convention : Reuss Voigt Hill
#
# Bulk Modulus (GPa) = 30.81783 42.21311 36.51547
# Shear Modulus (GPa) = 16.11398 23.87585 19.99491
#
# Velocity S-wave (km/s) = 3.00144 3.65349 3.34340
# Velocity P-wave (km/s) = 5.40745 6.43405 5.94296
#
# Compressibility (1/GPa) = 0.03244874
#
# Stress axis : x y z
#
# Youngs Moduli (GPa) = 49.66123 61.51743 81.98654
#
# Poissons Ratio (x) = 0.00647 0.37928
# Poissons Ratio (y) = 0.00522 0.27375
# Poissons Ratio (z) = 0.22974 0.20540
#
# Static dielectric constant tensor:
#      x y z
#    x 1.652150 0.000000 -0.028000 
#    y 0.000000 1.577830 0.000000 
#    z -0.028000 0.000000 1.652420 
# 
# From -- ./inp_files/271363.got.cif
#   From: 2010.05.17/outbox.ucp.g08.bks.cvg/sg12_136_cif.got.tgz:271363.got - 2010.06.11 11:47:21.
