data_PCOD9223622
_publ_section_title
;
Structure prediction by ZEFSAII (Michael W. Deem and Ramdas Pophale) SiO2 
 PCOD9223622
Probable space group: C 2/M
;
_chemical_formula_sum "Si O2"
_cell_formula_units_Z 24
_cell_length_a 27.000000
_cell_length_b 9.000000
_cell_length_c 15.000000
_cell_angle_alpha 90.000000
_cell_angle_beta 140.000000
_cell_angle_gamma 90.000000
_cell_volume 2342.960837
_symmetry_space_group_name_H-M "C 2/M"
_symmetry_group_IT_number 12
_symmetry_cell_setting 'monoclinic'
loop_
_space_group_symop_operation_xyz
x,y,z
-x,y,-z
-x,-y,-z
x,-y,z
1/2+x,1/2+y,z
1/2-x,1/2+y,-z
1/2-x,1/2-y,-z
1/2+x,1/2-y,z
loop_
_atom_site_type_symbol
_atom_site_label
_atom_site_fract_x
_atom_site_fract_y
_atom_site_fract_z
Si Si1 0.962009 0.319338 0.355506
Si Si2 0.249127 0.323371 0.594306
Si Si3 0.330180 0.318990 0.876547
Si Si4 0.500729 0.678066 0.897403
Si Si5 0.422401 0.823117 0.634549
Si Si6 0.288195 0.179888 0.137527
O O1 0.962235 0.500000 0.349278
O O2 0.875359 0.269827 0.247680
O O3 0.000000 0.277982 0.500000
O O4 0.013101 0.264337 0.344071
O O5 0.259047 0.500000 0.596852
O O6 0.250000 0.250000 0.500000
O O7 0.311654 0.268891 0.751009
O O8 0.164110 0.297618 0.518081
O O9 0.330449 0.500000 0.875122
O O10 0.261628 0.271775 0.846318
O O11 0.415286 0.273732 0.023274
O O12 0.493728 0.500000 0.882502
O O13 0.435595 0.750086 0.748058
O O14 0.500000 0.718375 0.000000
O O15 0.431277 0.000000 0.655702
O O16 0.286956 0.000000 0.135234
O O17 0.250000 0.250000 0.000000
#
# Coordination Sequence:
#
# PCOD9223622 Si02
#       6
#     8   8   8   8   8   8
#     4   9  17  31  52  76 100 129 166 203 243 295
#     4  10  20  35  54  75 100 130 166 206 246 291
#     4   9  18  33  52  73  98 132 171 204 240 292
#     4  10  20  34  52  72  98 135 172 203 240 293
#     4  10  20  33  52  78 103 127 160 207 254 290
#     4  10  19  32  52  75 100 131 165 204 247 292
#
# _framework density 10.243449
#
# number of rings (size 3 to 8) (size 9 to 14) (size 15 to 20)
#    0.000    2.333    0.000    3.000    0.000    6.333 
#    0.000    1.667    0.000    4.000    0.000    0.000 
#    0.000    0.000    0.000    0.000    0.000    0.000 
#
# Total GULP energy -133777.485759 kJ/mol
# GULP energy per Si atom -5574.061907 kJ/mol
# Density = 1.022013 g / cm^3
# Si number density = 10.243449 Si / 1000 Ang^3
#
#
#
# Elastic Constant Matrix: (Units=GPa)
#
#
# Indices 1 2 3 4 5 6 
#
# 1 84.5557 7.8320 14.3830 0.0000 1.6446 0.0000
# 2 7.8320 -31.9444 3.1922 0.0000 20.2987 0.0000
# 3 14.3830 3.1922 96.3353 0.0000 6.3085 0.0000
# 4 0.0000 0.0000 0.0000 11.3063 0.0000 -4.8102
# 5 1.6446 20.2987 6.3085 0.0000 15.3998 0.0000
# 6 0.0000 0.0000 0.0000 -4.8102 0.0000 13.6631
#
#
#
# Elastic Compliance Matrix: (Units=1/GPa)
#
#
# Indices 1 2 3 4 5 6 
#
# 1 0.012038 0.001309 -0.001689 0.000000 -0.002319 0.000000
# 2 0.001309 -0.016812 -0.001110 0.000000 0.022476 0.000000
# 3 -0.001689 -0.001110 0.010853 0.000000 -0.002802 0.000000
# 4 0.000000 0.000000 0.000000 0.104027 0.000000 0.036623
# 5 -0.002319 0.022476 -0.002802 0.000000 0.036706 0.000000
# 6 0.000000 0.000000 0.000000 0.036623 0.000000 0.086083
#
#
# Mechanical properties :
#
#
# Convention : Reuss Voigt Hill
#
# Bulk Modulus (GPa) = 322.77853 22.19566 172.48709
# Shear Modulus (GPa) = 21.10534 16.30981 18.70757
#
# Velocity S-wave (km/s) = 3.21313 2.82460 3.02511
# Velocity P-wave (km/s) = 13.10196 4.63632 9.82743
#
# Compressibility (1/GPa) = 0.00309810
#
# Stress axis : x y z
#
# Youngs Moduli (GPa) = 83.07272 -59.47969 92.14178
#
# Poissons Ratio (x) = 0.07786 0.15560
# Poissons Ratio (y) = -0.10874 0.10229
# Poissons Ratio (z) = 0.14029 -0.06603
#
# Static dielectric constant tensor:
#      x y z
#    x 1.755940 0.000000 0.026540 
#    y 0.000000 1.662740 0.000000 
#    z 0.026540 0.000000 1.697560 
# 
# From -- ./inp_files/174396.got.cif
#   From: 2010.05.17/outbox.ucp.g08.bks.cvg/sg12_88_cif.got.tgz:174396.got - 2010.06.11 11:47:21.
