data_PCOD9223487
_publ_section_title
;
Structure prediction by ZEFSAII (Michael W. Deem and Ramdas Pophale) SiO2 
 PCOD9223487
Probable space group: C 2/M
;
_chemical_formula_sum "Si O2"
_cell_formula_units_Z 28
_cell_length_a 30.000000
_cell_length_b 9.000000
_cell_length_c 18.000000
_cell_angle_alpha 90.000000
_cell_angle_beta 40.000000
_cell_angle_gamma 90.000000
_cell_volume 3123.947783
_symmetry_space_group_name_H-M "C 2/M"
_symmetry_group_IT_number 12
_symmetry_cell_setting 'monoclinic'
loop_
_space_group_symop_operation_xyz
x,y,z
-x,y,-z
-x,-y,-z
x,-y,z
1/2+x,1/2+y,z
1/2-x,1/2+y,-z
1/2-x,1/2-y,-z
1/2+x,1/2-y,z
loop_
_atom_site_type_symbol
_atom_site_label
_atom_site_fract_x
_atom_site_fract_y
_atom_site_fract_z
Si Si1 0.695175 0.320730 0.301779
Si Si2 0.546317 0.829756 0.865353
Si Si3 0.572097 0.323819 0.062460
Si Si4 0.440537 0.323541 0.752890
Si Si5 0.791418 0.824290 0.880504
Si Si6 0.836409 0.321032 0.182465
Si Si7 0.545978 0.177422 0.513175
O O1 0.686758 0.500000 0.310584
O O2 0.723229 0.273576 0.184462
O O3 0.755881 0.282078 0.281788
O O4 0.621836 0.247504 0.411060
O O5 0.505180 0.725000 0.862573
O O6 0.621088 0.777215 0.798384
O O7 0.549204 0.000000 0.834253
O O8 0.500000 0.832132 0.000000
O O9 0.580635 0.500000 0.045020
O O10 0.581031 0.279301 0.136427
O O11 0.624275 0.245534 0.939000
O O12 0.455986 0.500000 0.733711
O O13 0.373106 0.299095 0.788565
O O14 0.504621 0.235658 0.637495
O O15 0.778154 0.000000 0.901830
O O16 0.750000 0.750000 0.000000
O O17 0.842518 0.500000 0.169440
O O18 0.500000 0.222403 0.500000
O O19 0.550838 0.000000 0.507535
#
# Coordination Sequence:
#
# PCOD9223487 Si02
#       7
#     8   8   8   8   8   8   8
#     4  10  20  35  55  74  98 135 172 206 249 303
#     4   8  15  29  48  71 103 137 168 204 247 301
#     4  10  19  30  49  78 107 135 169 208 251 298
#     4  10  21  36  52  72 101 136 171 207 249 300
#     4  10  20  32  49  73 101 133 163 197 247 298
#     4   9  18  32  51  77 105 136 171 204 249 305
#     4  11  23  37  54  76  98 128 173 218 255 293
#
# _framework density 8.9630179999999999
#
# number of rings (size 3 to 8) (size 9 to 14) (size 15 to 20)
#    0.000    2.286    1.429    2.571    0.000    6.000 
#    0.000    0.000    0.000    0.857    0.000    0.000 
#    0.000    0.000    0.000    0.000    0.000    0.000 
#
# Total GULP energy -156114.421765 kJ/mol
# GULP energy per Si atom -5575.515063 kJ/mol
# Density = 0.894262 g / cm^3
# Si number density = 8.963018 Si / 1000 Ang^3
#
#
#
# Elastic Constant Matrix: (Units=GPa)
#
#
# Indices 1 2 3 4 5 6 
#
# 1 43.8667 13.1376 -17.5398 -0.0108 -14.9602 0.0093
# 2 13.1376 4.9264 14.1654 -0.0121 -10.9937 0.0164
# 3 -17.5398 14.1654 38.7287 -0.0137 -15.0143 0.0128
# 4 -0.0108 -0.0121 -0.0137 26.4298 0.0051 -1.0039
# 5 -14.9602 -10.9937 -15.0143 0.0051 21.7396 -0.0042
# 6 0.0093 0.0164 0.0128 -1.0039 -0.0042 21.1257
#
#
#
# Elastic Compliance Matrix: (Units=1/GPa)
#
#
# Indices 1 2 3 4 5 6 
#
# 1 0.013641 0.076107 -0.004233 0.000028 0.044951 -0.000052
# 2 0.076107 -0.039082 0.083858 0.000038 0.090526 -0.000034
# 3 -0.004233 0.083858 0.011667 0.000031 0.047552 -0.000059
# 4 0.000028 0.000038 0.000031 0.037904 0.000051 0.001801
# 5 0.044951 0.090526 0.047552 0.000051 0.155553 -0.000086
# 6 -0.000052 -0.000034 -0.000059 0.001801 -0.000086 0.047421
#
#
# Mechanical properties :
#
#
# Convention : Reuss Voigt Hill
#
# Bulk Modulus (GPa) = 3.35920 11.89425 7.62672
# Shear Modulus (GPa) = 336.25341 19.04292 177.64816
#
# Velocity S-wave (km/s) = 13.71078 3.26284 9.96573
# Velocity P-wave (km/s) = 15.89104 4.56557 11.69123
#
# Compressibility (1/GPa) = 0.29769004
#
# Stress axis : x y z
#
# Youngs Moduli (GPa) = 73.31014 -25.58740 85.71411
#
# Poissons Ratio (x) = 1.94738 0.36280
# Poissons Ratio (y) = -5.57943 -7.18779
# Poissons Ratio (z) = 0.31030 2.14570
#
# Static dielectric constant tensor:
#      x y z
#    x 1.665180 0.000000 -0.016490 
#    y 0.000000 1.600440 0.000000 
#    z -0.016490 0.000000 1.590670 
# 
# From -- ./inp_files/280926.got.cif
#   From: 2010.05.17/outbox.ucp.g08.bks.cvg/sg12_141_cif.got.tgz:280926.got - 2010.06.11 11:47:21.
