data_PCOD9223765
_publ_section_title
;
Structure prediction by ZEFSAII (Michael W. Deem and Ramdas Pophale) SiO2 
 PCOD9223765
Probable space group: C 2/M
;
_chemical_formula_sum "Si O2"
_cell_formula_units_Z 28
_cell_length_a 9.000000
_cell_length_b 18.000000
_cell_length_c 18.000000
_cell_angle_alpha 90.000000
_cell_angle_beta 110.000000
_cell_angle_gamma 90.000000
_cell_volume 2740.143682
_symmetry_space_group_name_H-M "C 2/M"
_symmetry_group_IT_number 12
_symmetry_cell_setting 'monoclinic'
loop_
_space_group_symop_operation_xyz
x,y,z
-x,y,-z
-x,-y,-z
x,-y,z
1/2+x,1/2+y,z
1/2-x,1/2+y,-z
1/2-x,1/2-y,-z
1/2+x,1/2-y,z
loop_
_atom_site_type_symbol
_atom_site_label
_atom_site_fract_x
_atom_site_fract_y
_atom_site_fract_z
Si Si1 0.730399 0.414705 0.667246
Si Si2 0.106165 0.839888 0.211307
Si Si3 0.743681 0.814596 0.189903
Si Si4 0.648759 0.582990 0.365795
Si Si5 0.495933 0.917262 0.085514
Si Si6 0.850584 0.086652 0.930060
Si Si7 0.187797 0.829434 0.514536
O O1 0.785327 0.500000 0.672959
O O2 0.792597 0.364435 0.743875
O O3 0.540755 0.418167 0.650546
O O4 0.761563 0.368016 0.598788
O O5 0.195616 0.769075 0.195488
O O6 0.180494 0.866012 0.301006
O O7 0.114469 0.903027 0.150549
O O8 0.924712 0.820997 0.197506
O O9 0.629841 0.855716 0.114824
O O10 0.700755 0.500000 0.359124
O O11 0.719344 0.615716 0.452056
O O12 0.326129 0.886319 0.082721
O O13 0.525438 0.000000 0.126338
O O14 0.500000 0.930588 0.000000
O O15 0.842645 0.000000 0.949851
O O16 0.000000 0.120396 0.000000
O O17 0.250000 0.750000 0.500000
O O18 0.000000 0.823794 0.500000
#
# Coordination Sequence:
#
# PCOD9223765 Si02
#       7
#     8   8   8   8   8   8   8
#     4   9  18  33  55  81 107 141 186 230 271 321
#     4  11  22  36  55  80 112 147 185 229 277 329
#     4  11  22  36  55  80 112 147 185 229 277 329
#     4   9  18  33  55  81 107 141 186 230 271 321
#     4  10  21  38  60  85 112 143 181 225 274 329
#     4  10  21  38  60  85 112 143 181 225 274 329
#     4  10  19  33  55  81 111 144 180 224 272 324
#
# _framework density 10.218442
#
# number of rings (size 3 to 8) (size 9 to 14) (size 15 to 20)
#    0.000    2.000    0.000    3.857    0.000    5.143 
#    0.000    4.286    0.000    5.143    0.000    0.000 
#    0.000    0.000    0.000    0.000    0.000    0.000 
#
# Total GULP energy -156007.895409 kJ/mol
# GULP energy per Si atom -5571.710550 kJ/mol
# Density = 1.019518 g / cm^3
# Si number density = 10.218442 Si / 1000 Ang^3
#
#
#
# Elastic Constant Matrix: (Units=GPa)
#
#
# Indices 1 2 3 4 5 6 
#
# 1 39.2131 4.3927 2.2942 0.0000 -12.0077 0.0000
# 2 4.3927 46.6128 2.9054 0.0000 8.1073 0.0000
# 3 2.2942 2.9054 56.6595 0.0000 -23.3258 0.0000
# 4 0.0000 0.0000 0.0000 31.5849 0.0000 -1.8027
# 5 -12.0077 8.1073 -23.3258 0.0000 9.3067 0.0000
# 6 0.0000 0.0000 0.0000 -1.8027 0.0000 35.2536
#
#
#
# Elastic Compliance Matrix: (Units=1/GPa)
#
#
# Indices 1 2 3 4 5 6 
#
# 1 0.009566 0.009695 -0.022628 0.000000 -0.052816 0.000000
# 2 0.009695 0.012777 0.015098 0.000000 0.039220 0.000000
# 3 -0.022628 0.015098 -0.011240 0.000000 -0.070519 0.000000
# 4 0.000000 0.000000 0.000000 0.031753 0.000000 0.001624
# 5 -0.052816 0.039220 -0.070519 0.000000 -0.171603 0.000000
# 6 0.000000 0.000000 0.000000 0.001624 0.000000 0.028449
#
#
# Mechanical properties :
#
#
# Convention : Reuss Voigt Hill
#
# Bulk Modulus (GPa) = 64.78969 17.96336 41.37652
# Shear Modulus (GPa) = -50.25957 24.08857 -13.08550
#
# Velocity S-wave (km/s) = -4.96447 3.43692 -2.53314
# Velocity P-wave (km/s) = 1.04410 4.95567 3.42553
#
# Compressibility (1/GPa) = 0.01543455
#
# Stress axis : x y z
#
# Youngs Moduli (GPa) = 104.53208 78.26454 -88.96763
#
# Poissons Ratio (x) = -0.75878 -2.01314
# Poissons Ratio (y) = -1.01344 1.34325
# Poissons Ratio (z) = 2.36533 -1.18166
#
# Static dielectric constant tensor:
#      x y z
#    x 1.693800 0.000000 0.007250 
#    y 0.000000 1.812410 0.000000 
#    z 0.007250 0.000000 1.786930 
# 
# From -- ./inp_files/257183.got.cif
#   From: 2010.05.17/outbox.ucp.g08.bks.cvg/sg12_129_cif.got.tgz:257183.got - 2010.06.11 11:47:21.
