data_PCOD9223803
_publ_section_title
;
Structure prediction by ZEFSAII (Michael W. Deem and Ramdas Pophale) SiO2 
 PCOD9223803
Probable space group: C 2/M
;
_chemical_formula_sum "Si O2"
_cell_formula_units_Z 32
_cell_length_a 21.000000
_cell_length_b 18.000000
_cell_length_c 18.000000
_cell_angle_alpha 90.000000
_cell_angle_beta 150.000000
_cell_angle_gamma 90.000000
_cell_volume 3402.000000
_symmetry_space_group_name_H-M "C 2/M"
_symmetry_group_IT_number 12
_symmetry_cell_setting 'monoclinic'
loop_
_space_group_symop_operation_xyz
x,y,z
-x,y,-z
-x,-y,-z
x,-y,z
1/2+x,1/2+y,z
1/2-x,1/2+y,-z
1/2-x,1/2-y,-z
1/2+x,1/2-y,z
loop_
_atom_site_type_symbol
_atom_site_label
_atom_site_fract_x
_atom_site_fract_y
_atom_site_fract_z
Si Si1 0.237793 0.211260 0.822347
Si Si2 0.800280 0.912067 0.963373
Si Si3 0.320824 0.087178 0.000648
Si Si4 0.103224 0.697117 0.408993
Si Si5 0.871570 0.412181 0.689740
Si Si6 0.573546 0.154356 0.650437
Si Si7 0.799734 0.715397 0.712607
Si Si8 0.469657 0.282861 0.141687
O O1 0.241999 0.128174 0.856668
O O2 0.108490 0.258110 0.691986
O O3 0.284042 0.219855 0.784683
O O4 0.335664 0.247129 0.980863
O O5 0.706340 0.887311 0.801077
O O6 0.815063 0.000000 0.976144
O O7 0.729676 0.889895 0.969097
O O8 0.934319 0.869203 0.101306
O O9 0.300617 0.000000 0.974114
O O10 0.474012 0.098698 0.150298
O O11 0.174478 0.640932 0.424487
O O12 0.190267 0.743787 0.553589
O O13 0.018624 0.642367 0.373519
O O14 0.021577 0.751751 0.272665
O O15 0.846175 0.500000 0.657436
O O16 0.813106 0.370624 0.701763
O O17 0.500000 0.137834 0.500000
O O18 0.927379 0.756625 0.814340
#
# Coordination Sequence:
#
# PCOD9223803 Si02
#       8
#     8   8   8   8   8   8   8   8
#     4  11  20  35  58  84 116 147 182 241 278 332
#     4  10  21  38  60  84 113 145 190 243 285 333
#     4  10  19  33  56  85 110 143 183 232 286 328
#     4  11  20  38  59  83 116 151 190 237 275 333
#     4  10  20  35  57  83 113 147 189 230 277 334
#     4  11  21  35  58  88 109 144 193 237 291 334
#     4  11  22  36  56  85 121 151 185 229 283 336
#     4  10  20  35  58  81 108 151 195 224 278 332
#
# _framework density 9.4062319999999993
#
# number of rings (size 3 to 8) (size 9 to 14) (size 15 to 20)
#    0.000    1.500    5.000    2.625    0.000    2.750 
#    0.000    3.750    0.000    7.125    0.000    0.000 
#    0.000    0.000    0.000    0.000    0.000    0.000 
#
# Total GULP energy -178341.745906 kJ/mol
# GULP energy per Si atom -5573.179560 kJ/mol
# Density = 0.938482 g / cm^3
# Si number density = 9.406232 Si / 1000 Ang^3
#
#
#
# Elastic Constant Matrix: (Units=GPa)
#
#
# Indices 1 2 3 4 5 6 
#
# 1 42.9735 15.5015 1.4262 0.0002 -12.7553 0.0002
# 2 15.5015 91.8634 39.2948 0.0001 -12.1192 0.0001
# 3 1.4262 39.2948 62.1943 0.0002 -15.5880 0.0002
# 4 0.0002 0.0001 0.0002 24.9335 0.0001 1.1778
# 5 -12.7553 -12.1192 -15.5880 0.0001 23.4011 0.0001
# 6 0.0002 0.0001 0.0002 1.1778 0.0001 19.4177
#
#
#
# Elastic Compliance Matrix: (Units=1/GPa)
#
#
# Indices 1 2 3 4 5 6 
#
# 1 0.030803 -0.006069 0.007861 0.000000 0.018883 0.000000
# 2 -0.006069 0.016172 -0.010574 0.000000 -0.001976 0.000000
# 3 0.007861 -0.010574 0.026746 0.000000 0.016625 0.000000
# 4 0.000000 0.000000 0.000000 0.040222 0.000000 -0.002440
# 5 0.018883 -0.001976 0.016625 0.000000 0.063076 -0.000001
# 6 0.000000 0.000000 0.000000 -0.002440 -0.000001 0.051647
#
#
# Mechanical properties :
#
#
# Convention : Reuss Voigt Hill
#
# Bulk Modulus (GPa) = 17.80714 34.38623 26.09669
# Shear Modulus (GPa) = 18.87147 22.93772 20.90460
#
# Velocity S-wave (km/s) = 3.17067 3.49561 3.33710
# Velocity P-wave (km/s) = 4.78439 5.88307 5.36194
#
# Compressibility (1/GPa) = 0.05615724
#
# Stress axis : x y z
#
# Youngs Moduli (GPa) = 32.46386 61.83468 37.38916
#
# Poissons Ratio (x) = 0.37530 -0.29392
# Poissons Ratio (y) = 0.19703 0.39535
# Poissons Ratio (z) = -0.25520 0.65383
#
# Static dielectric constant tensor:
#      x y z
#    x 1.672630 0.000000 0.018580 
#    y 0.000000 1.722830 0.000000 
#    z 0.018580 0.000000 1.651020 
# 
# From -- ./inp_files/285240.got.cif
#   From: 2010.05.17/outbox.ucp.g08.bks.cvg/sg12_143_cif.got.tgz:285240.got - 2010.06.11 11:47:21.
