data_PCOD9223516
_publ_section_title
;
Structure prediction by ZEFSAII (Michael W. Deem and Ramdas Pophale) SiO2 
 PCOD9223516
Probable space group: C 2/M
;
_chemical_formula_sum "Si O2"
_cell_formula_units_Z 28
_cell_length_a 30.000000
_cell_length_b 9.000000
_cell_length_c 12.000000
_cell_angle_alpha 90.000000
_cell_angle_beta 120.000000
_cell_angle_gamma 90.000000
_cell_volume 2805.922308
_symmetry_space_group_name_H-M "C 2/M"
_symmetry_group_IT_number 12
_symmetry_cell_setting 'monoclinic'
loop_
_space_group_symop_operation_xyz
x,y,z
-x,y,-z
-x,-y,-z
x,-y,z
1/2+x,1/2+y,z
1/2-x,1/2+y,-z
1/2-x,1/2-y,-z
1/2+x,1/2-y,z
loop_
_atom_site_type_symbol
_atom_site_label
_atom_site_fract_x
_atom_site_fract_y
_atom_site_fract_z
Si Si1 0.410824 0.176066 0.614973
Si Si2 0.889700 0.828425 0.996163
Si Si3 0.647209 0.176042 0.249440
Si Si4 0.306602 0.320283 0.070302
Si Si5 0.496246 0.670759 0.862150
Si Si6 0.146393 0.821703 0.636849
Si Si7 0.742214 0.678043 0.609833
O O1 0.365727 0.232081 0.643554
O O2 0.460782 0.221717 0.746476
O O3 0.402264 0.252523 0.485959
O O4 0.407368 0.000000 0.597144
O O5 0.843684 0.774901 0.015980
O O6 0.946456 0.822481 0.117393
O O7 0.879526 0.000000 0.954537
O O8 0.892585 0.737329 0.887006
O O9 0.702548 0.215188 0.269136
O O10 0.644353 0.000000 0.252741
O O11 0.301039 0.500000 0.062354
O O12 0.339421 0.279850 0.220710
O O13 0.250000 0.250000 0.000000
O O14 0.477013 0.500000 0.828115
O O15 0.500000 0.699686 0.000000
O O16 0.196114 0.769959 0.628206
O O17 0.142878 0.000000 0.626765
O O18 0.737873 0.500000 0.592078
O O19 0.750000 0.750000 0.500000
#
# Coordination Sequence:
#
# PCOD9223516 Si02
#       7
#     8   8   8   8   8   8   8
#     4  11  22  35  55  84 116 148 187 234 288 344
#     4  10  21  37  59  85 111 147 194 236 277 337
#     4  10  20  33  51  80 116 147 180 230 287 339
#     4  10  22  41  63  87 115 151 195 237 281 336
#     4  10  20  36  58  84 116 151 190 235 286 341
#     4  10  21  37  57  79 112 154 191 232 285 340
#     4  10  19  31  48  74 107 142 178 219 273 334
#
# _framework density 9.9788940000000004
#
# number of rings (size 3 to 8) (size 9 to 14) (size 15 to 20)
#    0.000    1.857    2.857    1.286    0.000    4.286 
#    0.000    0.714    0.000    4.286    0.000    0.000 
#    0.000    0.000    0.000    0.000    0.000    0.000 
#
# Total GULP energy -155890.194448 kJ/mol
# GULP energy per Si atom -5567.506945 kJ/mol
# Density = 0.995618 g / cm^3
# Si number density = 9.978894 Si / 1000 Ang^3
#
#
#
# Elastic Constant Matrix: (Units=GPa)
#
#
# Indices 1 2 3 4 5 6 
#
# 1 51.9751 6.8884 12.9090 0.0000 -2.8249 0.0000
# 2 6.8884 -22.2132 22.5484 0.0000 -0.1123 0.0000
# 3 12.9090 22.5484 98.3512 0.0000 -13.9532 0.0000
# 4 0.0000 0.0000 0.0000 20.8813 0.0000 5.0440
# 5 -2.8249 -0.1123 -13.9532 0.0000 16.6469 0.0000
# 6 0.0000 0.0000 0.0000 5.0440 0.0000 18.1796
#
#
#
# Elastic Compliance Matrix: (Units=1/GPa)
#
#
# Indices 1 2 3 4 5 6 
#
# 1 0.019676 0.002904 -0.003146 0.000000 0.000722 0.000000
# 2 0.002904 -0.035244 0.008779 0.000000 0.007614 0.000000
# 3 -0.003146 0.008779 0.009648 0.000000 0.007612 0.000000
# 4 0.000000 0.000000 0.000000 0.051330 0.000000 -0.014242
# 5 0.000722 0.007614 0.007612 0.000000 0.066625 0.000000
# 6 0.000000 0.000000 0.000000 -0.014242 0.000000 0.058958
#
#
# Mechanical properties :
#
#
# Convention : Reuss Voigt Hill
#
# Bulk Modulus (GPa) = 89.65228 23.64497 56.64863
# Shear Modulus (GPa) = 31.71875 16.85937 24.28906
#
# Velocity S-wave (km/s) = 3.99092 2.90961 3.49237
# Velocity P-wave (km/s) = 8.13972 4.81259 6.68641
#
# Compressibility (1/GPa) = 0.01115421
#
# Stress axis : x y z
#
# Youngs Moduli (GPa) = 50.82429 -28.37330 103.65145
#
# Poissons Ratio (x) = 0.08241 0.32609
# Poissons Ratio (y) = -0.14761 -0.90998
# Poissons Ratio (z) = 0.15989 0.24910
#
# Static dielectric constant tensor:
#      x y z
#    x 1.732680 0.000000 0.077000 
#    y 0.000000 1.669340 0.000000 
#    z 0.077000 0.000000 1.730500 
# 
# From -- ./inp_files/180802.got.cif
#   From: 2010.05.17/outbox.ucp.g08.bks.cvg/sg12_91_cif.got.tgz:180802.got - 2010.06.11 11:47:21.
