data_PCOD9223964
_publ_section_title
;
Structure prediction by ZEFSAII (Michael W. Deem and Ramdas Pophale) SiO2 
 PCOD9223964
Probable space group: C 2/M
;
_chemical_formula_sum "Si O2"
_cell_formula_units_Z 32
_cell_length_a 30.000000
_cell_length_b 9.000000
_cell_length_c 24.000000
_cell_angle_alpha 90.000000
_cell_angle_beta 30.000000
_cell_angle_gamma 90.000000
_cell_volume 3240.000000
_symmetry_space_group_name_H-M "C 2/M"
_symmetry_group_IT_number 12
_symmetry_cell_setting 'monoclinic'
loop_
_space_group_symop_operation_xyz
x,y,z
-x,y,-z
-x,-y,-z
x,-y,z
1/2+x,1/2+y,z
1/2-x,1/2+y,-z
1/2-x,1/2-y,-z
1/2+x,1/2-y,z
loop_
_atom_site_type_symbol
_atom_site_label
_atom_site_fract_x
_atom_site_fract_y
_atom_site_fract_z
Si Si1 0.466915 0.319572 0.975909
Si Si2 0.469668 0.320688 0.471804
Si Si3 0.099510 0.322748 0.137054
Si Si4 0.186811 0.820525 0.933810
Si Si5 0.363569 0.677444 0.278287
Si Si6 0.376196 0.822426 0.764043
Si Si7 0.692818 0.322152 0.422573
Si Si8 0.094445 0.179132 0.644859
O O1 0.464249 0.500000 0.982284
O O2 0.539689 0.281093 0.850170
O O3 0.500000 0.264308 0.000000
O O4 0.371442 0.270580 0.055947
O O5 0.500000 0.268840 0.500000
O O6 0.471718 0.500000 0.469130
O O7 0.538554 0.261631 0.351467
O O8 0.371587 0.273730 0.557805
O O9 0.100533 0.500000 0.128143
O O10 0.142496 0.288545 0.150854
O O11 0.999230 0.262428 0.251221
O O12 0.145131 0.244732 0.035358
O O13 0.290250 0.779885 0.820926
O O14 0.181478 0.000000 0.943198
O O15 0.355802 0.500000 0.283348
O O16 0.288675 0.748926 0.321205
O O17 0.355291 0.719798 0.352166
O O18 0.390845 0.000000 0.744357
O O19 0.701488 0.500000 0.411313
O O20 0.645457 0.284061 0.532844
O O21 0.079849 0.000000 0.661512
#
# Coordination Sequence:
#
# PCOD9223964 Si02
#       8
#     8   8   8   8   8   8   8   8
#     4   9  18  34  56  80 106 141 186 228 266 319
#     4  10  22  40  60  81 110 151 192 229 274 331
#     4  11  21  33  54  86 116 142 181 230 280 331
#     4  10  20  37  58  80 113 150 184 224 278 339
#     4  10  20  34  56  84 110 141 184 227 272 326
#     4  10  22  37  57  86 113 144 185 233 281 326
#     4  10  21  36  56  81 111 146 181 222 278 331
#     4  10  19  35  57  81 108 147 185 218 277 340
#
# _framework density 9.8765429999999999
#
# number of rings (size 3 to 8) (size 9 to 14) (size 15 to 20)
#    0.000    2.000    2.500    1.125    0.000    3.750 
#    0.000    1.250    0.000    1.500    0.000    0.000 
#    0.000    0.000    0.000    0.000    0.000    0.000 
#
# Total GULP energy -178597.960079 kJ/mol
# GULP energy per Si atom -5581.186252 kJ/mol
# Density = 0.985406 g / cm^3
# Si number density = 9.876543 Si / 1000 Ang^3
#
#
#
# Elastic Constant Matrix: (Units=GPa)
#
#
# Indices 1 2 3 4 5 6 
#
# 1 138.1878 11.3077 7.9993 -0.0017 -22.2304 0.0008
# 2 11.3077 -9.2766 -1.0247 -0.0059 -6.5300 0.0047
# 3 7.9993 -1.0247 9.2727 -0.0054 -19.0950 0.0030
# 4 -0.0017 -0.0059 -0.0054 12.3520 0.0017 -5.2906
# 5 -22.2304 -6.5300 -19.0950 0.0017 37.8748 -0.0019
# 6 0.0008 0.0047 0.0030 -5.2906 -0.0019 21.9939
#
#
#
# Elastic Compliance Matrix: (Units=1/GPa)
#
#
# Indices 1 2 3 4 5 6 
#
# 1 0.009727 -0.010735 0.042712 0.000012 0.025392 0.000001
# 2 -0.010735 0.035545 -0.335892 -0.000109 -0.169516 -0.000002
# 3 0.042712 -0.335892 0.883363 0.000190 0.412516 0.000031
# 4 0.000012 -0.000109 0.000190 0.090258 0.000081 0.021712
# 5 0.025392 -0.169516 0.412516 0.000081 0.220055 0.000017
# 6 0.000001 -0.000002 0.000031 0.021712 0.000017 0.050690
#
#
# Mechanical properties :
#
#
# Convention : Reuss Voigt Hill
#
# Bulk Modulus (GPa) = 3.11714 19.41651 11.26683
# Shear Modulus (GPa) = 2.49451 22.43758 12.46604
#
# Velocity S-wave (km/s) = 1.12498 3.37397 2.51488
# Velocity P-wave (km/s) = 1.80802 5.00292 3.76152
#
# Compressibility (1/GPa) = 0.32080654
#
# Stress axis : x y z
#
# Youngs Moduli (GPa) = 102.80287 28.13330 1.13204
#
# Poissons Ratio (x) = 0.30201 -0.04835
# Poissons Ratio (y) = 1.10358 0.38024
# Poissons Ratio (z) = -4.39091 9.44974
#
# Static dielectric constant tensor:
#      x y z
#    x 1.734530 0.000000 -0.014190 
#    y 0.000000 1.650610 0.000000 
#    z -0.014190 0.000000 1.664430 
# 
# From -- ./inp_files/249060.got.cif
#   From: 2010.05.17/outbox.ucp.g08.bks.cvg/sg12_125_cif.got.tgz:249060.got - 2010.06.11 11:47:21.
