data_PCOD9223524
_publ_section_title
;
Structure prediction by ZEFSAII (Michael W. Deem and Ramdas Pophale) SiO2 
 PCOD9223524
Probable space group: C 2/M
;
_chemical_formula_sum "Si O2"
_cell_formula_units_Z 24
_cell_length_a 27.000000
_cell_length_b 9.000000
_cell_length_c 21.000000
_cell_angle_alpha 90.000000
_cell_angle_beta 150.000000
_cell_angle_gamma 90.000000
_cell_volume 2551.500000
_symmetry_space_group_name_H-M "C 2/M"
_symmetry_group_IT_number 12
_symmetry_cell_setting 'monoclinic'
loop_
_space_group_symop_operation_xyz
x,y,z
-x,y,-z
-x,-y,-z
x,-y,z
1/2+x,1/2+y,z
1/2-x,1/2+y,-z
1/2-x,1/2-y,-z
1/2+x,1/2-y,z
loop_
_atom_site_type_symbol
_atom_site_label
_atom_site_fract_x
_atom_site_fract_y
_atom_site_fract_z
Si Si1 0.285975 0.669762 0.850946
Si Si2 0.975508 0.830313 0.883217
Si Si3 0.524958 0.831158 0.246277
Si Si4 0.212079 0.333325 0.018649
Si Si5 0.685855 0.674711 0.484539
Si Si6 0.201611 0.670895 0.257394
O O1 0.258212 0.500000 0.827059
O O2 0.257295 0.757943 0.881621
O O3 0.249585 0.737095 0.744717
O O4 0.406296 0.679594 0.980848
O O5 0.950460 0.778188 0.784309
O O6 0.909843 0.726334 0.854059
O O7 0.946150 0.000000 0.863129
O O8 0.582460 0.763025 0.369529
O O9 0.558914 0.000000 0.270349
O O10 0.407174 0.833738 0.119082
O O11 0.248952 0.500000 0.059083
O O12 0.250000 0.250000 0.000000
O O13 0.672058 0.500000 0.456358
O O14 0.750000 0.750000 0.500000
O O15 0.741166 0.689271 0.612911
O O16 0.199344 0.500000 0.235997
#
# Coordination Sequence:
#
# PCOD9223524 Si02
#       6
#     8   8   8   8   8   8
#     4  10  21  35  52  77 106 138 178 220 268 322
#     4  10  19  31  49  73 104 142 180 218 261 313
#     4  10  20  34  53  79 108 140 180 222 265 314
#     4  10  21  38  61  85 108 135 172 222 276 326
#     4  11  22  34  51  75 108 149 188 222 259 311
#     4  11  22  33  48  73 107 146 182 218 263 314
#
# _framework density 9.4062319999999993
#
# number of rings (size 3 to 8) (size 9 to 14) (size 15 to 20)
#    0.000    1.667    1.667    3.500    0.000    8.000 
#    0.000    0.000    0.000    1.000    0.000    7.000 
#    0.000    0.000    0.000    0.000    0.000    0.000 
#
# Total GULP energy -133863.132055 kJ/mol
# GULP energy per Si atom -5577.630502 kJ/mol
# Density = 0.938482 g / cm^3
# Si number density = 9.406232 Si / 1000 Ang^3
#
#
#
# Elastic Constant Matrix: (Units=GPa)
#
#
# Indices 1 2 3 4 5 6 
#
# 1 68.0994 49.7051 1.1788 0.0000 -20.6497 0.0000
# 2 49.7051 116.7443 32.4075 0.0000 -29.4209 0.0000
# 3 1.1788 32.4075 21.6191 0.0000 -11.5842 0.0000
# 4 0.0000 0.0000 0.0000 19.1640 0.0000 -1.3821
# 5 -20.6497 -29.4209 -11.5842 0.0000 8.7850 0.0000
# 6 0.0000 0.0000 0.0000 -1.3821 0.0000 28.8930
#
#
#
# Elastic Compliance Matrix: (Units=1/GPa)
#
#
# Indices 1 2 3 4 5 6 
#
# 1 -0.003780 -0.014657 -0.030281 0.000000 -0.097901 0.000000
# 2 -0.014657 0.028047 -0.031947 0.000000 0.017350 0.000000
# 3 -0.030281 -0.031947 0.001115 0.000000 -0.176697 0.000000
# 4 0.000000 0.000000 0.000000 0.052362 0.000000 0.002505
# 5 -0.097901 0.017350 -0.176697 0.000000 -0.291184 0.000000
# 6 0.000000 0.000000 0.000000 0.002505 0.000000 0.034730
#
#
# Mechanical properties :
#
#
# Convention : Reuss Voigt Hill
#
# Bulk Modulus (GPa) = -7.78893 41.44951 16.83029
# Shear Modulus (GPa) = -73.81631 19.57981 -27.11825
#
# Velocity S-wave (km/s) = -6.27082 3.22963 -3.80083
# Velocity P-wave (km/s) = 7.52198 5.99901 3.20874
#
# Compressibility (1/GPa) = -0.12838729
#
# Stress axis : x y z
#
# Youngs Moduli (GPa) = -264.56275 35.65478 896.64955
#
# Poissons Ratio (x) = 0.52259 27.15176
# Poissons Ratio (y) = -3.87766 28.64484
# Poissons Ratio (z) = -8.01132 1.13905
#
# Static dielectric constant tensor:
#      x y z
#    x 1.622870 0.000000 -0.009400 
#    y 0.000000 1.647870 0.000000 
#    z -0.009400 0.000000 1.724450 
# 
# From -- ./inp_files/323486.got.cif
#   From: 2010.05.17/outbox.ucp.g08.bks.cvg/sg12_162_cif.got.tgz:323486.got - 2010.06.11 11:47:21.
