data_PCOD9223008
_publ_section_title
;
Structure prediction by ZEFSAII (Michael W. Deem and Ramdas Pophale) SiO2 
 PCOD9223008
Probable space group: C 2/M
;
_chemical_formula_sum "Si O2"
_cell_formula_units_Z 56
_cell_length_a 24.675670
_cell_length_b 7.344059
_cell_length_c 12.051279
_cell_angle_alpha 90.000000
_cell_angle_beta 64.146727
_cell_angle_gamma 90.000000
_cell_volume 1965.346454
_symmetry_space_group_name_H-M "C 2/M"
_symmetry_group_IT_number 12
_symmetry_cell_setting 'monoclinic'
loop_
_space_group_symop_operation_xyz
x,y,z
-x,y,-z
-x,-y,-z
x,-y,z
1/2+x,1/2+y,z
1/2-x,1/2+y,-z
1/2-x,1/2-y,-z
1/2+x,1/2-y,z
loop_
_atom_site_type_symbol
_atom_site_label
_atom_site_fract_x
_atom_site_fract_y
_atom_site_fract_z
Si Si1 0.459472 0.720263 0.198535
Si Si2 0.982426 0.776774 0.638860
Si Si3 0.715457 0.214037 0.898037
Si Si4 0.299971 0.222493 0.336495
Si Si5 0.660494 0.205960 0.477714
Si Si6 0.590195 0.282380 0.983229
Si Si7 0.349465 0.290953 0.769780
O O1 0.455454 0.500000 0.200463
O O2 0.466258 0.778965 0.320195
O O3 0.527036 0.767578 0.095045
O O4 0.416643 0.791543 0.137942
O O5 0.915673 0.711277 0.729868
O O6 0.000000 0.721055 0.500000
O O7 0.980205 0.000000 0.642139
O O8 0.696250 0.285459 0.793991
O O9 0.782685 0.288766 0.863664
O O10 0.726444 0.000000 0.881068
O O11 0.648310 0.233324 0.006859
O O12 0.347106 0.284637 0.389629
O O13 0.233162 0.296455 0.418102
O O14 0.299494 0.000000 0.338845
O O15 0.649518 0.297623 0.368598
O O16 0.638545 0.000000 0.489583
O O17 0.590053 0.500000 0.978303
O O18 0.349884 0.500000 0.808848
#
# Coordination Sequence:
#
# PCOD9223008 Si02
#       7
#     8   8   8   8   8   8   8
#     4   8  16  32  51  73 100 126 161 212 259 290
#     4   9  17  31  53  76  96 127 172 212 244 290
#     4   9  17  29  44  67 102 134 159 193 242 299
#     4   8  15  26  38  57  89 127 162 198 241 284
#     4   9  15  24  40  60  86 124 165 200 237 285
#     4   9  17  31  53  77 100 127 160 206 258 298
#     4   9  18  31  46  68 100 132 161 201 249 292
#
# _framework density 28.493703
#
# number of rings (size 3 to 8) (size 9 to 14) (size 15 to 20)
#    0.000    3.286    0.000    2.143    0.000    4.000 
#    0.000    3.571    0.000    2.143    0.000    0.000 
#    0.000    0.000    0.000    0.000    0.000    0.000 
#
# Total GULP energy -156218.767524 kJ/mol
# GULP energy per Si atom -5579.241697 kJ/mol
# Density = 2.842885 g / cm^3
# Si number density = 28.493703 Si / 1000 Ang^3
#
#
#
# Elastic Constant Matrix: (Units=GPa)
#
#
# Indices 1 2 3 4 5 6 
#
# 1 279.7166 17.6079 34.8022 0.0000 14.2219 0.0000
# 2 17.6079 118.5451 12.3785 0.0000 -6.5838 0.0000
# 3 34.8022 12.3785 72.6517 0.0000 6.8459 0.0000
# 4 0.0000 0.0000 0.0000 5.4403 0.0000 -10.2230
# 5 14.2219 -6.5838 6.8459 0.0000 48.9154 0.0000
# 6 0.0000 0.0000 0.0000 -10.2230 0.0000 22.0330
#
#
#
# Elastic Compliance Matrix: (Units=1/GPa)
#
#
# Indices 1 2 3 4 5 6 
#
# 1 0.003861 -0.000450 -0.001684 0.000000 -0.000948 0.000000
# 2 -0.000450 0.008734 -0.001414 0.000000 0.001504 0.000000
# 3 -0.001684 -0.001414 0.014981 0.000000 -0.001797 0.000000
# 4 0.000000 0.000000 0.000000 1.434898 0.000000 0.665775
# 5 -0.000948 0.001504 -0.001797 0.000000 0.021173 0.000000
# 6 0.000000 0.000000 0.000000 0.665775 0.000000 0.354298
#
#
# Mechanical properties :
#
#
# Convention : Reuss Voigt Hill
#
# Bulk Modulus (GPa) = 48.82832 66.72116 57.77474
# Shear Modulus (GPa) = 2.69998 42.35272 22.52635
#
# Velocity S-wave (km/s) = 0.97449 3.85955 2.81476
# Velocity P-wave (km/s) = 4.29417 6.58244 5.55735
#
# Compressibility (1/GPa) = 0.02047992
#
# Stress axis : x y z
#
# Youngs Moduli (GPa) = 258.99776 114.49892 66.75093
#
# Poissons Ratio (x) = 0.05156 0.11238
# Poissons Ratio (y) = 0.11663 0.09439
# Poissons Ratio (z) = 0.43603 0.16191
#
# Static dielectric constant tensor:
#      x y z
#    x 2.298840 0.000000 -0.165630 
#    y 0.000000 2.028940 0.000000 
#    z -0.165630 0.000000 2.708970 
# 
# From -- ./inp_files/180847.got.cif
#   From: 2010.05.17/outbox.cif.g08.bks.cpg/sg12_91_cif.got.tgz:180847.got - 2010.06.03 13:09:07.
