data_PCOD9223419
_publ_section_title
;
Structure prediction by ZEFSAII (Michael W. Deem and Ramdas Pophale) SiO2 
 PCOD9223419
Probable space group: C 2/M
;
_chemical_formula_sum "Si O2"
_cell_formula_units_Z 28
_cell_length_a 24.000000
_cell_length_b 18.000000
_cell_length_c 9.000000
_cell_angle_alpha 90.000000
_cell_angle_beta 50.000000
_cell_angle_gamma 90.000000
_cell_volume 2978.380795
_symmetry_space_group_name_H-M "C 2/M"
_symmetry_group_IT_number 12
_symmetry_cell_setting 'monoclinic'
loop_
_space_group_symop_operation_xyz
x,y,z
-x,y,-z
-x,-y,-z
x,-y,z
1/2+x,1/2+y,z
1/2-x,1/2+y,-z
1/2-x,1/2-y,-z
1/2+x,1/2-y,z
loop_
_atom_site_type_symbol
_atom_site_label
_atom_site_fract_x
_atom_site_fract_y
_atom_site_fract_z
Si Si1 0.110725 0.182587 0.120735
Si Si2 0.319105 0.774996 0.780634
Si Si3 0.842953 0.177606 0.470972
Si Si4 0.587266 0.211425 0.884903
Si Si5 0.476688 0.414699 0.366183
Si Si6 0.707985 0.088346 0.732036
Si Si7 0.251829 0.087446 0.981880
O O1 0.110837 0.235069 0.267637
O O2 0.042160 0.133706 0.190090
O O3 0.111800 0.245260 0.992603
O O4 0.176290 0.124554 0.049736
O O5 0.308475 0.738202 0.641088
O O6 0.314575 0.863426 0.795538
O O7 0.250000 0.750000 0.000000
O O8 0.885379 0.229094 0.283485
O O9 0.900725 0.124373 0.456685
O O10 0.776652 0.126124 0.529758
O O11 0.635817 0.135659 0.812645
O O12 0.500000 0.199391 0.000000
O O13 0.500000 0.415082 0.500000
O O14 0.474564 0.500000 0.319668
O O15 0.700466 0.000000 0.716503
O O16 0.732067 0.095395 0.867314
O O17 0.251580 0.000000 0.950320
#
# Coordination Sequence:
#
# PCOD9223419 Si02
#       7
#     8   8   8   8   8   8   8
#     4  11  19  38  58  88 122 162 198 249 302 370
#     4  10  18  35  60  86 119 153 207 253 300 365
#     4  12  22  40  61  93 124 165 204 259 309 374
#     4  12  26  42  62  91 130 172 212 248 311 384
#     4  11  21  34  59  94 124 156 204 252 310 371
#     4  11  22  40  66  92 121 161 215 267 307 361
#     4  10  19  35  63  93 118 151 203 263 311 355
#
# _framework density 9.4010809999999996
#
# number of rings (size 3 to 8) (size 9 to 14) (size 15 to 20)
#    0.000    1.000    7.143    2.143    0.000    2.571 
#    0.000    5.714    0.000    0.000    0.000    3.000 
#    0.000    0.000    0.000    0.000    0.000    0.000 
#
# Total GULP energy -155868.727877 kJ/mol
# GULP energy per Si atom -5566.740281 kJ/mol
# Density = 0.937968 g / cm^3
# Si number density = 9.401081 Si / 1000 Ang^3
#
#
#
# Elastic Constant Matrix: (Units=GPa)
#
#
# Indices 1 2 3 4 5 6 
#
# 1 104.2562 54.1438 21.0439 0.0000 -29.0029 0.0000
# 2 54.1438 173.9354 31.8167 0.0000 -26.0852 0.0000
# 3 21.0439 31.8167 28.4606 0.0000 -18.2299 0.0000
# 4 0.0000 0.0000 0.0000 18.7957 0.0000 -6.8780
# 5 -29.0029 -26.0852 -18.2299 0.0000 25.0429 0.0000
# 6 0.0000 0.0000 0.0000 -6.8780 0.0000 38.5072
#
#
#
# Elastic Compliance Matrix: (Units=1/GPa)
#
#
# Indices 1 2 3 4 5 6 
#
# 1 0.015053 -0.002657 0.002312 0.000000 0.016349 0.000000
# 2 -0.002657 0.007826 -0.006621 0.000000 0.000255 0.000000
# 3 0.002312 -0.006621 0.071434 0.000000 0.047781 0.000000
# 4 0.000000 0.000000 0.000000 0.056924 0.000000 0.010167
# 5 0.016349 0.000255 0.047781 0.000000 0.093913 0.000000
# 6 0.000000 0.000000 0.000000 0.010167 0.000000 0.027785
#
#
# Mechanical properties :
#
#
# Convention : Reuss Voigt Hill
#
# Bulk Modulus (GPa) = 12.44080 57.85121 35.14601
# Shear Modulus (GPa) = 15.94086 29.77903 22.85994
#
# Velocity S-wave (km/s) = 2.91489 3.98403 3.49064
# Velocity P-wave (km/s) = 4.23791 7.21100 5.91432
#
# Compressibility (1/GPa) = 0.08038067
#
# Stress axis : x y z
#
# Youngs Moduli (GPa) = 66.43231 127.78589 13.99900
#
# Poissons Ratio (x) = 0.33951 -0.03236
# Poissons Ratio (y) = 0.17650 0.09268
# Poissons Ratio (z) = -0.15358 0.84603
#
# Static dielectric constant tensor:
#      x y z
#    x 1.689900 0.000000 0.014060 
#    y 0.000000 1.679190 0.000000 
#    z 0.014060 0.000000 1.761410 
# 
# From -- ./inp_files/98087.got.cif
#   From: 2010.05.17/outbox.ucp.g08.bks.cvg/sg12_50_cif.got.tgz:98087.got - 2010.06.11 11:47:21.
