data_PCOD9223034
_publ_section_title
;
Structure prediction by ZEFSAII (Michael W. Deem and Ramdas Pophale) SiO2 
 PCOD9223034
Probable space group: C 2/M
;
_chemical_formula_sum "Si O2"
_cell_formula_units_Z 40
_cell_length_a 14.744042
_cell_length_b 13.313926
_cell_length_c 15.938613
_cell_angle_alpha 90.000000
_cell_angle_beta 29.402952
_cell_angle_gamma 90.000000
_cell_volume 1536.063908
_symmetry_space_group_name_H-M "C 2/M"
_symmetry_group_IT_number 12
_symmetry_cell_setting 'monoclinic'
loop_
_space_group_symop_operation_xyz
x,y,z
-x,y,-z
-x,-y,-z
x,-y,z
1/2+x,1/2+y,z
1/2-x,1/2+y,-z
1/2-x,1/2-y,-z
1/2+x,1/2-y,z
loop_
_atom_site_type_symbol
_atom_site_label
_atom_site_fract_x
_atom_site_fract_y
_atom_site_fract_z
Si Si1 0.254220 0.887596 0.561043
Si Si2 0.717467 0.162828 0.826863
Si Si3 0.796438 0.394028 0.795054
Si Si4 0.706429 0.834073 0.655619
Si Si5 0.282777 0.865469 0.991158
O O1 0.478907 0.887074 0.386446
O O2 0.204954 0.867474 0.503105
O O3 0.189586 0.788107 0.662462
O O4 0.191548 0.000000 0.634899
O O5 0.732465 0.284582 0.818013
O O6 0.500000 0.138458 0.000000
O O7 0.206761 0.135638 0.325698
O O8 0.790779 0.117260 0.855462
O O9 0.748990 0.500000 0.788590
O O10 0.723788 0.405300 0.948757
O O11 0.502264 0.880910 0.818666
O O12 0.250000 0.750000 0.000000
#
# Coordination Sequence:
#
# PCOD9223034 Si02
#       5
#     8   8   8   8   8
#     4   9  18  32  48  67  92 123 158 189 225 276
#     4   9  17  29  46  68  92 119 153 189 229 275
#     4   9  17  29  46  68  93 120 151 189 230 275
#     4   9  17  30  48  69  91 120 153 190 233 267
#     4   8  15  30  47  64  89 120 149 180 225 278
#
# _framework density 26.040582000000001
#
# number of rings (size 3 to 8) (size 9 to 14) (size 15 to 20)
#    0.000    3.200    0.000    0.000    0.000    2.000 
#    0.000   11.000    0.000    6.000    0.000   28.000 
#    0.000    0.000    0.000    0.000    0.000    0.000 
#
# Total GULP energy -111488.364617 kJ/mol
# GULP energy per Si atom -5574.418231 kJ/mol
# Density = 2.598131 g / cm^3
# Si number density = 26.040582 Si / 1000 Ang^3
#
#
#
# Elastic Constant Matrix: (Units=GPa)
#
#
# Indices 1 2 3 4 5 6 
#
# 1 97.2417 -9.8712 49.9109 0.0015 50.2879 -0.0015
# 2 -9.8712 131.7296 -1.8531 0.0044 4.6234 -0.0049
# 3 49.9109 -1.8531 84.2107 0.0010 -4.1515 -0.0016
# 4 0.0015 0.0044 0.0010 -17.9002 -0.0017 11.1295
# 5 50.2879 4.6234 -4.1515 -0.0017 47.8403 0.0021
# 6 -0.0015 -0.0049 -0.0016 11.1295 0.0021 -26.6056
#
#
#
# Elastic Compliance Matrix: (Units=1/GPa)
#
#
# Indices 1 2 3 4 5 6 
#
# 1 0.128189 0.013469 -0.082741 0.000017 -0.143229 -0.000009
# 2 0.013469 0.009034 -0.008562 0.000003 -0.015774 -0.000002
# 3 -0.082741 -0.008562 0.065334 -0.000011 0.093471 0.000005
# 4 0.000017 0.000003 -0.000011 -0.075503 -0.000021 -0.031584
# 5 -0.143229 -0.015774 0.093471 -0.000021 0.181095 0.000011
# 6 -0.000009 -0.000002 0.000005 -0.031584 0.000011 -0.050798
#
#
# Mechanical properties :
#
#
# Convention : Reuss Voigt Hill
#
# Bulk Modulus (GPa) = 21.32676 43.28389 32.30532
# Shear Modulus (GPa) = 11.66455 18.99996 15.33225
#
# Velocity S-wave (km/s) = 2.11875 2.70409 2.42912
# Velocity P-wave (km/s) = 3.76737 5.13880 4.50557
#
# Compressibility (1/GPa) = 0.04688945
#
# Stress axis : x y z
#
# Youngs Moduli (GPa) = 7.80098 110.69543 15.30586
#
# Poissons Ratio (x) = -1.49095 1.26642
# Poissons Ratio (y) = -0.10507 0.13105
# Poissons Ratio (z) = 0.64546 0.94775
#
# Static dielectric constant tensor:
#      x y z
#    x 2.057700 0.000000 0.008600 
#    y 0.000000 2.430710 0.000000 
#    z 0.008600 0.000000 2.065470 
# 
# From -- ./inp_files/321694.got.cif
#   From: 2010.05.17/outbox.cif.g08.bks.cpg/sg12_161_cif.got.tgz:321694.got - 2010.06.03 13:09:07.
