data_PCOD9223949
_publ_section_title
;
Structure prediction by ZEFSAII (Michael W. Deem and Ramdas Pophale) SiO2 
 PCOD9223949
Probable space group: C 2/M
;
_chemical_formula_sum "Si O2"
_cell_formula_units_Z 24
_cell_length_a 15.000000
_cell_length_b 15.000000
_cell_length_c 30.000000
_cell_angle_alpha 90.000000
_cell_angle_beta 160.000000
_cell_angle_gamma 90.000000
_cell_volume 2308.635967
_symmetry_space_group_name_H-M "C 2/M"
_symmetry_group_IT_number 12
_symmetry_cell_setting 'monoclinic'
loop_
_space_group_symop_operation_xyz
x,y,z
-x,y,-z
-x,-y,-z
x,-y,z
1/2+x,1/2+y,z
1/2-x,1/2+y,-z
1/2-x,1/2-y,-z
1/2+x,1/2-y,z
loop_
_atom_site_type_symbol
_atom_site_label
_atom_site_fract_x
_atom_site_fract_y
_atom_site_fract_z
Si Si1 0.591587 0.102130 0.344756
Si Si2 0.747588 0.786672 0.548633
Si Si3 0.408409 0.897871 0.155243
Si Si4 0.284468 0.105541 0.795065
Si Si5 0.747587 0.213330 0.048633
Si Si6 0.215535 0.394459 0.704937
O O1 0.758476 0.194078 0.426400
O O2 0.500014 0.100134 0.250006
O O3 0.384111 0.114303 0.289250
O O4 0.702003 0.000000 0.404742
O O5 0.750000 0.750000 0.500000
O O6 0.500179 0.852701 0.430051
O O7 0.016377 0.842059 0.679033
O O8 0.615870 0.885700 0.210739
O O9 0.241521 0.805923 0.073600
O O10 0.297977 0.000000 0.095251
O O11 0.253664 0.000000 0.787663
O O12 0.500177 0.147301 0.930052
O O13 0.016375 0.157941 0.179033
O O14 0.750000 0.250000 0.000000
O O15 0.246332 0.500000 0.712337
#
# Coordination Sequence:
#
# PCOD9223949 Si02
#       6
#     8   8   8   8   8   8
#     4   9  18  33  54  82 112 139 171 218 273 319
#     4  10  19  35  55  79 108 141 179 215 259 316
#     4   9  18  33  54  82 112 139 171 218 273 319
#     4  10  20  36  58  80 105 140 181 220 259 311
#     4  10  19  35  55  79 108 141 179 215 259 316
#     4  10  20  36  58  80 105 140 181 220 259 311
#
# _framework density 10.395749
#
# number of rings (size 3 to 8) (size 9 to 14) (size 15 to 20)
#    0.000    2.333    0.000    5.000    0.000    1.333 
#    0.000   16.667    0.000   52.000    0.000    0.000 
#    0.000    0.000    0.000    0.000    0.000    0.000 
#
# Total GULP energy -133646.956382 kJ/mol
# GULP energy per Si atom -5568.623183 kJ/mol
# Density = 1.037209 g / cm^3
# Si number density = 10.395749 Si / 1000 Ang^3
#
#
#
# Elastic Constant Matrix: (Units=GPa)
#
#
# Indices 1 2 3 4 5 6 
#
# 1 35.9615 28.2045 20.9403 -0.0019 -11.9800 -0.0040
# 2 28.2045 223.4995 91.8129 -0.0010 -7.5869 -0.0053
# 3 20.9403 91.8129 144.0239 0.0078 12.8490 0.0097
# 4 -0.0019 -0.0010 0.0078 36.5397 -0.0051 -17.6957
# 5 -11.9800 -7.5869 12.8490 -0.0051 25.1893 -0.0012
# 6 -0.0040 -0.0053 0.0097 -17.6957 -0.0012 29.9085
#
#
#
# Elastic Compliance Matrix: (Units=1/GPa)
#
#
# Indices 1 2 3 4 5 6 
#
# 1 0.040444 -0.001509 -0.006908 0.000015 0.022305 0.000017
# 2 -0.001509 0.006524 -0.004244 0.000004 0.003412 0.000005
# 3 -0.006908 -0.004244 0.011588 -0.000010 -0.010475 -0.000012
# 4 0.000015 0.000004 -0.000010 0.038358 0.000022 0.022695
# 5 0.022305 0.003412 -0.010475 0.000022 0.056678 0.000022
# 6 0.000017 0.000005 -0.000012 0.022695 0.000022 0.046863
#
#
# Mechanical properties :
#
#
# Convention : Reuss Voigt Hill
#
# Bulk Modulus (GPa) = 30.09021 76.15558 53.12289
# Shear Modulus (GPa) = 21.10991 35.82932 28.46961
#
# Velocity S-wave (km/s) = 3.18986 4.15573 3.70441
# Velocity P-wave (km/s) = 5.29818 7.72881 6.62590
#
# Compressibility (1/GPa) = 0.03323341
#
# Stress axis : x y z
#
# Youngs Moduli (GPa) = 24.72552 153.28232 86.29838
#
# Poissons Ratio (x) = 0.23126 0.59619
# Poissons Ratio (y) = 0.03730 0.36625
# Poissons Ratio (z) = 0.17082 0.65052
#
# Static dielectric constant tensor:
#      x y z
#    x 1.729880 0.000000 0.001800 
#    y 0.000000 1.797790 0.000000 
#    z 0.001800 0.000000 1.827650 
# 
# From -- ./inp_files/376636.got.cif
#   From: 2010.05.17/outbox.ucp.g08.bks.cvg/sg12_189_cif.got.tgz:376636.got - 2010.06.11 11:47:21.
