data_PCOD9223064
_publ_section_title
;
Structure prediction by ZEFSAII (Michael W. Deem and Ramdas Pophale) SiO2 
 PCOD9223064
Probable space group: C 2/M
;
_chemical_formula_sum "Si O2"
_cell_formula_units_Z 40
_cell_length_a 18.314724
_cell_length_b 21.517001
_cell_length_c 5.513108
_cell_angle_alpha 90.000000
_cell_angle_beta 102.204475
_cell_angle_gamma 90.000000
_cell_volume 2123.492251
_symmetry_space_group_name_H-M "C 2/M"
_symmetry_group_IT_number 12
_symmetry_cell_setting 'monoclinic'
loop_
_space_group_symop_operation_xyz
x,y,z
-x,y,-z
-x,-y,-z
x,-y,z
1/2+x,1/2+y,z
1/2-x,1/2+y,-z
1/2-x,1/2-y,-z
1/2+x,1/2-y,z
loop_
_atom_site_type_symbol
_atom_site_label
_atom_site_fract_x
_atom_site_fract_y
_atom_site_fract_z
Si Si1 0.428479 0.568463 0.120871
Si Si2 0.100561 0.804276 0.668373
Si Si3 0.732878 0.147418 0.249268
Si Si4 0.218567 0.884429 0.217901
Si Si5 0.876368 0.240891 0.812736
O O1 0.428898 0.500000 0.233480
O O2 0.424948 0.624934 0.306684
O O3 0.500000 0.575537 0.000000
O O4 0.354746 0.576107 0.901331
O O5 0.191223 0.810957 0.716922
O O6 0.077517 0.775888 0.396129
O O7 0.083712 0.766310 0.900296
O O8 0.745163 0.104399 0.494614
O O9 0.664229 0.193548 0.239191
O O10 0.730016 0.113965 0.985555
O O11 0.186186 0.813976 0.216487
#
# Coordination Sequence:
#
# PCOD9223064 Si02
#       5
#     8   8   8   8   8
#     4   9  18  32  43  50  68 102 141 178 204 211
#     4   9  16  25  38  57  70  87 120 149 187 232
#     4   9  14  24  40  58  76  86  96 136 202 246
#     4   9  16  25  38  57  70  87 120 149 187 232
#     4   9  14  24  40  58  76  86  96 136 202 246
#
# _framework density 18.836894999999998
#
# number of rings (size 3 to 8) (size 9 to 14) (size 15 to 20)
#    0.000    3.400    0.000    6.000    0.000    0.000 
#    0.000   32.000    0.000   38.400    0.000    0.000 
#    0.000    0.000    0.000    0.000    0.000    0.000 
#
# Total GULP energy -111405.373616 kJ/mol
# GULP energy per Si atom -5570.268681 kJ/mol
# Density = 1.879402 g / cm^3
# Si number density = 18.836895 Si / 1000 Ang^3
#
#
#
# Elastic Constant Matrix: (Units=GPa)
#
#
# Indices 1 2 3 4 5 6 
#
# 1 47.4962 44.6238 44.2547 0.0000 -5.4777 0.0000
# 2 44.6238 54.5665 29.3107 0.0000 -4.4558 0.0000
# 3 44.2547 29.3107 190.5778 0.0000 -30.0855 0.0000
# 4 0.0000 0.0000 0.0000 -52.3440 0.0000 16.6794
# 5 -5.4777 -4.4558 -30.0855 0.0000 21.8384 0.0000
# 6 0.0000 0.0000 0.0000 16.6794 0.0000 -2.1320
#
#
#
# Elastic Compliance Matrix: (Units=1/GPa)
#
#
# Indices 1 2 3 4 5 6 
#
# 1 0.117114 -0.088443 -0.015085 0.000000 -0.009451 0.000000
# 2 -0.088443 0.086769 0.008288 0.000000 0.006937 0.000000
# 3 -0.015085 0.008288 0.009131 0.000000 0.010486 0.000000
# 4 0.000000 0.000000 0.000000 0.012797 0.000000 0.100113
# 5 -0.009451 0.006937 0.010486 0.000000 0.059282 0.000000
# 6 0.000000 0.000000 0.000000 0.100113 0.000000 0.314179
#
#
# Mechanical properties :
#
#
# Convention : Reuss Voigt Hill
#
# Bulk Modulus (GPa) = 44.37943 58.77989 51.57966
# Shear Modulus (GPa) = 6.27145 5.10257 5.68701
#
# Velocity S-wave (km/s) = 1.82663 1.64763 1.73943
# Velocity P-wave (km/s) = 5.29715 5.90694 5.61034
#
# Compressibility (1/GPa) = 0.02253296
#
# Stress axis : x y z
#
# Youngs Moduli (GPa) = 8.53866 11.52488 109.51827
#
# Poissons Ratio (x) = 1.01930 1.65209
# Poissons Ratio (y) = 0.75519 -0.90768
# Poissons Ratio (z) = 0.12881 -0.09552
#
# Static dielectric constant tensor:
#      x y z
#    x 1.669910 0.000000 -0.004490 
#    y 0.000000 1.624140 0.000000 
#    z -0.004490 0.000000 1.789590 
# 
# From -- ./inp_files/15880.got.cif
#   From: 2010.05.17/outbox.cif.g08.bks.cpg/sg12_8_cif.got.tgz:15880.got - 2010.06.03 13:09:07.
