data_PCOD9223876
_publ_section_title
;
Structure prediction by ZEFSAII (Michael W. Deem and Ramdas Pophale) SiO2 
 PCOD9223876
Probable space group: C 2/M
;
_chemical_formula_sum "Si O2"
_cell_formula_units_Z 28
_cell_length_a 15.000000
_cell_length_b 9.000000
_cell_length_c 30.000000
_cell_angle_alpha 90.000000
_cell_angle_beta 130.000000
_cell_angle_gamma 90.000000
_cell_volume 3102.479995
_symmetry_space_group_name_H-M "C 2/M"
_symmetry_group_IT_number 12
_symmetry_cell_setting 'monoclinic'
loop_
_space_group_symop_operation_xyz
x,y,z
-x,y,-z
-x,-y,-z
x,-y,z
1/2+x,1/2+y,z
1/2-x,1/2+y,-z
1/2-x,1/2-y,-z
1/2+x,1/2-y,z
loop_
_atom_site_type_symbol
_atom_site_label
_atom_site_fract_x
_atom_site_fract_y
_atom_site_fract_z
Si Si1 0.776420 0.823025 0.733486
Si Si2 0.199333 0.322760 0.939453
Si Si3 0.976386 0.821202 0.355988
Si Si4 0.892682 0.170847 0.931465
Si Si5 0.064143 0.324031 0.566917
Si Si6 0.064400 0.325263 0.144526
Si Si7 0.668166 0.679583 0.346015
O O1 0.650922 0.745288 0.694750
O O2 0.848930 0.769441 0.798343
O O3 0.846209 0.780183 0.710617
O O4 0.760120 0.000000 0.727421
O O5 0.201624 0.500000 0.947027
O O6 0.279392 0.290112 0.923192
O O7 0.067614 0.277933 0.888616
O O8 0.250000 0.250000 0.000000
O O9 0.997586 0.763270 0.412933
O O10 0.072591 0.768336 0.350889
O O11 0.972348 0.000000 0.353937
O O12 0.913188 0.286686 0.899367
O O13 0.883533 0.000000 0.911556
O O14 0.000000 0.173323 0.000000
O O15 0.066394 0.500000 0.579421
O O16 0.197986 0.274954 0.602753
O O17 0.000000 0.306249 0.500000
O O18 0.077867 0.500000 0.157851
O O19 0.665067 0.500000 0.347897
#
# Coordination Sequence:
#
# PCOD9223876 Si02
#       7
#     8   8   8   8   8   8   8
#     4  10  21  39  58  76 104 142 182 220 270 331
#     4  10  21  36  55  79 107 138 173 213 259 316
#     4  10  19  34  56  81 110 141 181 231 276 314
#     4  10  20  36  57  79 106 140 175 209 257 322
#     4   9  18  34  54  79 114 153 189 220 260 321
#     4  11  23  37  55  82 111 137 175 225 272 316
#     4   8  17  34  55  78 107 144 181 221 271 319
#
# _framework density 9.0250380000000003
#
# number of rings (size 3 to 8) (size 9 to 14) (size 15 to 20)
#    0.000    2.286    1.429    2.143    0.000    3.429 
#    0.000   10.000    0.000    0.000    0.000    0.000 
#    0.000    0.000    0.000    0.000    0.000    0.000 
#
# Total GULP energy -156074.093664 kJ/mol
# GULP energy per Si atom -5574.074774 kJ/mol
# Density = 0.900450 g / cm^3
# Si number density = 9.025038 Si / 1000 Ang^3
#
#
#
# Elastic Constant Matrix: (Units=GPa)
#
#
# Indices 1 2 3 4 5 6 
#
# 1 83.1501 20.7047 14.5531 0.0000 -5.3322 0.0000
# 2 20.7047 25.3828 18.4068 0.0000 -2.9758 0.0000
# 3 14.5531 18.4068 58.4306 0.0000 -6.1914 0.0000
# 4 0.0000 0.0000 0.0000 20.6893 0.0000 -4.3006
# 5 -5.3322 -2.9758 -6.1914 0.0000 7.1575 0.0000
# 6 0.0000 0.0000 0.0000 -4.3006 0.0000 27.1016
#
#
#
# Elastic Compliance Matrix: (Units=1/GPa)
#
#
# Indices 1 2 3 4 5 6 
#
# 1 0.015406 -0.012312 0.000787 0.000000 0.007039 0.000000
# 2 -0.012312 0.061327 -0.015988 0.000000 0.002494 0.000000
# 3 0.000787 -0.015988 0.023463 0.000000 0.014236 0.000000
# 4 0.000000 0.000000 0.000000 0.049983 0.000000 0.007932
# 5 0.007039 0.002494 0.014236 0.000000 0.158309 0.000000
# 6 0.000000 0.000000 0.000000 0.007932 0.000000 0.038157
#
#
# Mechanical properties :
#
#
# Convention : Reuss Voigt Hill
#
# Bulk Modulus (GPa) = 22.13885 30.47698 26.30792
# Shear Modulus (GPa) = 11.99825 18.54292 15.27058
#
# Velocity S-wave (km/s) = 2.58101 3.20864 2.91178
# Velocity P-wave (km/s) = 4.60153 5.53611 5.09031
#
# Compressibility (1/GPa) = 0.04516947
#
# Stress axis : x y z
#
# Youngs Moduli (GPa) = 64.91040 16.30614 42.61986
#
# Poissons Ratio (x) = 0.20077 -0.03356
# Poissons Ratio (y) = 0.79920 0.68142
# Poissons Ratio (z) = -0.05111 0.26071
#
# Static dielectric constant tensor:
#      x y z
#    x 1.466420 0.000000 -0.019620 
#    y 0.000000 1.625750 0.000000 
#    z -0.019620 0.000000 1.627880 
# 
# From -- ./inp_files/375131.got.cif
#   From: 2010.05.17/outbox.ucp.g08.bks.cvg/sg12_188_cif.got.tgz:375131.got - 2010.06.11 11:47:21.
