data_PCOD9223085
_publ_section_title
;
Structure prediction by ZEFSAII (Michael W. Deem and Ramdas Pophale) SiO2 
 PCOD9223085
Probable space group: C 2/M
;
_chemical_formula_sum "Si O2"
_cell_formula_units_Z 48
_cell_length_a 25.026909
_cell_length_b 9.445334
_cell_length_c 14.502691
_cell_angle_alpha 90.000000
_cell_angle_beta 110.277367
_cell_angle_gamma 90.000000
_cell_volume 3215.792084
_symmetry_space_group_name_H-M "C 2/M"
_symmetry_group_IT_number 12
_symmetry_cell_setting 'monoclinic'
loop_
_space_group_symop_operation_xyz
x,y,z
-x,y,-z
-x,-y,-z
x,-y,z
1/2+x,1/2+y,z
1/2-x,1/2+y,-z
1/2-x,1/2-y,-z
1/2+x,1/2-y,z
loop_
_atom_site_type_symbol
_atom_site_label
_atom_site_fract_x
_atom_site_fract_y
_atom_site_fract_z
Si Si1 0.488938 0.668008 0.781251
Si Si2 0.277851 0.331420 0.652668
Si Si3 0.556092 0.162986 0.967606
Si Si4 0.878530 0.167670 0.845476
Si Si5 0.327979 0.668972 0.478933
Si Si6 0.458223 0.672510 0.556328
O O1 0.501915 0.500000 0.791000
O O2 0.536695 0.754141 0.864842
O O3 0.429348 0.686014 0.800837
O O4 0.479847 0.714533 0.670642
O O5 0.267825 0.500000 0.652047
O O6 0.319792 0.290795 0.760859
O O7 0.311024 0.305680 0.575834
O O8 0.218834 0.248335 0.610113
O O9 0.570587 0.000000 0.958190
O O10 0.500000 0.165109 0.000000
O O11 0.604195 0.243390 0.054842
O O12 0.876830 0.000000 0.865996
O O13 0.324517 0.500000 0.461606
O O14 0.392804 0.716572 0.502651
O O15 0.500000 0.719296 0.500000
O O16 0.457595 0.500000 0.556502
#
# Coordination Sequence:
#
# PCOD9223085 Si02
#       6
#     8   8   8   8   8   8
#     4   9  15  26  42  59  82 112 143 173 206 246
#     4   9  16  26  41  61  86 114 141 171 209 253
#     4   9  17  26  37  58  86 111 137 170 211 256
#     4   9  15  25  41  60  83 112 142 169 204 253
#     4   9  16  27  41  61  86 112 143 175 209 248
#     4   9  16  27  45  66  86 112 148 183 208 239
#
# _framework density 14.926337999999999
#
# number of rings (size 3 to 8) (size 9 to 14) (size 15 to 20)
#    0.000    3.000    1.667    0.500    0.000    2.667 
#    0.000    0.833    0.000    2.000    0.000    1.167 
#    0.000    0.000    0.000    0.000    0.000    0.000 
#
# Total GULP energy -133629.849932 kJ/mol
# GULP energy per Si atom -5567.910414 kJ/mol
# Density = 1.489237 g / cm^3
# Si number density = 14.926338 Si / 1000 Ang^3
#
#
#
# Elastic Constant Matrix: (Units=GPa)
#
#
# Indices 1 2 3 4 5 6 
#
# 1 77.8643 36.5698 67.1883 0.0000 17.5543 0.0000
# 2 36.5698 44.1784 63.1526 0.0000 17.0256 0.0000
# 3 67.1883 63.1526 141.4849 0.0000 36.8620 0.0000
# 4 0.0000 0.0000 0.0000 20.7737 0.0000 9.0864
# 5 17.5543 17.0256 36.8620 0.0000 26.0842 0.0000
# 6 0.0000 0.0000 0.0000 9.0864 0.0000 14.2370
#
#
#
# Elastic Compliance Matrix: (Units=1/GPa)
#
#
# Indices 1 2 3 4 5 6 
#
# 1 0.023122 -0.009524 -0.006797 0.000000 0.000261 0.000000
# 2 -0.009524 0.066540 -0.024583 0.000000 -0.002281 0.000000
# 3 -0.006797 -0.024583 0.025160 0.000000 -0.014935 0.000000
# 4 0.000000 0.000000 0.000000 0.066780 0.000000 -0.042621
# 5 0.000261 -0.002281 -0.014935 0.000000 0.060757 0.000000
# 6 0.000000 0.000000 0.000000 -0.042621 0.000000 0.097441
#
#
# Mechanical properties :
#
#
# Convention : Reuss Voigt Hill
#
# Bulk Modulus (GPa) = 30.29133 66.37209 48.33171
# Shear Modulus (GPa) = 11.55764 18.66013 15.10889
#
# Velocity S-wave (km/s) = 2.78566 3.53958 3.18501
# Velocity P-wave (km/s) = 5.53936 7.82737 6.78057
#
# Compressibility (1/GPa) = 0.03301274
#
# Stress axis : x y z
#
# Youngs Moduli (GPa) = 43.24827 15.02847 39.74580
#
# Poissons Ratio (x) = 0.14314 0.27016
# Poissons Ratio (y) = 0.41191 0.97709
# Poissons Ratio (z) = 0.29397 0.36945
#
# Static dielectric constant tensor:
#      x y z
#    x 1.475740 0.000000 0.008090 
#    y 0.000000 1.494350 0.000000 
#    z 0.008090 0.000000 1.488790 
# 
# From -- ./inp_files/179331.got.cif
#   From: 2010.05.17/outbox.cif.g08.bks.cpg/sg12_90_cif.got.tgz:179331.got - 2010.06.03 13:09:07.
