data_PCOD9223019
_publ_section_title
;
Structure prediction by ZEFSAII (Michael W. Deem and Ramdas Pophale) SiO2 
 PCOD9223019
Probable space group: C 2/M
;
_chemical_formula_sum "Si O2"
_cell_formula_units_Z 52
_cell_length_a 35.920410
_cell_length_b 17.002219
_cell_length_c 10.680391
_cell_angle_alpha 90.000000
_cell_angle_beta 18.329199
_cell_angle_gamma 90.000000
_cell_volume 2051.265658
_symmetry_space_group_name_H-M "C 2/M"
_symmetry_group_IT_number 12
_symmetry_cell_setting 'monoclinic'
loop_
_space_group_symop_operation_xyz
x,y,z
-x,y,-z
-x,-y,-z
x,-y,z
1/2+x,1/2+y,z
1/2-x,1/2+y,-z
1/2-x,1/2-y,-z
1/2+x,1/2-y,z
loop_
_atom_site_type_symbol
_atom_site_label
_atom_site_fract_x
_atom_site_fract_y
_atom_site_fract_z
Si Si1 0.391859 0.179238 0.005556
Si Si2 0.409826 0.663027 0.089478
Si Si3 0.810278 0.851380 0.859363
Si Si4 0.666350 0.500000 0.065519
Si Si5 0.495793 0.088006 0.160220
Si Si6 0.326990 0.185336 0.939038
Si Si7 0.610948 0.500000 0.960612
Si Si8 0.500000 0.764712 0.000000
O O1 0.374433 0.269530 0.103446
O O2 0.388281 0.116655 0.130856
O O3 0.315418 0.168219 0.124179
O O4 0.531764 0.170864 0.527770
O O5 0.552057 0.649775 0.618581
O O6 0.363730 0.577556 0.200169
O O7 0.405667 0.706828 0.236855
O O8 0.800236 0.773452 0.976479
O O9 0.778169 0.923250 0.051191
O O10 0.738169 0.863835 0.960846
O O11 0.673837 0.500000 0.893609
O O12 0.528419 0.500000 0.551191
O O13 0.461723 0.000000 0.322248
O O14 0.500000 0.071663 0.000000
O O15 0.449127 0.180252 0.275027
#
# Coordination Sequence:
#
# PCOD9223019 Si02
#       8
#     8   8   8   4   8   8   4   4
#     4   9  16  29  47  70  93 117 154 193 225 272
#     4   9  16  27  46  68  90 119 156 191 225 267
#     4   9  17  29  44  64  95 127 152 177 231 283
#     4   9  16  28  42  63  92 122 151 180 220 280
#     4   8  15  29  47  66  86 116 154 197 226 262
#     4   9  17  29  45  69  95 123 147 186 233 278
#     4   9  16  25  44  70  88 115 153 191 219 266
#     4   8  15  27  46  68  88 114 152 197 227 262
#
# _framework density 25.350203
#
# number of rings (size 3 to 8) (size 9 to 14) (size 15 to 20)
#    0.462    2.769    0.000    0.923    0.000    4.000 
#    2.769    0.769    0.000    3.692    4.000    0.000 
#    0.000    0.000    0.000    0.000    0.000    0.000 
#
# Total GULP energy -144742.948403 kJ/mol
# GULP energy per Si atom -5567.036477 kJ/mol
# Density = 2.529251 g / cm^3
# Si number density = 25.350203 Si / 1000 Ang^3
#
#
#
# Elastic Constant Matrix: (Units=GPa)
#
#
# Indices 1 2 3 4 5 6 
#
# 1 219.8854 95.3324 43.8565 0.0000 -46.0398 0.0000
# 2 95.3324 187.8612 35.5929 0.0000 -17.3620 0.0000
# 3 43.8565 35.5929 78.8169 0.0000 -30.2811 0.0000
# 4 0.0000 0.0000 0.0000 23.8401 0.0000 1.2450
# 5 -46.0398 -17.3620 -30.2811 0.0000 50.8435 0.0000
# 6 0.0000 0.0000 0.0000 1.2450 0.0000 10.9842
#
#
#
# Elastic Compliance Matrix: (Units=1/GPa)
#
#
# Indices 1 2 3 4 5 6 
#
# 1 0.007000 -0.002972 -0.000658 0.000000 0.004932 0.000000
# 2 -0.002972 0.007095 -0.002144 0.000000 -0.001545 0.000000
# 3 -0.000658 -0.002144 0.017521 0.000000 0.009107 0.000000
# 4 0.000000 0.000000 0.000000 0.042196 0.000000 -0.004783
# 5 0.004932 -0.001545 0.009107 0.000000 0.029030 0.000000
# 6 0.000000 0.000000 0.000000 -0.004783 0.000000 0.091582
#
#
# Mechanical properties :
#
#
# Convention : Reuss Voigt Hill
#
# Bulk Modulus (GPa) = 49.83139 92.90302 71.36721
# Shear Modulus (GPa) = 23.51158 37.91900 30.71529
#
# Velocity S-wave (km/s) = 3.04874 3.87176 3.48464
# Velocity P-wave (km/s) = 5.66507 7.53092 6.66362
#
# Compressibility (1/GPa) = 0.02006767
#
# Stress axis : x y z
#
# Youngs Moduli (GPa) = 142.85254 140.95346 57.07480
#
# Poissons Ratio (x) = 0.41889 0.03757
# Poissons Ratio (y) = 0.42453 0.12236
# Poissons Ratio (z) = 0.09404 0.30219
#
# Static dielectric constant tensor:
#      x y z
#    x 2.073290 0.000000 0.110250 
#    y 0.000000 2.009800 0.000000 
#    z 0.110250 0.000000 2.373460 
# 
# From -- ./inp_files/189859.got.cif
#   From: 2010.05.17/outbox.cif.g08.bks.cpg/sg12_95_cif.got.tgz:189859.got - 2010.06.03 13:09:07.
