data_PCOD9223515
_publ_section_title
;
Structure prediction by ZEFSAII (Michael W. Deem and Ramdas Pophale) SiO2 
 PCOD9223515
Probable space group: C 2/M
;
_chemical_formula_sum "Si O2"
_cell_formula_units_Z 24
_cell_length_a 15.000000
_cell_length_b 15.000000
_cell_length_c 18.000000
_cell_angle_alpha 90.000000
_cell_angle_beta 140.000000
_cell_angle_gamma 90.000000
_cell_volume 2603.289819
_symmetry_space_group_name_H-M "C 2/M"
_symmetry_group_IT_number 12
_symmetry_cell_setting 'monoclinic'
loop_
_space_group_symop_operation_xyz
x,y,z
-x,y,-z
-x,-y,-z
x,-y,z
1/2+x,1/2+y,z
1/2-x,1/2+y,-z
1/2-x,1/2-y,-z
1/2+x,1/2-y,z
loop_
_atom_site_type_symbol
_atom_site_label
_atom_site_fract_x
_atom_site_fract_y
_atom_site_fract_z
Si Si1 0.236925 0.846178 0.455744
Si Si2 0.966363 0.898836 0.077426
Si Si3 0.473630 0.100934 0.305816
Si Si4 0.227532 0.271129 0.898921
Si Si5 0.578436 0.600429 0.772489
Si Si6 0.722350 0.894241 0.684775
O O1 0.250000 0.750000 0.500000
O O2 0.361528 0.897818 0.576701
O O3 0.273991 0.845915 0.391819
O O4 0.077216 0.879906 0.357930
O O5 0.936940 0.898800 0.147556
O O6 0.130363 0.880444 0.180874
O O7 0.937527 0.000000 0.033574
O O8 0.865996 0.829084 0.972844
O O9 0.406754 0.166596 0.202569
O O10 0.400670 0.128128 0.337320
O O11 0.428545 0.000000 0.260819
O O12 0.189067 0.180119 0.830198
O O13 0.250000 0.250000 0.000000
O O14 0.619933 0.500000 0.776561
O O15 0.712243 0.000000 0.660624
#
# Coordination Sequence:
#
# PCOD9223515 Si02
#       6
#     8   8   8   8   8   8
#     4  11  19  32  52  78 110 140 177 212 260 323
#     4   8  15  29  49  71 103 136 163 203 258 318
#     4  11  21  33  53  83 114 139 169 218 274 324
#     4  10  19  31  48  74 107 140 181 218 255 309
#     4   9  17  31  48  69 100 138 173 212 258 304
#     4   9  19  34  53  80 114 143 165 208 278 336
#
# _framework density 9.2191039999999997
#
# number of rings (size 3 to 8) (size 9 to 14) (size 15 to 20)
#    0.000    2.333    1.667    3.500    0.000    2.667 
#    0.000    2.500    0.000    0.000    0.000    7.000 
#    0.000    0.000    0.000    0.000    0.000    0.000 
#
# Total GULP energy -133691.610422 kJ/mol
# GULP energy per Si atom -5570.483768 kJ/mol
# Density = 0.919812 g / cm^3
# Si number density = 9.219104 Si / 1000 Ang^3
#
#
#
# Elastic Constant Matrix: (Units=GPa)
#
#
# Indices 1 2 3 4 5 6 
#
# 1 25.8394 17.0905 23.0453 0.0000 -6.5774 0.0000
# 2 17.0905 122.3753 68.8583 0.0000 2.7115 0.0000
# 3 23.0453 68.8583 123.3009 0.0001 13.1688 0.0001
# 4 0.0000 0.0000 0.0001 38.5980 0.0001 6.2485
# 5 -6.5774 2.7115 13.1688 0.0001 34.7170 0.0000
# 6 0.0000 0.0000 0.0001 6.2485 0.0000 -3.4177
#
#
#
# Elastic Compliance Matrix: (Units=1/GPa)
#
#
# Indices 1 2 3 4 5 6 
#
# 1 0.052703 -0.001874 -0.010303 0.000000 0.014040 0.000000
# 2 -0.001874 0.012075 -0.006519 0.000000 0.001175 0.000000
# 3 -0.010303 -0.006519 0.014414 0.000000 -0.006911 0.000000
# 4 0.000000 0.000000 0.000000 0.019991 0.000000 0.036550
# 5 0.014040 0.001175 -0.006911 0.000000 0.033994 0.000000
# 6 0.000000 0.000000 0.000000 0.036550 0.000000 -0.225774
#
#
# Mechanical properties :
#
#
# Convention : Reuss Voigt Hill
#
# Bulk Modulus (GPa) = 23.92298 54.38932 39.15615
# Shear Modulus (GPa) = -121.15089 24.81422 -48.16833
#
# Velocity S-wave (km/s) = -8.11474 3.67250 -5.11673
# Velocity P-wave (km/s) = 8.64846 6.89530 3.69125
#
# Compressibility (1/GPa) = 0.04180081
#
# Stress axis : x y z
#
# Youngs Moduli (GPa) = 18.97425 82.81421 69.37490
#
# Poissons Ratio (x) = 0.15519 0.71479
# Poissons Ratio (y) = 0.03556 0.45223
# Poissons Ratio (z) = 0.19550 0.53984
#
# Static dielectric constant tensor:
#      x y z
#    x 1.648240 0.000000 0.012550 
#    y 0.000000 1.698310 0.000000 
#    z 0.012550 0.000000 1.648160 
# 
# From -- ./inp_files/270437.got.cif
#   From: 2010.05.17/outbox.ucp.g08.bks.cvg/sg12_136_cif.got.tgz:270437.got - 2010.06.11 11:47:21.
