data_PCOD9223686
_publ_section_title
;
Structure prediction by ZEFSAII (Michael W. Deem and Ramdas Pophale) SiO2 
 PCOD9223686
Probable space group: C 2/M
;
_chemical_formula_sum "Si O2"
_cell_formula_units_Z 32
_cell_length_a 30.000000
_cell_length_b 9.000000
_cell_length_c 18.000000
_cell_angle_alpha 90.000000
_cell_angle_beta 40.000000
_cell_angle_gamma 90.000000
_cell_volume 3123.947783
_symmetry_space_group_name_H-M "C 2/M"
_symmetry_group_IT_number 12
_symmetry_cell_setting 'monoclinic'
loop_
_space_group_symop_operation_xyz
x,y,z
-x,y,-z
-x,-y,-z
x,-y,z
1/2+x,1/2+y,z
1/2-x,1/2+y,-z
1/2-x,1/2-y,-z
1/2+x,1/2-y,z
loop_
_atom_site_type_symbol
_atom_site_label
_atom_site_fract_x
_atom_site_fract_y
_atom_site_fract_z
Si Si1 0.155668 0.831186 0.426999
Si Si2 0.136879 0.323903 0.183667
Si Si3 0.505122 0.320414 0.644045
Si Si4 0.441906 0.324323 0.011913
Si Si5 0.705299 0.667547 0.793303
Si Si6 0.675855 0.328136 0.579625
Si Si7 0.710539 0.669293 0.960611
Si Si8 0.968941 0.678065 0.227533
O O1 0.222257 0.745406 0.313355
O O2 0.164116 0.830752 0.505622
O O3 0.077292 0.776255 0.511166
O O4 0.159837 0.000000 0.394653
O O5 0.124827 0.500000 0.203311
O O6 0.067493 0.237997 0.295533
O O7 0.208342 0.287462 0.135710
O O8 0.159994 0.273938 0.071499
O O9 0.504795 0.500000 0.650138
O O10 0.511728 0.248102 0.717274
O O11 0.433375 0.500000 0.002589
O O12 0.472625 0.232902 0.904221
O O13 0.500000 0.317028 0.000000
O O14 0.368365 0.268931 0.139037
O O15 0.712067 0.500000 0.755611
O O16 0.693465 0.666525 0.896635
O O17 0.676871 0.500000 0.604364
O O18 0.750000 0.250000 0.500000
O O19 0.607415 0.242926 0.696459
O O20 0.704300 0.500000 0.998673
O O21 0.965971 0.500000 0.235784
#
# Coordination Sequence:
#
# PCOD9223686 Si02
#       8
#     8   8   8   8   8   8   8   8
#     4   9  21  38  55  78 107 142 184 229 278 330
#     4  10  19  32  56  87 114 142 185 236 277 326
#     4  10  20  37  58  80 110 147 182 229 285 335
#     4  10  22  38  55  80 112 149 187 227 280 340
#     4  10  21  37  57  78 108 151 188 223 276 338
#     4  10  21  37  57  81 109 143 183 233 285 333
#     4   9  19  35  54  82 117 151 185 224 278 338
#     4  11  22  36  56  83 110 142 184 230 278 332
#
# _framework density 10.243449
#
# number of rings (size 3 to 8) (size 9 to 14) (size 15 to 20)
#    0.000    2.125    0.000    3.750    1.750    5.750 
#    0.000    0.625    0.000    3.750    0.000    0.000 
#    0.000    0.000    0.000    0.000    0.000    0.000 
#
# Total GULP energy -178560.092958 kJ/mol
# GULP energy per Si atom -5580.002905 kJ/mol
# Density = 1.022013 g / cm^3
# Si number density = 10.243449 Si / 1000 Ang^3
#
#
#
# Elastic Constant Matrix: (Units=GPa)
#
#
# Indices 1 2 3 4 5 6 
#
# 1 54.2273 8.5337 20.1742 0.0046 -29.5103 -0.0013
# 2 8.5337 74.2796 33.0934 0.0145 -21.0867 -0.0089
# 3 20.1742 33.0934 95.6266 0.0104 -45.9227 -0.0060
# 4 0.0046 0.0145 0.0104 33.3666 -0.0045 -12.2910
# 5 -29.5103 -21.0867 -45.9227 -0.0045 46.3906 0.0018
# 6 -0.0013 -0.0089 -0.0060 -12.2910 0.0018 23.6173
#
#
#
# Elastic Compliance Matrix: (Units=1/GPa)
#
#
# Indices 1 2 3 4 5 6 
#
# 1 0.029664 0.001287 0.005031 -0.000003 0.024436 0.000000
# 2 0.001287 0.016258 -0.003728 -0.000005 0.004519 0.000003
# 3 0.005031 -0.003728 0.021748 -0.000002 0.023034 0.000002
# 4 -0.000003 -0.000005 -0.000002 0.037078 -0.000003 0.019296
# 5 0.024436 0.004519 0.023034 -0.000003 0.061956 0.000002
# 6 0.000000 0.000003 0.000002 0.019296 0.000002 0.052384
#
#
# Mechanical properties :
#
#
# Convention : Reuss Voigt Hill
#
# Bulk Modulus (GPa) = 13.72663 38.63735 26.18199
# Shear Modulus (GPa) = 20.99144 31.49706 26.24425
#
# Velocity S-wave (km/s) = 3.20445 3.92525 3.58303
# Velocity P-wave (km/s) = 4.51731 6.28044 5.47038
#
# Compressibility (1/GPa) = 0.07285110
#
# Stress axis : x y z
#
# Youngs Moduli (GPa) = 33.71041 61.50630 45.98152
#
# Poissons Ratio (x) = -0.07919 -0.23133
# Poissons Ratio (y) = -0.04340 0.17143
# Poissons Ratio (z) = -0.16959 0.22931
#
# Static dielectric constant tensor:
#      x y z
#    x 1.779330 0.000000 -0.013560 
#    y 0.000000 1.713520 0.000000 
#    z -0.013560 0.000000 1.733180 
# 
# From -- ./inp_files/295460.got.cif
#   From: 2010.05.17/outbox.ucp.g08.bks.cvg/sg12_148_cif.got.tgz:295460.got - 2010.06.11 11:47:21.
