data_PCOD9223643
_publ_section_title
;
Structure prediction by ZEFSAII (Michael W. Deem and Ramdas Pophale) SiO2 
 PCOD9223643
Probable space group: C 2/M
;
_chemical_formula_sum "Si O2"
_cell_formula_units_Z 32
_cell_length_a 27.000000
_cell_length_b 9.000000
_cell_length_c 15.000000
_cell_angle_alpha 90.000000
_cell_angle_beta 110.000000
_cell_angle_gamma 90.000000
_cell_volume 3425.179603
_symmetry_space_group_name_H-M "C 2/M"
_symmetry_group_IT_number 12
_symmetry_cell_setting 'monoclinic'
loop_
_space_group_symop_operation_xyz
x,y,z
-x,y,-z
-x,-y,-z
x,-y,z
1/2+x,1/2+y,z
1/2-x,1/2+y,-z
1/2-x,1/2-y,-z
1/2+x,1/2-y,z
loop_
_atom_site_type_symbol
_atom_site_label
_atom_site_fract_x
_atom_site_fract_y
_atom_site_fract_z
Si Si1 0.524809 0.828751 0.662878
Si Si2 0.109113 0.171488 0.593085
Si Si3 0.136793 0.678642 0.933778
Si Si4 0.809455 0.179521 0.863220
Si Si5 0.695363 0.325585 0.799841
Si Si6 0.974376 0.823375 0.147386
Si Si7 0.400621 0.170374 0.588397
Si Si8 0.404679 0.321341 0.783123
O O1 0.562543 0.767215 0.609733
O O2 0.528085 0.719533 0.749558
O O3 0.463030 0.830565 0.603219
O O4 0.539745 0.000000 0.695402
O O5 0.157982 0.178320 0.690574
O O6 0.124484 0.236290 0.506653
O O7 0.091922 0.000000 0.573832
O O8 0.137714 0.500000 0.931414
O O9 0.161971 0.745079 0.858092
O O10 0.077185 0.736182 0.918021
O O11 0.172214 0.745686 0.033825
O O12 0.750927 0.245961 0.812111
O O13 0.856517 0.214031 0.820751
O O14 0.806543 0.000000 0.868244
O O15 0.704049 0.500000 0.829315
O O16 0.034091 0.782438 0.151824
O O17 0.967306 0.000000 0.129075
O O18 0.395109 0.243041 0.682235
O O19 0.382421 0.000000 0.578836
O O20 0.405303 0.500000 0.771893
#
# Coordination Sequence:
#
# PCOD9223643 Si02
#       8
#     8   8   8   8   8   8   8   8
#     4  10  19  32  52  83 121 156 191 235 293 351
#     4  11  22  35  56  84 117 156 197 240 291 353
#     4  12  24  39  62  91 122 155 192 242 298 356
#     4  11  24  43  65  87 114 155 201 247 296 352
#     4  11  24  42  62  88 120 154 197 248 297 349
#     4  10  19  35  59  88 121 156 193 239 292 350
#     4  10  21  35  56  86 120 155 194 242 291 346
#     4   9  21  41  63  86 118 158 200 242 291 350
#
# _framework density 9.3425759999999993
#
# number of rings (size 3 to 8) (size 9 to 14) (size 15 to 20)
#    0.000    1.500    1.250    4.125    0.000    6.500 
#    0.000    3.125    0.000    0.000    0.000    0.000 
#    0.000    0.000    0.000    0.000    0.000    0.000 
#
# Total GULP energy -178641.970746 kJ/mol
# GULP energy per Si atom -5582.561586 kJ/mol
# Density = 0.932131 g / cm^3
# Si number density = 9.342576 Si / 1000 Ang^3
#
#
#
# Elastic Constant Matrix: (Units=GPa)
#
#
# Indices 1 2 3 4 5 6 
#
# 1 111.4663 50.6308 23.6353 0.0000 -5.8360 0.0000
# 2 50.6308 114.9004 30.1984 0.0000 1.9653 0.0000
# 3 23.6353 30.1984 59.3787 0.0000 5.1940 0.0000
# 4 0.0000 0.0000 0.0000 22.0856 0.0000 -0.1709
# 5 -5.8360 1.9653 5.1940 0.0000 7.5479 0.0000
# 6 0.0000 0.0000 0.0000 -0.1709 0.0000 34.1115
#
#
#
# Elastic Compliance Matrix: (Units=1/GPa)
#
#
# Indices 1 2 3 4 5 6 
#
# 1 0.012683 -0.004827 -0.003790 0.000000 0.013671 0.000000
# 2 -0.004827 0.011889 -0.003754 0.000000 -0.004244 0.000000
# 3 -0.003790 -0.003754 0.021738 0.000000 -0.016911 0.000000
# 4 0.000000 0.000000 0.000000 0.045280 0.000000 0.000227
# 5 0.013671 -0.004244 -0.016911 0.000000 0.155800 0.000000
# 6 0.000000 0.000000 0.000000 0.000227 0.000000 0.029317
#
#
# Mechanical properties :
#
#
# Convention : Reuss Voigt Hill
#
# Bulk Modulus (GPa) = 46.36121 54.96380 50.66251
# Shear Modulus (GPa) = 16.20025 24.83440 20.51733
#
# Velocity S-wave (km/s) = 2.94770 3.64964 3.31729
# Velocity P-wave (km/s) = 6.03746 6.87309 6.46878
#
# Compressibility (1/GPa) = 0.02156976
#
# Stress axis : x y z
#
# Youngs Moduli (GPa) = 78.84574 84.10930 46.00242
#
# Poissons Ratio (x) = 0.40596 0.17433
# Poissons Ratio (y) = 0.38056 0.17270
# Poissons Ratio (z) = 0.29879 0.31576
#
# Static dielectric constant tensor:
#      x y z
#    x 1.626790 0.000000 0.030890 
#    y 0.000000 1.635310 0.000000 
#    z 0.030890 0.000000 1.672300 
# 
# From -- ./inp_files/244272.got.cif
#   From: 2010.05.17/outbox.ucp.g08.bks.cvg/sg12_123_cif.got.tgz:244272.got - 2010.06.11 11:47:21.
