data_PCOD9223755
_publ_section_title
;
Structure prediction by ZEFSAII (Michael W. Deem and Ramdas Pophale) SiO2 
 PCOD9223755
Probable space group: C 2/M
;
_chemical_formula_sum "Si O2"
_cell_formula_units_Z 28
_cell_length_a 21.000000
_cell_length_b 9.000000
_cell_length_c 15.000000
_cell_angle_alpha 90.000000
_cell_angle_beta 90.000000
_cell_angle_gamma 90.000000
_cell_volume 2835.000000
_symmetry_space_group_name_H-M "C 2/M"
_symmetry_group_IT_number 12
_symmetry_cell_setting 'monoclinic'
loop_
_space_group_symop_operation_xyz
x,y,z
-x,y,-z
-x,-y,-z
x,-y,z
1/2+x,1/2+y,z
1/2-x,1/2+y,-z
1/2-x,1/2-y,-z
1/2+x,1/2-y,z
loop_
_atom_site_type_symbol
_atom_site_label
_atom_site_fract_x
_atom_site_fract_y
_atom_site_fract_z
Si Si1 0.076705 0.668033 0.720766
Si Si2 0.564240 0.178328 0.212932
Si Si3 0.068768 0.670113 0.509179
Si Si4 0.298077 0.678708 0.068532
Si Si5 0.666952 0.179356 0.367880
Si Si6 0.927861 0.820657 0.976326
Si Si7 0.289197 0.677820 0.266175
O O1 0.086877 0.500000 0.755890
O O2 0.075689 0.658835 0.613979
O O3 0.138221 0.768073 0.734384
O O4 0.007966 0.721072 0.757128
O O5 0.615468 0.210397 0.290163
O O6 0.584154 0.256673 0.121834
O O7 0.563843 0.000000 0.201004
O O8 0.061581 0.500000 0.471778
O O9 0.130464 0.732183 0.457620
O O10 0.000000 0.747467 0.500000
O O11 0.297378 0.500000 0.062220
O O12 0.270568 0.718101 0.165495
O O13 0.250000 0.750000 0.000000
O O14 0.371102 0.724970 0.044209
O O15 0.736700 0.236479 0.337034
O O16 0.674491 0.000000 0.375144
O O17 0.928138 0.000000 0.973929
O O18 0.000000 0.771588 0.000000
O O19 0.289809 0.500000 0.274677
#
# Coordination Sequence:
#
# PCOD9223755 Si02
#       7
#     8   8   8   8   8   8   8
#     4  10  20  33  54  82 108 136 173 218 262 305
#     4  10  19  33  55  80 101 128 175 226 261 295
#     4   9  15  29  53  80 107 134 170 216 261 304
#     4  10  21  37  56  77 104 141 179 216 261 312
#     4   9  17  31  53  78 103 135 175 213 253 307
#     4  10  21  36  53  74 103 139 175 210 259 320
#     4  10  21  36  53  76 108 143 173 207 261 320
#
# _framework density 9.8765429999999999
#
# number of rings (size 3 to 8) (size 9 to 14) (size 15 to 20)
#    0.000    2.286    1.429    1.714    0.000    4.857 
#    0.000    0.714    0.000    1.286    0.000    0.000 
#    0.000    0.000    0.000    0.000    0.000    0.000 
#
# Total GULP energy -155922.245945 kJ/mol
# GULP energy per Si atom -5568.651641 kJ/mol
# Density = 0.985406 g / cm^3
# Si number density = 9.876543 Si / 1000 Ang^3
#
#
#
# Elastic Constant Matrix: (Units=GPa)
#
#
# Indices 1 2 3 4 5 6 
#
# 1 88.3854 5.5003 0.0984 0.0000 -33.2873 0.0000
# 2 5.5003 -12.7014 6.2165 0.0000 -5.9031 0.0000
# 3 0.0984 6.2165 42.1250 0.0000 -23.4544 0.0000
# 4 0.0000 0.0000 0.0000 10.4078 0.0000 2.2609
# 5 -33.2873 -5.9031 -23.4544 0.0000 42.3991 0.0000
# 6 0.0000 0.0000 0.0000 2.2609 0.0000 15.1892
#
#
#
# Elastic Compliance Matrix: (Units=1/GPa)
#
#
# Indices 1 2 3 4 5 6 
#
# 1 0.019501 0.003838 0.011864 0.000000 0.022408 0.000000
# 2 0.003838 -0.071593 0.009659 0.000000 -0.001612 0.000000
# 3 0.011864 0.009659 0.040781 0.000000 0.033219 0.000000
# 4 0.000000 0.000000 0.000000 0.099292 0.000000 -0.014780
# 5 0.022408 -0.001612 0.033219 0.000000 0.059329 0.000000
# 6 0.000000 0.000000 0.000000 -0.014780 0.000000 0.068036
#
#
# Mechanical properties :
#
#
# Convention : Reuss Voigt Hill
#
# Bulk Modulus (GPa) = 25.37389 15.71548 20.54469
# Shear Modulus (GPa) = 28.12735 20.66547 24.39641
#
# Velocity S-wave (km/s) = 3.77762 3.23799 3.51817
# Velocity P-wave (km/s) = 5.64806 4.68537 5.18909
#
# Compressibility (1/GPa) = 0.03941058
#
# Stress axis : x y z
#
# Youngs Moduli (GPa) = 51.27921 -13.96784 24.52098
#
# Poissons Ratio (x) = 0.05360 -0.29092
# Poissons Ratio (y) = -0.19679 -0.23684
# Poissons Ratio (z) = -0.60839 0.13491
#
# Static dielectric constant tensor:
#      x y z
#    x 1.785010 0.000000 0.059240 
#    y 0.000000 1.701480 0.000000 
#    z 0.059240 0.000000 1.769410 
# 
# From -- ./inp_files/231032.got.cif
#   From: 2010.05.17/outbox.ucp.g08.bks.cvg/sg12_116_cif.got.tgz:231032.got - 2010.06.11 11:47:21.
