data_PCOD9223023
_publ_section_title
;
Structure prediction by ZEFSAII (Michael W. Deem and Ramdas Pophale) SiO2 
 PCOD9223023
Probable space group: C 2/M
;
_chemical_formula_sum "Si O2"
_cell_formula_units_Z 40
_cell_length_a 26.940187
_cell_length_b 7.640312
_cell_length_c 16.672686
_cell_angle_alpha 90.000000
_cell_angle_beta 143.070274
_cell_angle_gamma 90.000000
_cell_volume 2061.923360
_symmetry_space_group_name_H-M "C 2/M"
_symmetry_group_IT_number 12
_symmetry_cell_setting 'monoclinic'
loop_
_space_group_symop_operation_xyz
x,y,z
-x,y,-z
-x,-y,-z
x,-y,z
1/2+x,1/2+y,z
1/2-x,1/2+y,-z
1/2-x,1/2-y,-z
1/2+x,1/2-y,z
loop_
_atom_site_type_symbol
_atom_site_label
_atom_site_fract_x
_atom_site_fract_y
_atom_site_fract_z
Si Si1 0.827264 0.207490 0.657951
Si Si2 0.789012 0.284540 0.358615
Si Si3 0.783348 0.707799 0.170067
Si Si4 0.377937 0.787555 0.136564
Si Si5 0.060351 0.705959 0.335136
O O1 0.750000 0.250000 0.500000
O O2 0.794223 0.270596 0.701448
O O3 0.906615 0.276148 0.713097
O O4 0.837138 0.000000 0.675236
O O5 0.788886 0.500000 0.359391
O O6 0.792819 0.223355 0.272203
O O7 0.868397 0.224914 0.513025
O O8 0.798010 0.500000 0.194014
O O9 0.845253 0.775666 0.181193
O O10 0.691477 0.735888 0.017322
O O11 0.469154 0.722370 0.232722
O O12 0.378780 0.000000 0.139311
O O13 0.055800 0.500000 0.346586
#
# Coordination Sequence:
#
# PCOD9223023 Si02
#       5
#     8   8   8   8   8
#     4   9  16  28  46  68  93 119 148 182 223 267
#     4   8  15  28  47  69  89 113 149 188 221 259
#     4   9  17  31  49  66  88 119 151 184 225 269
#     4   9  18  31  47  67  91 119 149 184 226 268
#     4   9  17  30  47  68  93 118 149 186 221 263
#
# _framework density 19.399363999999998
#
# number of rings (size 3 to 8) (size 9 to 14) (size 15 to 20)
#    0.000    3.200    0.000    1.800    0.000    1.600 
#    0.000   10.000    0.000    6.000    0.000   11.200 
#    0.000    0.000    0.000    0.000    0.000    0.000 
#
# Total GULP energy -111378.794204 kJ/mol
# GULP energy per Si atom -5568.939710 kJ/mol
# Density = 1.935521 g / cm^3
# Si number density = 19.399364 Si / 1000 Ang^3
#
#
#
# Elastic Constant Matrix: (Units=GPa)
#
#
# Indices 1 2 3 4 5 6 
#
# 1 96.1579 -7.8351 25.2076 0.0000 59.8288 0.0000
# 2 -7.8351 28.0636 -5.1416 0.0000 -1.2395 0.0000
# 3 25.2076 -5.1416 13.4718 0.0000 40.9320 0.0000
# 4 0.0000 0.0000 0.0000 16.9109 0.0000 1.7842
# 5 59.8288 -1.2395 40.9320 0.0000 7.4787 0.0000
# 6 0.0000 0.0000 0.0000 1.7842 0.0000 17.7672
#
#
#
# Elastic Compliance Matrix: (Units=1/GPa)
#
#
# Indices 1 2 3 4 5 6 
#
# 1 0.019458 0.000193 -0.027930 0.000000 -0.002766 0.000000
# 2 0.000193 0.035882 0.000002 0.000000 0.004387 0.000000
# 3 -0.027930 0.000002 0.035344 0.000000 0.029999 0.000000
# 4 0.000000 0.000000 0.000000 0.059767 0.000000 -0.006002
# 5 -0.002766 0.004387 0.029999 0.000000 -0.007619 0.000000
# 6 0.000000 0.000000 0.000000 -0.006002 0.000000 0.056886
#
#
# Mechanical properties :
#
#
# Convention : Reuss Voigt Hill
#
# Bulk Modulus (GPa) = 28.39745 18.01724 23.20734
# Shear Modulus (GPa) = 18.73181 16.79551 17.76366
#
# Velocity S-wave (km/s) = 3.11076 2.94560 3.02931
# Velocity P-wave (km/s) = 5.25096 4.56908 4.92184
#
# Compressibility (1/GPa) = 0.03521443
#
# Stress axis : x y z
#
# Youngs Moduli (GPa) = 51.39151 27.86949 28.29346
#
# Poissons Ratio (x) = -0.00539 0.79025
# Poissons Ratio (y) = -0.00993 -0.00007
# Poissons Ratio (z) = 1.43539 -0.00007
#
# Static dielectric constant tensor:
#      x y z
#    x 1.719140 0.000000 -0.001140 
#    y 0.000000 1.739620 0.000000 
#    z -0.001140 0.000000 1.638290 
# 
# From -- ./inp_files/211843.got.cif
#   From: 2010.05.17/outbox.cif.g08.bks.cpg/sg12_106_cif.got.tgz:211843.got - 2010.06.03 13:09:07.
