data_PCOD9223040
_publ_section_title
;
Structure prediction by ZEFSAII (Michael W. Deem and Ramdas Pophale) SiO2 
 PCOD9223040
Probable space group: C 2/M
;
_chemical_formula_sum "Si O2"
_cell_formula_units_Z 64
_cell_length_a 14.675119
_cell_length_b 7.593625
_cell_length_c 30.273684
_cell_angle_alpha 90.000000
_cell_angle_beta 104.061185
_cell_angle_gamma 90.000000
_cell_volume 3272.534810
_symmetry_space_group_name_H-M "C 2/M"
_symmetry_group_IT_number 12
_symmetry_cell_setting 'monoclinic'
loop_
_space_group_symop_operation_xyz
x,y,z
-x,y,-z
-x,-y,-z
x,-y,z
1/2+x,1/2+y,z
1/2-x,1/2+y,-z
1/2-x,1/2-y,-z
1/2+x,1/2-y,z
loop_
_atom_site_type_symbol
_atom_site_label
_atom_site_fract_x
_atom_site_fract_y
_atom_site_fract_z
Si Si1 0.643627 0.710492 0.999925
Si Si2 0.037076 0.215653 0.073940
Si Si3 0.713633 0.212222 0.426972
Si Si4 0.021917 0.710953 0.748799
Si Si5 0.771925 0.710868 0.249928
Si Si6 0.088373 0.788025 0.177511
Si Si7 0.338280 0.787852 0.676351
Si Si8 0.102341 0.289217 0.499294
O O1 0.634675 0.500000 0.999910
O O2 0.610294 0.772023 0.044474
O O3 0.750000 0.750000 0.000000
O O4 0.565754 0.772483 0.955378
O O5 0.063375 0.277377 0.125838
O O6 0.037403 0.000000 0.075134
O O7 0.686499 0.277947 0.375307
O O8 0.819321 0.255351 0.454311
O O9 0.645614 0.278587 0.458205
O O10 0.706326 0.000000 0.425467
O O11 0.024365 0.500000 0.743222
O O12 0.124994 0.780398 0.749414
O O13 0.990014 0.745938 0.795127
O O14 0.937588 0.778492 0.707603
O O15 0.774485 0.500000 0.244223
O O16 0.687568 0.778838 0.208794
O O17 0.740021 0.745082 0.296290
O O18 0.094869 0.000000 0.175925
O O19 0.344236 0.000000 0.674784
O O20 0.093903 0.500000 0.493455
O O21 0.000000 0.219416 0.500000
#
# Coordination Sequence:
#
# PCOD9223040 Si02
#       8
#     8   8   8   8   8   8   8   8
#     4   9  17  31  49  68  91 121 155 190 229 274
#     4   8  16  31  48  65  92 127 154 181 229 284
#     4   9  18  32  48  68  94 123 154 188 226 268
#     4   9  18  32  48  69  96 122 149 189 236 271
#     4   9  18  31  48  69  92 119 154 192 227 268
#     4   9  17  31  49  68  91 122 158 190 222 272
#     4   9  18  32  48  66  93 125 153 185 228 273
#     4   9  18  32  50  71  94 121 153 188 227 272
#
# _framework density 19.556705000000001
#
# number of rings (size 3 to 8) (size 9 to 14) (size 15 to 20)
#    0.000    3.125    0.000    0.750    0.000    3.250 
#    0.000    6.250    0.000    0.000    0.000    0.000 
#    0.000    0.000    0.000    0.000    0.000    0.000 
#
# Total GULP energy -178429.796711 kJ/mol
# GULP energy per Si atom -5575.931147 kJ/mol
# Density = 1.951219 g / cm^3
# Si number density = 19.556705 Si / 1000 Ang^3
#
#
#
# Elastic Constant Matrix: (Units=GPa)
#
#
# Indices 1 2 3 4 5 6 
#
# 1 202.1967 6.2994 116.0961 0.0000 -6.6564 0.0000
# 2 6.2994 38.4753 -0.1596 0.0000 0.6954 0.0000
# 3 116.0961 -0.1596 201.2825 0.0000 0.9378 0.0000
# 4 0.0000 0.0000 0.0000 14.8250 0.0000 -3.7264
# 5 -6.6564 0.6954 0.9378 0.0000 6.9650 0.0000
# 6 0.0000 0.0000 0.0000 -3.7264 0.0000 -3.7614
#
#
#
# Elastic Compliance Matrix: (Units=1/GPa)
#
#
# Indices 1 2 3 4 5 6 
#
# 1 0.007907 -0.001464 -0.004600 0.000000 0.008322 0.000000
# 2 -0.001464 0.026309 0.000885 0.000000 -0.004145 0.000000
# 3 -0.004600 0.000885 0.007648 0.000000 -0.005515 0.000000
# 4 0.000000 0.000000 0.000000 0.054005 0.000000 -0.053503
# 5 0.008322 -0.004145 -0.005515 0.000000 0.152684 0.000000
# 6 0.000000 0.000000 0.000000 -0.053503 0.000000 -0.212854
#
#
# Mechanical properties :
#
#
# Convention : Reuss Voigt Hill
#
# Bulk Modulus (GPa) = 31.74196 76.26959 54.00578
# Shear Modulus (GPa) = 88.40193 24.92030 56.66111
#
# Velocity S-wave (km/s) = 6.73060 3.57355 5.38847
# Velocity P-wave (km/s) = 8.75599 7.49072 8.14795
#
# Compressibility (1/GPa) = 0.03150404
#
# Stress axis : x y z
#
# Youngs Moduli (GPa) = 126.47583 38.00981 130.75430
#
# Poissons Ratio (x) = 0.05565 0.60151
# Poissons Ratio (y) = 0.18516 -0.11566
# Poissons Ratio (z) = 0.58183 -0.03362
#
# Static dielectric constant tensor:
#      x y z
#    x 1.674140 0.000000 0.008000 
#    y 0.000000 1.729230 0.000000 
#    z 0.008000 0.000000 1.668660 
# 
# From -- ./inp_files/357665.got.cif
#   From: 2010.05.17/outbox.cif.g08.bks.cpg/sg12_179_cif.got.tgz:357665.got - 2010.06.03 13:09:07.
