data_PCOD9223107
_publ_section_title
;
Structure prediction by ZEFSAII (Michael W. Deem and Ramdas Pophale) SiO2 
 PCOD9223107
Probable space group: C 2/M
;
_chemical_formula_sum "Si O2"
_cell_formula_units_Z 48
_cell_length_a 23.473735
_cell_length_b 9.151684
_cell_length_c 14.333894
_cell_angle_alpha 90.000000
_cell_angle_beta 77.494909
_cell_angle_gamma 90.000000
_cell_volume 3006.217220
_symmetry_space_group_name_H-M "C 2/M"
_symmetry_group_IT_number 12
_symmetry_cell_setting 'monoclinic'
loop_
_space_group_symop_operation_xyz
x,y,z
-x,y,-z
-x,-y,-z
x,-y,z
1/2+x,1/2+y,z
1/2-x,1/2+y,-z
1/2-x,1/2-y,-z
1/2+x,1/2-y,z
loop_
_atom_site_type_symbol
_atom_site_label
_atom_site_fract_x
_atom_site_fract_y
_atom_site_fract_z
Si Si1 0.892580 0.324610 0.175327
Si Si2 0.450344 0.821810 0.590016
Si Si3 0.066088 0.831746 0.017748
Si Si4 0.824843 0.324345 0.557325
Si Si5 0.706095 0.824503 0.643984
Si Si6 0.479340 0.824465 0.790114
O O1 0.891010 0.500000 0.163561
O O2 0.838300 0.280216 0.258863
O O3 0.953308 0.290967 0.207615
O O4 0.895463 0.248072 0.074029
O O5 0.500000 0.772970 0.500000
O O6 0.386300 0.776560 0.578668
O O7 0.464589 0.777132 0.690525
O O8 0.451144 0.000000 0.588702
O O9 0.061254 0.749972 0.117882
O O10 0.083094 0.000000 0.023063
O O11 0.000000 0.827721 0.000000
O O12 0.820602 0.500000 0.567538
O O13 0.768928 0.251014 0.624811
O O14 0.821135 0.289601 0.448173
O O15 0.712837 0.000000 0.645580
O O16 0.472897 0.000000 0.798532
#
# Coordination Sequence:
#
# PCOD9223107 Si02
#       6
#     8   8   8   8   8   8
#     4   9  16  27  45  67  88 113 148 184 217 256
#     4   9  16  27  46  70  92 115 146 181 214 254
#     4   9  17  28  42  63  91 118 143 177 222 265
#     4   9  17  29  45  66  91 118 147 178 215 258
#     4   9  17  29  45  65  90 118 147 181 217 254
#     4   9  16  27  45  67  90 116 145 179 218 259
#
# _framework density 15.966911
#
# number of rings (size 3 to 8) (size 9 to 14) (size 15 to 20)
#    0.000    3.000    0.000    1.500    0.000    6.667 
#    0.000    0.833    0.000    5.000    0.000    0.000 
#    0.000    0.000    0.000    0.000    0.000    0.000 
#
# Total GULP energy -133702.801472 kJ/mol
# GULP energy per Si atom -5570.950061 kJ/mol
# Density = 1.593057 g / cm^3
# Si number density = 15.966911 Si / 1000 Ang^3
#
#
#
# Elastic Constant Matrix: (Units=GPa)
#
#
# Indices 1 2 3 4 5 6 
#
# 1 97.7599 31.7281 86.1325 0.0000 -7.9248 0.0000
# 2 31.7281 21.1913 49.0966 0.0000 -6.9270 0.0000
# 3 86.1325 49.0966 180.7966 0.0000 -18.9936 0.0000
# 4 0.0000 0.0000 0.0000 17.6452 0.0000 -6.0676
# 5 -7.9248 -6.9270 -18.9936 0.0000 27.5465 0.0000
# 6 0.0000 0.0000 0.0000 -6.0676 0.0000 18.6692
#
#
#
# Elastic Compliance Matrix: (Units=1/GPa)
#
#
# Indices 1 2 3 4 5 6 
#
# 1 0.021043 -0.022892 -0.004072 0.000000 -0.002511 0.000000
# 2 -0.022892 0.154166 -0.029732 0.000000 0.011681 0.000000
# 3 -0.004072 -0.029732 0.015779 0.000000 0.002232 0.000000
# 4 0.000000 0.000000 0.000000 0.063803 0.000000 0.020737
# 5 -0.002511 0.011681 0.002232 0.000000 0.040057 0.000000
# 6 0.000000 0.000000 0.000000 0.020737 0.000000 0.060304
#
#
# Mechanical properties :
#
#
# Convention : Reuss Voigt Hill
#
# Bulk Modulus (GPa) = 12.88725 70.40691 41.64708
# Shear Modulus (GPa) = 10.11306 21.62488 15.86897
#
# Velocity S-wave (km/s) = 2.51943 3.68415 3.15598
# Velocity P-wave (km/s) = 4.06843 7.89231 6.27856
#
# Compressibility (1/GPa) = 0.07759607
#
# Stress axis : x y z
#
# Youngs Moduli (GPa) = 47.52104 6.48652 63.37346
#
# Poissons Ratio (x) = 0.14849 0.25808
# Poissons Ratio (y) = 1.08787 1.88420
# Poissons Ratio (z) = 0.19352 0.19285
#
# Static dielectric constant tensor:
#      x y z
#    x 1.515940 0.000000 0.002440 
#    y 0.000000 1.533860 0.000000 
#    z 0.002440 0.000000 1.524870 
# 
# From -- ./inp_files/236600.got.cif
#   From: 2010.05.17/outbox.cif.g08.bks.cpg/sg12_119_cif.got.tgz:236600.got - 2010.06.03 13:09:07.
