data_PCOD9223477
_publ_section_title
;
Structure prediction by ZEFSAII (Michael W. Deem and Ramdas Pophale) SiO2 
 PCOD9223477
Probable space group: C 2/M
;
_chemical_formula_sum "Si O2"
_cell_formula_units_Z 28
_cell_length_a 21.000000
_cell_length_b 18.000000
_cell_length_c 24.000000
_cell_angle_alpha 90.000000
_cell_angle_beta 20.000000
_cell_angle_gamma 90.000000
_cell_volume 3102.806740
_symmetry_space_group_name_H-M "C 2/M"
_symmetry_group_IT_number 12
_symmetry_cell_setting 'monoclinic'
loop_
_space_group_symop_operation_xyz
x,y,z
-x,y,-z
-x,-y,-z
x,-y,z
1/2+x,1/2+y,z
1/2-x,1/2+y,-z
1/2-x,1/2-y,-z
1/2+x,1/2-y,z
loop_
_atom_site_type_symbol
_atom_site_label
_atom_site_fract_x
_atom_site_fract_y
_atom_site_fract_z
Si Si1 0.821239 0.727484 0.333939
Si Si2 0.288210 0.770086 0.692286
Si Si3 0.638274 0.693006 0.131221
Si Si4 0.315210 0.083078 0.825944
Si Si5 0.063735 0.583156 0.148184
Si Si6 0.099520 0.743274 0.284772
Si Si7 0.911584 0.082489 0.134632
O O1 0.836723 0.741457 0.255157
O O2 0.608550 0.732187 0.528414
O O3 0.930996 0.790460 0.279111
O O4 0.908161 0.646081 0.269014
O O5 0.500000 0.757324 0.500000
O O6 0.268669 0.739324 0.770784
O O7 0.243739 0.856997 0.730931
O O8 0.652930 0.719567 0.182733
O O9 0.750000 0.750000 0.000000
O O10 0.742898 0.615308 0.036201
O O11 0.412410 0.079862 0.805113
O O12 0.391761 0.153750 0.730070
O O13 0.327549 0.000000 0.789524
O O14 0.096652 0.097356 0.018243
O O15 0.022457 0.500000 0.161492
O O16 0.844158 0.000000 0.201017
O O17 0.000000 0.086675 0.000000
#
# Coordination Sequence:
#
# PCOD9223477 Si02
#       7
#     8   8   8   8   8   8   8
#     4  10  21  36  57  80 111 146 184 222 273 323
#     4  10  22  34  51  80 110 143 187 226 267 320
#     4  10  19  34  57  81 106 139 177 228 273 318
#     4  10  19  32  52  80 111 143 180 217 265 323
#     4  10  21  37  57  80 109 141 179 229 283 328
#     4  11  20  35  55  82 112 146 184 229 266 323
#     4  10  19  30  48  73 107 149 181 213 261 318
#
# _framework density 9.0240880000000008
#
# number of rings (size 3 to 8) (size 9 to 14) (size 15 to 20)
#    0.000    1.857    4.286    1.286    2.000    0.286 
#    0.000    3.571    0.000    5.571    0.000    0.000 
#    0.000    0.000    0.000    0.000    0.000    0.000 
#
# Total GULP energy -155870.018002 kJ/mol
# GULP energy per Si atom -5566.786357 kJ/mol
# Density = 0.900355 g / cm^3
# Si number density = 9.024088 Si / 1000 Ang^3
#
#
#
# Elastic Constant Matrix: (Units=GPa)
#
#
# Indices 1 2 3 4 5 6 
#
# 1 116.4643 31.4652 15.5082 0.0023 13.4515 -0.0015
# 2 31.4652 84.5866 15.8082 -0.0051 4.8082 -0.0002
# 3 15.5082 15.8082 18.5221 0.0034 11.9145 -0.0044
# 4 0.0023 -0.0051 0.0034 21.0948 -0.0027 -3.7932
# 5 13.4515 4.8082 11.9145 -0.0027 13.9537 0.0029
# 6 -0.0015 -0.0002 -0.0044 -3.7932 0.0029 17.3800
#
#
#
# Elastic Compliance Matrix: (Units=1/GPa)
#
#
# Indices 1 2 3 4 5 6 
#
# 1 0.010548 -0.003360 -0.000372 -0.000003 -0.008692 0.000002
# 2 -0.003360 0.016102 -0.020951 0.000008 0.015580 -0.000006
# 3 -0.000372 -0.020951 0.149324 -0.000035 -0.119923 0.000050
# 4 -0.000003 0.000008 -0.000035 0.049341 0.000037 0.010769
# 5 -0.008692 0.015580 -0.119923 0.000037 0.177073 -0.000053
# 6 0.000002 -0.000006 0.000050 0.010769 -0.000053 0.059888
#
#
# Mechanical properties :
#
#
# Convention : Reuss Voigt Hill
#
# Bulk Modulus (GPa) = 7.89851 38.34846 23.12349
# Shear Modulus (GPa) = 9.02779 20.93846 14.98313
#
# Velocity S-wave (km/s) = 2.23895 3.40978 2.88440
# Velocity P-wave (km/s) = 3.32712 6.06598 4.89213
#
# Compressibility (1/GPa) = 0.12660616
#
# Stress axis : x y z
#
# Youngs Moduli (GPa) = 94.80834 62.10410 6.69685
#
# Poissons Ratio (x) = 0.20866 0.00249
# Poissons Ratio (y) = 0.31855 0.14031
# Poissons Ratio (z) = 0.03530 1.30117
#
# Static dielectric constant tensor:
#      x y z
#    x 1.725080 0.000010 -0.039230 
#    y 0.000010 1.699100 0.000030 
#    z -0.039230 0.000030 1.643890 
# 
# From -- ./inp_files/87230.got.cif
#   From: 2010.05.17/outbox.ucp.g08.bks.cvg/sg12_44_cif.got.tgz:87230.got - 2010.06.11 11:47:21.
