data_PCOD9223258
_publ_section_title
;
Structure prediction by ZEFSAII (Michael W. Deem and Ramdas Pophale) SiO2 
 PCOD9223258
Probable space group: C 2/M
;
_chemical_formula_sum "Si O2"
_cell_formula_units_Z 24
_cell_length_a 27.000000
_cell_length_b 9.000000
_cell_length_c 12.000000
_cell_angle_alpha 90.000000
_cell_angle_beta 90.000000
_cell_angle_gamma 90.000000
_cell_volume 2916.000000
_symmetry_space_group_name_H-M "C 2/M"
_symmetry_group_IT_number 12
_symmetry_cell_setting 'monoclinic'
loop_
_space_group_symop_operation_xyz
x,y,z
-x,y,-z
-x,-y,-z
x,-y,z
1/2+x,1/2+y,z
1/2-x,1/2+y,-z
1/2-x,1/2-y,-z
1/2+x,1/2-y,z
loop_
_atom_site_type_symbol
_atom_site_label
_atom_site_fract_x
_atom_site_fract_y
_atom_site_fract_z
Si Si1 0.695025 0.679323 0.000816
Si Si2 0.606302 0.323468 0.373364
Si Si3 0.604689 0.823666 0.612002
Si Si4 0.004208 0.328029 0.364767
Si Si5 0.197503 0.677390 0.774625
Si Si6 0.807057 0.679712 0.769492
O O1 0.695625 0.500000 0.003979
O O2 0.674027 0.750649 0.113230
O O3 0.750000 0.750000 0.000000
O O4 0.675383 0.742507 0.884458
O O5 0.611690 0.500000 0.357902
O O6 0.607350 0.277859 0.503155
O O7 0.551913 0.268752 0.331217
O O8 0.652241 0.236070 0.318122
O O9 0.552004 0.789391 0.673002
O O10 0.655103 0.806256 0.681591
O O11 0.601006 0.000000 0.580623
O O12 0.014233 0.500000 0.335644
O O13 0.000000 0.319117 0.500000
O O14 0.205541 0.500000 0.793887
O O15 0.251383 0.752482 0.749174
O O16 0.803799 0.500000 0.773958
#
# Coordination Sequence:
#
# PCOD9223258 Si02
#       6
#     8   8   8   8   8   8
#     4  10  18  31  50  72  97 126 163 202 240 284
#     4  11  21  32  49  74 101 129 163 204 247 288
#     4   9  19  34  52  73 100 133 164 196 238 291
#     4   8  15  31  51  70  94 127 165 199 235 285
#     4  10  19  33  52  75 101 129 163 200 240 287
#     4  11  21  34  51  71  98 132 166 201 244 290
#
# _framework density 8.2304530000000007
#
# number of rings (size 3 to 8) (size 9 to 14) (size 15 to 20)
#    0.000    2.167    0.000    8.000    0.000    5.000 
#    0.000    0.000    0.000    1.000    0.000    7.000 
#    0.000    0.000    0.000    0.000    0.000    0.000 
#
# Total GULP energy -133641.240370 kJ/mol
# GULP energy per Si atom -5568.385015 kJ/mol
# Density = 0.821172 g / cm^3
# Si number density = 8.230453 Si / 1000 Ang^3
#
#
#
# Elastic Constant Matrix: (Units=GPa)
#
#
# Indices 1 2 3 4 5 6 
#
# 1 112.5258 55.2944 34.6556 0.0000 -0.2210 0.0000
# 2 55.2944 150.2104 35.7443 0.0000 -0.6829 0.0000
# 3 34.6556 35.7443 43.6486 0.0000 -0.5483 0.0000
# 4 0.0000 0.0000 0.0000 24.6930 0.0000 -1.8382
# 5 -0.2210 -0.6829 -0.5483 0.0000 3.9186 0.0000
# 6 0.0000 0.0000 0.0000 -1.8382 0.0000 29.5166
#
#
#
# Elastic Compliance Matrix: (Units=1/GPa)
#
#
# Indices 1 2 3 4 5 6 
#
# 1 0.012658 -0.002819 -0.007753 0.000000 -0.000862 0.000000
# 2 -0.002819 0.008897 -0.005040 0.000000 0.000686 0.000000
# 3 -0.007753 -0.005040 0.033234 0.000000 0.003335 0.000000
# 4 0.000000 0.000000 0.000000 0.040686 0.000000 0.002534
# 5 -0.000862 0.000686 0.003335 0.000000 0.255728 0.000000
# 6 0.000000 0.000000 0.000000 0.002534 0.000000 0.034037
#
#
# Mechanical properties :
#
#
# Convention : Reuss Voigt Hill
#
# Bulk Modulus (GPa) = 42.43041 61.97484 52.20262
# Shear Modulus (GPa) = 11.78361 23.67167 17.72764
#
# Velocity S-wave (km/s) = 2.67845 3.79628 3.28526
# Velocity P-wave (km/s) = 5.94961 7.54633 6.79503
#
# Compressibility (1/GPa) = 0.02356800
#
# Stress axis : x y z
#
# Youngs Moduli (GPa) = 79.00244 112.39449 30.08938
#
# Poissons Ratio (x) = 0.31680 0.23327
# Poissons Ratio (y) = 0.22268 0.15164
# Poissons Ratio (z) = 0.61247 0.56641
#
# Static dielectric constant tensor:
#      x y z
#    x 1.578590 0.000000 0.009360 
#    y 0.000000 1.551170 0.000000 
#    z 0.009360 0.000000 1.614720 
# 
# From -- ./inp_files/179278.got.cif
#   From: 2010.05.17/outbox.ucp.g08.bks.cvg/sg12_90_cif.got.tgz:179278.got - 2010.06.11 11:47:21.
