data_PCOD9223158
_publ_section_title
;
Structure prediction by ZEFSAII (Michael W. Deem and Ramdas Pophale) SiO2 
 PCOD9223158
Probable space group: C 2/M
;
_chemical_formula_sum "Si O2"
_cell_formula_units_Z 24
_cell_length_a 24.000000
_cell_length_b 18.000000
_cell_length_c 18.000000
_cell_angle_alpha 90.000000
_cell_angle_beta 20.000000
_cell_angle_gamma 90.000000
_cell_volume 2659.548635
_symmetry_space_group_name_H-M "C 2/M"
_symmetry_group_IT_number 12
_symmetry_cell_setting 'monoclinic'
loop_
_space_group_symop_operation_xyz
x,y,z
-x,y,-z
-x,-y,-z
x,-y,z
1/2+x,1/2+y,z
1/2-x,1/2+y,-z
1/2-x,1/2-y,-z
1/2+x,1/2-y,z
loop_
_atom_site_type_symbol
_atom_site_label
_atom_site_fract_x
_atom_site_fract_y
_atom_site_fract_z
Si Si1 0.153869 0.413413 0.353346
Si Si2 0.556827 0.086807 0.782631
Si Si3 0.649954 0.316811 0.516226
Si Si4 0.708643 0.144549 0.450754
Si Si5 0.354773 0.199999 0.120539
Si Si6 0.557559 0.345071 0.085358
O O1 0.125367 0.500000 0.405523
O O2 0.186401 0.374254 0.391965
O O3 0.000000 0.383025 0.500000
O O4 0.306069 0.403933 0.107504
O O5 0.711875 0.127585 0.626198
O O6 0.584826 0.101170 0.659898
O O7 0.555732 0.000000 0.799762
O O8 0.403069 0.128014 0.011903
O O9 0.681126 0.231712 0.499851
O O10 0.690827 0.312359 0.375715
O O11 0.491276 0.337309 0.765998
O O12 0.892694 0.131799 0.248261
O O13 0.500000 0.211965 0.000000
O O14 0.373525 0.269071 0.039826
#
# Coordination Sequence:
#
# PCOD9223158 Si02
#       6
#     8   8   8   8   8   8
#     4  11  25  40  55  81 115 145 180 233 287 331
#     4  10  19  29  48  82 118 148 175 222 281 328
#     4  10  19  30  54  83 113 143 180 232 270 319
#     4  11  18  35  60  84 108 146 187 229 271 332
#     4  10  16  28  49  77 112 147 171 219 269 325
#     4  11  18  34  59  82 109 145 182 226 275 324
#
# _framework density 9.0240880000000008
#
# number of rings (size 3 to 8) (size 9 to 14) (size 15 to 20)
#    0.000    1.500    6.667    2.000    0.000    7.000 
#    0.000    0.833    0.000    0.000    0.000    0.000 
#    0.000    5.333    0.000    0.000    0.000    0.000 
#
# Total GULP energy -133618.521514 kJ/mol
# GULP energy per Si atom -5567.438396 kJ/mol
# Density = 0.900355 g / cm^3
# Si number density = 9.024088 Si / 1000 Ang^3
#
#
#
# Elastic Constant Matrix: (Units=GPa)
#
#
# Indices 1 2 3 4 5 6 
#
# 1 46.5342 16.8639 46.4150 0.0041 25.9838 -0.0008
# 2 16.8639 79.3509 3.8089 0.0053 7.7797 -0.0015
# 3 46.4150 3.8089 80.8091 0.0041 38.4267 -0.0024
# 4 0.0041 0.0053 0.0041 23.9825 -0.0029 11.7078
# 5 25.9838 7.7797 38.4267 -0.0029 40.0258 0.0013
# 6 -0.0008 -0.0015 -0.0024 11.7078 0.0013 11.2540
#
#
#
# Elastic Compliance Matrix: (Units=1/GPa)
#
#
# Indices 1 2 3 4 5 6 
#
# 1 0.059580 -0.010453 -0.029997 -0.000005 -0.007847 0.000003
# 2 -0.010453 0.014731 0.006338 -0.000008 -0.002162 0.000012
# 3 -0.029997 0.006338 0.037962 -0.000019 -0.018204 0.000029
# 4 -0.000005 -0.000008 -0.000019 0.084728 0.000032 -0.088145
# 5 -0.007847 -0.002162 -0.018204 0.000032 0.047975 -0.000044
# 6 0.000003 0.000012 0.000029 -0.088145 -0.000044 0.180556
#
#
# Mechanical properties :
#
#
# Convention : Reuss Voigt Hill
#
# Bulk Modulus (GPa) = 22.70195 37.87443 30.28819
# Shear Modulus (GPa) = 9.83399 24.35955 17.09677
#
# Velocity S-wave (km/s) = 2.33679 3.67781 3.08114
# Velocity P-wave (km/s) = 4.45944 6.25026 5.42920
#
# Compressibility (1/GPa) = 0.04404907
#
# Stress axis : x y z
#
# Youngs Moduli (GPa) = 16.78424 67.88177 26.34195
#
# Poissons Ratio (x) = 0.70956 0.79018
# Poissons Ratio (y) = 0.17544 -0.16695
# Poissons Ratio (z) = 0.50348 -0.43021
#
# Static dielectric constant tensor:
#      x y z
#    x 1.630800 0.000000 0.029050 
#    y 0.000000 1.630770 0.000000 
#    z 0.029050 0.000000 1.662450 
# 
# From -- ./inp_files/61729.got.cif
#   From: 2010.05.17/outbox.ucp.g08.bks.cvg/sg12_31_cif.got.tgz:61729.got - 2010.06.11 11:47:21.
