data_PCOD9223746
_publ_section_title
;
Structure prediction by ZEFSAII (Michael W. Deem and Ramdas Pophale) SiO2 
 PCOD9223746
Probable space group: C 2/M
;
_chemical_formula_sum "Si O2"
_cell_formula_units_Z 32
_cell_length_a 24.000000
_cell_length_b 9.000000
_cell_length_c 30.000000
_cell_angle_alpha 90.000000
_cell_angle_beta 30.000000
_cell_angle_gamma 90.000000
_cell_volume 3240.000000
_symmetry_space_group_name_H-M "C 2/M"
_symmetry_group_IT_number 12
_symmetry_cell_setting 'monoclinic'
loop_
_space_group_symop_operation_xyz
x,y,z
-x,y,-z
-x,-y,-z
x,-y,z
1/2+x,1/2+y,z
1/2-x,1/2+y,-z
1/2-x,1/2-y,-z
1/2+x,1/2-y,z
loop_
_atom_site_type_symbol
_atom_site_label
_atom_site_fract_x
_atom_site_fract_y
_atom_site_fract_z
Si Si1 0.766777 0.680316 0.287407
Si Si2 0.392219 0.326269 0.851584
Si Si3 0.176246 0.179132 0.443655
Si Si4 0.519767 0.820591 0.121917
Si Si5 0.967784 0.322126 0.384504
Si Si6 0.295499 0.680606 0.769340
Si Si7 0.314573 0.819808 0.066178
Si Si8 0.874076 0.174997 0.362854
O O1 0.769356 0.500000 0.284525
O O2 0.688553 0.720213 0.383140
O O3 0.731971 0.727409 0.262054
O O4 0.892080 0.730894 0.211992
O O5 0.371742 0.500000 0.875943
O O6 0.410454 0.239479 0.884755
O O7 0.291161 0.272044 0.890610
O O8 0.506604 0.316918 0.744435
O O9 0.075776 0.259409 0.538295
O O10 0.285343 0.237953 0.394209
O O11 0.167636 0.000000 0.453459
O O12 0.520190 0.000000 0.123724
O O13 0.576222 0.773445 0.036350
O O14 0.965285 0.500000 0.384321
O O15 0.890619 0.252017 0.399237
O O16 0.090980 0.256642 0.293441
O O17 0.308950 0.500000 0.760669
O O18 0.202895 0.722011 0.870369
O O19 0.313579 0.000000 0.066685
O O20 0.843732 0.000000 0.388554
#
# Coordination Sequence:
#
# PCOD9223746 Si02
#       8
#     8   8   8   8   8   8   8   8
#     4   9  20  36  59  86 113 149 196 240 284 332
#     4  10  19  33  54  84 116 153 188 226 286 343
#     4  11  22  39  60  87 119 152 189 234 286 343
#     4  10  19  34  56  87 118 149 190 237 280 334
#     4  12  25  40  59  87 115 148 191 238 290 344
#     4  10  20  40  61  81 113 154 195 239 287 339
#     4   9  18  33  57  85 116 149 190 236 283 334
#     4  11  21  37  61  87 117 153 189 232 286 343
#
# _framework density 9.8765429999999999
#
# number of rings (size 3 to 8) (size 9 to 14) (size 15 to 20)
#    0.000    1.750    2.500    2.625    0.000    1.500 
#    0.000    7.500    0.000    0.000    0.000    1.750 
#    0.000    0.000    0.000    0.000    0.000    0.000 
#
# Total GULP energy -178705.879091 kJ/mol
# GULP energy per Si atom -5584.558722 kJ/mol
# Density = 0.985406 g / cm^3
# Si number density = 9.876543 Si / 1000 Ang^3
#
#
#
# Elastic Constant Matrix: (Units=GPa)
#
#
# Indices 1 2 3 4 5 6 
#
# 1 84.6249 14.2410 11.8969 0.0003 38.8094 -0.0006
# 2 14.2410 55.1081 14.5923 -0.0005 14.5844 -0.0005
# 3 11.8969 14.5923 77.2573 -0.0001 35.6205 -0.0001
# 4 0.0003 -0.0005 -0.0001 19.3751 0.0003 -2.1572
# 5 38.8094 14.5844 35.6205 0.0003 34.8365 0.0003
# 6 -0.0006 -0.0005 -0.0001 -2.1572 0.0003 20.6800
#
#
#
# Elastic Compliance Matrix: (Units=1/GPa)
#
#
# Indices 1 2 3 4 5 6 
#
# 1 0.044679 0.002028 0.030417 0.000001 -0.081726 0.000003
# 2 0.002028 0.020500 0.001541 0.000001 -0.012418 0.000001
# 3 0.030417 0.001541 0.045198 0.000001 -0.080747 0.000002
# 4 0.000001 0.000001 0.000001 0.052219 -0.000003 0.005447
# 5 -0.081726 -0.012418 -0.080747 -0.000003 0.207515 -0.000006
# 6 0.000003 0.000001 0.000002 0.005447 -0.000006 0.048924
#
#
# Mechanical properties :
#
#
# Convention : Reuss Voigt Hill
#
# Bulk Modulus (GPa) = 5.60691 33.16118 19.38405
# Shear Modulus (GPa) = 12.17992 26.72899 19.45445
#
# Velocity S-wave (km/s) = 2.48585 3.68252 3.14169
# Velocity P-wave (km/s) = 3.32926 5.90809 4.79528
#
# Compressibility (1/GPa) = 0.17835135
#
# Stress axis : x y z
#
# Youngs Moduli (GPa) = 22.38183 48.77966 22.12486
#
# Poissons Ratio (x) = -0.09895 -0.67298
# Poissons Ratio (y) = -0.04540 -0.03410
# Poissons Ratio (z) = -0.68080 -0.07517
#
# Static dielectric constant tensor:
#      x y z
#    x 1.677560 0.000000 0.008460 
#    y 0.000000 1.659400 0.000000 
#    z 0.008460 0.000000 1.741480 
# 
# From -- ./inp_files/382302.got.cif
#   From: 2010.05.17/outbox.ucp.g08.bks.cvg/sg12_192_cif.got.tgz:382302.got - 2010.06.11 11:47:21.
