data_PCOD9223128
_publ_section_title
;
Structure prediction by ZEFSAII (Michael W. Deem and Ramdas Pophale) SiO2 
 PCOD9223128
Probable space group: C 2/M
;
_chemical_formula_sum "Si O2"
_cell_formula_units_Z 56
_cell_length_a 23.952320
_cell_length_b 10.082231
_cell_length_c 23.152744
_cell_angle_alpha 90.000000
_cell_angle_beta 32.051817
_cell_angle_gamma 90.000000
_cell_volume 2967.182996
_symmetry_space_group_name_H-M "C 2/M"
_symmetry_group_IT_number 12
_symmetry_cell_setting 'monoclinic'
loop_
_space_group_symop_operation_xyz
x,y,z
-x,y,-z
-x,-y,-z
x,-y,z
1/2+x,1/2+y,z
1/2-x,1/2+y,-z
1/2-x,1/2-y,-z
1/2+x,1/2-y,z
loop_
_atom_site_type_symbol
_atom_site_label
_atom_site_fract_x
_atom_site_fract_y
_atom_site_fract_z
Si Si1 0.617168 0.148253 0.073854
Si Si2 0.963289 0.660285 0.651802
Si Si3 0.802012 0.345967 0.700622
Si Si4 0.382387 0.153334 0.272252
Si Si5 0.773113 0.350019 0.898503
Si Si6 0.111613 0.345477 0.872790
Si Si7 0.804733 0.344980 0.559163
O O1 0.498230 0.185017 0.194154
O O2 0.685353 0.141635 0.072258
O O3 0.613033 0.000000 0.051548
O O4 0.673864 0.253690 0.983554
O O5 0.971849 0.500000 0.647878
O O6 0.911955 0.690841 0.634713
O O7 0.872371 0.701729 0.775488
O O8 0.081004 0.707261 0.560693
O O9 0.779980 0.500000 0.734796
O O10 0.707699 0.251571 0.804265
O O11 0.810269 0.339701 0.624339
O O12 0.394902 0.163392 0.191489
O O13 0.292482 0.252373 0.372238
O O14 0.356869 0.000000 0.308377
O O15 0.747433 0.500000 0.902282
O O16 0.133981 0.500000 0.867470
O O17 0.000000 0.310614 0.000000
O O18 0.790039 0.500000 0.555697
#
# Coordination Sequence:
#
# PCOD9223128 Si02
#       7
#     8   8   8   8   8   8   8
#     4   9  18  33  51  69  93 123 152 187 234 279
#     4   9  17  30  49  71  95 121 152 192 234 270
#     4   9  17  29  46  68  92 121 154 187 226 269
#     4   9  18  32  48  65  91 125 155 186 231 276
#     4   9  18  32  50  72  94 118 152 192 231 275
#     4   9  18  30  43  63  92 123 154 187 224 270
#     4   9  17  31  49  69  93 123 157 189 224 272
#
# _framework density 18.87312
#
# number of rings (size 3 to 8) (size 9 to 14) (size 15 to 20)
#    0.000    3.000    0.000    0.429    2.000    2.571 
#    0.000    2.143    0.000    3.429    0.000    0.000 
#    0.000    0.000    0.000    0.000    0.000    0.000 
#
# Total GULP energy -156014.075906 kJ/mol
# GULP energy per Si atom -5571.931282 kJ/mol
# Density = 1.883016 g / cm^3
# Si number density = 18.873120 Si / 1000 Ang^3
#
#
#
# Elastic Constant Matrix: (Units=GPa)
#
#
# Indices 1 2 3 4 5 6 
#
# 1 -0.9892 6.1683 -11.4666 0.0000 -7.5544 0.0000
# 2 6.1683 64.5271 57.3736 0.0002 -20.5371 0.0000
# 3 -11.4666 57.3736 90.8739 0.0001 -27.6624 0.0000
# 4 0.0000 0.0002 0.0001 17.2855 -0.0001 -12.0614
# 5 -7.5544 -20.5371 -27.6624 -0.0001 29.2535 0.0000
# 6 0.0000 0.0000 0.0000 -12.0614 0.0000 9.3127
#
#
#
# Elastic Compliance Matrix: (Units=1/GPa)
#
#
# Indices 1 2 3 4 5 6 
#
# 1 -0.075339 0.031863 -0.040351 -0.000002 -0.035243 -0.000003
# 2 0.031863 0.022430 -0.003991 -0.000003 0.020200 -0.000003
# 3 -0.040351 -0.003991 0.006189 0.000001 -0.007370 0.000001
# 4 -0.000002 -0.000003 0.000001 0.600901 -0.000001 0.778259
# 5 -0.035243 0.020200 -0.007370 -0.000001 0.032295 -0.000001
# 6 -0.000003 -0.000003 0.000001 0.778259 -0.000001 1.115346
#
#
# Mechanical properties :
#
#
# Convention : Reuss Voigt Hill
#
# Bulk Modulus (GPa) = -13.95090 28.72913 7.38912
# Shear Modulus (GPa) = 2.93619 17.99277 10.46448
#
# Velocity S-wave (km/s) = 1.24865 3.09099 2.35726
# Velocity P-wave (km/s) = 2.30850 5.29096 3.36639
#
# Compressibility (1/GPa) = -0.07167996
#
# Stress axis : x y z
#
# Youngs Moduli (GPa) = -13.27331 44.58378 161.57142
#
# Poissons Ratio (x) = -1.42057 6.51964
# Poissons Ratio (y) = 0.42293 0.64490
# Poissons Ratio (z) = -0.53560 0.17795
#
# Static dielectric constant tensor:
#      x y z
#    x 1.700480 0.000000 0.014440 
#    y 0.000000 1.652130 0.000000 
#    z 0.014440 0.000000 1.657040 
# 
# From -- ./inp_files/181554.got.cif
#   From: 2010.05.17/outbox.cif.g08.bks.cpg/sg12_91_cif.got.tgz:181554.got - 2010.06.03 13:09:07.
