data_PCOD9223541
_publ_section_title
;
Structure prediction by ZEFSAII (Michael W. Deem and Ramdas Pophale) SiO2 
 PCOD9223541
Probable space group: C 2/M
;
_chemical_formula_sum "Si O2"
_cell_formula_units_Z 28
_cell_length_a 21.000000
_cell_length_b 9.000000
_cell_length_c 24.000000
_cell_angle_alpha 90.000000
_cell_angle_beta 50.000000
_cell_angle_gamma 90.000000
_cell_volume 3474.777594
_symmetry_space_group_name_H-M "C 2/M"
_symmetry_group_IT_number 12
_symmetry_cell_setting 'monoclinic'
loop_
_space_group_symop_operation_xyz
x,y,z
-x,y,-z
-x,-y,-z
x,-y,z
1/2+x,1/2+y,z
1/2-x,1/2+y,-z
1/2-x,1/2-y,-z
1/2+x,1/2-y,z
loop_
_atom_site_type_symbol
_atom_site_label
_atom_site_fract_x
_atom_site_fract_y
_atom_site_fract_z
Si Si1 0.576612 0.671903 0.000557
Si Si2 0.984487 0.320695 0.443183
Si Si3 0.044227 0.678760 0.845036
Si Si4 0.343863 0.319335 0.443918
Si Si5 0.380523 0.821634 0.727815
Si Si6 0.304246 0.179461 0.155357
Si Si7 0.461920 0.820435 0.283597
O O1 0.599398 0.500000 0.998922
O O2 0.651424 0.755360 0.925713
O O3 0.500000 0.672430 0.000000
O O4 0.534496 0.748312 0.078416
O O5 0.971463 0.500000 0.446440
O O6 0.904526 0.239789 0.460027
O O7 0.000000 0.284996 0.500000
O O8 0.065581 0.286216 0.358724
O O9 0.035892 0.500000 0.853673
O O10 0.129995 0.717075 0.830910
O O11 0.045238 0.717085 0.778351
O O12 0.339625 0.500000 0.446892
O O13 0.250000 0.250000 0.500000
O O14 0.392504 0.260800 0.360927
O O15 0.289649 0.743786 0.783232
O O16 0.446887 0.786384 0.740467
O O17 0.366816 0.000000 0.736251
O O18 0.300202 0.000000 0.154274
O O19 0.450730 0.000000 0.295486
#
# Coordination Sequence:
#
# PCOD9223541 Si02
#       7
#     8   8   8   8   8   8   8
#     4   9  17  30  49  73 101 131 165 206 251 299
#     4   9  19  37  58  79 105 137 172 213 263 313
#     4   9  18  33  53  76 101 130 166 210 256 299
#     4  11  22  36  55  78 106 139 176 216 258 307
#     4   9  18  33  52  73 101 134 165 202 249 302
#     4  10  19  31  50  75 102 131 166 208 252 300
#     4   9  19  37  56  74 101 136 171 209 257 306
#
# _framework density 8.0580700000000007
#
# number of rings (size 3 to 8) (size 9 to 14) (size 15 to 20)
#    0.000    2.571    0.000    3.000    0.000    6.571 
#    0.000    3.571    0.000    0.000    0.000    0.000 
#    0.000    0.000    0.000    0.000    0.000    0.000 
#
# Total GULP energy -155993.304567 kJ/mol
# GULP energy per Si atom -5571.189449 kJ/mol
# Density = 0.803973 g / cm^3
# Si number density = 8.058070 Si / 1000 Ang^3
#
#
#
# Elastic Constant Matrix: (Units=GPa)
#
#
# Indices 1 2 3 4 5 6 
#
# 1 123.1584 52.5272 95.1784 0.0000 -4.5234 0.0003
# 2 52.5272 88.3865 63.6944 0.0000 -6.8765 0.0005
# 3 95.1784 63.6944 161.6423 0.0000 -4.3807 0.0000
# 4 0.0000 0.0000 0.0000 35.8398 0.0000 -6.2600
# 5 -4.5234 -6.8765 -4.3807 0.0000 43.0491 0.0000
# 6 0.0003 0.0005 0.0000 -6.2600 0.0000 29.3838
#
#
#
# Elastic Compliance Matrix: (Units=1/GPa)
#
#
# Indices 1 2 3 4 5 6 
#
# 1 0.015739 -0.003714 -0.007797 0.000000 0.000267 0.000000
# 2 -0.003714 0.016833 -0.004396 0.000000 0.001851 0.000000
# 3 -0.007797 -0.004396 0.012503 0.000000 -0.000249 0.000000
# 4 0.000000 0.000000 0.000000 0.028980 0.000000 0.006174
# 5 0.000267 0.001851 -0.000249 0.000000 0.023528 0.000000
# 6 0.000000 0.000000 0.000000 0.006174 0.000000 0.035348
#
#
# Mechanical properties :
#
#
# Convention : Reuss Voigt Hill
#
# Bulk Modulus (GPa) = 75.40662 88.44302 81.92482
# Shear Modulus (GPa) = 29.55713 32.44035 30.99874
#
# Velocity S-wave (km/s) = 4.28718 4.49141 4.39048
# Velocity P-wave (km/s) = 8.44971 9.04957 8.75478
#
# Compressibility (1/GPa) = 0.01326143
#
# Stress axis : x y z
#
# Youngs Moduli (GPa) = 63.53720 59.40688 79.98286
#
# Poissons Ratio (x) = 0.22065 0.62359
# Poissons Ratio (y) = 0.23599 0.35159
# Poissons Ratio (z) = 0.49537 0.26114
#
# Static dielectric constant tensor:
#      x y z
#    x 1.538480 0.000000 0.014410 
#    y 0.000000 1.550350 0.000000 
#    z 0.014410 0.000000 1.537250 
# 
# From -- ./inp_files/345489.got.cif
#   From: 2010.05.17/outbox.ucp.g08.bks.cvg/sg12_173_cif.got.tgz:345489.got - 2010.06.11 11:47:21.
