data_PCOD9223311
_publ_section_title
;
Structure prediction by ZEFSAII (Michael W. Deem and Ramdas Pophale) SiO2 
 PCOD9223311
Probable space group: C 2/M
;
_chemical_formula_sum "Si O2"
_cell_formula_units_Z 28
_cell_length_a 12.000000
_cell_length_b 21.000000
_cell_length_c 24.000000
_cell_angle_alpha 90.000000
_cell_angle_beta 30.000000
_cell_angle_gamma 90.000000
_cell_volume 3024.000000
_symmetry_space_group_name_H-M "C 2/M"
_symmetry_group_IT_number 12
_symmetry_cell_setting 'monoclinic'
loop_
_space_group_symop_operation_xyz
x,y,z
-x,y,-z
-x,-y,-z
x,-y,z
1/2+x,1/2+y,z
1/2-x,1/2+y,-z
1/2-x,1/2-y,-z
1/2+x,1/2-y,z
loop_
_atom_site_type_symbol
_atom_site_label
_atom_site_fract_x
_atom_site_fract_y
_atom_site_fract_z
Si Si1 0.553443 0.927720 0.038742
Si Si2 0.234578 0.815982 0.473552
Si Si3 0.981342 0.812744 0.074228
Si Si4 0.588576 0.136050 0.401809
Si Si5 0.500708 0.189770 0.126023
Si Si6 0.410927 0.572143 0.178960
Si Si7 0.747733 0.283690 0.343750
O O1 0.821599 0.928895 0.928752
O O2 0.472413 0.000000 0.079511
O O3 0.500000 0.904127 0.000000
O O4 0.439472 0.879942 0.131106
O O5 0.250000 0.750000 0.500000
O O6 0.386294 0.862340 0.444477
O O7 0.320012 0.804010 0.373963
O O8 0.969673 0.825013 0.580056
O O9 0.893293 0.744597 0.133835
O O10 0.864431 0.873850 0.152410
O O11 0.231547 0.811726 0.990983
O O12 0.000000 0.816713 0.000000
O O13 0.500000 0.113665 0.500000
O O14 0.785239 0.095447 0.288889
O O15 0.675170 0.209169 0.373644
O O16 0.432446 0.205076 0.217990
O O17 0.343046 0.500000 0.193368
#
# Coordination Sequence:
#
# PCOD9223311 Si02
#       7
#     8   8   8   8   8   8   8
#     4   9  19  38  57  78 112 148 180 218 271 329
#     4   9  18  32  50  77 106 141 178 222 276 331
#     4  10  21  34  51  81 113 140 177 223 273 323
#     4  11  20  35  55  80 110 144 183 229 281 328
#     4  10  20  32  53  84 109 137 179 226 266 320
#     4  10  22  38  54  77 110 147 186 227 273 328
#     4  10  18  32  52  79 110 142 178 223 280 325
#
# _framework density 9.2592590000000001
#
# number of rings (size 3 to 8) (size 9 to 14) (size 15 to 20)
#    0.000    2.143    4.286    0.429    2.000    1.714 
#    0.000    0.000    0.000    0.857    0.000    2.000 
#    0.000    0.000    0.000    0.000    0.000    0.000 
#
# Total GULP energy -155962.437219 kJ/mol
# GULP energy per Si atom -5570.087044 kJ/mol
# Density = 0.923818 g / cm^3
# Si number density = 9.259259 Si / 1000 Ang^3
#
#
#
# Elastic Constant Matrix: (Units=GPa)
#
#
# Indices 1 2 3 4 5 6 
#
# 1 76.8376 27.4795 4.6144 0.0269 23.0482 0.0061
# 2 27.4795 76.8315 39.5007 -0.0532 19.3455 0.0077
# 3 4.6144 39.5007 61.9573 0.0056 29.7249 -0.0379
# 4 0.0269 -0.0532 0.0056 16.7195 -0.0268 4.1837
# 5 23.0482 19.3455 29.7249 -0.0268 33.5724 0.0099
# 6 0.0061 0.0077 -0.0379 4.1837 0.0099 3.9206
#
#
#
# Elastic Compliance Matrix: (Units=1/GPa)
#
#
# Indices 1 2 3 4 5 6 
#
# 1 0.023388 -0.010921 0.017220 -0.000234 -0.025011 0.000465
# 2 -0.010921 0.024465 -0.020198 0.000251 0.011284 -0.000522
# 3 0.017220 -0.020198 0.048371 -0.000443 -0.043012 0.001061
# 4 -0.000234 0.000251 -0.000443 0.081604 0.000499 -0.087086
# 5 -0.025011 0.011284 -0.043012 0.000499 0.078538 -0.001130
# 6 0.000465 -0.000522 0.001061 -0.087086 -0.001130 0.348009
#
#
# Mechanical properties :
#
#
# Convention : Reuss Voigt Hill
#
# Bulk Modulus (GPa) = 14.61417 39.86838 27.24128
# Shear Modulus (GPa) = 7.63380 20.44460 14.03920
#
# Velocity S-wave (km/s) = 2.03254 3.32627 2.75638
# Velocity P-wave (km/s) = 3.66293 6.02725 4.98722
#
# Compressibility (1/GPa) = 0.06842674
#
# Stress axis : x y z
#
# Youngs Moduli (GPa) = 42.75639 40.87501 20.67350
#
# Poissons Ratio (x) = 0.44640 -0.35601
# Poissons Ratio (y) = 0.46695 0.41756
# Poissons Ratio (z) = -0.73628 0.82560
#
# Static dielectric constant tensor:
#      x y z
#    x 1.638480 0.000010 -0.023000 
#    y 0.000010 1.657010 0.000010 
#    z -0.023000 0.000010 1.641440 
# 
# From -- ./inp_files/206121.got.cif
#   From: 2010.05.17/outbox.ucp.g08.bks.cvg/sg12_104_cif.got.tgz:206121.got - 2010.06.11 11:47:21.
