data_PCOD9223798
_publ_section_title
;
Structure prediction by ZEFSAII (Michael W. Deem and Ramdas Pophale) SiO2 
 PCOD9223798
Probable space group: C 2/M
;
_chemical_formula_sum "Si O2"
_cell_formula_units_Z 24
_cell_length_a 21.000000
_cell_length_b 9.000000
_cell_length_c 21.000000
_cell_angle_alpha 90.000000
_cell_angle_beta 140.000000
_cell_angle_gamma 90.000000
_cell_volume 2551.224023
_symmetry_space_group_name_H-M "C 2/M"
_symmetry_group_IT_number 12
_symmetry_cell_setting 'monoclinic'
loop_
_space_group_symop_operation_xyz
x,y,z
-x,y,-z
-x,-y,-z
x,-y,z
1/2+x,1/2+y,z
1/2-x,1/2+y,-z
1/2-x,1/2-y,-z
1/2+x,1/2-y,z
loop_
_atom_site_type_symbol
_atom_site_label
_atom_site_fract_x
_atom_site_fract_y
_atom_site_fract_z
Si Si1 0.269805 0.319923 0.198382
Si Si2 0.240017 0.679715 0.421406
Si Si3 0.333764 0.323501 0.109998
Si Si4 0.438612 0.165282 0.015611
Si Si5 0.383900 0.319254 0.414682
Si Si6 0.455158 0.676798 0.790043
O O1 0.259436 0.500000 0.196952
O O2 0.333553 0.285097 0.184649
O O3 0.318784 0.269271 0.302630
O O4 0.163349 0.266671 0.089684
O O5 0.238360 0.500000 0.425444
O O6 0.250000 0.750000 0.500000
O O7 0.328153 0.719877 0.438322
O O8 0.138985 0.738676 0.311085
O O9 0.315904 0.500000 0.091504
O O10 0.444693 0.293596 0.172538
O O11 0.250000 0.250000 0.000000
O O12 0.507934 0.262390 0.113865
O O13 0.418485 0.000000 0.029577
O O14 0.500000 0.142659 0.000000
O O15 0.500000 0.271686 0.500000
O O16 0.384923 0.500000 0.412902
O O17 0.435621 0.500000 0.776287
#
# Coordination Sequence:
#
# PCOD9223798 Si02
#       6
#     8   8   8   8   8   8
#     4   9  17  31  53  82 115 149 191 245 295 345
#     4  11  24  42  65  92 122 157 201 250 305 364
#     4  10  20  34  56  85 119 155 198 244 296 357
#     4  10  19  33  56  83 113 153 199 244 297 361
#     4   9  19  36  62  91 116 149 200 255 300 350
#     4  11  23  37  57  87 122 156 196 245 303 366
#
# _framework density 9.4072490000000002
#
# number of rings (size 3 to 8) (size 9 to 14) (size 15 to 20)
#    0.000    2.000    1.667    2.000    2.333    3.667 
#    0.000    0.000    0.000    3.000    0.000    0.000 
#    0.000    0.000    0.000    0.000    0.000    0.000 
#
# Total GULP energy -133638.104402 kJ/mol
# GULP energy per Si atom -5568.254350 kJ/mol
# Density = 0.938584 g / cm^3
# Si number density = 9.407249 Si / 1000 Ang^3
#
#
#
# Elastic Constant Matrix: (Units=GPa)
#
#
# Indices 1 2 3 4 5 6 
#
# 1 136.5682 40.0255 75.8182 0.0000 -11.0099 0.0000
# 2 40.0255 36.7058 40.6066 0.0000 5.7804 0.0000
# 3 75.8182 40.6066 174.6112 0.0000 -9.6064 0.0000
# 4 0.0000 0.0000 0.0000 35.5118 0.0000 -9.6827
# 5 -11.0099 5.7804 -9.6064 0.0000 34.5114 0.0000
# 6 0.0000 0.0000 0.0000 -9.6827 0.0000 24.4678
#
#
#
# Elastic Compliance Matrix: (Units=1/GPa)
#
#
# Indices 1 2 3 4 5 6 
#
# 1 0.012570 -0.011893 -0.002399 0.000000 0.005334 0.000000
# 2 -0.011893 0.050665 -0.007407 0.000000 -0.014342 0.000000
# 3 -0.002399 -0.007407 0.008650 0.000000 0.002883 0.000000
# 4 0.000000 0.000000 0.000000 0.031566 0.000000 0.012492
# 5 0.005334 -0.014342 0.002883 0.000000 0.033882 0.000000
# 6 0.000000 0.000000 0.000000 0.012492 0.000000 0.045813
#
#
# Mechanical properties :
#
#
# Convention : Reuss Voigt Hill
#
# Bulk Modulus (GPa) = 35.10407 73.42063 54.26235
# Shear Modulus (GPa) = 21.18287 31.66052 26.42169
#
# Velocity S-wave (km/s) = 3.35905 4.10661 3.75150
# Velocity P-wave (km/s) = 5.80886 7.84817 6.90422
#
# Compressibility (1/GPa) = 0.02848673
#
# Stress axis : x y z
#
# Youngs Moduli (GPa) = 79.55685 19.73738 115.60973
#
# Poissons Ratio (x) = 0.23473 0.27731
# Poissons Ratio (y) = 0.94616 0.85637
# Poissons Ratio (z) = 0.19083 0.14620
#
# Static dielectric constant tensor:
#      x y z
#    x 1.925160 0.000000 -0.066290 
#    y 0.000000 1.748920 0.000000 
#    z -0.066290 0.000000 1.753130 
# 
# From -- ./inp_files/320307.got.cif
#   From: 2010.05.17/outbox.ucp.g08.bks.cvg/sg12_161_cif.got.tgz:320307.got - 2010.06.11 11:47:21.
