data_PCOD9223021
_publ_section_title
;
Structure prediction by ZEFSAII (Michael W. Deem and Ramdas Pophale) SiO2 
 PCOD9223021
Probable space group: C 2/M
;
_chemical_formula_sum "Si O2"
_cell_formula_units_Z 56
_cell_length_a 18.913706
_cell_length_b 7.525161
_cell_length_c 30.654823
_cell_angle_alpha 90.000000
_cell_angle_beta 38.973657
_cell_angle_gamma 90.000000
_cell_volume 2744.203734
_symmetry_space_group_name_H-M "C 2/M"
_symmetry_group_IT_number 12
_symmetry_cell_setting 'monoclinic'
loop_
_space_group_symop_operation_xyz
x,y,z
-x,y,-z
-x,-y,-z
x,-y,z
1/2+x,1/2+y,z
1/2-x,1/2+y,-z
1/2-x,1/2-y,-z
1/2+x,1/2-y,z
loop_
_atom_site_type_symbol
_atom_site_label
_atom_site_fract_x
_atom_site_fract_y
_atom_site_fract_z
Si Si1 0.174883 0.711608 0.214733
Si Si2 0.006651 0.709795 0.364103
Si Si3 0.793864 0.786435 0.930928
Si Si4 0.579391 0.782257 0.501773
Si Si5 0.626547 0.786529 0.935992
Si Si6 0.163925 0.784466 0.632604
Si Si7 0.008706 0.202024 0.216763
O O1 0.155413 0.500000 0.220954
O O2 0.304135 0.745226 0.141195
O O3 0.100778 0.799290 0.211902
O O4 0.120753 0.775681 0.286006
O O5 0.022699 0.500000 0.363272
O O6 0.968899 0.782410 0.428752
O O7 0.908966 0.733740 0.374858
O O8 0.703179 0.719217 0.939202
O O9 0.918139 0.717787 0.857796
O O10 0.800302 0.000000 0.922888
O O11 0.750000 0.750000 0.000000
O O12 0.500000 0.729048 0.500000
O O13 0.708084 0.725307 0.433245
O O14 0.581434 0.000000 0.501569
O O15 0.621902 0.000000 0.941734
O O16 0.500000 0.718547 0.000000
O O17 0.099476 0.717976 0.707062
O O18 0.162141 0.000000 0.635347
O O19 0.978305 0.000000 0.219161
#
# Coordination Sequence:
#
# PCOD9223021 Si02
#       7
#     8   8   8   8   8   8   8
#     4   9  16  26  43  68  93 115 143 184 230 265
#     4   9  17  29  46  69  93 115 145 187 228 262
#     4   9  17  29  45  65  89 115 144 181 222 263
#     4   9  17  29  45  66  93 123 151 180 219 268
#     4   9  18  33  50  66  88 120 154 185 218 261
#     4   9  16  28  49  70  85 112 155 192 220 258
#     4   8  15  28  44  64  88 115 151 188 220 259
#
# _framework density 20.406647
#
# number of rings (size 3 to 8) (size 9 to 14) (size 15 to 20)
#    0.000    3.143    0.000    1.714    0.000    3.143 
#    0.000    1.429    0.000    5.143    0.000    0.000 
#    0.000    0.000    0.000    0.000    0.000    0.000 
#
# Total GULP energy -155976.948149 kJ/mol
# GULP energy per Si atom -5570.605291 kJ/mol
# Density = 2.036020 g / cm^3
# Si number density = 20.406647 Si / 1000 Ang^3
#
#
#
# Elastic Constant Matrix: (Units=GPa)
#
#
# Indices 1 2 3 4 5 6 
#
# 1 58.7989 -6.2304 86.7887 0.0007 5.6072 0.0194
# 2 -6.2304 54.4799 -0.6183 0.0039 1.2453 -0.0152
# 3 86.7887 -0.6183 266.7529 -0.0019 10.3038 0.0005
# 4 0.0007 0.0039 -0.0019 9.8663 -0.0005 0.5799
# 5 5.6072 1.2453 10.3038 -0.0005 29.4452 -0.0004
# 6 0.0194 -0.0152 0.0005 0.5799 -0.0004 11.8901
#
#
#
# Elastic Compliance Matrix: (Units=1/GPa)
#
#
# Indices 1 2 3 4 5 6 
#
# 1 0.033673 0.003791 -0.010840 -0.000003 -0.002780 -0.000050
# 2 0.003791 0.018801 -0.001147 -0.000009 -0.001116 0.000018
# 3 -0.010840 -0.001147 0.007290 0.000002 -0.000438 0.000016
# 4 -0.000003 -0.000009 0.000002 0.101647 0.000002 -0.004957
# 5 -0.002780 -0.001116 -0.000438 0.000002 0.034691 0.000004
# 6 -0.000050 0.000018 0.000016 -0.004957 0.000004 0.084346
#
#
# Mechanical properties :
#
#
# Convention : Reuss Voigt Hill
#
# Bulk Modulus (GPa) = 23.05491 59.99017 41.52254
# Shear Modulus (GPa) = 16.06186 30.24643 23.15414
#
# Velocity S-wave (km/s) = 2.80856 3.85409 3.37209
# Velocity P-wave (km/s) = 4.67328 7.01901 5.96264
#
# Compressibility (1/GPa) = 0.04337471
#
# Stress axis : x y z
#
# Youngs Moduli (GPa) = 29.69697 53.18727 137.17904
#
# Poissons Ratio (x) = -0.20166 1.48696
# Poissons Ratio (y) = -0.11260 0.15733
# Poissons Ratio (z) = 0.32190 0.06100
#
# Static dielectric constant tensor:
#      x y z
#    x 1.671090 -0.000010 0.003730 
#    y -0.000010 1.768250 -0.000010 
#    z 0.003730 -0.000010 1.796290 
# 
# From -- ./inp_files/280246.got.cif
#   From: 2010.05.17/outbox.cif.g08.bks.cpg/sg12_141_cif.got.tgz:280246.got - 2010.06.03 13:09:07.
