data_PCOD9223637
_publ_section_title
;
Structure prediction by ZEFSAII (Michael W. Deem and Ramdas Pophale) SiO2 
 PCOD9223637
Probable space group: C 2/M
;
_chemical_formula_sum "Si O2"
_cell_formula_units_Z 32
_cell_length_a 18.000000
_cell_length_b 21.000000
_cell_length_c 27.000000
_cell_angle_alpha 90.000000
_cell_angle_beta 20.000000
_cell_angle_gamma 90.000000
_cell_volume 3490.657583
_symmetry_space_group_name_H-M "C 2/M"
_symmetry_group_IT_number 12
_symmetry_cell_setting 'monoclinic'
loop_
_space_group_symop_operation_xyz
x,y,z
-x,y,-z
-x,-y,-z
x,-y,z
1/2+x,1/2+y,z
1/2-x,1/2+y,-z
1/2-x,1/2-y,-z
1/2+x,1/2-y,z
loop_
_atom_site_type_symbol
_atom_site_label
_atom_site_fract_x
_atom_site_fract_y
_atom_site_fract_z
Si Si1 0.638287 0.800276 0.652802
Si Si2 0.900683 0.844931 0.899593
Si Si3 0.265413 0.686205 0.158268
Si Si4 0.053775 0.849733 0.694355
Si Si5 0.399025 0.571209 0.143383
Si Si6 0.440758 0.928446 0.484202
Si Si7 0.088576 0.190280 0.317703
Si Si8 0.588179 0.793676 0.796139
O O1 0.402938 0.825842 0.781337
O O2 0.616971 0.724222 0.660060
O O3 0.678804 0.812025 0.685339
O O4 0.845909 0.820238 0.490674
O O5 0.955587 0.867649 0.809498
O O6 0.940732 0.897131 0.916741
O O7 0.051238 0.783415 0.819586
O O8 0.654517 0.821223 0.050706
O O9 0.342194 0.622003 0.136625
O O10 0.131011 0.735738 0.276174
O O11 0.500000 0.719025 0.000000
O O12 0.271806 0.891018 0.556191
O O13 0.906008 0.849693 0.737357
O O14 0.467539 0.500000 0.084995
O O15 0.169118 0.565980 0.314754
O O16 0.500000 0.896778 0.500000
O O17 0.353996 0.000000 0.548767
O O18 0.264069 0.181196 0.251479
#
# Coordination Sequence:
#
# PCOD9223637 Si02
#       8
#     8   8   8   8   8   8   8   8
#     4  10  21  35  52  81 109 148 185 229 279 326
#     4  10  20  34  50  79 109 143 183 226 274 342
#     4  11  22  36  54  78 119 146 181 231 280 339
#     4  10  20  30  52  79 111 142 181 223 275 335
#     4  11  21  35  56  80 111 149 183 227 283 337
#     4  10  19  32  52  80 110 145 181 222 277 332
#     4  11  21  34  56  79 111 146 188 230 277 331
#     4  10  21  34  55  75 107 146 186 226 281 322
#
# _framework density 9.1673270000000002
#
# number of rings (size 3 to 8) (size 9 to 14) (size 15 to 20)
#    0.000    1.625    2.500    4.125    5.250    0.250 
#    0.000    0.000    0.000    0.750    0.000    1.750 
#    0.000    6.000    0.000    0.000    0.000    0.000 
#
# Total GULP energy -178335.441492 kJ/mol
# GULP energy per Si atom -5572.982547 kJ/mol
# Density = 0.914646 g / cm^3
# Si number density = 9.167327 Si / 1000 Ang^3
#
#
#
# Elastic Constant Matrix: (Units=GPa)
#
#
# Indices 1 2 3 4 5 6 
#
# 1 150.6314 46.0318 21.4521 -0.0283 -32.4801 -0.0124
# 2 46.0318 41.4224 6.7423 0.0128 -8.5841 -0.0112
# 3 21.4521 6.7423 57.2120 0.0434 -10.9066 -0.0708
# 4 -0.0283 0.0128 0.0434 44.8221 0.0037 -21.3965
# 5 -32.4801 -8.5841 -10.9066 0.0037 25.9670 -0.0207
# 6 -0.0124 -0.0112 -0.0708 -21.3965 -0.0207 33.0115
#
#
#
# Elastic Compliance Matrix: (Units=1/GPa)
#
#
# Indices 1 2 3 4 5 6 
#
# 1 0.012944 -0.011741 -0.001221 0.000021 0.011797 0.000019
# 2 -0.011741 0.036693 -0.000445 -0.000021 -0.002743 -0.000008
# 3 -0.001221 -0.000445 0.019208 0.000002 0.006393 0.000046
# 4 0.000021 -0.000021 0.000002 0.032306 0.000032 0.020939
# 5 0.011797 -0.002743 0.006393 0.000032 0.055045 0.000072
# 6 0.000019 -0.000008 0.000046 0.020939 0.000072 0.043864
#
#
# Mechanical properties :
#
#
# Convention : Reuss Voigt Hill
#
# Bulk Modulus (GPa) = 23.79160 44.19091 33.99125
# Shear Modulus (GPa) = 20.75674 32.42945 26.59309
#
# Velocity S-wave (km/s) = 3.36833 4.21022 3.81258
# Velocity P-wave (km/s) = 5.30396 6.91298 6.16122
#
# Compressibility (1/GPa) = 0.04203164
#
# Stress axis : x y z
#
# Youngs Moduli (GPa) = 77.25353 27.25289 52.06181
#
# Poissons Ratio (x) = 0.31999 0.06357
# Poissons Ratio (y) = 0.90706 0.02315
# Poissons Ratio (z) = 0.09433 0.01212
#
# Static dielectric constant tensor:
#      x y z
#    x 1.678490 0.000010 0.059790 
#    y 0.000010 1.637270 0.000090 
#    z 0.059790 0.000090 1.716150 
# 
# From -- ./inp_files/364765.got.cif
#   From: 2010.05.17/outbox.ucp.g08.bks.cvg/sg12_183_cif.got.tgz:364765.got - 2010.06.11 11:47:21.
