data_PCOD9223418
_publ_section_title
;
Structure prediction by ZEFSAII (Michael W. Deem and Ramdas Pophale) SiO2 
 PCOD9223418
Probable space group: C 2/M
;
_chemical_formula_sum "Si O2"
_cell_formula_units_Z 32
_cell_length_a 27.000000
_cell_length_b 9.000000
_cell_length_c 15.000000
_cell_angle_alpha 90.000000
_cell_angle_beta 70.000000
_cell_angle_gamma 90.000000
_cell_volume 3425.179603
_symmetry_space_group_name_H-M "C 2/M"
_symmetry_group_IT_number 12
_symmetry_cell_setting 'monoclinic'
loop_
_space_group_symop_operation_xyz
x,y,z
-x,y,-z
-x,-y,-z
x,-y,z
1/2+x,1/2+y,z
1/2-x,1/2+y,-z
1/2-x,1/2-y,-z
1/2+x,1/2-y,z
loop_
_atom_site_type_symbol
_atom_site_label
_atom_site_fract_x
_atom_site_fract_y
_atom_site_fract_z
Si Si1 0.688957 0.672614 0.842022
Si Si2 0.509640 0.320751 0.156206
Si Si3 0.601866 0.821068 0.770266
Si Si4 0.386957 0.669964 0.618247
Si Si5 0.910239 0.823680 0.414889
Si Si6 0.482377 0.822154 0.653576
Si Si7 0.200466 0.826236 0.178727
Si Si8 0.874067 0.827881 0.935297
O O1 0.694046 0.500000 0.810679
O O2 0.651800 0.760573 0.795147
O O3 0.745944 0.741642 0.829883
O O4 0.657884 0.676389 0.954405
O O5 0.502855 0.500000 0.154491
O O6 0.454666 0.244924 0.160224
O O7 0.519328 0.263204 0.250880
O O8 0.566325 0.274158 0.080623
O O9 0.605131 0.759055 0.666567
O O10 0.600011 0.000000 0.772036
O O11 0.408385 0.500000 0.611195
O O12 0.372930 0.694272 0.523435
O O13 0.430963 0.779503 0.629951
O O14 0.336735 0.678251 0.712270
O O15 0.964255 0.749110 0.417263
O O16 0.917241 0.000000 0.392078
O O17 0.487190 0.000000 0.661156
O O18 0.163651 0.764392 0.120012
O O19 0.213182 0.000000 0.150072
O O20 0.882373 0.000000 0.901426
#
# Coordination Sequence:
#
# PCOD9223418 Si02
#       8
#     8   8   8   8   8   8   8   8
#     4  11  23  40  60  85 111 150 197 237 280 340
#     4  10  18  35  60  85 115 153 188 231 283 340
#     4  11  23  40  58  82 116 154 190 237 286 334
#     4  10  20  35  57  82 113 150 190 229 280 340
#     4  10  20  35  57  83 110 149 192 233 277 336
#     4  11  20  30  49  82 121 154 184 227 280 335
#     4  10  20  39  61  86 117 149 185 234 287 337
#     4   9  19  36  62  88 116 148 186 231 287 341
#
# _framework density 9.3425759999999993
#
# number of rings (size 3 to 8) (size 9 to 14) (size 15 to 20)
#    0.000    1.750    1.250    5.625    0.000    3.500 
#    0.000    6.250    0.000    0.000    0.000    0.000 
#    0.000    0.000    0.000    0.000    0.000    0.000 
#
# Total GULP energy -178391.705802 kJ/mol
# GULP energy per Si atom -5574.740806 kJ/mol
# Density = 0.932131 g / cm^3
# Si number density = 9.342576 Si / 1000 Ang^3
#
#
#
# Elastic Constant Matrix: (Units=GPa)
#
#
# Indices 1 2 3 4 5 6 
#
# 1 45.6873 22.4860 9.1712 0.0000 27.6758 0.0000
# 2 22.4860 107.2309 14.8621 0.0000 9.2182 0.0000
# 3 9.1712 14.8621 41.2254 0.0000 2.4564 0.0000
# 4 0.0000 0.0000 0.0000 7.9102 0.0000 4.1757
# 5 27.6758 9.2182 2.4564 0.0000 8.8251 0.0000
# 6 0.0000 0.0000 0.0000 4.1757 0.0000 35.6935
#
#
#
# Elastic Compliance Matrix: (Units=1/GPa)
#
#
# Indices 1 2 3 4 5 6 
#
# 1 -0.024003 -0.001756 0.001402 0.000000 0.076719 0.000000
# 2 -0.001756 0.010524 -0.003128 0.000000 -0.004615 0.000000
# 3 0.001402 -0.003128 0.025564 0.000000 -0.008244 0.000000
# 4 0.000000 0.000000 0.000000 0.134740 0.000000 -0.015763
# 5 0.076719 -0.004615 -0.008244 0.000000 -0.120167 0.000000
# 6 0.000000 0.000000 0.000000 -0.015763 0.000000 0.029860
#
#
# Mechanical properties :
#
#
# Convention : Reuss Voigt Hill
#
# Bulk Modulus (GPa) = 195.33131 31.90913 113.62022
# Shear Modulus (GPa) = 76.69816 20.32737 48.51276
#
# Velocity S-wave (km/s) = 6.41379 3.30189 5.10094
# Velocity P-wave (km/s) = 12.63385 5.62592 9.77919
#
# Compressibility (1/GPa) = 0.00511951
#
# Stress axis : x y z
#
# Youngs Moduli (GPa) = -41.66123 95.01857 39.11738
#
# Poissons Ratio (x) = 0.16687 -0.05483
# Poissons Ratio (y) = -0.07316 0.12238
# Poissons Ratio (z) = 0.05840 0.29726
#
# Static dielectric constant tensor:
#      x y z
#    x 1.642890 0.000000 -0.034110 
#    y 0.000000 1.656110 0.000000 
#    z -0.034110 0.000000 1.705900 
# 
# From -- ./inp_files/243749.got.cif
#   From: 2010.05.17/outbox.ucp.g08.bks.cvg/sg12_122_cif.got.tgz:243749.got - 2010.06.11 11:47:21.
