data_PCOD9223441
_publ_section_title
;
Structure prediction by ZEFSAII (Michael W. Deem and Ramdas Pophale) SiO2 
 PCOD9223441
Probable space group: C 2/M
;
_chemical_formula_sum "Si O2"
_cell_formula_units_Z 16
_cell_length_a 12.000000
_cell_length_b 18.000000
_cell_length_c 15.000000
_cell_angle_alpha 90.000000
_cell_angle_beta 150.000000
_cell_angle_gamma 90.000000
_cell_volume 1620.000000
_symmetry_space_group_name_H-M "C 2/M"
_symmetry_group_IT_number 12
_symmetry_cell_setting 'monoclinic'
loop_
_space_group_symop_operation_xyz
x,y,z
-x,y,-z
-x,-y,-z
x,-y,z
1/2+x,1/2+y,z
1/2-x,1/2+y,-z
1/2-x,1/2-y,-z
1/2+x,1/2-y,z
loop_
_atom_site_type_symbol
_atom_site_label
_atom_site_fract_x
_atom_site_fract_y
_atom_site_fract_z
Si Si1 0.537072 0.000000 0.917014
Si Si2 0.887337 0.882907 0.201847
Si Si3 0.260439 0.652107 0.708623
Si Si4 0.386884 0.000000 0.324770
Si Si5 0.187093 0.000000 0.514157
Si Si6 0.500000 0.770651 0.000000
O O1 0.313428 0.000000 0.699755
O O2 0.500000 0.000000 0.000000
O O3 0.706680 0.068287 0.020886
O O4 0.715964 0.820383 0.120018
O O5 0.087358 0.861556 0.273459
O O6 0.022707 0.930714 0.372177
O O7 0.247459 0.577854 0.762806
O O8 0.000000 0.668178 0.500000
O O9 0.389236 0.717693 0.848782
O O10 0.500000 0.000000 0.500000
O O11 0.591289 0.000000 0.396092
#
# Coordination Sequence:
#
# PCOD9223441 Si02
#       6
#     4   8   8   4   4   4
#     4  11  25  46  73 108 134 181 242 301 343 413
#     4  11  24  47  65 107 144 177 242 282 349 430
#     4  11  24  44  70 100 143 184 234 294 346 409
#     4  10  18  44  70 108 128 174 245 290 344 401
#     4  11  23  43  84  97 137 191 225 307 353 393
#     4  12  28  42  66 102 150 196 224 282 344 430
#
# _framework density 9.8765429999999999
#
# number of rings (size 3 to 8) (size 9 to 14) (size 15 to 20)
#    0.000    1.000    6.250    1.500    3.500    5.500 
#    0.000    0.000    0.000    0.000    0.000    0.000 
#    0.000    0.000    0.000    0.000    0.000    0.000 
#
# Total GULP energy -89124.731273 kJ/mol
# GULP energy per Si atom -5570.295705 kJ/mol
# Density = 0.985406 g / cm^3
# Si number density = 9.876543 Si / 1000 Ang^3
#
#
#
# Elastic Constant Matrix: (Units=GPa)
#
#
# Indices 1 2 3 4 5 6 
#
# 1 137.5237 55.2878 60.6736 -0.0032 27.9182 -0.0038
# 2 55.2878 118.3567 71.2556 0.0238 5.4844 0.0240
# 3 60.6736 71.2556 199.2087 -0.0098 8.0091 0.0001
# 4 -0.0032 0.0238 -0.0098 26.8676 -0.0005 -3.9649
# 5 27.9182 5.4844 8.0091 -0.0005 46.0275 0.0030
# 6 -0.0038 0.0240 0.0001 -3.9649 0.0030 11.9221
#
#
#
# Elastic Compliance Matrix: (Units=1/GPa)
#
#
# Indices 1 2 3 4 5 6 
#
# 1 0.010671 -0.003697 -0.001697 0.000006 -0.005737 0.000014
# 2 -0.003697 0.012066 -0.003245 -0.000017 0.001370 -0.000031
# 3 -0.001697 -0.003245 0.006687 0.000006 0.000252 0.000008
# 4 0.000006 -0.000017 0.000006 0.039141 -0.000003 0.013017
# 5 -0.005737 0.001370 0.000252 -0.000003 0.024999 -0.000012
# 6 0.000014 -0.000031 0.000008 0.013017 -0.000012 0.088207
#
#
# Mechanical properties :
#
#
# Convention : Reuss Voigt Hill
#
# Bulk Modulus (GPa) = 82.33052 92.16922 87.24987
# Shear Modulus (GPa) = 24.61865 34.82159 29.72012
#
# Velocity S-wave (km/s) = 3.53415 4.20318 3.88310
# Velocity P-wave (km/s) = 7.64356 8.38556 8.02314
#
# Compressibility (1/GPa) = 0.01214616
#
# Stress axis : x y z
#
# Youngs Moduli (GPa) = 93.71018 82.87523 149.53734
#
# Poissons Ratio (x) = 0.30642 0.25377
# Poissons Ratio (y) = 0.34648 0.48525
# Poissons Ratio (z) = 0.15903 0.26893
#
# Static dielectric constant tensor:
#      x y z
#    x 1.755230 0.000010 -0.006960 
#    y 0.000010 1.805990 0.000000 
#    z -0.006960 0.000000 1.673740 
# 
# From -- ./inp_files/132846.got.cif
#   From: 2010.05.17/outbox.ucp.g08.bks.cvg/sg12_67_cif.got.tgz:132846.got - 2010.06.11 11:47:21.
