data_PCOD9223326
_publ_section_title
;
Structure prediction by ZEFSAII (Michael W. Deem and Ramdas Pophale) SiO2 
 PCOD9223326
Probable space group: C 2/M
;
_chemical_formula_sum "Si O2"
_cell_formula_units_Z 32
_cell_length_a 24.000000
_cell_length_b 9.000000
_cell_length_c 30.000000
_cell_angle_alpha 90.000000
_cell_angle_beta 30.000000
_cell_angle_gamma 90.000000
_cell_volume 3240.000000
_symmetry_space_group_name_H-M "C 2/M"
_symmetry_group_IT_number 12
_symmetry_cell_setting 'monoclinic'
loop_
_space_group_symop_operation_xyz
x,y,z
-x,y,-z
-x,-y,-z
x,-y,z
1/2+x,1/2+y,z
1/2-x,1/2+y,-z
1/2-x,1/2-y,-z
1/2+x,1/2-y,z
loop_
_atom_site_type_symbol
_atom_site_label
_atom_site_fract_x
_atom_site_fract_y
_atom_site_fract_z
Si Si1 0.885308 0.327303 0.598539
Si Si2 0.691753 0.667934 0.659142
Si Si3 0.528560 0.174157 0.075324
Si Si4 0.908848 0.675157 0.775790
Si Si5 0.967638 0.671720 0.832503
Si Si6 0.666156 0.827148 0.590532
Si Si7 0.698725 0.176610 0.881732
Si Si8 0.196929 0.177553 0.789177
O O1 0.912435 0.500000 0.591089
O O2 0.789134 0.326546 0.627765
O O3 0.816161 0.264168 0.688194
O O4 0.000000 0.260738 0.500000
O O5 0.689258 0.500000 0.642759
O O6 0.569258 0.713218 0.760289
O O7 0.711890 0.787495 0.607290
O O8 0.589789 0.188621 0.080273
O O9 0.411115 0.256190 0.159818
O O10 0.504667 0.000000 0.084474
O O11 0.607284 0.224621 0.981261
O O12 0.893991 0.500000 0.773886
O O13 0.896044 0.688056 0.837970
O O14 0.820603 0.780063 0.814121
O O15 0.036724 0.719995 0.677479
O O16 0.012157 0.500000 0.799789
O O17 0.750000 0.750000 0.500000
O O18 0.665531 0.000000 0.582797
O O19 0.680401 0.269389 0.850366
O O20 0.688197 0.000000 0.881574
O O21 0.197086 0.000000 0.784201
#
# Coordination Sequence:
#
# PCOD9223326 Si02
#       8
#     8   8   8   8   8   8   8   8
#     4   9  19  35  55  82 113 144 182 231 288 341
#     4  10  18  32  55  82 110 143 187 235 284 339
#     4  10  21  38  60  84 115 153 193 239 295 349
#     4   9  20  38  57  81 114 150 188 236 291 342
#     4   9  18  35  59  82 110 148 187 233 289 343
#     4  10  21  37  58  84 113 149 192 235 287 345
#     4  11  24  39  56  83 118 157 194 237 294 351
#     4  11  22  38  60  85 113 151 198 242 287 347
#
# _framework density 9.8765429999999999
#
# number of rings (size 3 to 8) (size 9 to 14) (size 15 to 20)
#    0.000    2.125    1.250    2.625    0.000    6.500 
#    0.000    2.500    0.000    5.250    0.000    0.000 
#    0.000    0.000    0.000    0.000    0.000    0.000 
#
# Total GULP energy -178205.513553 kJ/mol
# GULP energy per Si atom -5568.922299 kJ/mol
# Density = 0.985406 g / cm^3
# Si number density = 9.876543 Si / 1000 Ang^3
#
#
#
# Elastic Constant Matrix: (Units=GPa)
#
#
# Indices 1 2 3 4 5 6 
#
# 1 21.1158 -0.1167 -14.3245 0.0000 11.4572 0.0008
# 2 -0.1167 5.3058 13.9698 0.0004 -4.9170 0.0024
# 3 -14.3245 13.9698 0.7218 -0.0006 31.6993 0.0009
# 4 0.0000 0.0004 -0.0006 20.7674 0.0001 -7.4780
# 5 11.4572 -4.9170 31.6993 0.0001 21.7842 -0.0004
# 6 0.0008 0.0024 0.0009 -7.4780 -0.0004 15.0332
#
#
#
# Elastic Compliance Matrix: (Units=1/GPa)
#
#
# Indices 1 2 3 4 5 6 
#
# 1 0.038366 0.032696 -0.010979 -0.000004 0.003178 -0.000009
# 2 0.032696 0.099169 0.023818 -0.000010 -0.029471 -0.000025
# 3 -0.010979 0.023818 -0.003448 -0.000002 0.016167 -0.000004
# 4 -0.000004 -0.000010 -0.000002 0.058659 0.000003 0.029179
# 5 0.003178 -0.029471 0.016167 0.000003 0.014056 0.000005
# 6 -0.000009 -0.000025 -0.000004 0.029179 0.000005 0.081034
#
#
# Mechanical properties :
#
#
# Convention : Reuss Voigt Hill
#
# Bulk Modulus (GPa) = 4.44133 2.91119 3.67626
# Shear Modulus (GPa) = 18.39455 13.35796 15.87625
#
# Velocity S-wave (km/s) = 3.05491 2.60330 2.83810
# Velocity P-wave (km/s) = 3.83361 3.24240 3.55034
#
# Compressibility (1/GPa) = 0.22515782
#
# Stress axis : x y z
#
# Youngs Moduli (GPa) = 26.06465 10.08375 -290.05925
#
# Poissons Ratio (x) = -0.32970 -3.18462
# Poissons Ratio (y) = -0.85222 6.90859
# Poissons Ratio (z) = 0.28617 -0.24017
#
# Static dielectric constant tensor:
#      x y z
#    x 1.694570 0.000000 0.069490 
#    y 0.000000 1.664480 0.000000 
#    z 0.069490 0.000000 1.750120 
# 
# From -- ./inp_files/382397.got.cif
#   From: 2010.05.17/outbox.ucp.g08.bks.cvg/sg12_192_cif.got.tgz:382397.got - 2010.06.11 11:47:21.
