data_PCOD9223016
_publ_section_title
;
Structure prediction by ZEFSAII (Michael W. Deem and Ramdas Pophale) SiO2 
 PCOD9223016
Probable space group: C 2/M
;
_chemical_formula_sum "Si O2"
_cell_formula_units_Z 40
_cell_length_a 14.239143
_cell_length_b 17.391153
_cell_length_c 6.862365
_cell_angle_alpha 90.000000
_cell_angle_beta 118.092026
_cell_angle_gamma 90.000000
_cell_volume 1499.164736
_symmetry_space_group_name_H-M "C 2/M"
_symmetry_group_IT_number 12
_symmetry_cell_setting 'monoclinic'
loop_
_space_group_symop_operation_xyz
x,y,z
-x,y,-z
-x,-y,-z
x,-y,z
1/2+x,1/2+y,z
1/2-x,1/2+y,-z
1/2-x,1/2-y,-z
1/2+x,1/2-y,z
loop_
_atom_site_type_symbol
_atom_site_label
_atom_site_fract_x
_atom_site_fract_y
_atom_site_fract_z
Si Si1 0.338687 0.250644 0.282870
Si Si2 0.899161 0.258672 0.783495
Si Si3 0.615120 0.915658 0.715380
Si Si4 0.883185 0.083923 0.293250
Si Si5 0.322472 0.080648 0.639497
O O1 0.216970 0.241489 0.238647
O O2 0.399413 0.259851 0.551408
O O3 0.371647 0.172532 0.200534
O O4 0.359959 0.330493 0.189748
O O5 0.896593 0.351163 0.777975
O O6 0.000000 0.228575 0.000000
O O7 0.500000 0.917706 0.500000
O O8 0.694748 0.914928 0.608340
O O9 0.629719 0.000000 0.829279
O O10 0.789839 0.082162 0.363590
O O11 0.000000 0.084301 0.500000
O O12 0.874275 0.000000 0.178001
O O13 0.376847 0.000000 0.731198
#
# Coordination Sequence:
#
# PCOD9223016 Si02
#       5
#     8   8   8   8   8
#     4   9  17  30  48  69  95 124 155 193 232 275
#     4   9  17  29  47  71  95 122 158 194 231 278
#     4   9  16  27  47  72  95 123 157 191 231 277
#     4   9  16  27  47  72  95 123 157 191 231 277
#     4   8  15  27  43  68  96 120 154 196 234 276
#
# _framework density 26.681524
#
# number of rings (size 3 to 8) (size 9 to 14) (size 15 to 20)
#    0.000    3.200    0.000    1.800    0.000    0.400 
#    0.000    0.000    0.000   21.600    0.000   22.400 
#    0.000    0.000    0.000    0.000    0.000    0.000 
#
# Total GULP energy -111615.499648 kJ/mol
# GULP energy per Si atom -5580.774982 kJ/mol
# Density = 2.662080 g / cm^3
# Si number density = 26.681524 Si / 1000 Ang^3
#
#
#
# Elastic Constant Matrix: (Units=GPa)
#
#
# Indices 1 2 3 4 5 6 
#
# 1 82.5602 38.2812 27.9985 0.0000 11.4470 0.0000
# 2 38.2812 273.3096 17.8002 0.0000 -5.8706 0.0000
# 3 27.9985 17.8002 138.7730 0.0000 5.4591 0.0000
# 4 0.0000 0.0000 0.0000 -2.7347 0.0000 9.5232
# 5 11.4470 -5.8706 5.4591 0.0000 37.4910 0.0000
# 6 0.0000 0.0000 0.0000 9.5232 0.0000 14.2793
#
#
#
# Elastic Compliance Matrix: (Units=1/GPa)
#
#
# Indices 1 2 3 4 5 6 
#
# 1 0.014472 -0.001958 -0.002497 0.000000 -0.004362 0.000000
# 2 -0.001958 0.003970 -0.000163 0.000000 0.001243 0.000000
# 3 -0.002497 -0.000163 0.007746 0.000000 -0.000391 0.000000
# 4 0.000000 0.000000 0.000000 -0.110060 0.000000 0.073402
# 5 -0.004362 0.001243 -0.000391 0.000000 0.028256 0.000000
# 6 0.000000 0.000000 0.000000 0.073402 0.000000 0.021078
#
#
# Mechanical properties :
#
#
# Convention : Reuss Voigt Hill
#
# Bulk Modulus (GPa) = 58.99052 73.64474 66.31763
# Shear Modulus (GPa) = -254.45548 37.17798 -108.63875
#
# Velocity S-wave (km/s) = -9.77623 3.73687 -6.38790
# Velocity P-wave (km/s) = 10.26040 6.80296 5.43118
#
# Compressibility (1/GPa) = 0.01695188
#
# Stress axis : x y z
#
# Youngs Moduli (GPa) = 69.09970 251.86115 129.09685
#
# Poissons Ratio (x) = 0.49316 0.32236
# Poissons Ratio (y) = 0.13530 0.02106
# Poissons Ratio (z) = 0.17255 0.04109
#
# Static dielectric constant tensor:
#      x y z
#    x 2.109100 0.000000 -0.006120 
#    y 0.000000 2.222640 0.000000 
#    z -0.006120 0.000000 2.059220 
# 
# From -- ./inp_files/158067.got.cif
#   From: 2010.05.17/outbox.cif.g08.bks.cpg/sg12_80_cif.got.tgz:158067.got - 2010.06.03 13:09:07.
