data_PCOD9223197
_publ_section_title
;
Structure prediction by ZEFSAII (Michael W. Deem and Ramdas Pophale) SiO2 
 PCOD9223197
Probable space group: C 2/M
;
_chemical_formula_sum "Si O2"
_cell_formula_units_Z 32
_cell_length_a 24.000000
_cell_length_b 9.000000
_cell_length_c 21.000000
_cell_angle_alpha 90.000000
_cell_angle_beta 50.000000
_cell_angle_gamma 90.000000
_cell_volume 3474.777594
_symmetry_space_group_name_H-M "C 2/M"
_symmetry_group_IT_number 12
_symmetry_cell_setting 'monoclinic'
loop_
_space_group_symop_operation_xyz
x,y,z
-x,y,-z
-x,-y,-z
x,-y,z
1/2+x,1/2+y,z
1/2-x,1/2+y,-z
1/2-x,1/2-y,-z
1/2+x,1/2-y,z
loop_
_atom_site_type_symbol
_atom_site_label
_atom_site_fract_x
_atom_site_fract_y
_atom_site_fract_z
Si Si1 0.067194 0.820796 0.041591
Si Si2 0.649452 0.821710 0.386809
Si Si3 0.394617 0.822044 0.714955
Si Si4 0.902405 0.819831 0.120354
Si Si5 0.955339 0.824748 0.440145
Si Si6 0.579638 0.322534 0.673886
Si Si7 0.695469 0.680953 0.692046
Si Si8 0.427668 0.821965 0.827923
O O1 0.091997 0.749053 0.089620
O O2 0.982292 0.783412 0.089698
O O3 0.072195 0.000000 0.043643
O O4 0.105778 0.772621 0.947172
O O5 0.658728 0.788813 0.304638
O O6 0.581718 0.746755 0.471368
O O7 0.721776 0.770185 0.369423
O O8 0.641227 0.000000 0.398499
O O9 0.468706 0.748407 0.635560
O O10 0.381496 0.778115 0.798187
O O11 0.404167 0.000000 0.709422
O O12 0.843656 0.767837 0.214390
O O13 0.900274 0.000000 0.120133
O O14 0.908569 0.800035 0.409862
O O15 0.964656 0.000000 0.442834
O O16 0.566079 0.500000 0.693544
O O17 0.647334 0.276473 0.667160
O O18 0.508482 0.235884 0.750446
O O19 0.696137 0.500000 0.693512
O O20 0.426868 0.000000 0.834455
#
# Coordination Sequence:
#
# PCOD9223197 Si02
#       8
#     8   8   8   8   8   8   8   8
#     4   9  15  26  47  72  95 119 149 187 228 267
#     4  10  20  33  50  68  88 122 160 192 227 269
#     4   9  19  34  49  67  91 120 158 196 227 264
#     4   8  14  25  46  72  94 118 150 188 222 263
#     4  10  20  32  49  72  94 117 149 194 240 275
#     4   9  17  31  49  68  92 121 152 187 228 275
#     4   9  16  29  50  70  90 120 158 190 219 268
#     4  10  18  28  45  69  96 122 149 188 232 272
#
# _framework density 9.2092220000000005
#
# number of rings (size 3 to 8) (size 9 to 14) (size 15 to 20)
#    0.000    2.750    1.250    1.875    0.000    3.500 
#    0.000    1.875    0.000    0.750    0.000    0.000 
#    0.000    0.000    0.000    0.000    0.000    0.375 
#
# Total GULP energy -178185.447062 kJ/mol
# GULP energy per Si atom -5568.295221 kJ/mol
# Density = 0.918826 g / cm^3
# Si number density = 9.209222 Si / 1000 Ang^3
#
#
#
# Elastic Constant Matrix: (Units=GPa)
#
#
# Indices 1 2 3 4 5 6 
#
# 1 61.7568 13.2856 9.8447 0.0003 23.9224 -0.0002
# 2 13.2856 3.1128 0.8222 0.0000 10.6626 -0.0003
# 3 9.8447 0.8222 38.2758 0.0003 24.9660 -0.0002
# 4 0.0003 0.0000 0.0003 18.1606 -0.0001 10.8302
# 5 23.9224 10.6626 24.9660 -0.0001 33.0555 0.0001
# 6 -0.0002 -0.0003 -0.0002 10.8302 0.0001 16.4157
#
#
#
# Elastic Compliance Matrix: (Units=1/GPa)
#
#
# Indices 1 2 3 4 5 6 
#
# 1 0.023232 0.019292 0.017021 -0.000003 -0.035892 0.000003
# 2 0.019292 -0.315203 -0.109199 0.000013 0.170188 -0.000016
# 3 0.017021 -0.109199 0.018041 0.000001 0.009279 -0.000002
# 4 -0.000003 0.000013 0.000001 0.090782 -0.000003 -0.059893
# 5 -0.035892 0.170188 0.009279 -0.000003 -0.005678 0.000005
# 6 0.000003 -0.000016 -0.000002 -0.059893 0.000005 0.100431
#
#
# Mechanical properties :
#
#
# Convention : Reuss Voigt Hill
#
# Bulk Modulus (GPa) = -2.38265 16.78336 7.20036
# Shear Modulus (GPa) = -60.58925 18.80589 -20.89168
#
# Velocity S-wave (km/s) = -5.74172 3.19883 -3.37156
# Velocity P-wave (km/s) = 6.72703 4.77236 3.35243
#
# Compressibility (1/GPa) = -0.41970148
#
# Stress axis : x y z
#
# Youngs Moduli (GPa) = 43.04346 -3.17256 55.42840
#
# Poissons Ratio (x) = 0.06120 -0.94346
# Poissons Ratio (y) = -0.83037 6.05271
# Poissons Ratio (z) = -0.73265 -0.34644
#
# Static dielectric constant tensor:
#      x y z
#    x 1.694240 0.000000 0.027670 
#    y 0.000000 1.614330 0.000000 
#    z 0.027670 0.000000 1.625020 
# 
# From -- ./inp_files/324167.got.cif
#   From: 2010.05.17/outbox.ucp.g08.bks.cvg/sg12_163_cif.got.tgz:324167.got - 2010.06.11 11:47:21.
