data_PCOD9223791
_publ_section_title
;
Structure prediction by ZEFSAII (Michael W. Deem and Ramdas Pophale) SiO2 
 PCOD9223791
Probable space group: C 2/M
;
_chemical_formula_sum "Si O2"
_cell_formula_units_Z 32
_cell_length_a 15.000000
_cell_length_b 9.000000
_cell_length_c 27.000000
_cell_angle_alpha 90.000000
_cell_angle_beta 100.000000
_cell_angle_gamma 90.000000
_cell_volume 3589.624260
_symmetry_space_group_name_H-M "C 2/M"
_symmetry_group_IT_number 12
_symmetry_cell_setting 'monoclinic'
loop_
_space_group_symop_operation_xyz
x,y,z
-x,y,-z
-x,-y,-z
x,-y,z
1/2+x,1/2+y,z
1/2-x,1/2+y,-z
1/2-x,1/2-y,-z
1/2+x,1/2-y,z
loop_
_atom_site_type_symbol
_atom_site_label
_atom_site_fract_x
_atom_site_fract_y
_atom_site_fract_z
Si Si1 0.661529 0.177982 0.287007
Si Si2 0.043896 0.321566 0.374255
Si Si3 0.684579 0.179174 0.101493
Si Si4 0.897209 0.670674 0.009694
Si Si5 0.424947 0.321156 0.819664
Si Si6 0.109953 0.822975 0.884353
Si Si7 0.287870 0.321729 0.554202
Si Si8 0.170432 0.678501 0.641488
O O1 0.589711 0.207859 0.324831
O O2 0.621857 0.248346 0.232829
O O3 0.759231 0.244399 0.313336
O O4 0.669703 0.000000 0.282396
O O5 0.047037 0.500000 0.382937
O O6 0.114176 0.243883 0.419321
O O7 0.936747 0.277562 0.366326
O O8 0.662776 0.225675 0.042597
O O9 0.624103 0.264272 0.135265
O O10 0.788957 0.208550 0.124146
O O11 0.667488 0.000000 0.102312
O O12 0.870308 0.500000 0.016741
O O13 0.896210 0.755830 0.061243
O O14 0.000000 0.672403 0.000000
O O15 0.419661 0.500000 0.815024
O O16 0.529841 0.275650 0.839595
O O17 0.101368 0.000000 0.888815
O O18 0.295053 0.500000 0.549645
O O19 0.250000 0.250000 0.500000
O O20 0.216093 0.291291 0.592026
O O21 0.173555 0.500000 0.649806
#
# Coordination Sequence:
#
# PCOD9223791 Si02
#       8
#     8   8   8   8   8   8   8   8
#     4  10  21  37  58  81 106 138 176 225 276 322
#     4   9  19  37  59  82 109 144 187 228 272 325
#     4  10  21  38  56  78 108 139 175 217 265 320
#     4  10  19  33  56  81 106 139 174 214 263 319
#     4  11  23  38  55  78 107 139 176 219 268 321
#     4  10  22  37  55  79 107 139 175 218 265 318
#     4  10  20  34  54  82 118 155 189 230 274 318
#     4   9  19  37  59  82 110 146 187 228 271 322
#
# _framework density 8.9145819999999993
#
# number of rings (size 3 to 8) (size 9 to 14) (size 15 to 20)
#    0.000    2.125    1.250    1.500    0.000    4.750 
#    0.000    5.000    0.000    0.000    0.000    0.000 
#    0.000    0.000    0.000    0.000    0.000    0.000 
#
# Total GULP energy -178513.653673 kJ/mol
# GULP energy per Si atom -5578.551677 kJ/mol
# Density = 0.889429 g / cm^3
# Si number density = 8.914582 Si / 1000 Ang^3
#
#
#
# Elastic Constant Matrix: (Units=GPa)
#
#
# Indices 1 2 3 4 5 6 
#
# 1 133.6865 38.9645 47.6474 0.0000 33.3605 0.0000
# 2 38.9645 39.3983 34.0878 0.0000 14.0023 0.0000
# 3 47.6474 34.0878 112.6182 0.0000 36.7073 0.0000
# 4 0.0000 0.0000 0.0000 35.2780 0.0000 5.1046
# 5 33.3605 14.0023 36.7073 0.0000 30.1462 0.0000
# 6 0.0000 0.0000 0.0000 5.1046 0.0000 27.1857
#
#
#
# Elastic Compliance Matrix: (Units=1/GPa)
#
#
# Indices 1 2 3 4 5 6 
#
# 1 0.012566 -0.009530 0.001091 0.000000 -0.010807 0.000000
# 2 -0.009530 0.042168 -0.009592 0.000000 0.002640 0.000000
# 3 0.001091 -0.009592 0.017016 0.000000 -0.017471 0.000000
# 4 0.000000 0.000000 0.000000 0.029138 0.000000 -0.005471
# 5 -0.010807 0.002640 -0.017471 0.000000 0.065179 0.000000
# 6 0.000000 0.000000 0.000000 -0.005471 0.000000 0.037811
#
#
# Mechanical properties :
#
#
# Convention : Reuss Voigt Hill
#
# Bulk Modulus (GPa) = 28.02136 58.56693 43.29415
# Shear Modulus (GPa) = 19.85408 29.52220 24.68814
#
# Velocity S-wave (km/s) = 3.34064 4.07361 3.72520
# Velocity P-wave (km/s) = 5.53449 7.41930 6.54510
#
# Compressibility (1/GPa) = 0.03568706
#
# Stress axis : x y z
#
# Youngs Moduli (GPa) = 79.57921 23.71462 58.76803
#
# Poissons Ratio (x) = 0.22601 -0.06410
# Poissons Ratio (y) = 0.75843 0.56370
# Poissons Ratio (z) = -0.08680 0.22747
#
# Static dielectric constant tensor:
#      x y z
#    x 1.627130 0.000000 0.003480 
#    y 0.000000 1.607850 0.000000 
#    z 0.003480 0.000000 1.589600 
# 
# From -- ./inp_files/359765.got.cif
#   From: 2010.05.17/outbox.ucp.g08.bks.cvg/sg12_180_cif.got.tgz:359765.got - 2010.06.11 11:47:21.
