data_PCOD9223648
_publ_section_title
;
Structure prediction by ZEFSAII (Michael W. Deem and Ramdas Pophale) SiO2 
 PCOD9223648
Probable space group: C 2/M
;
_chemical_formula_sum "Si O2"
_cell_formula_units_Z 28
_cell_length_a 18.000000
_cell_length_b 9.000000
_cell_length_c 18.000000
_cell_angle_alpha 90.000000
_cell_angle_beta 70.000000
_cell_angle_gamma 90.000000
_cell_volume 2740.143682
_symmetry_space_group_name_H-M "C 2/M"
_symmetry_group_IT_number 12
_symmetry_cell_setting 'monoclinic'
loop_
_space_group_symop_operation_xyz
x,y,z
-x,y,-z
-x,-y,-z
x,-y,z
1/2+x,1/2+y,z
1/2-x,1/2+y,-z
1/2-x,1/2-y,-z
1/2+x,1/2-y,z
loop_
_atom_site_type_symbol
_atom_site_label
_atom_site_fract_x
_atom_site_fract_y
_atom_site_fract_z
Si Si1 0.608964 0.829270 0.362270
Si Si2 0.461508 0.164691 0.933495
Si Si3 0.323552 0.169802 0.511846
Si Si4 0.259329 0.833585 0.805866
Si Si5 0.815371 0.827703 0.928132
Si Si6 0.616201 0.169395 0.782152
Si Si7 0.953861 0.328916 0.341301
O O1 0.639643 0.757066 0.427184
O O2 0.684270 0.839026 0.284252
O O3 0.535675 0.761305 0.342291
O O4 0.582591 0.000000 0.390369
O O5 0.399284 0.287644 0.933716
O O6 0.533143 0.163180 0.852027
O O7 0.422745 0.000000 0.945614
O O8 0.500000 0.186711 0.000000
O O9 0.250000 0.250000 0.500000
O O10 0.394447 0.164347 0.429525
O O11 0.299408 0.000000 0.538537
O O12 0.306099 0.741427 0.850568
O O13 0.178196 0.758482 0.809591
O O14 0.245345 0.000000 0.838872
O O15 0.801103 0.000000 0.930139
O O16 0.750000 0.750000 0.000000
O O17 0.594728 0.239606 0.710105
O O18 0.646959 0.000000 0.762003
O O19 0.972431 0.500000 0.309909
#
# Coordination Sequence:
#
# PCOD9223648 Si02
#       7
#     8   8   8   8   8   8   8
#     4   9  18  33  54  80 108 143 188 234 278 329
#     4  10  21  38  60  85 115 151 188 229 279 332
#     4  10  19  32  53  79 108 143 185 232 280 334
#     4  11  22  37  58  83 114 149 187 232 281 334
#     4  12  25  41  62  87 116 148 186 230 276 330
#     4  10  20  35  56  82 114 150 189 234 284 338
#     4   9  17  31  53  79 107 144 190 235 279 332
#
# _framework density 10.218442
#
# number of rings (size 3 to 8) (size 9 to 14) (size 15 to 20)
#    0.000    1.857    0.000    4.714    0.000    6.000 
#    0.000    0.714    0.000    4.286    0.000    0.000 
#    0.000    0.000    0.000    0.000    0.000    0.000 
#
# Total GULP energy -156156.389948 kJ/mol
# GULP energy per Si atom -5577.013927 kJ/mol
# Density = 1.019518 g / cm^3
# Si number density = 10.218442 Si / 1000 Ang^3
#
#
#
# Elastic Constant Matrix: (Units=GPa)
#
#
# Indices 1 2 3 4 5 6 
#
# 1 -19.4170 20.3867 -21.3152 0.0000 -26.3450 0.0000
# 2 20.3867 70.1428 12.1602 0.0000 7.5345 0.0000
# 3 -21.3152 12.1602 71.5639 0.0000 6.2096 0.0000
# 4 0.0000 0.0000 0.0000 12.2304 0.0000 6.5066
# 5 -26.3450 7.5345 6.2096 0.0000 18.4351 0.0000
# 6 0.0000 0.0000 0.0000 6.5066 0.0000 18.4933
#
#
#
# Elastic Compliance Matrix: (Units=1/GPa)
#
#
# Indices 1 2 3 4 5 6 
#
# 1 -0.013203 0.006604 -0.003279 0.000000 -0.020463 0.000000
# 2 0.006604 0.011910 -0.000467 0.000000 0.004727 0.000000
# 3 -0.003279 -0.000467 0.013872 0.000000 -0.009168 0.000000
# 4 0.000000 0.000000 0.000000 0.100592 0.000000 -0.035392
# 5 -0.020463 0.004727 -0.009168 0.000000 0.026157 0.000000
# 6 0.000000 0.000000 0.000000 -0.035392 0.000000 0.066526
#
#
# Mechanical properties :
#
#
# Convention : Reuss Voigt Hill
#
# Bulk Modulus (GPa) = 54.66127 16.08368 35.37248
# Shear Modulus (GPa) = 24.24404 17.23564 20.73984
#
# Velocity S-wave (km/s) = 3.44799 2.90722 3.18909
# Velocity P-wave (km/s) = 6.53115 4.37678 5.55932
#
# Compressibility (1/GPa) = 0.01829449
#
# Stress axis : x y z
#
# Youngs Moduli (GPa) = -75.73828 83.96050 72.08941
#
# Poissons Ratio (x) = -0.55448 0.23639
# Poissons Ratio (y) = 0.50018 0.03366
# Poissons Ratio (z) = -0.24836 0.03921
#
# Static dielectric constant tensor:
#      x y z
#    x 1.732140 0.000000 0.132810 
#    y 0.000000 1.781380 0.000000 
#    z 0.132810 0.000000 2.337930 
# 
# From -- ./inp_files/275064.got.cif
#   From: 2010.05.17/outbox.ucp.g08.bks.cvg/sg12_138_cif.got.tgz:275064.got - 2010.06.11 11:47:21.
