data_PCOD9223970
_publ_section_title
;
Structure prediction by ZEFSAII (Michael W. Deem and Ramdas Pophale) SiO2 
 PCOD9223970
Probable space group: C 2/M
;
_chemical_formula_sum "Si O2"
_cell_formula_units_Z 32
_cell_length_a 18.000000
_cell_length_b 21.000000
_cell_length_c 18.000000
_cell_angle_alpha 90.000000
_cell_angle_beta 150.000000
_cell_angle_gamma 90.000000
_cell_volume 3402.000000
_symmetry_space_group_name_H-M "C 2/M"
_symmetry_group_IT_number 12
_symmetry_cell_setting 'monoclinic'
loop_
_space_group_symop_operation_xyz
x,y,z
-x,y,-z
-x,-y,-z
x,-y,z
1/2+x,1/2+y,z
1/2-x,1/2+y,-z
1/2-x,1/2-y,-z
1/2+x,1/2-y,z
loop_
_atom_site_type_symbol
_atom_site_label
_atom_site_fract_x
_atom_site_fract_y
_atom_site_fract_z
Si Si1 0.766944 0.681242 0.477465
Si Si2 0.151980 0.810341 0.678590
Si Si3 0.261140 0.427609 0.345940
Si Si4 0.176731 0.073179 0.961504
Si Si5 0.824675 0.677467 0.357481
Si Si6 0.575319 0.572235 0.144951
Si Si7 0.503483 0.383280 0.675452
Si Si8 0.977539 0.575829 0.732287
O O1 0.750000 0.750000 0.500000
O O2 0.795195 0.696793 0.416711
O O3 0.615975 0.646653 0.371821
O O4 0.892967 0.629710 0.610764
O O5 0.233463 0.870173 0.709055
O O6 0.218679 0.739397 0.729719
O O7 0.000000 0.803738 0.500000
O O8 0.101855 0.831560 0.716773
O O9 0.269959 0.500000 0.323033
O O10 0.402298 0.417815 0.524628
O O11 0.112934 0.422323 0.268001
O O12 0.050627 0.100266 0.908119
O O13 0.112519 0.077181 0.822511
O O14 0.185442 0.000000 0.992862
O O15 0.348497 0.094713 0.112810
O O16 0.718783 0.616451 0.258038
O O17 0.000000 0.662594 0.500000
O O18 0.616577 0.500000 0.206212
O O19 0.500000 0.567479 0.000000
O O20 0.965245 0.500000 0.697572
#
# Coordination Sequence:
#
# PCOD9223970 Si02
#       8
#     8   8   8   8   8   8   8   8
#     4  11  21  37  60  84 115 151 195 244 292 340
#     4   9  19  35  56  84 120 153 192 237 290 341
#     4   9  17  32  56  85 117 154 194 235 287 345
#     4  10  20  38  60  87 120 152 190 243 296 351
#     4  11  22  38  59  84 115 153 196 244 291 348
#     4  10  23  42  61  83 116 153 193 242 300 352
#     4  10  19  35  57  87 113 150 194 240 283 348
#     4   9  20  36  57  84 118 153 190 239 298 351
#
# _framework density 9.4062319999999993
#
# number of rings (size 3 to 8) (size 9 to 14) (size 15 to 20)
#    0.000    2.125    1.250    3.375    1.750    4.000 
#    0.000    3.750    0.000    2.250    0.000    0.000 
#    0.000    0.000    0.000    0.000    0.000    0.000 
#
# Total GULP energy -178159.496161 kJ/mol
# GULP energy per Si atom -5567.484255 kJ/mol
# Density = 0.938482 g / cm^3
# Si number density = 9.406232 Si / 1000 Ang^3
#
#
#
# Elastic Constant Matrix: (Units=GPa)
#
#
# Indices 1 2 3 4 5 6 
#
# 1 97.5201 30.9733 38.3221 0.0000 17.5385 -0.0009
# 2 30.9733 97.5233 47.7383 0.0003 29.4528 -0.0011
# 3 38.3221 47.7383 56.9134 -0.0003 13.2463 -0.0038
# 4 0.0000 0.0003 -0.0003 7.2405 -0.0007 5.6062
# 5 17.5385 29.4528 13.2463 -0.0007 21.9977 -0.0013
# 6 -0.0009 -0.0011 -0.0038 5.6062 -0.0013 32.9928
#
#
#
# Elastic Compliance Matrix: (Units=1/GPa)
#
#
# Indices 1 2 3 4 5 6 
#
# 1 0.015267 0.003665 -0.010908 -0.000001 -0.010511 -0.000001
# 2 0.003665 0.026072 -0.018064 -0.000003 -0.026953 -0.000002
# 3 -0.010908 -0.018064 0.037697 0.000000 0.010182 0.000004
# 4 -0.000001 -0.000003 0.000000 0.159037 0.000009 -0.027024
# 5 -0.010511 -0.026953 0.010182 0.000009 0.083796 0.000002
# 6 -0.000001 -0.000002 0.000004 -0.027024 0.000002 0.034902
#
#
# Mechanical properties :
#
#
# Convention : Reuss Voigt Hill
#
# Bulk Modulus (GPa) = 35.18237 54.00269 44.59253
# Shear Modulus (GPa) = 11.99452 21.44106 16.71779
#
# Velocity S-wave (km/s) = 2.52778 3.37965 2.98427
# Velocity P-wave (km/s) = 5.22128 6.63306 5.96906
#
# Compressibility (1/GPa) = 0.02842333
#
# Stress axis : x y z
#
# Youngs Moduli (GPa) = 65.50108 38.35492 26.52742
#
# Poissons Ratio (x) = -0.14057 0.28935
# Poissons Ratio (y) = -0.24006 0.47918
# Poissons Ratio (z) = 0.71446 0.69283
#
# Static dielectric constant tensor:
#      x y z
#    x 1.659730 0.000000 0.006390 
#    y 0.000000 1.724640 0.000000 
#    z 0.006390 0.000000 1.658710 
# 
# From -- ./inp_files/279152.got.cif
#   From: 2010.05.17/outbox.ucp.g08.bks.cvg/sg12_140_cif.got.tgz:279152.got - 2010.06.11 11:47:21.
