data_PCOD9223900
_publ_section_title
;
Structure prediction by ZEFSAII (Michael W. Deem and Ramdas Pophale) SiO2 
 PCOD9223900
Probable space group: C 2/M
;
_chemical_formula_sum "Si O2"
_cell_formula_units_Z 28
_cell_length_a 30.000000
_cell_length_b 9.000000
_cell_length_c 12.000000
_cell_angle_alpha 90.000000
_cell_angle_beta 120.000000
_cell_angle_gamma 90.000000
_cell_volume 2805.922308
_symmetry_space_group_name_H-M "C 2/M"
_symmetry_group_IT_number 12
_symmetry_cell_setting 'monoclinic'
loop_
_space_group_symop_operation_xyz
x,y,z
-x,y,-z
-x,-y,-z
x,-y,z
1/2+x,1/2+y,z
1/2-x,1/2+y,-z
1/2-x,1/2-y,-z
1/2+x,1/2-y,z
loop_
_atom_site_type_symbol
_atom_site_label
_atom_site_fract_x
_atom_site_fract_y
_atom_site_fract_z
Si Si1 0.396859 0.323425 0.853195
Si Si2 0.346509 0.176056 0.149007
Si Si3 0.379426 0.171724 0.595573
Si Si4 0.058321 0.177253 0.861908
Si Si5 0.304826 0.828462 0.864379
Si Si6 0.186482 0.172539 0.661847
Si Si7 0.984197 0.327351 0.605136
O O1 0.400539 0.500000 0.840204
O O2 0.397814 0.243238 0.735071
O O3 0.343417 0.278845 0.847391
O O4 0.437687 0.280491 0.002117
O O5 0.396697 0.244593 0.152966
O O6 0.334627 0.249945 0.252190
O O7 0.352579 0.000000 0.173460
O O8 0.305017 0.200636 0.997802
O O9 0.333142 0.255767 0.477102
O O10 0.423993 0.176672 0.556986
O O11 0.366784 0.000000 0.601378
O O12 0.008631 0.229561 0.733312
O O13 0.064462 0.000000 0.864799
O O14 0.247893 0.816608 0.746600
O O15 0.323184 0.000000 0.873826
O O16 0.171101 0.000000 0.645251
O O17 0.001383 0.500000 0.637441
O O18 0.000000 0.278828 0.500000
#
# Coordination Sequence:
#
# PCOD9223900 Si02
#       7
#     8   8   8   8   8   8   8
#     4  10  22  40  60  84 114 148 190 237 282 334
#     4  10  19  34  57  85 118 152 188 231 280 339
#     4  11  24  40  59  83 113 151 192 234 282 338
#     4  10  21  37  60  87 114 148 188 234 287 335
#     4   9  20  37  58  84 114 151 192 234 281 336
#     4  11  22  36  56  84 117 151 190 237 287 335
#     4  10  22  40  61  86 115 147 185 229 280 341
#
# _framework density 9.9788940000000004
#
# number of rings (size 3 to 8) (size 9 to 14) (size 15 to 20)
#    0.000    1.857    0.000    3.429    0.000    7.143 
#    0.000    2.857    0.000    0.000    0.000    0.000 
#    0.000    0.000    0.000    0.000    0.000    0.000 
#
# Total GULP energy -156300.547786 kJ/mol
# GULP energy per Si atom -5582.162421 kJ/mol
# Density = 0.995618 g / cm^3
# Si number density = 9.978894 Si / 1000 Ang^3
#
#
#
# Elastic Constant Matrix: (Units=GPa)
#
#
# Indices 1 2 3 4 5 6 
#
# 1 26.9018 15.6322 15.9787 0.0000 -12.1441 0.0000
# 2 15.6322 87.5216 55.5357 0.0000 -4.1995 0.0000
# 3 15.9787 55.5357 128.9160 0.0000 -12.2537 0.0000
# 4 0.0000 0.0000 0.0000 37.3450 0.0000 -7.9239
# 5 -12.1441 -4.1995 -12.2537 0.0000 32.4799 0.0000
# 6 0.0000 0.0000 0.0000 -7.9239 0.0000 28.6650
#
#
#
# Elastic Compliance Matrix: (Units=1/GPa)
#
#
# Indices 1 2 3 4 5 6 
#
# 1 0.049977 -0.007167 -0.001472 0.000000 0.017204 0.000000
# 2 -0.007167 0.016761 -0.006618 0.000000 -0.003009 0.000000
# 3 -0.001472 -0.006618 0.011053 0.000000 0.002764 0.000000
# 4 0.000000 0.000000 0.000000 0.028446 0.000000 0.007863
# 5 0.017204 -0.003009 0.002764 0.000000 0.037875 0.000000
# 6 0.000000 0.000000 0.000000 0.007863 0.000000 0.037059
#
#
# Mechanical properties :
#
#
# Convention : Reuss Voigt Hill
#
# Bulk Modulus (GPa) = 21.15164 46.40361 33.77763
# Shear Modulus (GPa) = 21.98340 30.11085 26.04713
#
# Velocity S-wave (km/s) = 3.32248 3.88845 3.61655
# Velocity P-wave (km/s) = 5.03385 6.59253 5.86520
#
# Compressibility (1/GPa) = 0.04727765
#
# Stress axis : x y z
#
# Youngs Moduli (GPa) = 20.00903 59.66263 90.47182
#
# Poissons Ratio (x) = 0.42760 0.13315
# Poissons Ratio (y) = 0.14341 0.59876
# Poissons Ratio (z) = 0.02945 0.39486
#
# Static dielectric constant tensor:
#      x y z
#    x 1.712190 0.000000 0.054990 
#    y 0.000000 1.689020 0.000000 
#    z 0.054990 0.000000 1.724520 
# 
# From -- ./inp_files/187724.got.cif
#   From: 2010.05.17/outbox.ucp.g08.bks.cvg/sg12_94_cif.got.tgz:187724.got - 2010.06.11 11:47:21.
