data_PCOD9223480
_publ_section_title
;
Structure prediction by ZEFSAII (Michael W. Deem and Ramdas Pophale) SiO2 
 PCOD9223480
Probable space group: C 2/M
;
_chemical_formula_sum "Si O2"
_cell_formula_units_Z 28
_cell_length_a 18.000000
_cell_length_b 9.000000
_cell_length_c 30.000000
_cell_angle_alpha 90.000000
_cell_angle_beta 140.000000
_cell_angle_gamma 90.000000
_cell_volume 3123.947783
_symmetry_space_group_name_H-M "C 2/M"
_symmetry_group_IT_number 12
_symmetry_cell_setting 'monoclinic'
loop_
_space_group_symop_operation_xyz
x,y,z
-x,y,-z
-x,-y,-z
x,-y,z
1/2+x,1/2+y,z
1/2-x,1/2+y,-z
1/2-x,1/2-y,-z
1/2+x,1/2-y,z
loop_
_atom_site_type_symbol
_atom_site_label
_atom_site_fract_x
_atom_site_fract_y
_atom_site_fract_z
Si Si1 0.944115 0.174204 0.742707
Si Si2 0.573065 0.323467 0.077398
Si Si3 0.909155 0.330530 0.819966
Si Si4 0.153211 0.670657 0.798107
Si Si5 0.634488 0.332553 0.700901
Si Si6 0.907312 0.175764 0.555765
Si Si7 0.302781 0.821929 0.596987
O O1 0.937844 0.235159 0.789913
O O2 0.858224 0.251044 0.666871
O O3 0.073425 0.216294 0.787533
O O4 0.922451 0.000000 0.731467
O O5 0.551223 0.500000 0.074029
O O6 0.552612 0.238691 0.114858
O O7 0.710515 0.306051 0.131872
O O8 0.500000 0.276213 0.000000
O O9 0.952249 0.500000 0.836209
O O10 0.769593 0.335572 0.753536
O O11 0.124449 0.500000 0.795544
O O12 0.122969 0.707020 0.732955
O O13 0.605096 0.500000 0.705027
O O14 0.545950 0.306215 0.619725
O O15 0.830891 0.216711 0.477509
O O16 0.866590 0.262260 0.581529
O O17 0.883162 0.000000 0.551702
O O18 0.314295 0.000000 0.605945
#
# Coordination Sequence:
#
# PCOD9223480 Si02
#       7
#     8   8   8   8   8   8   8
#     4  12  23  36  52  74 108 146 183 223 271 316
#     4   9  19  38  62  87 114 140 167 205 258 319
#     4  10  21  36  56  81 109 140 178 220 264 315
#     4  10  19  32  55  83 107 137 177 216 256 310
#     4   9  17  32  53  77 104 137 176 221 268 316
#     4   9  17  30  49  75 105 137 176 222 272 319
#     4  10  19  30  48  75 105 139 179 224 270 315
#
# _framework density 8.9630179999999999
#
# number of rings (size 3 to 8) (size 9 to 14) (size 15 to 20)
#    0.000    2.143    1.429    2.571    0.000    2.000 
#    0.000    1.429    0.000    4.286    0.000    0.000 
#    0.000    0.000    0.000    0.000    0.000    0.000 
#
# Total GULP energy -155929.517841 kJ/mol
# GULP energy per Si atom -5568.911351 kJ/mol
# Density = 0.894262 g / cm^3
# Si number density = 8.963018 Si / 1000 Ang^3
#
#
#
# Elastic Constant Matrix: (Units=GPa)
#
#
# Indices 1 2 3 4 5 6 
#
# 1 39.9098 31.2612 26.9970 0.0000 -19.6113 0.0000
# 2 31.2612 91.4752 48.5267 0.0000 -17.0173 0.0000
# 3 26.9970 48.5267 135.7205 0.0000 -16.5848 0.0000
# 4 0.0000 0.0000 0.0000 25.1114 0.0000 -5.4415
# 5 -19.6113 -17.0173 -16.5848 0.0000 22.1670 0.0000
# 6 0.0000 0.0000 0.0000 -5.4415 0.0000 22.3700
#
#
#
# Elastic Compliance Matrix: (Units=1/GPa)
#
#
# Indices 1 2 3 4 5 6 
#
# 1 0.052678 -0.009780 -0.002426 0.000000 0.037281 0.000000
# 2 -0.009780 0.016517 -0.003817 0.000000 0.001172 0.000000
# 3 -0.002426 -0.003817 0.009460 0.000000 0.002001 0.000000
# 4 0.000000 0.000000 0.000000 0.042038 0.000000 0.010226
# 5 0.037281 0.001172 0.002001 0.000000 0.080492 0.000000
# 6 0.000000 0.000000 0.000000 0.010226 0.000000 0.047190
#
#
# Mechanical properties :
#
#
# Convention : Reuss Voigt Hill
#
# Bulk Modulus (GPa) = 21.45509 53.40836 37.43172
# Shear Modulus (GPa) = 16.89431 24.61773 20.75602
#
# Velocity S-wave (km/s) = 3.07326 3.70982 3.40644
# Velocity P-wave (km/s) = 4.95862 6.94325 6.03310
#
# Compressibility (1/GPa) = 0.04660900
#
# Stress axis : x y z
#
# Youngs Moduli (GPa) = 18.98331 60.54340 105.70854
#
# Poissons Ratio (x) = 0.59211 0.25644
# Poissons Ratio (y) = 0.18566 0.40350
# Poissons Ratio (z) = 0.04605 0.23110
#
# Static dielectric constant tensor:
#      x y z
#    x 1.663890 0.000000 0.037160 
#    y 0.000000 1.625080 0.000000 
#    z 0.037160 0.000000 1.616920 
# 
# From -- ./inp_files/377724.got.cif
#   From: 2010.05.17/outbox.ucp.g08.bks.cvg/sg12_189_cif.got.tgz:377724.got - 2010.06.11 11:47:21.
