data_PCOD9223160
_publ_section_title
;
Structure prediction by ZEFSAII (Michael W. Deem and Ramdas Pophale) SiO2 
 PCOD9223160
Probable space group: C 2/M
;
_chemical_formula_sum "Si O2"
_cell_formula_units_Z 32
_cell_length_a 24.000000
_cell_length_b 9.000000
_cell_length_c 18.000000
_cell_angle_alpha 90.000000
_cell_angle_beta 100.000000
_cell_angle_gamma 90.000000
_cell_volume 3828.932544
_symmetry_space_group_name_H-M "C 2/M"
_symmetry_group_IT_number 12
_symmetry_cell_setting 'monoclinic'
loop_
_space_group_symop_operation_xyz
x,y,z
-x,y,-z
-x,-y,-z
x,-y,z
1/2+x,1/2+y,z
1/2-x,1/2+y,-z
1/2-x,1/2-y,-z
1/2+x,1/2-y,z
loop_
_atom_site_type_symbol
_atom_site_label
_atom_site_fract_x
_atom_site_fract_y
_atom_site_fract_z
Si Si1 0.241041 0.680146 0.915369
Si Si2 0.536190 0.179455 0.746939
Si Si3 0.428040 0.179718 0.545297
Si Si4 0.620210 0.321263 0.881982
Si Si5 0.402040 0.177643 0.703900
Si Si6 0.347761 0.679698 0.832025
Si Si7 0.563996 0.679088 0.026252
Si Si8 0.552876 0.679577 0.597508
O O1 0.239980 0.500000 0.921278
O O2 0.180072 0.744950 0.877081
O O3 0.291187 0.718041 0.867383
O O4 0.250000 0.750000 0.000000
O O5 0.569796 0.248017 0.823404
O O6 0.468727 0.216059 0.734374
O O7 0.565452 0.254626 0.681531
O O8 0.540514 0.000000 0.743788
O O9 0.393723 0.210760 0.613534
O O10 0.410855 0.250307 0.462018
O O11 0.489079 0.256649 0.572306
O O12 0.434265 0.000000 0.540610
O O13 0.622863 0.500000 0.871519
O O14 0.603257 0.293764 0.963848
O O15 0.360016 0.255042 0.752835
O O16 0.397027 0.000000 0.711490
O O17 0.348181 0.500000 0.827180
O O18 0.401695 0.731505 0.893917
O O19 0.559423 0.500000 0.032453
O O20 0.500000 0.736533 0.000000
O O21 0.553676 0.500000 0.595609
#
# Coordination Sequence:
#
# PCOD9223160 Si02
#       8
#     8   8   8   8   8   8   8   8
#     4  11  22  38  56  74  97 129 170 217 261 302
#     4  10  20  34  49  72 107 140 168 204 256 308
#     4   9  16  28  44  66 101 139 169 203 250 300
#     4  11  21  35  54  75  99 130 171 213 256 301
#     4   9  19  32  48  73 105 137 169 206 251 301
#     4  10  20  34  51  72  98 132 170 208 255 302
#     4   9  17  30  48  71  99 129 161 199 246 299
#     4  10  17  26  44  71  99 133 175 209 242 292
#
# _framework density 8.3574210000000004
#
# number of rings (size 3 to 8) (size 9 to 14) (size 15 to 20)
#    0.000    2.125    1.250    4.875    0.000    5.000 
#    0.000    0.000    0.000    2.625    0.000    0.875 
#    0.000    0.000    0.000    0.000    0.000    0.000 
#
# Total GULP energy -178267.423120 kJ/mol
# GULP energy per Si atom -5570.856973 kJ/mol
# Density = 0.833840 g / cm^3
# Si number density = 8.357421 Si / 1000 Ang^3
#
#
#
# Elastic Constant Matrix: (Units=GPa)
#
#
# Indices 1 2 3 4 5 6 
#
# 1 79.7329 22.4681 10.5272 0.0000 -26.8271 0.0000
# 2 22.4681 81.1510 27.5091 0.0000 -17.1728 0.0000
# 3 10.5272 27.5091 69.0807 0.0000 -33.2734 0.0000
# 4 0.0000 0.0000 0.0000 29.3714 0.0000 -5.4077
# 5 -26.8271 -17.1728 -33.2734 0.0000 30.9224 0.0000
# 6 0.0000 0.0000 0.0000 -5.4077 0.0000 24.8315
#
#
#
# Elastic Compliance Matrix: (Units=1/GPa)
#
#
# Indices 1 2 3 4 5 6 
#
# 1 0.022688 -0.004116 0.013621 0.000000 0.032054 0.000000
# 2 -0.004116 0.015205 -0.006395 0.000000 -0.002007 0.000000
# 3 0.013621 -0.006395 0.039292 0.000000 0.050545 0.000000
# 4 0.000000 0.000000 0.000000 0.035469 0.000000 0.007724
# 5 0.032054 -0.002007 0.050545 0.000000 0.113422 0.000000
# 6 0.000000 0.000000 0.000000 0.007724 0.000000 0.041954
#
#
# Mechanical properties :
#
#
# Convention : Reuss Voigt Hill
#
# Bulk Modulus (GPa) = 11.98943 38.99703 25.49323
# Shear Modulus (GPa) = 17.26450 28.32241 22.79346
#
# Velocity S-wave (km/s) = 3.21734 4.12083 3.69679
# Velocity P-wave (km/s) = 4.58150 6.78403 5.78849
#
# Compressibility (1/GPa) = 0.08340682
#
# Stress axis : x y z
#
# Youngs Moduli (GPa) = 44.07548 65.76722 25.45027
#
# Poissons Ratio (x) = 0.27068 -0.34665
# Poissons Ratio (y) = 0.18140 0.16274
# Poissons Ratio (z) = -0.60034 0.42055
#
# Static dielectric constant tensor:
#      x y z
#    x 1.556010 0.000000 -0.000180 
#    y 0.000000 1.554190 0.000000 
#    z -0.000180 0.000000 1.632090 
# 
# From -- ./inp_files/287711.got.cif
#   From: 2010.05.17/outbox.ucp.g08.bks.cvg/sg12_144_cif.got.tgz:287711.got - 2010.06.11 11:47:21.
