data_PCOD9223321
_publ_section_title
;
Structure prediction by ZEFSAII (Michael W. Deem and Ramdas Pophale) SiO2 
 PCOD9223321
Probable space group: C 2/M
;
_chemical_formula_sum "Si O2"
_cell_formula_units_Z 32
_cell_length_a 21.000000
_cell_length_b 9.000000
_cell_length_c 27.000000
_cell_angle_alpha 90.000000
_cell_angle_beta 50.000000
_cell_angle_gamma 90.000000
_cell_volume 3909.124793
_symmetry_space_group_name_H-M "C 2/M"
_symmetry_group_IT_number 12
_symmetry_cell_setting 'monoclinic'
loop_
_space_group_symop_operation_xyz
x,y,z
-x,y,-z
-x,-y,-z
x,-y,z
1/2+x,1/2+y,z
1/2-x,1/2+y,-z
1/2-x,1/2-y,-z
1/2+x,1/2-y,z
loop_
_atom_site_type_symbol
_atom_site_label
_atom_site_fract_x
_atom_site_fract_y
_atom_site_fract_z
Si Si1 0.494730 0.178975 0.840389
Si Si2 0.665433 0.821072 0.804716
Si Si3 0.754453 0.178081 0.332569
Si Si4 0.576507 0.678682 0.702178
Si Si5 0.063523 0.679686 0.424125
Si Si6 0.185112 0.180395 0.071785
Si Si7 0.953898 0.820664 0.676372
Si Si8 0.792664 0.820036 0.823531
O O1 0.568650 0.216262 0.842665
O O2 0.528068 0.237830 0.770593
O O3 0.407136 0.258172 0.894051
O O4 0.484929 0.000000 0.844229
O O5 0.716253 0.753322 0.733197
O O6 0.710655 0.774482 0.833170
O O7 0.671499 0.000000 0.798858
O O8 0.825738 0.213222 0.337783
O O9 0.658981 0.219646 0.390782
O O10 0.756465 0.000000 0.324891
O O11 0.565531 0.500000 0.714578
O O12 0.534189 0.715150 0.670666
O O13 0.058625 0.500000 0.422321
O O14 0.046104 0.747985 0.378193
O O15 0.000000 0.724665 0.500000
O O16 0.203429 0.225127 0.120524
O O17 0.187101 0.000000 0.068131
O O18 0.250000 0.250000 0.000000
O O19 0.873266 0.775410 0.750126
O O20 0.950089 0.000000 0.672315
O O21 0.794293 0.000000 0.823765
#
# Coordination Sequence:
#
# PCOD9223321 Si02
#       8
#     8   8   8   8   8   8   8   8
#     4  10  19  31  51  79 106 133 166 205 255 308
#     4   9  17  31  52  77 102 128 165 213 254 297
#     4   9  17  30  49  72  99 134 170 206 254 308
#     4   9  17  31  51  75 101 130 168 214 258 299
#     4  10  21  35  49  71 106 142 171 208 262 314
#     4  11  22  38  56  76 106 141 174 210 255 304
#     4  10  18  32  54  77  99 129 173 216 253 299
#     4   9  17  32  54  77 101 131 168 212 255 295
#
# _framework density 8.1859760000000001
#
# number of rings (size 3 to 8) (size 9 to 14) (size 15 to 20)
#    0.000    2.375    2.500    0.750    0.000    1.250 
#    0.000    2.500    0.000    3.750    0.000    0.000 
#    0.000    0.000    0.000    0.000    0.000    0.000 
#
# Total GULP energy -178306.955252 kJ/mol
# GULP energy per Si atom -5572.092352 kJ/mol
# Density = 0.816734 g / cm^3
# Si number density = 8.185976 Si / 1000 Ang^3
#
#
#
# Elastic Constant Matrix: (Units=GPa)
#
#
# Indices 1 2 3 4 5 6 
#
# 1 176.9496 35.5965 88.2898 0.0000 -5.3615 0.0003
# 2 35.5965 32.3228 31.3191 -0.0001 -3.5793 0.0004
# 3 88.2898 31.3191 131.3045 0.0000 -5.1300 0.0000
# 4 0.0000 -0.0001 0.0000 27.1159 0.0000 3.5829
# 5 -5.3615 -3.5793 -5.1300 0.0000 30.6851 0.0000
# 6 0.0003 0.0004 0.0000 3.5829 0.0000 24.9999
#
#
#
# Elastic Compliance Matrix: (Units=1/GPa)
#
#
# Indices 1 2 3 4 5 6 
#
# 1 0.009168 -0.005348 -0.004883 0.000000 0.000162 0.000000
# 2 -0.005348 0.043653 -0.006698 0.000000 0.003038 -0.000001
# 3 -0.004883 -0.006698 0.012515 0.000000 0.000458 0.000000
# 4 0.000000 0.000000 0.000000 0.037591 0.000000 -0.005387
# 5 0.000162 0.003038 0.000458 0.000000 0.033048 0.000000
# 6 0.000000 -0.000001 0.000000 -0.005387 0.000000 0.040772
#
#
# Mechanical properties :
#
#
# Convention : Reuss Voigt Hill
#
# Bulk Modulus (GPa) = 31.76672 72.33198 52.04935
# Shear Modulus (GPa) = 22.61441 28.91827 25.76634
#
# Velocity S-wave (km/s) = 3.72060 4.20733 3.97143
# Velocity P-wave (km/s) = 6.15650 8.23884 7.27258
#
# Compressibility (1/GPa) = 0.03147948
#
# Stress axis : x y z
#
# Youngs Moduli (GPa) = 109.07011 22.90771 79.90592
#
# Poissons Ratio (x) = 0.12250 0.39018
# Poissons Ratio (y) = 0.58327 0.53520
# Poissons Ratio (z) = 0.53259 0.15343
#
# Static dielectric constant tensor:
#      x y z
#    x 1.588030 0.000000 -0.019970 
#    y 0.000000 1.548280 0.000000 
#    z -0.019970 0.000000 1.522320 
# 
# From -- ./inp_files/346005.got.cif
#   From: 2010.05.17/outbox.ucp.g08.bks.cvg/sg12_174_cif.got.tgz:346005.got - 2010.06.11 11:47:21.
