data_PCOD9223517
_publ_section_title
;
Structure prediction by ZEFSAII (Michael W. Deem and Ramdas Pophale) SiO2 
 PCOD9223517
Probable space group: C 2/M
;
_chemical_formula_sum "Si O2"
_cell_formula_units_Z 28
_cell_length_a 12.000000
_cell_length_b 27.000000
_cell_length_c 15.000000
_cell_angle_alpha 90.000000
_cell_angle_beta 40.000000
_cell_angle_gamma 90.000000
_cell_volume 3123.947783
_symmetry_space_group_name_H-M "C 2/M"
_symmetry_group_IT_number 12
_symmetry_cell_setting 'monoclinic'
loop_
_space_group_symop_operation_xyz
x,y,z
-x,y,-z
-x,-y,-z
x,-y,z
1/2+x,1/2+y,z
1/2-x,1/2+y,-z
1/2-x,1/2-y,-z
1/2+x,1/2-y,z
loop_
_atom_site_type_symbol
_atom_site_label
_atom_site_fract_x
_atom_site_fract_y
_atom_site_fract_z
Si Si1 0.506955 0.861785 0.221924
Si Si2 0.088022 0.311341 0.541723
Si Si3 0.941041 0.868840 0.320769
Si Si4 0.569203 0.711397 0.361599
Si Si5 0.044404 0.264104 0.870772
Si Si6 0.087743 0.151521 0.044687
Si Si7 0.679166 0.560637 0.448901
O O1 0.497215 0.844586 0.330019
O O2 0.476966 0.812121 0.179937
O O3 0.349662 0.904682 0.311408
O O4 0.714042 0.869097 0.078544
O O5 0.280768 0.331130 0.416051
O O6 0.000000 0.317106 0.500000
O O7 0.063866 0.254361 0.584557
O O8 0.878218 0.915219 0.420052
O O9 0.081889 0.835628 0.289019
O O10 0.999357 0.876084 0.183201
O O11 0.500000 0.693057 0.500000
O O12 0.747930 0.741832 0.259924
O O13 0.941531 0.211742 0.916632
O O14 0.000000 0.277650 0.000000
O O15 0.000000 0.145137 0.000000
O O16 0.500000 0.565966 0.500000
O O17 0.716915 0.500000 0.428897
#
# Coordination Sequence:
#
# PCOD9223517 Si02
#       7
#     8   8   8   8   8   8   8
#     4  11  21  36  59  82 115 157 196 233 285 345
#     4  10  19  31  48  76 113 154 196 235 275 333
#     4  11  20  34  57  80 113 153 192 236 289 340
#     4  11  19  30  49  80 115 151 197 235 278 338
#     4  11  21  33  51  82 125 161 191 227 276 339
#     4  11  22  36  54  85 125 163 194 224 268 336
#     4  10  23  44  67  89 110 137 186 253 311 349
#
# _framework density 8.9630179999999999
#
# number of rings (size 3 to 8) (size 9 to 14) (size 15 to 20)
#    0.000    1.286    0.000    9.857    0.000    0.000 
#    0.000    0.714    0.000   18.429    0.000    0.000 
#    0.000    0.000    0.000    0.000    0.000    0.000 
#
# Total GULP energy -155904.578668 kJ/mol
# GULP energy per Si atom -5568.020667 kJ/mol
# Density = 0.894262 g / cm^3
# Si number density = 8.963018 Si / 1000 Ang^3
#
#
#
# Elastic Constant Matrix: (Units=GPa)
#
#
# Indices 1 2 3 4 5 6 
#
# 1 60.2510 44.5386 36.9141 0.0000 -6.9647 0.0000
# 2 44.5386 99.7236 31.7149 0.0000 1.4459 0.0000
# 3 36.9141 31.7149 138.2430 0.0000 0.6254 0.0000
# 4 0.0000 0.0000 0.0000 22.6875 0.0000 -13.9010
# 5 -6.9647 1.4459 0.6254 0.0000 36.2203 0.0000
# 6 0.0000 0.0000 0.0000 -13.9010 0.0000 -0.5841
#
#
#
# Elastic Compliance Matrix: (Units=1/GPa)
#
#
# Indices 1 2 3 4 5 6 
#
# 1 0.028812 -0.011327 -0.005122 0.000000 0.006081 0.000000
# 2 -0.011327 0.015275 -0.000467 0.000000 -0.002780 0.000000
# 3 -0.005122 -0.000467 0.008714 0.000000 -0.001117 0.000000
# 4 0.000000 0.000000 0.000000 0.002829 0.000000 -0.067321
# 5 0.006081 -0.002780 -0.001117 0.000000 0.028908 0.000000
# 6 0.000000 0.000000 0.000000 -0.067321 0.000000 -0.109872
#
#
# Mechanical properties :
#
#
# Convention : Reuss Voigt Hill
#
# Bulk Modulus (GPa) = 52.72146 58.28366 55.50256
# Shear Modulus (GPa) = 337.35506 24.00141 180.67823
#
# Velocity S-wave (km/s) = 13.73322 3.66309 10.05036
# Velocity P-wave (km/s) = 16.76135 7.10457 12.87280
#
# Compressibility (1/GPa) = 0.01896761
#
# Stress axis : x y z
#
# Youngs Moduli (GPa) = 34.70832 65.46432 114.76228
#
# Poissons Ratio (x) = 0.74151 0.58785
# Poissons Ratio (y) = 0.39314 0.05363
# Poissons Ratio (z) = 0.17779 0.03059
#
# Static dielectric constant tensor:
#      x y z
#    x 1.712060 0.000000 -0.028160 
#    y 0.000000 1.608720 0.000000 
#    z -0.028160 0.000000 1.673370 
# 
# From -- ./inp_files/209127.got.cif
#   From: 2010.05.17/outbox.ucp.g08.bks.cvg/sg12_105_cif.got.tgz:209127.got - 2010.06.11 11:47:21.
