data_PCOD9223539
_publ_section_title
;
Structure prediction by ZEFSAII (Michael W. Deem and Ramdas Pophale) SiO2 
 PCOD9223539
Probable space group: C 2/M
;
_chemical_formula_sum "Si O2"
_cell_formula_units_Z 32
_cell_length_a 18.000000
_cell_length_b 9.000000
_cell_length_c 30.000000
_cell_angle_alpha 90.000000
_cell_angle_beta 140.000000
_cell_angle_gamma 90.000000
_cell_volume 3123.947783
_symmetry_space_group_name_H-M "C 2/M"
_symmetry_group_IT_number 12
_symmetry_cell_setting 'monoclinic'
loop_
_space_group_symop_operation_xyz
x,y,z
-x,y,-z
-x,-y,-z
x,-y,z
1/2+x,1/2+y,z
1/2-x,1/2+y,-z
1/2-x,1/2-y,-z
1/2+x,1/2-y,z
loop_
_atom_site_type_symbol
_atom_site_label
_atom_site_fract_x
_atom_site_fract_y
_atom_site_fract_z
Si Si1 0.944040 0.327644 0.410781
Si Si2 0.131916 0.679594 0.963841
Si Si3 0.376530 0.179991 0.844376
Si Si4 0.642175 0.828817 0.726477
Si Si5 0.197918 0.320775 0.090251
Si Si6 0.203061 0.822606 0.338689
Si Si7 0.800279 0.676914 0.478634
Si Si8 0.449326 0.679979 0.226922
O O1 0.945051 0.500000 0.427136
O O2 0.932767 0.326949 0.352386
O O3 0.823256 0.261699 0.373555
O O4 0.072283 0.265826 0.478256
O O5 0.140385 0.500000 0.964131
O O6 0.004982 0.723371 0.887430
O O7 0.250000 0.750000 0.000000
O O8 0.129202 0.722200 0.014923
O O9 0.267012 0.258689 0.771767
O O10 0.355400 0.222929 0.886849
O O11 0.366943 0.000000 0.836829
O O12 0.580349 0.737029 0.737040
O O13 0.658002 0.000000 0.747996
O O14 0.198225 0.500000 0.091319
O O15 0.332408 0.273575 0.147370
O O16 0.216012 0.804686 0.397854
O O17 0.074560 0.765450 0.267678
O O18 0.202870 0.000000 0.327993
O O19 0.813107 0.500000 0.492533
O O20 0.750000 0.750000 0.500000
O O21 0.453152 0.500000 0.229244
#
# Coordination Sequence:
#
# PCOD9223539 Si02
#       8
#     8   8   8   8   8   8   8   8
#     4   9  18  31  48  73 101 128 162 202 241 283
#     4  10  20  33  50  73 100 128 159 198 244 290
#     4   9  18  34  54  72  93 126 168 205 234 277
#     4  10  19  31  50  74  99 126 157 199 247 289
#     4   8  15  30  52  72  90 121 164 201 230 271
#     4   9  17  30  50  74  97 127 166 200 233 281
#     4  10  19  32  52  74  98 128 162 203 244 284
#     4   9  17  31  52  74  95 123 162 202 235 280
#
# _framework density 10.243449
#
# number of rings (size 3 to 8) (size 9 to 14) (size 15 to 20)
#    0.000    2.750    0.000    2.625    0.000    4.500 
#    0.000    5.625    0.000    9.000    0.000    0.000 
#    0.000    0.000    0.000    0.000    0.000    0.000 
#
# Total GULP energy -178290.483906 kJ/mol
# GULP energy per Si atom -5571.577622 kJ/mol
# Density = 1.022013 g / cm^3
# Si number density = 10.243449 Si / 1000 Ang^3
#
#
#
# Elastic Constant Matrix: (Units=GPa)
#
#
# Indices 1 2 3 4 5 6 
#
# 1 58.1604 -4.2837 11.9611 0.0000 34.4867 0.0000
# 2 -4.2837 7.7567 4.3327 0.0000 6.6058 0.0000
# 3 11.9611 4.3327 83.2275 0.0000 28.3946 0.0000
# 4 0.0000 0.0000 0.0000 15.4902 0.0000 3.3816
# 5 34.4867 6.6058 28.3946 0.0000 47.1044 0.0000
# 6 0.0000 0.0000 0.0000 3.3816 0.0000 23.2311
#
#
#
# Elastic Compliance Matrix: (Units=1/GPa)
#
#
# Indices 1 2 3 4 5 6 
#
# 1 0.050820 0.067526 0.006428 0.000000 -0.050551 0.000000
# 2 0.067526 0.236168 0.007764 0.000000 -0.087238 0.000000
# 3 0.006428 0.007764 0.015943 0.000000 -0.015405 0.000000
# 4 0.000000 0.000000 0.000000 0.066676 0.000000 -0.009705
# 5 -0.050551 -0.087238 -0.015405 0.000000 0.079760 0.000000
# 6 0.000000 0.000000 0.000000 -0.009705 0.000000 0.044459
#
#
# Mechanical properties :
#
#
# Convention : Reuss Voigt Hill
#
# Bulk Modulus (GPa) = 2.14424 19.24055 10.69239
# Shear Modulus (GPa) = 10.29130 26.30743 18.29936
#
# Velocity S-wave (km/s) = 2.24372 3.58734 2.99193
# Velocity P-wave (km/s) = 2.78590 5.15467 4.14318
#
# Compressibility (1/GPa) = 0.46636613
#
# Stress axis : x y z
#
# Youngs Moduli (GPa) = 19.67719 4.23427 62.72313
#
# Poissons Ratio (x) = -0.28592 -0.40316
# Poissons Ratio (y) = -1.32872 -0.48696
# Poissons Ratio (z) = -0.12648 -0.03287
#
# Static dielectric constant tensor:
#      x y z
#    x 1.745110 0.000000 0.015430 
#    y 0.000000 1.697650 0.000000 
#    z 0.015430 0.000000 1.776680 
# 
# From -- ./inp_files/378446.got.cif
#   From: 2010.05.17/outbox.ucp.g08.bks.cvg/sg12_190_cif.got.tgz:378446.got - 2010.06.11 11:47:21.
