data_PCOD9223978
_publ_section_title
;
Structure prediction by ZEFSAII (Michael W. Deem and Ramdas Pophale) SiO2 
 PCOD9223978
Probable space group: C 2/M
;
_chemical_formula_sum "Si O2"
_cell_formula_units_Z 32
_cell_length_a 15.000000
_cell_length_b 9.000000
_cell_length_c 30.000000
_cell_angle_alpha 90.000000
_cell_angle_beta 50.000000
_cell_angle_gamma 90.000000
_cell_volume 3102.479995
_symmetry_space_group_name_H-M "C 2/M"
_symmetry_group_IT_number 12
_symmetry_cell_setting 'monoclinic'
loop_
_space_group_symop_operation_xyz
x,y,z
-x,y,-z
-x,-y,-z
x,-y,z
1/2+x,1/2+y,z
1/2-x,1/2+y,-z
1/2-x,1/2-y,-z
1/2+x,1/2-y,z
loop_
_atom_site_type_symbol
_atom_site_label
_atom_site_fract_x
_atom_site_fract_y
_atom_site_fract_z
Si Si1 0.410942 0.179094 0.576441
Si Si2 0.171782 0.817765 0.483145
Si Si3 0.331559 0.169402 0.249303
Si Si4 0.411068 0.180647 0.129247
Si Si5 0.146556 0.821452 0.060539
Si Si6 0.928987 0.829148 0.663011
Si Si7 0.822317 0.179995 0.846318
Si Si8 0.542083 0.320891 0.715669
O O1 0.540039 0.254577 0.530373
O O2 0.317275 0.254251 0.571900
O O3 0.400804 0.219830 0.631597
O O4 0.412014 0.000000 0.569013
O O5 0.250000 0.750000 0.500000
O O6 0.178434 0.000000 0.481772
O O7 0.396561 0.231118 0.185424
O O8 0.198796 0.160131 0.274828
O O9 0.354533 0.257794 0.287333
O O10 0.368435 0.000000 0.246556
O O11 0.529539 0.255881 0.076840
O O12 0.300542 0.225700 0.135325
O O13 0.417886 0.000000 0.127006
O O14 0.159842 0.774787 0.108298
O O15 0.147494 0.000000 0.058614
O O16 0.250000 0.750000 0.000000
O O17 0.020983 0.777792 0.670687
O O18 0.959504 0.000000 0.638311
O O19 0.928348 0.227313 0.780401
O O20 0.824169 0.000000 0.844972
O O21 0.549246 0.500000 0.712571
#
# Coordination Sequence:
#
# PCOD9223978 Si02
#       8
#     8   8   8   8   8   8   8   8
#     4  11  23  40  61  91 128 164 205 253 302 358
#     4  11  22  41  68  94 122 161 208 254 307 362
#     4  10  20  34  56  84 113 146 187 237 289 341
#     4  10  19  36  60  83 107 142 187 230 280 343
#     4  11  23  39  58  82 112 144 184 235 289 344
#     4  10  21  38  58  83 120 161 198 241 293 350
#     4   9  18  35  59  81 106 145 187 224 277 349
#     4  10  19  35  58  82 110 149 195 235 280 346
#
# _framework density 10.314329000000001
#
# number of rings (size 3 to 8) (size 9 to 14) (size 15 to 20)
#    0.000    1.750    2.500    3.375    0.000    2.500 
#    0.000    6.875    0.000    0.000    0.000    0.000 
#    0.000    0.000    0.000    0.000    0.000    0.000 
#
# Total GULP energy -178268.420818 kJ/mol
# GULP energy per Si atom -5570.888151 kJ/mol
# Density = 1.029085 g / cm^3
# Si number density = 10.314329 Si / 1000 Ang^3
#
#
#
# Elastic Constant Matrix: (Units=GPa)
#
#
# Indices 1 2 3 4 5 6 
#
# 1 155.5017 30.6361 10.3288 0.0000 11.0350 0.0000
# 2 30.6361 74.5041 0.6657 0.0000 10.8693 -0.0001
# 3 10.3288 0.6657 39.9954 0.0000 1.4444 0.0000
# 4 0.0000 0.0000 0.0000 22.3015 0.0000 5.0852
# 5 11.0350 10.8693 1.4444 0.0000 31.1903 0.0000
# 6 0.0000 -0.0001 0.0000 5.0852 0.0000 37.9314
#
#
#
# Elastic Compliance Matrix: (Units=1/GPa)
#
#
# Indices 1 2 3 4 5 6 
#
# 1 0.007191 -0.002720 -0.001757 0.000000 -0.001515 0.000000
# 2 -0.002720 0.015170 0.000607 0.000000 -0.004352 0.000000
# 3 -0.001757 0.000607 0.025474 0.000000 -0.000770 0.000000
# 4 0.000000 0.000000 0.000000 0.046254 0.000000 -0.006201
# 5 -0.001515 -0.004352 -0.000770 0.000000 0.034150 0.000000
# 6 0.000000 0.000000 0.000000 -0.006201 0.000000 0.027195
#
#
# Mechanical properties :
#
#
# Convention : Reuss Voigt Hill
#
# Bulk Modulus (GPa) = 24.94063 39.25135 32.09599
# Shear Modulus (GPa) = 28.32237 33.50934 30.91586
#
# Velocity S-wave (km/s) = 3.70937 4.03477 3.87549
# Velocity P-wave (km/s) = 5.51928 6.38551 5.96813
#
# Compressibility (1/GPa) = 0.04009521
#
# Stress axis : x y z
#
# Youngs Moduli (GPa) = 139.06413 65.91891 39.25516
#
# Poissons Ratio (x) = 0.17931 0.06897
# Poissons Ratio (y) = 0.37828 -0.02383
# Poissons Ratio (z) = 0.24435 -0.04002
#
# Static dielectric constant tensor:
#      x y z
#    x 1.723800 0.000000 -0.006730 
#    y 0.000000 1.718620 0.000000 
#    z -0.006730 0.000000 1.974730 
# 
# From -- ./inp_files/375448.got.cif
#   From: 2010.05.17/outbox.ucp.g08.bks.cvg/sg12_188_cif.got.tgz:375448.got - 2010.06.11 11:47:21.
