data_PCOD9223669
_publ_section_title
;
Structure prediction by ZEFSAII (Michael W. Deem and Ramdas Pophale) SiO2 
 PCOD9223669
Probable space group: C 2/M
;
_chemical_formula_sum "Si O2"
_cell_formula_units_Z 28
_cell_length_a 21.000000
_cell_length_b 9.000000
_cell_length_c 30.000000
_cell_angle_alpha 90.000000
_cell_angle_beta 30.000000
_cell_angle_gamma 90.000000
_cell_volume 2835.000000
_symmetry_space_group_name_H-M "C 2/M"
_symmetry_group_IT_number 12
_symmetry_cell_setting 'monoclinic'
loop_
_space_group_symop_operation_xyz
x,y,z
-x,y,-z
-x,-y,-z
x,-y,z
1/2+x,1/2+y,z
1/2-x,1/2+y,-z
1/2-x,1/2-y,-z
1/2+x,1/2-y,z
loop_
_atom_site_type_symbol
_atom_site_label
_atom_site_fract_x
_atom_site_fract_y
_atom_site_fract_z
Si Si1 0.905530 0.171348 0.450996
Si Si2 0.701052 0.673960 0.267650
Si Si3 0.027511 0.677886 0.203264
Si Si4 0.347177 0.835585 0.085728
Si Si5 0.191066 0.172368 0.975830
Si Si6 0.852300 0.170408 0.377456
Si Si7 0.428372 0.322436 0.180422
O O1 0.876094 0.172479 0.416002
O O2 0.789183 0.261282 0.543938
O O3 0.053790 0.220096 0.364098
O O4 0.898525 0.000000 0.470586
O O5 0.710784 0.500000 0.275558
O O6 0.756908 0.676384 0.183374
O O7 0.801230 0.775500 0.232480
O O8 0.033787 0.500000 0.201678
O O9 0.167102 0.735907 0.102057
O O10 0.968976 0.741828 0.284075
O O11 0.930534 0.737259 0.225444
O O12 0.319143 0.699887 0.070484
O O13 0.319988 0.000000 0.081728
O O14 0.500000 0.833449 0.000000
O O15 0.195764 0.000000 0.985330
O O16 0.057811 0.230868 0.076314
O O17 0.855642 0.000000 0.359921
O O18 0.434541 0.500000 0.181686
#
# Coordination Sequence:
#
# PCOD9223669 Si02
#       7
#     8   8   8   8   8   8   8
#     4   9  19  36  60  87 116 147 180 222 276 335
#     4  10  20  36  56  82 115 152 188 223 272 331
#     4  11  23  39  58  80 109 148 191 231 279 333
#     4  10  19  32  54  82 113 148 184 223 270 325
#     4  10  22  37  55  81 112 148 188 233 280 327
#     4  10  20  37  61  88 115 142 180 231 280 327
#     4  11  23  38  55  79 112 149 190 234 277 323
#
# _framework density 9.8765429999999999
#
# number of rings (size 3 to 8) (size 9 to 14) (size 15 to 20)
#    0.000    1.857    1.429    2.571    0.000    4.857 
#    0.000    0.714    0.000    4.286    0.000    0.000 
#    0.000    0.000    0.000    0.000    0.000    0.000 
#
# Total GULP energy -155977.568961 kJ/mol
# GULP energy per Si atom -5570.627463 kJ/mol
# Density = 0.985406 g / cm^3
# Si number density = 9.876543 Si / 1000 Ang^3
#
#
#
# Elastic Constant Matrix: (Units=GPa)
#
#
# Indices 1 2 3 4 5 6 
#
# 1 35.1713 14.8734 14.4005 0.0002 -19.5099 -0.0002
# 2 14.8734 42.7454 25.1981 0.0001 -12.6563 0.0006
# 3 14.4005 25.1981 76.5046 -0.0005 -44.9892 0.0010
# 4 0.0002 0.0001 -0.0005 25.8288 -0.0001 -0.3924
# 5 -19.5099 -12.6563 -44.9892 -0.0001 25.1065 0.0004
# 6 -0.0002 0.0006 0.0010 -0.3924 0.0004 22.8162
#
#
#
# Elastic Compliance Matrix: (Units=1/GPa)
#
#
# Indices 1 2 3 4 5 6 
#
# 1 0.008246 0.001643 -0.040211 -0.000001 -0.064819 0.000003
# 2 0.001643 0.026707 0.008144 0.000000 0.029333 -0.000002
# 3 -0.040211 0.008144 -0.037140 -0.000001 -0.093694 0.000003
# 4 -0.000001 0.000000 -0.000001 0.038727 -0.000002 0.000666
# 5 -0.064819 0.029333 -0.093694 -0.000002 -0.163647 0.000006
# 6 0.000003 -0.000002 0.000003 0.000666 0.000006 0.043840
#
#
# Mechanical properties :
#
#
# Convention : Reuss Voigt Hill
#
# Bulk Modulus (GPa) = -15.86404 29.26280 6.69938
# Shear Modulus (GPa) = -115.12201 21.41360 -46.85420
#
# Velocity S-wave (km/s) = -7.64245 3.29608 -4.87560
# Velocity P-wave (km/s) = 9.26956 5.41590 5.31943
#
# Compressibility (1/GPa) = -0.06303565
#
# Stress axis : x y z
#
# Youngs Moduli (GPa) = 121.27748 37.44335 -26.92501
#
# Poissons Ratio (x) = -0.06151 -1.08267
# Poissons Ratio (y) = -0.19923 0.21927
# Poissons Ratio (z) = 4.87663 -0.30493
#
# Static dielectric constant tensor:
#      x y z
#    x 1.757130 0.000000 -0.001750 
#    y 0.000000 1.703290 0.000000 
#    z -0.001750 0.000000 1.695220 
# 
# From -- ./inp_files/329496.got.cif
#   From: 2010.05.17/outbox.ucp.g08.bks.cvg/sg12_165_cif.got.tgz:329496.got - 2010.06.11 11:47:21.
