data_PCOD9223583
_publ_section_title
;
Structure prediction by ZEFSAII (Michael W. Deem and Ramdas Pophale) SiO2 
 PCOD9223583
Probable space group: C 2/M
;
_chemical_formula_sum "Si O2"
_cell_formula_units_Z 28
_cell_length_a 18.000000
_cell_length_b 9.000000
_cell_length_c 21.000000
_cell_angle_alpha 90.000000
_cell_angle_beta 60.000000
_cell_angle_gamma 90.000000
_cell_volume 2946.218424
_symmetry_space_group_name_H-M "C 2/M"
_symmetry_group_IT_number 12
_symmetry_cell_setting 'monoclinic'
loop_
_space_group_symop_operation_xyz
x,y,z
-x,y,-z
-x,-y,-z
x,-y,z
1/2+x,1/2+y,z
1/2-x,1/2+y,-z
1/2-x,1/2-y,-z
1/2+x,1/2-y,z
loop_
_atom_site_type_symbol
_atom_site_label
_atom_site_fract_x
_atom_site_fract_y
_atom_site_fract_z
Si Si1 0.917437 0.325014 0.729942
Si Si2 0.737913 0.674354 0.823329
Si Si3 0.932654 0.674183 0.233210
Si Si4 0.188527 0.169188 0.477600
Si Si5 0.438771 0.178516 0.084061
Si Si6 0.506407 0.328442 0.425738
Si Si7 0.740329 0.327260 0.669698
O O1 0.904995 0.500000 0.720750
O O2 0.831618 0.272680 0.802873
O O3 0.991327 0.311626 0.749841
O O4 0.941971 0.247881 0.653027
O O5 0.723787 0.500000 0.843225
O O6 0.658289 0.765527 0.883316
O O7 0.748988 0.690485 0.741947
O O8 0.907554 0.500000 0.238876
O O9 0.956789 0.723866 0.150510
O O10 0.854776 0.763834 0.297484
O O11 0.250000 0.250000 0.500000
O O12 0.094126 0.171880 0.547940
O O13 0.195800 0.242171 0.404602
O O14 0.215901 0.000000 0.458344
O O15 0.442348 0.000000 0.081296
O O16 0.500000 0.232223 0.000000
O O17 0.500000 0.261914 0.500000
O O18 0.536440 0.500000 0.419658
O O19 0.745905 0.500000 0.651655
#
# Coordination Sequence:
#
# PCOD9223583 Si02
#       7
#     8   8   8   8   8   8   8
#     4  10  20  34  52  74 100 131 168 208 250 298
#     4   9  19  34  52  75 101 130 163 200 246 298
#     4   9  18  33  53  75 101 134 168 205 250 297
#     4  11  22  34  49  70  97 129 167 212 258 300
#     4   9  18  34  56  80 104 132 167 203 241 292
#     4  10  22  37  51  70  98 133 171 211 254 297
#     4  10  19  32  50  71  96 127 167 210 249 297
#
# _framework density 9.5037079999999996
#
# number of rings (size 3 to 8) (size 9 to 14) (size 15 to 20)
#    0.000    2.286    0.000    2.571    0.000    5.714 
#    0.000    0.714    0.000    0.000    0.000    0.000 
#    0.000    0.000    0.000    0.000    0.000    0.000 
#
# Total GULP energy -155975.578894 kJ/mol
# GULP energy per Si atom -5570.556389 kJ/mol
# Density = 0.948208 g / cm^3
# Si number density = 9.503708 Si / 1000 Ang^3
#
#
#
# Elastic Constant Matrix: (Units=GPa)
#
#
# Indices 1 2 3 4 5 6 
#
# 1 36.8284 19.5606 14.7923 0.0000 -16.2170 0.0000
# 2 19.5606 33.5102 27.2197 0.0000 -8.3141 0.0001
# 3 14.7923 27.2197 119.6721 0.0000 -22.0073 0.0000
# 4 0.0000 0.0000 0.0000 27.7013 0.0000 -1.4636
# 5 -16.2170 -8.3141 -22.0073 0.0000 22.8087 0.0000
# 6 0.0000 0.0001 0.0000 -1.4636 0.0000 15.7116
#
#
#
# Elastic Compliance Matrix: (Units=1/GPa)
#
#
# Indices 1 2 3 4 5 6 
#
# 1 0.055093 -0.028470 0.006031 0.000000 0.034613 0.000000
# 2 -0.028470 0.052116 -0.010411 0.000000 -0.011291 0.000000
# 3 0.006031 -0.010411 0.012241 0.000000 0.012304 0.000000
# 4 0.000000 0.000000 0.000000 0.036278 0.000000 0.003379
# 5 0.034613 -0.011291 0.012304 0.000000 0.076209 0.000000
# 6 0.000000 0.000000 0.000000 0.003379 0.000000 0.063962
#
#
# Mechanical properties :
#
#
# Convention : Reuss Voigt Hill
#
# Bulk Modulus (GPa) = 18.60480 34.79509 26.69995
# Shear Modulus (GPa) = 13.17464 21.80686 17.49075
#
# Velocity S-wave (km/s) = 2.63559 3.39083 3.03678
# Velocity P-wave (km/s) = 4.36706 5.80311 5.13553
#
# Compressibility (1/GPa) = 0.05374958
#
# Stress axis : x y z
#
# Youngs Moduli (GPa) = 18.15100 19.18804 81.68968
#
# Poissons Ratio (x) = 0.54629 -0.49266
# Poissons Ratio (y) = 0.51676 0.85048
# Poissons Ratio (z) = -0.10947 0.19977
#
# Static dielectric constant tensor:
#      x y z
#    x 1.838020 0.000000 -0.019450 
#    y 0.000000 1.673610 0.000000 
#    z -0.019450 0.000000 1.623030 
# 
# From -- ./inp_files/275161.got.cif
#   From: 2010.05.17/outbox.ucp.g08.bks.cvg/sg12_138_cif.got.tgz:275161.got - 2010.06.11 11:47:21.
