data_PCOD9223633
_publ_section_title
;
Structure prediction by ZEFSAII (Michael W. Deem and Ramdas Pophale) SiO2 
 PCOD9223633
Probable space group: C 2/M
;
_chemical_formula_sum "Si O2"
_cell_formula_units_Z 32
_cell_length_a 30.000000
_cell_length_b 9.000000
_cell_length_c 15.000000
_cell_angle_alpha 90.000000
_cell_angle_beta 50.000000
_cell_angle_gamma 90.000000
_cell_volume 3102.479995
_symmetry_space_group_name_H-M "C 2/M"
_symmetry_group_IT_number 12
_symmetry_cell_setting 'monoclinic'
loop_
_space_group_symop_operation_xyz
x,y,z
-x,y,-z
-x,-y,-z
x,-y,z
1/2+x,1/2+y,z
1/2-x,1/2+y,-z
1/2-x,1/2-y,-z
1/2+x,1/2-y,z
loop_
_atom_site_type_symbol
_atom_site_label
_atom_site_fract_x
_atom_site_fract_y
_atom_site_fract_z
Si Si1 0.136040 0.673266 0.288793
Si Si2 0.236466 0.827589 0.925372
Si Si3 0.160921 0.816230 0.865486
Si Si4 0.580699 0.326195 0.714659
Si Si5 0.539060 0.325240 0.070988
Si Si6 0.558563 0.672940 0.257518
Si Si7 0.789794 0.828570 0.376349
Si Si8 0.939702 0.677530 0.446000
O O1 0.121000 0.500000 0.293670
O O2 0.205007 0.681342 0.208902
O O3 0.116061 0.764042 0.228428
O O4 0.101438 0.726458 0.420156
O O5 0.185361 0.767933 0.929391
O O6 0.223976 0.000000 0.960024
O O7 0.250000 0.750000 0.000000
O O8 0.203932 0.766446 0.731653
O O9 0.161098 0.000000 0.862858
O O10 0.093990 0.765178 0.945921
O O11 0.567046 0.500000 0.711560
O O12 0.527278 0.269665 0.844844
O O13 0.643265 0.323374 0.678262
O O14 0.582106 0.238245 0.620633
O O15 0.536521 0.500000 0.050718
O O16 0.555271 0.310562 0.155157
O O17 0.552645 0.500000 0.284925
O O18 0.504826 0.760557 0.370291
O O19 0.750000 0.750000 0.500000
O O20 0.770723 0.000000 0.395588
O O21 0.940730 0.500000 0.443470
#
# Coordination Sequence:
#
# PCOD9223633 Si02
#       8
#     8   8   8   8   8   8   8   8
#     4  10  21  33  48  72 105 145 188 232 272 332
#     4  10  21  37  55  79 110 144 189 236 281 336
#     4   9  18  34  58  83 108 146 190 231 279 336
#     4   9  19  35  54  82 113 140 179 233 283 328
#     4   8  15  30  53  80 108 136 175 226 276 327
#     4  10  19  32  52  79 110 143 180 230 283 328
#     4  10  22  38  59  84 113 149 188 233 281 334
#     4  10  20  33  52  77 107 147 187 224 273 333
#
# _framework density 10.314329000000001
#
# number of rings (size 3 to 8) (size 9 to 14) (size 15 to 20)
#    0.000    2.500    0.000    2.625    1.750    5.000 
#    0.000    3.125    0.000    3.750    0.000    4.375 
#    0.000    0.000    0.000    0.000    0.000    0.000 
#
# Total GULP energy -178448.385369 kJ/mol
# GULP energy per Si atom -5576.512043 kJ/mol
# Density = 1.029085 g / cm^3
# Si number density = 10.314329 Si / 1000 Ang^3
#
#
#
# Elastic Constant Matrix: (Units=GPa)
#
#
# Indices 1 2 3 4 5 6 
#
# 1 72.5590 20.9947 31.2309 0.0000 10.0087 0.0000
# 2 20.9947 23.9368 26.5510 0.0000 -0.5902 0.0001
# 3 31.2309 26.5510 126.1086 0.0000 1.1925 0.0000
# 4 0.0000 0.0000 0.0000 18.5668 0.0000 -2.8612
# 5 10.0087 -0.5902 1.1925 0.0000 16.0802 0.0000
# 6 0.0000 0.0001 0.0000 -2.8612 0.0000 16.6107
#
#
#
# Elastic Compliance Matrix: (Units=1/GPa)
#
#
# Indices 1 2 3 4 5 6 
#
# 1 0.021378 -0.017436 -0.001492 0.000000 -0.013835 0.000000
# 2 -0.017436 0.068858 -0.010313 0.000000 0.014145 0.000000
# 3 -0.001492 -0.010313 0.010473 0.000000 -0.000226 0.000000
# 4 0.000000 0.000000 0.000000 0.055328 0.000000 0.009530
# 5 -0.013835 0.014145 -0.000226 0.000000 0.071335 0.000000
# 6 0.000000 0.000000 0.000000 0.009530 0.000000 0.061844
#
#
# Mechanical properties :
#
#
# Convention : Reuss Voigt Hill
#
# Bulk Modulus (GPa) = 23.68242 42.23973 32.96107
# Shear Modulus (GPa) = 13.82081 19.84007 16.83044
#
# Velocity S-wave (km/s) = 2.59121 3.10461 2.85945
# Velocity P-wave (km/s) = 4.52302 5.77686 5.18796
#
# Compressibility (1/GPa) = 0.04222541
#
# Stress axis : x y z
#
# Youngs Moduli (GPa) = 46.77783 14.52270 95.48607
#
# Poissons Ratio (x) = 0.25322 0.14251
# Poissons Ratio (y) = 0.81561 0.98476
# Poissons Ratio (z) = 0.06981 0.14977
#
# Static dielectric constant tensor:
#      x y z
#    x 1.792520 0.000000 -0.000640 
#    y 0.000000 1.701850 0.000000 
#    z -0.000640 0.000000 1.755610 
# 
# From -- ./inp_files/249850.got.cif
#   From: 2010.05.17/outbox.ucp.g08.bks.cvg/sg12_125_cif.got.tgz:249850.got - 2010.06.11 11:47:21.
