data_PCOD9223212
_publ_section_title
;
Structure prediction by ZEFSAII (Michael W. Deem and Ramdas Pophale) SiO2 
 PCOD9223212
Probable space group: C 2/M
;
_chemical_formula_sum "Si O2"
_cell_formula_units_Z 32
_cell_length_a 21.000000
_cell_length_b 9.000000
_cell_length_c 27.000000
_cell_angle_alpha 90.000000
_cell_angle_beta 50.000000
_cell_angle_gamma 90.000000
_cell_volume 3909.124793
_symmetry_space_group_name_H-M "C 2/M"
_symmetry_group_IT_number 12
_symmetry_cell_setting 'monoclinic'
loop_
_space_group_symop_operation_xyz
x,y,z
-x,y,-z
-x,-y,-z
x,-y,z
1/2+x,1/2+y,z
1/2-x,1/2+y,-z
1/2-x,1/2-y,-z
1/2+x,1/2-y,z
loop_
_atom_site_type_symbol
_atom_site_label
_atom_site_fract_x
_atom_site_fract_y
_atom_site_fract_z
Si Si1 0.750507 0.320625 0.825739
Si Si2 0.157677 0.180144 0.045991
Si Si3 0.398435 0.678882 0.816166
Si Si4 0.499800 0.679272 0.671023
Si Si5 0.836944 0.179086 0.472906
Si Si6 0.908099 0.180661 0.030227
Si Si7 0.401231 0.679422 0.551262
Si Si8 0.852132 0.678951 0.679848
O O1 0.755791 0.500000 0.826357
O O2 0.820529 0.250343 0.826298
O O3 0.662186 0.275333 0.894136
O O4 0.775083 0.282847 0.756171
O O5 0.108861 0.221821 0.121730
O O6 0.164421 0.000000 0.042520
O O7 0.250000 0.250000 0.000000
O O8 0.115665 0.224420 0.014408
O O9 0.391350 0.500000 0.818762
O O10 0.476800 0.715454 0.740226
O O11 0.490695 0.500000 0.670203
O O12 0.589621 0.718689 0.603054
O O13 0.431532 0.758793 0.670527
O O14 0.750000 0.250000 0.500000
O O15 0.862832 0.220793 0.516611
O O16 0.829922 0.000000 0.475830
O O17 0.908961 0.000000 0.029874
O O18 0.000000 0.231737 0.000000
O O19 0.500000 0.717296 0.500000
O O20 0.395612 0.500000 0.559229
O O21 0.358146 0.752304 0.621418
O O22 0.855457 0.500000 0.674286
#
# Coordination Sequence:
#
# PCOD9223212 Si02
#       8
#     8   8   8   8   8   8   8   8
#     4   9  17  30  47  71 101 130 160 198 250 294
#     4  10  18  29  48  74  98 124 164 206 244 286
#     4   9  17  28  48  75  97 122 164 207 241 286
#     4   9  17  33  51  70 100 135 166 199 247 302
#     4  10  21  36  54  74 101 136 168 203 249 300
#     4   9  17  30  48  69  98 134 166 197 240 295
#     4  10  19  35  55  74  99 133 172 205 244 299
#     4  10  19  29  48  79 105 125 161 213 256 288
#
# _framework density 8.1859760000000001
#
# number of rings (size 3 to 8) (size 9 to 14) (size 15 to 20)
#    0.000    2.500    2.500    0.375    0.000    1.750 
#    0.000    1.250    0.000    6.000    0.000    0.000 
#    0.000    0.000    0.000    0.000    0.000    0.000 
#
# Total GULP energy -178164.683988 kJ/mol
# GULP energy per Si atom -5567.646375 kJ/mol
# Density = 0.816734 g / cm^3
# Si number density = 8.185976 Si / 1000 Ang^3
#
#
#
# Elastic Constant Matrix: (Units=GPa)
#
#
# Indices 1 2 3 4 5 6 
#
# 1 114.9273 18.5352 85.0662 0.0000 6.4706 0.0004
# 2 18.5352 15.2192 30.2162 0.0000 2.9453 0.0008
# 3 85.0662 30.2162 209.9653 0.0000 13.0289 0.0000
# 4 0.0000 0.0000 0.0000 25.6998 0.0000 1.8693
# 5 6.4706 2.9453 13.0289 0.0000 30.7832 0.0000
# 6 0.0004 0.0008 0.0000 1.8693 0.0000 23.4419
#
#
#
# Elastic Compliance Matrix: (Units=1/GPa)
#
#
# Indices 1 2 3 4 5 6 
#
# 1 0.013019 -0.007513 -0.004178 0.000000 -0.000249 0.000000
# 2 -0.007513 0.096650 -0.010670 0.000000 -0.003152 -0.000003
# 3 -0.004178 -0.010670 0.008085 0.000000 -0.001523 0.000000
# 4 0.000000 0.000000 0.000000 0.039138 0.000000 -0.003121
# 5 -0.000249 -0.003152 -0.001523 0.000000 0.033484 0.000000
# 6 0.000000 -0.000003 0.000000 -0.003121 0.000000 0.042907
#
#
# Mechanical properties :
#
#
# Convention : Reuss Voigt Hill
#
# Bulk Modulus (GPa) = 13.69229 67.52745 40.60987
# Shear Modulus (GPa) = 16.53720 29.73794 23.13757
#
# Velocity S-wave (km/s) = 3.18164 4.26654 3.76339
# Velocity P-wave (km/s) = 4.67745 8.09979 6.61382
#
# Compressibility (1/GPa) = 0.07303381
#
# Stress axis : x y z
#
# Youngs Moduli (GPa) = 76.80883 10.34665 123.67992
#
# Poissons Ratio (x) = 0.07773 0.51674
# Poissons Ratio (y) = 0.57704 1.31961
# Poissons Ratio (z) = 0.32091 0.11039
#
# Static dielectric constant tensor:
#      x y z
#    x 1.527650 0.000000 0.005820 
#    y 0.000000 1.545810 0.000000 
#    z 0.005820 0.000000 1.588750 
# 
# From -- ./inp_files/365154.got.cif
#   From: 2010.05.17/outbox.ucp.g08.bks.cvg/sg12_183_cif.got.tgz:365154.got - 2010.06.11 11:47:21.
