data_PCOD9223479
_publ_section_title
;
Structure prediction by ZEFSAII (Michael W. Deem and Ramdas Pophale) SiO2 
 PCOD9223479
Probable space group: C 2/M
;
_chemical_formula_sum "Si O2"
_cell_formula_units_Z 32
_cell_length_a 30.000000
_cell_length_b 9.000000
_cell_length_c 12.000000
_cell_angle_alpha 90.000000
_cell_angle_beta 90.000000
_cell_angle_gamma 90.000000
_cell_volume 3240.000000
_symmetry_space_group_name_H-M "C 2/M"
_symmetry_group_IT_number 12
_symmetry_cell_setting 'monoclinic'
loop_
_space_group_symop_operation_xyz
x,y,z
-x,y,-z
-x,-y,-z
x,-y,z
1/2+x,1/2+y,z
1/2-x,1/2+y,-z
1/2-x,1/2-y,-z
1/2+x,1/2-y,z
loop_
_atom_site_type_symbol
_atom_site_label
_atom_site_fract_x
_atom_site_fract_y
_atom_site_fract_z
Si Si1 0.821647 0.335491 0.476104
Si Si2 0.201225 0.825760 0.983251
Si Si3 0.593847 0.331848 0.502643
Si Si4 0.288917 0.834957 0.224844
Si Si5 0.447836 0.325713 0.741674
Si Si6 0.209897 0.663287 0.292282
Si Si7 0.977185 0.673280 0.378264
Si Si8 0.370417 0.829407 0.858594
O O1 0.843620 0.500000 0.491487
O O2 0.854362 0.200206 0.496754
O O3 0.805322 0.329142 0.350869
O O4 0.786035 0.330392 0.575255
O O5 0.162310 0.754903 0.057439
O O6 0.204703 0.000000 0.001839
O O7 0.250000 0.750000 0.000000
O O8 0.189639 0.784837 0.855760
O O9 0.581453 0.500000 0.529191
O O10 0.576237 0.302124 0.378258
O O11 0.572201 0.228087 0.596404
O O12 0.237001 0.793549 0.235679
O O13 0.295754 0.000000 0.179399
O O14 0.449656 0.500000 0.763862
O O15 0.496472 0.259814 0.717111
O O16 0.417506 0.245221 0.832789
O O17 0.226343 0.500000 0.253482
O O18 0.158731 0.670859 0.255566
O O19 0.979834 0.500000 0.355811
O O20 0.000000 0.701343 0.500000
O O21 0.375936 0.000000 0.893065
#
# Coordination Sequence:
#
# PCOD9223479 Si02
#       8
#     8   8   8   8   8   8   8   8
#     4  10  21  36  52  75 106 141 177 214 256 312
#     4  12  24  39  57  75 100 133 175 222 268 312
#     4  10  19  30  48  74 105 140 174 212 256 308
#     4  11  23  37  55  76 102 136 178 221 263 309
#     4  10  19  31  48  75 108 138 173 214 258 309
#     4  10  20  34  53  75 104 139 175 214 259 309
#     4   9  17  29  47  70 101 140 175 210 255 309
#     4  11  21  34  55  79 104 136 176 216 261 313
#
# _framework density 9.8765429999999999
#
# number of rings (size 3 to 8) (size 9 to 14) (size 15 to 20)
#    0.000    1.625    2.500    3.375    0.000    4.500 
#    0.000    0.000    0.000    0.000    0.000    0.875 
#    0.000    7.000    0.000    0.000    0.000    0.000 
#
# Total GULP energy -178304.546393 kJ/mol
# GULP energy per Si atom -5572.017075 kJ/mol
# Density = 0.985406 g / cm^3
# Si number density = 9.876543 Si / 1000 Ang^3
#
#
#
# Elastic Constant Matrix: (Units=GPa)
#
#
# Indices 1 2 3 4 5 6 
#
# 1 26.6697 41.7296 9.7883 0.0000 -29.6708 0.0000
# 2 41.7296 69.4922 47.0496 0.0000 -43.5515 0.0000
# 3 9.7883 47.0496 66.6599 0.0000 -23.6632 0.0000
# 4 0.0000 0.0000 0.0000 25.5549 0.0000 -11.0463
# 5 -29.6708 -43.5515 -23.6632 0.0000 30.1709 0.0000
# 6 0.0000 0.0000 0.0000 -11.0463 0.0000 27.2980
#
#
#
# Elastic Compliance Matrix: (Units=1/GPa)
#
#
# Indices 1 2 3 4 5 6 
#
# 1 -0.120757 0.095730 -0.059506 0.000000 -0.027241 0.000000
# 2 0.095730 0.239515 -0.037361 0.000000 0.410579 0.000000
# 3 -0.059506 -0.037361 0.014124 0.000000 -0.101373 0.000000
# 4 0.000000 0.000000 0.000000 0.047427 0.000000 0.019192
# 5 -0.027241 0.410579 -0.101373 0.000000 0.519517 0.000000
# 6 0.000000 0.000000 0.000000 0.019192 0.000000 0.044399
#
#
# Mechanical properties :
#
#
# Convention : Reuss Voigt Hill
#
# Bulk Modulus (GPa) = 7.65652 39.99520 23.82586
# Shear Modulus (GPa) = 6.32884 20.88838 13.60861
#
# Velocity S-wave (km/s) = 1.79191 3.25541 2.62761
# Velocity P-wave (km/s) = 2.85758 5.86701 4.61452
#
# Compressibility (1/GPa) = 0.13060768
#
# Stress axis : x y z
#
# Youngs Moduli (GPa) = -8.28109 4.17511 70.80298
#
# Poissons Ratio (x) = -0.39968 4.21318
# Poissons Ratio (y) = 0.79275 2.64528
# Poissons Ratio (z) = -0.49277 0.15599
#
# Static dielectric constant tensor:
#      x y z
#    x 1.707280 0.000000 0.008170 
#    y 0.000000 1.709690 0.000000 
#    z 0.008170 0.000000 1.730700 
# 
# From -- ./inp_files/187401.got.cif
#   From: 2010.05.17/outbox.ucp.g08.bks.cvg/sg12_94_cif.got.tgz:187401.got - 2010.06.11 11:47:21.
