data_PCOD9223700
_publ_section_title
;
Structure prediction by ZEFSAII (Michael W. Deem and Ramdas Pophale) SiO2 
 PCOD9223700
Probable space group: C 2/M
;
_chemical_formula_sum "Si O2"
_cell_formula_units_Z 28
_cell_length_a 18.000000
_cell_length_b 18.000000
_cell_length_c 12.000000
_cell_angle_alpha 90.000000
_cell_angle_beta 130.000000
_cell_angle_gamma 90.000000
_cell_volume 2978.380795
_symmetry_space_group_name_H-M "C 2/M"
_symmetry_group_IT_number 12
_symmetry_cell_setting 'monoclinic'
loop_
_space_group_symop_operation_xyz
x,y,z
-x,y,-z
-x,-y,-z
x,-y,z
1/2+x,1/2+y,z
1/2-x,1/2+y,-z
1/2-x,1/2-y,-z
1/2+x,1/2-y,z
loop_
_atom_site_type_symbol
_atom_site_label
_atom_site_fract_x
_atom_site_fract_y
_atom_site_fract_z
Si Si1 0.805091 0.589802 0.597987
Si Si2 0.885324 0.911334 0.145585
Si Si3 0.294502 0.648009 0.827091
Si Si4 0.097389 0.410535 0.532310
Si Si5 0.243264 0.300468 0.104192
Si Si6 0.113659 0.587472 0.084089
Si Si7 0.105547 0.910796 0.289357
O O1 0.810520 0.500000 0.601991
O O2 0.879029 0.615836 0.571676
O O3 0.832373 0.610604 0.749436
O O4 0.695785 0.609563 0.456485
O O5 0.835194 0.856781 0.187948
O O6 0.999933 0.896608 0.238949
O O7 0.872072 0.000000 0.154847
O O8 0.833825 0.888669 0.979106
O O9 0.193447 0.610087 0.693976
O O10 0.272192 0.735643 0.819795
O O11 0.372177 0.630748 0.804922
O O12 0.090059 0.500000 0.520143
O O13 0.000000 0.382828 0.500000
O O14 0.153022 0.357413 0.027388
O O15 0.250000 0.250000 0.000000
O O16 0.133311 0.500000 0.078086
O O17 0.000000 0.594134 0.000000
O O18 0.111490 0.000000 0.273564
#
# Coordination Sequence:
#
# PCOD9223700 Si02
#       7
#     8   8   8   8   8   8   8
#     4   8  16  32  53  79 107 133 173 226 270 314
#     4  10  19  33  55  79 103 138 183 224 263 315
#     4  10  19  33  51  78 110 140 174 217 273 331
#     4   9  17  31  53  81 113 147 183 227 273 316
#     4  10  23  37  51  78 114 145 175 224 281 324
#     4  10  21  39  62  81 101 141 192 231 268 325
#     4   9  17  32  56  82 105 133 172 220 270 317
#
# _framework density 9.4010809999999996
#
# number of rings (size 3 to 8) (size 9 to 14) (size 15 to 20)
#    0.000    2.571    0.000    3.000    0.000    5.714 
#    0.000    9.286    0.000    3.429    0.000    0.000 
#    0.000    0.000    0.000    0.000    0.000    0.000 
#
# Total GULP energy -156041.994143 kJ/mol
# GULP energy per Si atom -5572.928362 kJ/mol
# Density = 0.937968 g / cm^3
# Si number density = 9.401081 Si / 1000 Ang^3
#
#
#
# Elastic Constant Matrix: (Units=GPa)
#
#
# Indices 1 2 3 4 5 6 
#
# 1 111.2667 59.2920 8.8925 0.0000 22.5429 0.0000
# 2 59.2920 81.1537 9.7198 0.0000 1.2271 0.0000
# 3 8.8925 9.7198 41.6847 0.0000 1.6303 0.0000
# 4 0.0000 0.0000 0.0000 8.3267 0.0000 -6.5909
# 5 22.5429 1.2271 1.6303 0.0000 19.3152 0.0000
# 6 0.0000 0.0000 0.0000 -6.5909 0.0000 42.0028
#
#
#
# Elastic Compliance Matrix: (Units=1/GPa)
#
#
# Indices 1 2 3 4 5 6 
#
# 1 0.022902 -0.016335 -0.000072 0.000000 -0.025685 0.000000
# 2 -0.016335 0.024334 -0.002884 0.000000 0.017762 0.000000
# 3 -0.000072 -0.002884 0.024749 0.000000 -0.001822 0.000000
# 4 0.000000 0.000000 0.000000 0.137127 0.000000 0.021517
# 5 -0.025685 0.017762 -0.001822 0.000000 0.080775 0.000000
# 6 0.000000 0.000000 0.000000 0.021517 0.000000 0.027184
#
#
# Mechanical properties :
#
#
# Convention : Reuss Voigt Hill
#
# Bulk Modulus (GPa) = 29.93860 43.32374 36.63117
# Shear Modulus (GPa) = 13.63189 24.34234 18.98712
#
# Velocity S-wave (km/s) = 2.69554 3.60204 3.18124
# Velocity P-wave (km/s) = 5.06413 6.35543 5.74617
#
# Compressibility (1/GPa) = 0.03340170
#
# Stress axis : x y z
#
# Youngs Moduli (GPa) = 43.66476 41.09493 40.40616
#
# Poissons Ratio (x) = 0.67130 0.00291
# Poissons Ratio (y) = 0.71328 0.11653
# Poissons Ratio (z) = 0.00315 0.11852
#
# Static dielectric constant tensor:
#      x y z
#    x 1.683830 0.000000 -0.028080 
#    y 0.000000 1.646730 0.000000 
#    z -0.028080 0.000000 1.660890 
# 
# From -- ./inp_files/158326.got.cif
#   From: 2010.05.17/outbox.ucp.g08.bks.cvg/sg12_80_cif.got.tgz:158326.got - 2010.06.11 11:47:21.
