data_PCOD9223006
_publ_section_title
;
Structure prediction by ZEFSAII (Michael W. Deem and Ramdas Pophale) SiO2 
 PCOD9223006
Probable space group: C 2/M
;
_chemical_formula_sum "Si O2"
_cell_formula_units_Z 48
_cell_length_a 14.321052
_cell_length_b 11.853927
_cell_length_c 16.997504
_cell_angle_alpha 90.000000
_cell_angle_beta 142.124163
_cell_angle_gamma 90.000000
_cell_volume 1771.564636
_symmetry_space_group_name_H-M "C 2/M"
_symmetry_group_IT_number 12
_symmetry_cell_setting 'monoclinic'
loop_
_space_group_symop_operation_xyz
x,y,z
-x,y,-z
-x,-y,-z
x,-y,z
1/2+x,1/2+y,z
1/2-x,1/2+y,-z
1/2-x,1/2-y,-z
1/2+x,1/2-y,z
loop_
_atom_site_type_symbol
_atom_site_label
_atom_site_fract_x
_atom_site_fract_y
_atom_site_fract_z
Si Si1 0.602308 0.148920 0.343659
Si Si2 0.408615 0.612853 0.630874
Si Si3 0.858882 0.874326 0.346466
Si Si4 0.598725 0.121069 0.939629
Si Si5 0.877770 0.126524 0.009404
Si Si6 0.833762 0.625383 0.285985
O O1 0.614980 0.279851 0.334717
O O2 0.772186 0.112403 0.476366
O O3 0.512269 0.108375 0.209027
O O4 0.501248 0.132982 0.355196
O O5 0.400495 0.500000 0.673147
O O6 0.567021 0.620524 0.691115
O O7 0.000000 0.876429 0.500000
O O8 0.802976 0.743383 0.311303
O O9 0.782095 0.000000 0.304819
O O10 0.766572 0.127341 0.011738
O O11 0.591800 0.000000 0.979598
O O12 0.559612 0.243843 0.949980
O O13 0.778439 0.124106 0.863524
O O14 0.954023 0.000000 0.061568
O O15 0.827615 0.500000 0.320274
#
# Coordination Sequence:
#
# PCOD9223006 Si02
#       6
#     8   8   8   8   8   8
#     4   9  16  25  39  60  84 108 133 162 196 236
#     4   9  16  26  40  57  80 110 137 161 196 238
#     4   9  18  30  42  59  82 106 134 167 199 232
#     4   9  15  23  36  54  79 107 131 156 188 230
#     4   8  15  25  36  54  79 105 130 157 191 230
#     4   9  16  27  43  61  82 106 132 164 199 235
#
# _framework density 27.094692999999999
#
# number of rings (size 3 to 8) (size 9 to 14) (size 15 to 20)
#    0.000    3.167    0.000    2.500    0.000    1.667 
#    0.000    6.667    0.000    0.000    0.000    1.167 
#    0.000    8.000    0.000    0.000    0.000    0.000 
#
# Total GULP energy -133719.777750 kJ/mol
# GULP energy per Si atom -5571.657406 kJ/mol
# Density = 2.703302 g / cm^3
# Si number density = 27.094693 Si / 1000 Ang^3
#
#
#
# Elastic Constant Matrix: (Units=GPa)
#
#
# Indices 1 2 3 4 5 6 
#
# 1 113.1805 26.3124 4.7925 0.0000 3.8350 0.0000
# 2 26.3124 382.8000 22.7987 0.0000 -3.9446 0.0000
# 3 4.7925 22.7987 44.7977 0.0000 -1.6092 0.0000
# 4 0.0000 0.0000 0.0000 53.2967 0.0000 4.5862
# 5 3.8350 -3.9446 -1.6092 0.0000 22.4256 0.0000
# 6 0.0000 0.0000 0.0000 4.5862 0.0000 -21.5397
#
#
#
# Elastic Compliance Matrix: (Units=1/GPa)
#
#
# Indices 1 2 3 4 5 6 
#
# 1 0.009063 -0.000597 -0.000727 0.000000 -0.001707 0.000000
# 2 -0.000597 0.002737 -0.001311 0.000000 0.000489 0.000000
# 3 -0.000727 -0.001311 0.023123 0.000000 0.001553 0.000000
# 4 0.000000 0.000000 0.000000 0.018425 0.000000 0.003923
# 5 -0.001707 0.000489 0.001553 0.000000 0.045081 0.000000
# 6 0.000000 0.000000 0.000000 0.003923 0.000000 -0.045591
#
#
# Mechanical properties :
#
#
# Convention : Reuss Voigt Hill
#
# Bulk Modulus (GPa) = 33.72443 72.06504 52.89473
# Shear Modulus (GPa) = 73.53617 43.29483 58.41550
#
# Velocity S-wave (km/s) = 5.21530 4.00172 4.64829
# Velocity P-wave (km/s) = 6.98138 6.92870 6.95509
#
# Compressibility (1/GPa) = 0.02965209
#
# Stress axis : x y z
#
# Youngs Moduli (GPa) = 110.33976 365.42779 43.24623
#
# Poissons Ratio (x) = 0.21825 0.03144
# Poissons Ratio (y) = 0.06590 0.05670
# Poissons Ratio (z) = 0.08021 0.47915
#
# Static dielectric constant tensor:
#      x y z
#    x 2.117590 0.000000 0.030370 
#    y 0.000000 2.206510 0.000000 
#    z 0.030370 0.000000 2.091590 
# 
# From -- ./inp_files/164321.got.cif
#   From: 2010.05.17/outbox.cif.g08.bks.cpg/sg12_83_cif.got.tgz:164321.got - 2010.06.03 13:09:07.
