data_PCOD9223241
_publ_section_title
;
Structure prediction by ZEFSAII (Michael W. Deem and Ramdas Pophale) SiO2 
 PCOD9223241
Probable space group: C 2/M
;
_chemical_formula_sum "Si O2"
_cell_formula_units_Z 32
_cell_length_a 30.000000
_cell_length_b 9.000000
_cell_length_c 15.000000
_cell_angle_alpha 90.000000
_cell_angle_beta 60.000000
_cell_angle_gamma 90.000000
_cell_volume 3507.402885
_symmetry_space_group_name_H-M "C 2/M"
_symmetry_group_IT_number 12
_symmetry_cell_setting 'monoclinic'
loop_
_space_group_symop_operation_xyz
x,y,z
-x,y,-z
-x,-y,-z
x,-y,z
1/2+x,1/2+y,z
1/2-x,1/2+y,-z
1/2-x,1/2-y,-z
1/2+x,1/2-y,z
loop_
_atom_site_type_symbol
_atom_site_label
_atom_site_fract_x
_atom_site_fract_y
_atom_site_fract_z
Si Si1 0.397652 0.323920 0.072466
Si Si2 0.619847 0.170807 0.193933
Si Si3 0.961774 0.322484 0.853314
Si Si4 0.667992 0.328651 0.593846
Si Si5 0.211424 0.677852 0.204149
Si Si6 0.190094 0.670462 0.946655
Si Si7 0.079669 0.327974 0.764589
Si Si8 0.762690 0.326679 0.617486
O O1 0.396857 0.500000 0.069253
O O2 0.343797 0.260066 0.090592
O O3 0.410409 0.268944 0.157926
O O4 0.439582 0.257921 0.962189
O O5 0.568104 0.235930 0.204075
O O6 0.654341 0.235238 0.238137
O O7 0.608059 0.000000 0.230192
O O8 0.658644 0.172904 0.070365
O O9 0.949991 0.500000 0.874266
O O10 0.022142 0.305247 0.788502
O O11 0.652613 0.500000 0.604000
O O12 0.619988 0.221787 0.650608
O O13 0.703889 0.308684 0.645369
O O14 0.703521 0.281250 0.476538
O O15 0.212511 0.500000 0.186241
O O16 0.254434 0.756610 0.102497
O O17 0.226988 0.702219 0.290216
O O18 0.194659 0.500000 0.913771
O O19 0.086287 0.500000 0.782236
O O20 0.775731 0.500000 0.585146
#
# Coordination Sequence:
#
# PCOD9223241 Si02
#       8
#     8   8   8   8   8   8   8   8
#     4  11  21  32  48  72 102 133 168 206 243 287
#     4   8  16  31  49  70  98 132 168 206 244 284
#     4   9  19  35  51  70  99 134 169 203 243 289
#     4  10  20  34  52  74 101 128 157 197 243 296
#     4  10  18  30  51  75  99 128 165 208 249 291
#     4  10  19  31  47  70 103 137 168 201 242 294
#     4  11  21  33  52  74  99 131 165 202 245 295
#     4   9  19  34  51  73  99 126 156 195 246 298
#
# _framework density 9.1235599999999994
#
# number of rings (size 3 to 8) (size 9 to 14) (size 15 to 20)
#    0.000    2.250    0.000    4.500    0.000    4.500 
#    0.000    2.500    0.000    0.750    0.000    5.250 
#    0.000    0.000    0.000    0.000    0.000    0.000 
#
# Total GULP energy -178416.015713 kJ/mol
# GULP energy per Si atom -5575.500491 kJ/mol
# Density = 0.910279 g / cm^3
# Si number density = 9.123560 Si / 1000 Ang^3
#
#
#
# Elastic Constant Matrix: (Units=GPa)
#
#
# Indices 1 2 3 4 5 6 
#
# 1 65.5420 51.4218 28.6394 0.0000 -1.9276 0.0000
# 2 51.4218 47.5793 24.3992 0.0000 -2.2874 0.0000
# 3 28.6394 24.3992 21.5524 0.0000 -3.9947 0.0000
# 4 0.0000 0.0000 0.0000 15.4987 0.0000 -5.4576
# 5 -1.9276 -2.2874 -3.9947 0.0000 12.9674 0.0000
# 6 0.0000 0.0000 0.0000 -5.4576 0.0000 9.5910
#
#
#
# Elastic Compliance Matrix: (Units=1/GPa)
#
#
# Indices 1 2 3 4 5 6 
#
# 1 0.107916 -0.101472 -0.030619 0.000000 -0.011290 0.000000
# 2 -0.101472 0.146567 -0.030853 0.000000 0.001266 0.000000
# 3 -0.030619 -0.030853 0.127438 0.000000 0.029264 0.000000
# 4 0.000000 0.000000 0.000000 0.080690 0.000000 0.045915
# 5 -0.011290 0.001266 0.029264 0.000000 0.084676 0.000000
# 6 0.000000 0.000000 0.000000 0.045915 0.000000 0.130392
#
#
# Mechanical properties :
#
#
# Convention : Reuss Voigt Hill
#
# Bulk Modulus (GPa) = 17.84668 38.17716 28.01192
# Shear Modulus (GPa) = 4.89120 9.62565 7.25842
#
# Velocity S-wave (km/s) = 1.63901 2.29926 1.99662
# Velocity P-wave (km/s) = 3.65836 5.29306 4.54973
#
# Compressibility (1/GPa) = 0.05603284
#
# Stress axis : x y z
#
# Youngs Moduli (GPa) = 9.26646 6.82283 7.84696
#
# Poissons Ratio (x) = 0.69233 0.24027
# Poissons Ratio (y) = 0.94029 0.24210
# Poissons Ratio (z) = 0.28373 0.21050
#
# Static dielectric constant tensor:
#      x y z
#    x 1.671660 0.000000 0.002280 
#    y 0.000000 1.611190 0.000000 
#    z 0.002280 0.000000 1.609170 
# 
# From -- ./inp_files/248974.got.cif
#   From: 2010.05.17/outbox.ucp.g08.bks.cvg/sg12_125_cif.got.tgz:248974.got - 2010.06.11 11:47:21.
