data_PCOD9223442
_publ_section_title
;
Structure prediction by ZEFSAII (Michael W. Deem and Ramdas Pophale) SiO2 
 PCOD9223442
Probable space group: C 2/M
;
_chemical_formula_sum "Si O2"
_cell_formula_units_Z 32
_cell_length_a 24.000000
_cell_length_b 9.000000
_cell_length_c 24.000000
_cell_angle_alpha 90.000000
_cell_angle_beta 130.000000
_cell_angle_gamma 90.000000
_cell_volume 3971.174393
_symmetry_space_group_name_H-M "C 2/M"
_symmetry_group_IT_number 12
_symmetry_cell_setting 'monoclinic'
loop_
_space_group_symop_operation_xyz
x,y,z
-x,y,-z
-x,-y,-z
x,-y,z
1/2+x,1/2+y,z
1/2-x,1/2+y,-z
1/2-x,1/2-y,-z
1/2+x,1/2-y,z
loop_
_atom_site_type_symbol
_atom_site_label
_atom_site_fract_x
_atom_site_fract_y
_atom_site_fract_z
Si Si1 0.303289 0.178453 0.455786
Si Si2 0.417241 0.179316 0.435499
Si Si3 0.838564 0.323969 0.605632
Si Si4 0.217735 0.668197 0.847012
Si Si5 0.913930 0.335038 0.147394
Si Si6 0.302276 0.174372 0.987832
Si Si7 0.110241 0.176695 0.699721
Si Si8 0.010647 0.172604 0.286935
O O1 0.362560 0.227783 0.449028
O O2 0.223917 0.247833 0.398106
O O3 0.327601 0.220815 0.533787
O O4 0.298458 0.000000 0.450414
O O5 0.500000 0.225175 0.500000
O O6 0.395126 0.245695 0.362621
O O7 0.415421 0.000000 0.431994
O O8 0.831345 0.500000 0.604686
O O9 0.918092 0.269864 0.671272
O O10 0.231380 0.500000 0.837693
O O11 0.154900 0.662460 0.854449
O O12 0.286480 0.743205 0.920401
O O13 0.182362 0.767116 0.776758
O O14 0.947705 0.500000 0.173460
O O15 0.964212 0.205754 0.202033
O O16 0.881818 0.313243 0.065514
O O17 0.283847 0.000000 0.971688
O O18 0.250000 0.250000 0.000000
O O19 0.041133 0.218076 0.694501
O O20 0.110192 0.000000 0.694849
O O21 0.028477 0.000000 0.304459
#
# Coordination Sequence:
#
# PCOD9223442 Si02
#       8
#     8   8   8   8   8   8   8   8
#     4   9  19  34  50  69  91 116 148 185 225 270
#     4  10  20  34  51  69  92 122 152 184 225 272
#     4  10  19  32  51  69  88 116 149 187 228 271
#     4   9  16  26  40  57  81 116 153 187 224 268
#     4   8  15  25  37  56  83 115 149 183 220 265
#     4   9  15  23  36  55  81 114 150 186 223 265
#     4  10  20  31  44  65  92 121 154 192 229 269
#     4  10  19  29  43  64  91 121 152 188 228 268
#
# _framework density 8.0580700000000007
#
# number of rings (size 3 to 8) (size 9 to 14) (size 15 to 20)
#    0.000    2.625    0.000    3.375    0.000    7.250 
#    0.000    0.000    0.000    0.000    0.000    0.000 
#    0.000    1.000    0.000   10.500    0.000    7.125 
#
# Total GULP energy -178142.761119 kJ/mol
# GULP energy per Si atom -5566.961285 kJ/mol
# Density = 0.803973 g / cm^3
# Si number density = 8.058070 Si / 1000 Ang^3
#
#
#
# Elastic Constant Matrix: (Units=GPa)
#
#
# Indices 1 2 3 4 5 6 
#
# 1 72.7114 21.8536 34.5856 0.0000 -0.8695 0.0000
# 2 21.8536 -7.9098 5.4192 0.0000 3.7532 0.0000
# 3 34.5856 5.4192 59.2467 0.0000 -5.8922 0.0000
# 4 0.0000 0.0000 0.0000 24.0504 0.0000 -5.0318
# 5 -0.8695 3.7532 -5.8922 0.0000 5.3803 0.0000
# 6 0.0000 0.0000 0.0000 -5.0318 0.0000 5.5435
#
#
#
# Elastic Compliance Matrix: (Units=1/GPa)
#
#
# Indices 1 2 3 4 5 6 
#
# 1 0.013685 0.018311 -0.012023 0.000000 -0.023729 0.000000
# 2 0.018311 -0.057143 -0.001351 0.000000 0.041341 0.000000
# 3 -0.012023 -0.001351 0.026845 0.000000 0.028399 0.000000
# 4 0.000000 0.000000 0.000000 0.051327 0.000000 0.046589
# 5 -0.023729 0.041341 0.028399 0.000000 0.184289 0.000000
# 6 0.000000 0.000000 0.000000 0.046589 0.000000 0.222680
#
#
# Mechanical properties :
#
#
# Convention : Reuss Voigt Hill
#
# Bulk Modulus (GPa) = -148.38603 27.52944 -60.42830
# Shear Modulus (GPa) = 11.63975 11.14083 11.39029
#
# Velocity S-wave (km/s) = 2.69037 2.63208 2.66139
# Velocity P-wave (km/s) = 9.08967 5.13382 5.30405
#
# Compressibility (1/GPa) = -0.00673918
#
# Stress axis : x y z
#
# Youngs Moduli (GPa) = 73.07452 -17.50002 37.25067
#
# Poissons Ratio (x) = 0.32045 0.44788
# Poissons Ratio (y) = -1.33810 0.05034
# Poissons Ratio (z) = 0.87860 -0.02365
#
# Static dielectric constant tensor:
#      x y z
#    x 1.514930 0.000000 0.007050 
#    y 0.000000 1.561190 0.000000 
#    z 0.007050 0.000000 1.593080 
# 
# From -- ./inp_files/348605.got.cif
#   From: 2010.05.17/outbox.ucp.g08.bks.cvg/sg12_175_cif.got.tgz:348605.got - 2010.06.11 11:47:21.
