data_PCOD9223367
_publ_section_title
;
Structure prediction by ZEFSAII (Michael W. Deem and Ramdas Pophale) SiO2 
 PCOD9223367
Probable space group: C 2/M
;
_chemical_formula_sum "Si O2"
_cell_formula_units_Z 32
_cell_length_a 24.000000
_cell_length_b 18.000000
_cell_length_c 15.000000
_cell_angle_alpha 90.000000
_cell_angle_beta 30.000000
_cell_angle_gamma 90.000000
_cell_volume 3240.000000
_symmetry_space_group_name_H-M "C 2/M"
_symmetry_group_IT_number 12
_symmetry_cell_setting 'monoclinic'
loop_
_space_group_symop_operation_xyz
x,y,z
-x,y,-z
-x,-y,-z
x,-y,z
1/2+x,1/2+y,z
1/2-x,1/2+y,-z
1/2-x,1/2-y,-z
1/2+x,1/2-y,z
loop_
_atom_site_type_symbol
_atom_site_label
_atom_site_fract_x
_atom_site_fract_y
_atom_site_fract_z
Si Si1 0.186161 0.812482 0.452780
Si Si2 0.371857 0.671499 0.658911
Si Si3 0.603822 0.732549 0.918174
Si Si4 0.291737 0.834079 0.959049
Si Si5 0.299126 0.582845 0.225283
Si Si6 0.629143 0.147127 0.332127
Si Si7 0.005546 0.306624 0.766947
Si Si8 0.702176 0.913983 0.553578
O O1 0.156923 0.852803 0.400998
O O2 0.286941 0.757462 0.286282
O O3 0.083620 0.761986 0.628484
O O4 0.232518 0.868337 0.461864
O O5 0.500000 0.654164 0.500000
O O6 0.362963 0.762691 0.669304
O O7 0.289062 0.640213 0.849398
O O8 0.615041 0.645781 0.922915
O O9 0.500000 0.746928 0.000000
O O10 0.580926 0.778529 0.038424
O O11 0.295129 0.873264 0.858581
O O12 0.421899 0.832244 0.805851
O O13 0.250000 0.750000 0.000000
O O14 0.331566 0.500000 0.155051
O O15 0.182785 0.606435 0.341336
O O16 0.277812 0.586424 0.360140
O O17 0.500000 0.128348 0.500000
O O18 0.088009 0.369935 0.689049
O O19 0.680620 0.000000 0.607325
#
# Coordination Sequence:
#
# PCOD9223367 Si02
#       8
#     8   8   8   8   8   8   8   8
#     4  12  21  40  64  94 125 162 214 259 312 375
#     4  10  19  34  60  92 123 156 205 265 307 357
#     4  12  22  37  62  93 121 162 215 253 313 376
#     4  10  19  32  57  91 124 157 211 262 306 369
#     4  11  23  40  58  88 133 167 204 258 318 383
#     4  10  18  33  55  87 121 159 202 253 314 370
#     4  12  21  37  67  93 125 168 214 266 310 381
#     4  11  24  41  63  94 128 168 211 265 329 378
#
# _framework density 9.8765429999999999
#
# number of rings (size 3 to 8) (size 9 to 14) (size 15 to 20)
#    0.000    1.000    5.000    4.875    0.000    0.500 
#    0.000    2.500    0.000    1.125    0.000    0.000 
#    0.000    0.000    0.000    0.000    0.000    0.000 
#
# Total GULP energy -178696.667852 kJ/mol
# GULP energy per Si atom -5584.270870 kJ/mol
# Density = 0.985406 g / cm^3
# Si number density = 9.876543 Si / 1000 Ang^3
#
#
#
# Elastic Constant Matrix: (Units=GPa)
#
#
# Indices 1 2 3 4 5 6 
#
# 1 122.2270 13.4721 31.1986 0.0000 1.5812 0.0000
# 2 13.4721 44.3495 23.0094 0.0000 11.5842 0.0000
# 3 31.1986 23.0094 64.9625 0.0000 -0.6619 0.0000
# 4 0.0000 0.0000 0.0000 12.1894 0.0000 1.1920
# 5 1.5812 11.5842 -0.6619 0.0000 19.3761 0.0000
# 6 0.0000 0.0000 0.0000 1.1920 0.0000 2.2176
#
#
#
# Elastic Compliance Matrix: (Units=1/GPa)
#
#
# Indices 1 2 3 4 5 6 
#
# 1 0.009346 -0.000407 -0.004351 0.000000 -0.000668 0.000000
# 2 -0.000407 0.034514 -0.012244 0.000000 -0.021020 0.000000
# 3 -0.004351 -0.012244 0.021905 0.000000 0.008423 0.000000
# 4 0.000000 0.000000 0.000000 0.086590 0.000000 -0.046544
# 5 -0.000668 -0.021020 0.008423 0.000000 0.064519 0.000000
# 6 0.000000 0.000000 0.000000 -0.046544 0.000000 0.475959
#
#
# Mechanical properties :
#
#
# Convention : Reuss Voigt Hill
#
# Bulk Modulus (GPa) = 31.48371 40.76657 36.12514
# Shear Modulus (GPa) = 6.78035 17.68052 12.23044
#
# Velocity S-wave (km/s) = 1.85473 2.99503 2.49100
# Velocity P-wave (km/s) = 4.53430 5.71342 5.15767
#
# Compressibility (1/GPa) = 0.03176245
#
# Stress axis : x y z
#
# Youngs Moduli (GPa) = 107.00245 28.97334 45.65070
#
# Poissons Ratio (x) = 0.01180 0.19862
# Poissons Ratio (y) = 0.04356 0.55893
# Poissons Ratio (z) = 0.46555 0.35474
#
# Static dielectric constant tensor:
#      x y z
#    x 1.819760 0.000000 0.034060 
#    y 0.000000 1.679540 0.000000 
#    z 0.034060 0.000000 1.704350 
# 
# From -- ./inp_files/241447.got.cif
#   From: 2010.05.17/outbox.ucp.g08.bks.cvg/sg12_121_cif.got.tgz:241447.got - 2010.06.11 11:47:21.
