data_PCOD9223735
_publ_section_title
;
Structure prediction by ZEFSAII (Michael W. Deem and Ramdas Pophale) SiO2 
 PCOD9223735
Probable space group: C 2/M
;
_chemical_formula_sum "Si O2"
_cell_formula_units_Z 28
_cell_length_a 27.000000
_cell_length_b 9.000000
_cell_length_c 18.000000
_cell_angle_alpha 90.000000
_cell_angle_beta 140.000000
_cell_angle_gamma 90.000000
_cell_volume 2811.553005
_symmetry_space_group_name_H-M "C 2/M"
_symmetry_group_IT_number 12
_symmetry_cell_setting 'monoclinic'
loop_
_space_group_symop_operation_xyz
x,y,z
-x,y,-z
-x,-y,-z
x,-y,z
1/2+x,1/2+y,z
1/2-x,1/2+y,-z
1/2-x,1/2-y,-z
1/2+x,1/2-y,z
loop_
_atom_site_type_symbol
_atom_site_label
_atom_site_fract_x
_atom_site_fract_y
_atom_site_fract_z
Si Si1 0.233120 0.178767 0.209718
Si Si2 0.877269 0.682051 0.469287
Si Si3 0.459801 0.175610 0.315425
Si Si4 0.787439 0.320824 0.114412
Si Si5 0.484463 0.824780 0.791022
Si Si6 0.831935 0.178340 0.574560
Si Si7 0.067046 0.821023 0.019497
O O1 0.311833 0.230020 0.337144
O O2 0.236394 0.214431 0.127040
O O3 0.235578 0.000000 0.220178
O O4 0.150730 0.227638 0.145441
O O5 0.876833 0.500000 0.476552
O O6 0.853228 0.757448 0.518406
O O7 0.965104 0.728284 0.553467
O O8 0.374486 0.236135 0.228251
O O9 0.483195 0.192768 0.255667
O O10 0.453714 0.000000 0.325128
O O11 0.790419 0.500000 0.109486
O O12 0.750000 0.250000 0.000000
O O13 0.403717 0.737009 0.706096
O O14 0.545215 0.758855 0.918268
O O15 0.471640 0.000000 0.787930
O O16 0.750000 0.250000 0.500000
O O17 0.828118 0.000000 0.572507
O O18 0.068709 0.000000 0.009976
O O19 0.000000 0.786584 0.000000
#
# Coordination Sequence:
#
# PCOD9223735 Si02
#       7
#     8   8   8   8   8   8   8
#     4   9  19  34  54  80 110 145 186 231 277 333
#     4   9  18  35  55  78 110 145 183 227 275 331
#     4   8  16  31  53  79 106 136 175 227 277 325
#     4  10  19  33  54  80 108 142 185 229 279 331
#     4  10  20  36  55  79 107 139 182 228 276 328
#     4  11  22  36  56  82 109 143 183 228 275 327
#     4  10  21  35  51  75 107 146 186 227 281 334
#
# _framework density 9.9589090000000002
#
# number of rings (size 3 to 8) (size 9 to 14) (size 15 to 20)
#    0.000    2.429    0.000    3.429    2.000    0.857 
#    0.000    7.143    0.000    0.000    0.000    5.000 
#    0.000    0.000    0.000    0.000    0.000    0.000 
#
# Total GULP energy -156086.678364 kJ/mol
# GULP energy per Si atom -5574.524227 kJ/mol
# Density = 0.993624 g / cm^3
# Si number density = 9.958909 Si / 1000 Ang^3
#
#
#
# Elastic Constant Matrix: (Units=GPa)
#
#
# Indices 1 2 3 4 5 6 
#
# 1 60.7288 21.7543 49.2878 0.0000 35.7777 0.0000
# 2 21.7543 32.7800 8.4302 0.0000 3.5375 0.0000
# 3 49.2878 8.4302 131.9852 0.0000 22.1364 0.0000
# 4 0.0000 0.0000 0.0000 24.1970 0.0000 -1.9706
# 5 35.7777 3.5375 22.1364 0.0000 32.8736 0.0000
# 6 0.0000 0.0000 0.0000 -1.9706 0.0000 14.4717
#
#
#
# Elastic Compliance Matrix: (Units=1/GPa)
#
#
# Indices 1 2 3 4 5 6 
#
# 1 0.128577 -0.066530 -0.024233 0.000000 -0.116458 0.000000
# 2 -0.066530 0.065590 0.010929 0.000000 0.057990 0.000000
# 3 -0.024233 0.010929 0.013192 0.000000 0.016315 0.000000
# 4 0.000000 0.000000 0.000000 0.041791 0.000000 0.005691
# 5 -0.116458 0.057990 0.016315 0.000000 0.139940 0.000000
# 6 0.000000 0.000000 0.000000 0.005691 0.000000 0.069875
#
#
# Mechanical properties :
#
#
# Convention : Reuss Voigt Hill
#
# Bulk Modulus (GPa) = 20.96845 42.71541 31.84193
# Shear Modulus (GPa) = 7.87985 24.04325 15.96155
#
# Velocity S-wave (km/s) = 1.99117 3.47814 2.83392
# Velocity P-wave (km/s) = 3.97954 6.13370 5.17006
#
# Compressibility (1/GPa) = 0.04769069
#
# Stress axis : x y z
#
# Youngs Moduli (GPa) = 7.77743 15.24622 75.80494
#
# Poissons Ratio (x) = 1.01433 1.83701
# Poissons Ratio (y) = 0.51743 -0.82848
# Poissons Ratio (z) = 0.18847 -0.16663
#
# Static dielectric constant tensor:
#      x y z
#    x 1.723760 0.000000 0.020320 
#    y 0.000000 1.746930 0.000000 
#    z 0.020320 0.000000 1.770640 
# 
# From -- ./inp_files/288459.got.cif
#   From: 2010.05.17/outbox.ucp.g08.bks.cvg/sg12_145_cif.got.tgz:288459.got - 2010.06.11 11:47:21.
