data_PCOD9223382
_publ_section_title
;
Structure prediction by ZEFSAII (Michael W. Deem and Ramdas Pophale) SiO2 
 PCOD9223382
Probable space group: C 2/M
;
_chemical_formula_sum "Si O2"
_cell_formula_units_Z 24
_cell_length_a 27.000000
_cell_length_b 15.000000
_cell_length_c 9.000000
_cell_angle_alpha 90.000000
_cell_angle_beta 40.000000
_cell_angle_gamma 90.000000
_cell_volume 2342.960837
_symmetry_space_group_name_H-M "C 2/M"
_symmetry_group_IT_number 12
_symmetry_cell_setting 'monoclinic'
loop_
_space_group_symop_operation_xyz
x,y,z
-x,y,-z
-x,-y,-z
x,-y,z
1/2+x,1/2+y,z
1/2-x,1/2+y,-z
1/2-x,1/2-y,-z
1/2+x,1/2-y,z
loop_
_atom_site_type_symbol
_atom_site_label
_atom_site_fract_x
_atom_site_fract_y
_atom_site_fract_z
Si Si1 0.702710 0.742597 0.955306
Si Si2 0.125781 0.390259 0.923494
Si Si3 0.516568 0.781569 0.633479
Si Si4 0.576218 0.605215 0.173631
Si Si5 0.848434 0.709994 0.446815
Si Si6 0.093228 0.901297 0.794947
O O1 0.674014 0.835481 0.941963
O O2 0.761943 0.703293 0.700694
O O3 0.750000 0.750000 0.000000
O O4 0.634012 0.669940 0.132249
O O5 0.128636 0.500000 0.927715
O O6 0.144128 0.354626 0.713790
O O7 0.042932 0.343740 0.139973
O O8 0.500000 0.807066 0.500000
O O9 0.496480 0.674167 0.681786
O O10 0.596016 0.802661 0.536165
O O11 0.564551 0.500000 0.246953
O O12 0.610594 0.598061 0.929771
O O13 0.868059 0.812573 0.356942
O O14 0.113873 0.000000 0.684404
O O15 0.000000 0.893562 0.000000
#
# Coordination Sequence:
#
# PCOD9223382 Si02
#       6
#     8   8   8   8   8   8
#     4  11  25  44  63  91 131 170 206 258 323 381
#     4  11  25  44  65  92 124 168 220 262 306 372
#     4  11  23  41  65  94 129 165 205 261 322 379
#     4  10  21  39  62  91 126 160 202 255 314 377
#     4  12  21  40  67  93 123 164 214 263 311 370
#     4  10  18  33  61  96 124 151 198 260 315 364
#
# _framework density 10.243449
#
# number of rings (size 3 to 8) (size 9 to 14) (size 15 to 20)
#    0.000    1.167    5.000    3.000    0.000    4.000 
#    0.000    3.333    0.000    0.000    0.000    0.000 
#    0.000    0.000    0.000    0.000    0.000    0.000 
#
# Total GULP energy -133694.190912 kJ/mol
# GULP energy per Si atom -5570.591288 kJ/mol
# Density = 1.022013 g / cm^3
# Si number density = 10.243449 Si / 1000 Ang^3
#
#
#
# Elastic Constant Matrix: (Units=GPa)
#
#
# Indices 1 2 3 4 5 6 
#
# 1 113.0593 39.2572 4.0689 0.0000 -2.5164 0.0000
# 2 39.2572 156.1158 30.0300 0.0000 -3.7019 0.0000
# 3 4.0689 30.0300 89.6627 0.0000 -1.8491 0.0000
# 4 0.0000 0.0000 0.0000 6.4979 0.0000 3.0358
# 5 -2.5164 -3.7019 -1.8491 0.0000 33.3126 0.0000
# 6 0.0000 0.0000 0.0000 3.0358 0.0000 22.7797
#
#
#
# Elastic Compliance Matrix: (Units=1/GPa)
#
#
# Indices 1 2 3 4 5 6 
#
# 1 0.009712 -0.002510 0.000410 0.000000 0.000477 0.000000
# 2 -0.002510 0.007509 -0.002390 0.000000 0.000512 0.000000
# 3 0.000410 -0.002390 0.011944 0.000000 0.000428 0.000000
# 4 0.000000 0.000000 0.000000 0.164114 0.000000 -0.021871
# 5 0.000477 0.000512 0.000428 0.000000 0.030135 0.000000
# 6 0.000000 0.000000 0.000000 -0.021871 0.000000 0.046813
#
#
# Mechanical properties :
#
#
# Convention : Reuss Voigt Hill
#
# Bulk Modulus (GPa) = 49.54484 56.17222 52.85853
# Shear Modulus (GPa) = 17.48643 31.55016 24.51829
#
# Velocity S-wave (km/s) = 2.92471 3.92856 3.46320
# Velocity P-wave (km/s) = 5.97005 6.93226 6.46907
#
# Compressibility (1/GPa) = 0.02018374
#
# Stress axis : x y z
#
# Youngs Moduli (GPa) = 102.96279 133.18163 83.72602
#
# Poissons Ratio (x) = 0.33425 -0.03430
# Poissons Ratio (y) = 0.25841 0.20013
# Poissons Ratio (z) = -0.04218 0.31835
#
# Static dielectric constant tensor:
#      x y z
#    x 1.758020 0.000000 -0.005030 
#    y 0.000000 1.710930 0.000000 
#    z -0.005030 0.000000 1.819980 
# 
# From -- ./inp_files/104925.got.cif
#   From: 2010.05.17/outbox.ucp.g08.bks.cvg/sg12_53_cif.got.tgz:104925.got - 2010.06.11 11:47:21.
