data_PCOD9223836
_publ_section_title
;
Structure prediction by ZEFSAII (Michael W. Deem and Ramdas Pophale) SiO2 
 PCOD9223836
Probable space group: C 2/M
;
_chemical_formula_sum "Si O2"
_cell_formula_units_Z 32
_cell_length_a 18.000000
_cell_length_b 12.000000
_cell_length_c 30.000000
_cell_angle_alpha 90.000000
_cell_angle_beta 150.000000
_cell_angle_gamma 90.000000
_cell_volume 3240.000000
_symmetry_space_group_name_H-M "C 2/M"
_symmetry_group_IT_number 12
_symmetry_cell_setting 'monoclinic'
loop_
_space_group_symop_operation_xyz
x,y,z
-x,y,-z
-x,-y,-z
x,-y,z
1/2+x,1/2+y,z
1/2-x,1/2+y,-z
1/2-x,1/2-y,-z
1/2+x,1/2-y,z
loop_
_atom_site_type_symbol
_atom_site_label
_atom_site_fract_x
_atom_site_fract_y
_atom_site_fract_z
Si Si1 0.905209 0.222240 0.716335
Si Si2 0.209863 0.868697 0.901869
Si Si3 0.551975 0.124667 0.719837
Si Si4 0.494773 0.873502 0.901120
Si Si5 0.260989 0.878713 0.449552
Si Si6 0.143542 0.786720 0.097748
Si Si7 0.745477 0.123765 0.299564
Si Si8 0.963435 0.206166 0.596128
O O1 0.841331 0.136093 0.647160
O O2 0.774035 0.275257 0.676741
O O3 0.040591 0.173801 0.816185
O O4 0.972926 0.321877 0.721613
O O5 0.284097 0.800540 0.899747
O O6 0.205006 0.000000 0.889481
O O7 0.327184 0.853391 0.003632
O O8 0.727323 0.131627 0.820333
O O9 0.517226 0.202779 0.660057
O O10 0.501353 0.000000 0.685633
O O11 0.415707 0.785279 0.891830
O O12 0.404843 0.871486 0.808438
O O13 0.474237 0.000000 0.908422
O O14 0.154296 0.867459 0.437449
O O15 0.374628 0.775905 0.512670
O O16 0.333402 0.000000 0.486853
O O17 0.000000 0.839941 0.000000
O O18 0.893311 0.142079 0.347326
O O19 0.752078 0.000000 0.323320
#
# Coordination Sequence:
#
# PCOD9223836 Si02
#       8
#     8   8   8   8   8   8   8   8
#     4  10  22  36  54  81 114 151 187 224 271 329
#     4   9  17  31  52  80 112 147 185 227 275 327
#     4  10  19  34  53  76 109 147 183 222 272 328
#     4   9  17  30  53  81 110 144 183 230 279 321
#     4  10  21  40  63  86 112 144 182 228 280 333
#     4   9  16  28  49  79 109 139 180 233 275 322
#     4  11  22  38  58  83 113 146 185 230 276 325
#     4  10  21  38  62  88 108 139 185 233 278 326
#
# _framework density 9.8765429999999999
#
# number of rings (size 3 to 8) (size 9 to 14) (size 15 to 20)
#    0.000    2.250    1.250    1.875    0.000    2.750 
#    0.000    5.625    0.000    0.000    0.000    0.000 
#    0.000    0.000    0.000    0.000    0.000    0.000 
#
# Total GULP energy -178391.998938 kJ/mol
# GULP energy per Si atom -5574.749967 kJ/mol
# Density = 0.985406 g / cm^3
# Si number density = 9.876543 Si / 1000 Ang^3
#
#
#
# Elastic Constant Matrix: (Units=GPa)
#
#
# Indices 1 2 3 4 5 6 
#
# 1 22.2794 4.7270 1.3743 0.0000 5.0073 0.0000
# 2 4.7270 71.2225 8.9378 0.0000 -0.1406 0.0000
# 3 1.3743 8.9378 67.8699 0.0000 8.6092 0.0000
# 4 0.0000 0.0000 0.0000 3.7866 0.0000 5.8575
# 5 5.0073 -0.1406 8.6092 0.0000 10.1860 0.0000
# 6 0.0000 0.0000 0.0000 5.8575 0.0000 4.9370
#
#
#
# Elastic Compliance Matrix: (Units=1/GPa)
#
#
# Indices 1 2 3 4 5 6 
#
# 1 0.051833 -0.003875 0.003024 0.000000 -0.028090 0.000000
# 2 -0.003875 0.014603 -0.002365 0.000000 0.004106 0.000000
# 3 0.003024 -0.002365 0.017000 0.000000 -0.015887 0.000000
# 4 0.000000 0.000000 0.000000 -0.316153 0.000000 0.375100
# 5 -0.028090 0.004106 -0.015887 0.000000 0.125468 0.000000
# 6 0.000000 0.000000 0.000000 0.375100 0.000000 -0.242486
#
#
# Mechanical properties :
#
#
# Convention : Reuss Voigt Hill
#
# Bulk Modulus (GPa) = 12.98656 21.27220 17.12938
# Shear Modulus (GPa) = -15.74137 13.53743 -1.10197
#
# Velocity S-wave (km/s) = -2.82602 2.62073 -0.74772
# Velocity P-wave (km/s) = 2.01489 4.46655 2.81871
#
# Compressibility (1/GPa) = 0.07700269
#
# Stress axis : x y z
#
# Youngs Moduli (GPa) = 19.29256 68.48080 58.82481
#
# Poissons Ratio (x) = 0.26537 -0.17788
# Poissons Ratio (y) = 0.07476 0.13914
# Poissons Ratio (z) = -0.05834 0.16198
#
# Static dielectric constant tensor:
#      x y z
#    x 1.665910 0.000000 -0.011910 
#    y 0.000000 1.666550 0.000000 
#    z -0.011910 0.000000 1.731890 
# 
# From -- ./inp_files/379115.got.cif
#   From: 2010.05.17/outbox.ucp.g08.bks.cvg/sg12_190_cif.got.tgz:379115.got - 2010.06.11 11:47:21.
