data_PCOD9223239
_publ_section_title
;
Structure prediction by ZEFSAII (Michael W. Deem and Ramdas Pophale) SiO2 
 PCOD9223239
Probable space group: C 2/M
;
_chemical_formula_sum "Si O2"
_cell_formula_units_Z 20
_cell_length_a 27.000000
_cell_length_b 9.000000
_cell_length_c 18.000000
_cell_angle_alpha 90.000000
_cell_angle_beta 30.000000
_cell_angle_gamma 90.000000
_cell_volume 2187.000000
_symmetry_space_group_name_H-M "C 2/M"
_symmetry_group_IT_number 12
_symmetry_cell_setting 'monoclinic'
loop_
_space_group_symop_operation_xyz
x,y,z
-x,y,-z
-x,-y,-z
x,-y,z
1/2+x,1/2+y,z
1/2-x,1/2+y,-z
1/2-x,1/2-y,-z
1/2+x,1/2-y,z
loop_
_atom_site_type_symbol
_atom_site_label
_atom_site_fract_x
_atom_site_fract_y
_atom_site_fract_z
Si Si1 0.200377 0.677809 0.868465
Si Si2 0.142312 0.323820 0.779853
Si Si3 0.101200 0.322201 0.409814
Si Si4 0.365408 0.675341 0.473557
Si Si5 0.012134 0.678118 0.814820
O O1 0.219503 0.500000 0.838189
O O2 0.162071 0.732797 0.837165
O O3 0.300994 0.759656 0.757774
O O4 0.104594 0.702498 0.042645
O O5 0.123118 0.500000 0.814883
O O6 0.249715 0.302941 0.603565
O O7 0.056749 0.269373 0.836413
O O8 0.105137 0.500000 0.408749
O O9 0.108785 0.254383 0.482442
O O10 0.000000 0.278912 0.500000
O O11 0.380041 0.500000 0.464224
O O12 0.430160 0.741444 0.324546
O O13 0.028907 0.500000 0.790261
#
# Coordination Sequence:
#
# PCOD9223239 Si02
#       5
#     8   8   8   8   8
#     4   9  18  32  52  78 104 133 169 205 245 294
#     4   8  15  29  49  73 103 140 174 200 234 287
#     4  10  21  38  58  75  93 123 165 212 260 307
#     4  10  20  33  51  76 104 134 170 207 244 291
#     4  10  18  30  50  76 109 141 166 199 243 290
#
# _framework density 9.1449470000000002
#
# number of rings (size 3 to 8) (size 9 to 14) (size 15 to 20)
#    0.000    2.600    0.000    3.600    0.000    4.800 
#    0.000    5.000    0.000    6.000    0.000    0.000 
#    0.000    0.000    0.000    0.000    0.000    0.000 
#
# Total GULP energy -111411.791588 kJ/mol
# GULP energy per Si atom -5570.589579 kJ/mol
# Density = 0.912413 g / cm^3
# Si number density = 9.144947 Si / 1000 Ang^3
#
#
#
# Elastic Constant Matrix: (Units=GPa)
#
#
# Indices 1 2 3 4 5 6 
#
# 1 56.0680 17.9090 26.3748 -0.0009 -38.2732 0.0003
# 2 17.9090 27.6593 46.5942 -0.0049 -21.2015 0.0019
# 3 26.3748 46.5942 88.3666 -0.0033 -27.3158 0.0012
# 4 -0.0009 -0.0049 -0.0033 23.9330 0.0005 2.5480
# 5 -38.2732 -21.2015 -27.3158 0.0005 27.1752 0.0001
# 6 0.0003 0.0019 0.0012 2.5480 0.0001 20.8038
#
#
#
# Elastic Compliance Matrix: (Units=1/GPa)
#
#
# Indices 1 2 3 4 5 6 
#
# 1 -0.012946 -0.143863 0.057146 -0.000022 -0.073031 0.000013
# 2 -0.143863 0.004933 -0.030618 -0.000005 -0.229543 0.000005
# 3 0.057146 -0.030618 0.040476 0.000000 0.097281 -0.000001
# 4 -0.000022 -0.000005 0.000000 0.042335 -0.000036 -0.005185
# 5 -0.073031 -0.229543 0.097281 -0.000036 -0.147357 0.000021
# 6 0.000013 0.000005 -0.000001 -0.005185 0.000021 0.048703
#
#
# Mechanical properties :
#
#
# Convention : Reuss Voigt Hill
#
# Bulk Modulus (GPa) = -4.94537 39.31667 17.18565
# Shear Modulus (GPa) = 34.86459 19.79681 27.33070
#
# Velocity S-wave (km/s) = 4.37077 3.29354 3.86982
# Velocity P-wave (km/s) = 4.77092 6.00052 5.42070
#
# Compressibility (1/GPa) = -0.20220921
#
# Stress axis : x y z
#
# Youngs Moduli (GPa) = -77.24286 202.73515 24.70601
#
# Poissons Ratio (x) = 29.16614 -1.41184
# Poissons Ratio (y) = -11.11241 0.75645
# Poissons Ratio (z) = 4.41409 6.20735
#
# Static dielectric constant tensor:
#      x y z
#    x 1.613290 0.000000 0.009390 
#    y 0.000000 1.612720 0.000000 
#    z 0.009390 0.000000 1.694250 
# 
# From -- ./inp_files/151947.got.cif
#   From: 2010.05.17/outbox.ucp.g08.bks.cvg/sg12_76_cif.got.tgz:151947.got - 2010.06.11 11:47:21.
