data_PCOD9223685
_publ_section_title
;
Structure prediction by ZEFSAII (Michael W. Deem and Ramdas Pophale) SiO2 
 PCOD9223685
Probable space group: C 2/M
;
_chemical_formula_sum "Si O2"
_cell_formula_units_Z 32
_cell_length_a 30.000000
_cell_length_b 12.000000
_cell_length_c 15.000000
_cell_angle_alpha 90.000000
_cell_angle_beta 40.000000
_cell_angle_gamma 90.000000
_cell_volume 3471.053092
_symmetry_space_group_name_H-M "C 2/M"
_symmetry_group_IT_number 12
_symmetry_cell_setting 'monoclinic'
loop_
_space_group_symop_operation_xyz
x,y,z
-x,y,-z
-x,-y,-z
x,-y,z
1/2+x,1/2+y,z
1/2-x,1/2+y,-z
1/2-x,1/2-y,-z
1/2+x,1/2-y,z
loop_
_atom_site_type_symbol
_atom_site_label
_atom_site_fract_x
_atom_site_fract_y
_atom_site_fract_z
Si Si1 0.648548 0.628172 0.982492
Si Si2 0.328115 0.706498 0.859935
Si Si3 0.400105 0.871566 0.468249
Si Si4 0.261797 0.872179 0.376272
Si Si5 0.716549 0.718448 0.262398
Si Si6 0.459909 0.869214 0.655226
Si Si7 0.495834 0.369679 0.898298
Si Si8 0.864342 0.734804 0.345415
O O1 0.661469 0.500000 0.935880
O O2 0.646112 0.634353 0.094764
O O3 0.715589 0.703940 0.858281
O O4 0.577364 0.662974 0.038698
O O5 0.314395 0.662697 0.780150
O O6 0.388433 0.800745 0.764094
O O7 0.250000 0.750000 0.000000
O O8 0.346210 0.795205 0.604754
O O9 0.480368 0.837670 0.364021
O O10 0.377139 0.858982 0.400863
O O11 0.394497 0.000000 0.506414
O O12 0.243223 0.860372 0.300697
O O13 0.196711 0.815056 0.525410
O O14 0.332381 0.812391 0.302290
O O15 0.266781 0.000000 0.394527
O O16 0.500000 0.855006 0.500000
O O17 0.443599 0.000000 0.691959
O O18 0.505387 0.500000 0.859943
O O19 0.436992 0.299188 0.231880
O O20 0.500000 0.362452 0.000000
#
# Coordination Sequence:
#
# PCOD9223685 Si02
#       8
#     8   8   8   8   8   8   8   8
#     4  10  21  36  55  79 110 145 186 230 274 330
#     4  10  21  35  53  80 114 152 189 231 282 332
#     4  10  19  32  56  85 111 141 182 230 279 329
#     4  10  21  36  55  80 109 140 177 223 275 330
#     4  10  20  35  55  80 109 147 186 229 275 325
#     4  10  19  33  56  83 111 144 186 236 281 330
#     4  10  20  35  57  80 103 137 179 222 271 329
#     4  10  20  35  56  79 109 141 174 223 275 328
#
# _framework density 9.2191039999999997
#
# number of rings (size 3 to 8) (size 9 to 14) (size 15 to 20)
#    0.000    2.000    1.250    2.625    0.000    2.500 
#    0.000    5.625    0.000   10.125    0.000    0.000 
#    0.000    0.000    0.000    0.000    0.000    0.000 
#
# Total GULP energy -178179.075050 kJ/mol
# GULP energy per Si atom -5568.096095 kJ/mol
# Density = 0.919812 g / cm^3
# Si number density = 9.219104 Si / 1000 Ang^3
#
#
#
# Elastic Constant Matrix: (Units=GPa)
#
#
# Indices 1 2 3 4 5 6 
#
# 1 168.0655 24.7079 30.0695 0.0000 -13.0149 0.0000
# 2 24.7079 49.1645 18.1390 0.0000 -11.4537 0.0000
# 3 30.0695 18.1390 49.6816 0.0000 -19.1668 0.0000
# 4 0.0000 0.0000 0.0000 8.7754 0.0000 -6.5547
# 5 -13.0149 -11.4537 -19.1668 0.0000 42.4505 0.0000
# 6 0.0000 0.0000 0.0000 -6.5547 0.0000 24.6425
#
#
#
# Elastic Compliance Matrix: (Units=1/GPa)
#
#
# Indices 1 2 3 4 5 6 
#
# 1 0.006876 -0.002220 -0.003353 0.000000 -0.000005 0.000000
# 2 -0.002220 0.024540 -0.006447 0.000000 0.003030 0.000000
# 3 -0.003353 -0.006447 0.028389 0.000000 0.010050 0.000000
# 4 0.000000 0.000000 0.000000 0.142210 0.000000 0.037826
# 5 -0.000005 0.003030 0.010050 0.000000 0.028911 0.000000
# 6 0.000000 0.000000 0.000000 0.037826 0.000000 0.050642
#
#
# Mechanical properties :
#
#
# Convention : Reuss Voigt Hill
#
# Bulk Modulus (GPa) = 27.96062 45.86048 36.91055
# Shear Modulus (GPa) = 15.74663 28.10669 21.92666
#
# Velocity S-wave (km/s) = 2.92554 3.90856 3.45221
# Velocity P-wave (km/s) = 5.15840 6.73020 5.99603
#
# Compressibility (1/GPa) = 0.03576459
#
# Stress axis : x y z
#
# Youngs Moduli (GPa) = 145.43521 40.75003 35.22507
#
# Poissons Ratio (x) = 0.09045 0.11811
# Poissons Ratio (y) = 0.32280 0.22711
# Poissons Ratio (z) = 0.48765 0.26273
#
# Static dielectric constant tensor:
#      x y z
#    x 1.652200 0.000000 0.048910 
#    y 0.000000 1.614080 0.000000 
#    z 0.048910 0.000000 1.653710 
# 
# From -- ./inp_files/250823.got.cif
#   From: 2010.05.17/outbox.ucp.g08.bks.cvg/sg12_126_cif.got.tgz:250823.got - 2010.06.11 11:47:21.
