data_PCOD9223680
_publ_section_title
;
Structure prediction by ZEFSAII (Michael W. Deem and Ramdas Pophale) SiO2 
 PCOD9223680
Probable space group: C 2/M
;
_chemical_formula_sum "Si O2"
_cell_formula_units_Z 28
_cell_length_a 18.000000
_cell_length_b 18.000000
_cell_length_c 27.000000
_cell_angle_alpha 90.000000
_cell_angle_beta 160.000000
_cell_angle_gamma 90.000000
_cell_volume 2991.992214
_symmetry_space_group_name_H-M "C 2/M"
_symmetry_group_IT_number 12
_symmetry_cell_setting 'monoclinic'
loop_
_space_group_symop_operation_xyz
x,y,z
-x,y,-z
-x,-y,-z
x,-y,z
1/2+x,1/2+y,z
1/2-x,1/2+y,-z
1/2-x,1/2-y,-z
1/2+x,1/2-y,z
loop_
_atom_site_type_symbol
_atom_site_label
_atom_site_fract_x
_atom_site_fract_y
_atom_site_fract_z
Si Si1 0.248291 0.818574 0.138922
Si Si2 0.869303 0.413688 0.597794
Si Si3 0.873952 0.417223 0.868751
Si Si4 0.502147 0.666073 0.687672
Si Si5 0.752255 0.087484 0.362699
Si Si6 0.190581 0.670341 0.938501
Si Si7 0.185324 0.911717 0.897580
O O1 0.378810 0.889208 0.242297
O O2 0.406957 0.748990 0.250508
O O3 0.243651 0.825899 0.077183
O O4 0.000000 0.807207 0.000000
O O5 0.841095 0.500000 0.564829
O O6 0.735186 0.356783 0.479338
O O7 0.775149 0.406964 0.594918
O O8 0.814555 0.500000 0.814442
O O9 0.662056 0.371396 0.747320
O O10 0.000000 0.423466 0.000000
O O11 0.065598 0.384925 0.955903
O O12 0.543045 0.627613 0.766718
O O13 0.561732 0.140885 0.221854
O O14 0.000000 0.104218 0.500000
O O15 0.708911 0.000000 0.322621
O O16 0.250000 0.750000 0.000000
O O17 0.341774 0.612271 0.063208
O O18 0.178442 0.000000 0.885875
#
# Coordination Sequence:
#
# PCOD9223680 Si02
#       7
#     8   8   8   8   8   8   8
#     4  11  24  41  60  83 119 162 204 243 284 341
#     4  10  22  38  58  85 117 157 203 243 286 347
#     4   8  15  26  46  81 117 145 173 214 284 361
#     4  11  19  34  58  90 119 144 187 244 306 357
#     4   9  20  37  57  84 117 153 190 237 298 355
#     4  11  22  37  56  85 120 155 197 239 286 352
#     4  10  19  32  55  84 117 154 187 236 297 353
#
# _framework density 9.3583130000000008
#
# number of rings (size 3 to 8) (size 9 to 14) (size 15 to 20)
#    0.000    2.000    1.429    4.286    2.000    0.857 
#    0.000    0.000    0.000    0.000    0.000    2.000 
#    0.000    0.000    0.000    0.000    0.000    0.000 
#
# Total GULP energy -156013.107417 kJ/mol
# GULP energy per Si atom -5571.896693 kJ/mol
# Density = 0.933701 g / cm^3
# Si number density = 9.358313 Si / 1000 Ang^3
#
#
#
# Elastic Constant Matrix: (Units=GPa)
#
#
# Indices 1 2 3 4 5 6 
#
# 1 63.3340 27.1800 52.5238 -0.0024 -15.5309 0.0284
# 2 27.1800 67.2994 49.6074 0.0027 0.8558 0.0510
# 3 52.5238 49.6074 106.3654 -0.0305 -6.3826 0.0824
# 4 -0.0024 0.0027 -0.0305 30.8051 -0.0389 16.1280
# 5 -15.5309 0.8558 -6.3826 -0.0389 19.9933 0.0695
# 6 0.0284 0.0510 0.0824 16.1280 0.0695 -25.9530
#
#
#
# Elastic Compliance Matrix: (Units=1/GPa)
#
#
# Indices 1 2 3 4 5 6 
#
# 1 0.034503 -0.004055 -0.013792 -0.000005 0.022573 0.000043
# 2 -0.004055 0.023511 -0.009392 -0.000013 -0.007155 -0.000015
# 3 -0.013792 -0.009392 0.020363 0.000003 -0.003811 0.000023
# 4 -0.000005 -0.000013 0.000003 0.024493 -0.000007 0.015221
# 5 0.022573 -0.007155 -0.003811 -0.000007 0.066640 0.000172
# 6 0.000043 -0.000015 0.000023 0.015221 0.000172 -0.029072
#
#
# Mechanical properties :
#
#
# Convention : Reuss Voigt Hill
#
# Bulk Modulus (GPa) = 41.84297 55.06904 48.45601
# Shear Modulus (GPa) = 24.64478 12.14825 18.39651
#
# Velocity S-wave (km/s) = 3.63262 2.55043 3.13852
# Velocity P-wave (km/s) = 6.32449 6.17733 6.25134
#
# Compressibility (1/GPa) = 0.02389888
#
# Stress axis : x y z
#
# Youngs Moduli (GPa) = 28.98324 42.53397 49.10750
#
# Poissons Ratio (x) = 0.17249 0.67728
# Poissons Ratio (y) = 0.11754 0.46121
# Poissons Ratio (z) = 0.39973 0.39947
#
# Static dielectric constant tensor:
#      x y z
#    x 1.709050 -0.000010 -0.012470 
#    y -0.000010 1.694090 -0.000080 
#    z -0.012470 -0.000080 1.693370 
# 
# From -- ./inp_files/158353.got.cif
#   From: 2010.05.17/outbox.ucp.g08.bks.cvg/sg12_80_cif.got.tgz:158353.got - 2010.06.11 11:47:21.
