data_PCOD9223335
_publ_section_title
;
Structure prediction by ZEFSAII (Michael W. Deem and Ramdas Pophale) SiO2 
 PCOD9223335
Probable space group: C 2/M
;
_chemical_formula_sum "Si O2"
_cell_formula_units_Z 32
_cell_length_a 21.000000
_cell_length_b 9.000000
_cell_length_c 21.000000
_cell_angle_alpha 90.000000
_cell_angle_beta 120.000000
_cell_angle_gamma 90.000000
_cell_volume 3437.254828
_symmetry_space_group_name_H-M "C 2/M"
_symmetry_group_IT_number 12
_symmetry_cell_setting 'monoclinic'
loop_
_space_group_symop_operation_xyz
x,y,z
-x,y,-z
-x,-y,-z
x,-y,z
1/2+x,1/2+y,z
1/2-x,1/2+y,-z
1/2-x,1/2-y,-z
1/2+x,1/2-y,z
loop_
_atom_site_type_symbol
_atom_site_label
_atom_site_fract_x
_atom_site_fract_y
_atom_site_fract_z
Si Si1 0.994630 0.323665 0.176537
Si Si2 0.903734 0.820130 0.575041
Si Si3 0.438410 0.672691 0.023811
Si Si4 0.267194 0.678192 0.939530
Si Si5 0.642662 0.820635 0.315268
Si Si6 0.810007 0.180767 0.408433
Si Si7 0.569307 0.322364 0.629904
Si Si8 0.631158 0.676231 0.801385
O O1 0.988280 0.500000 0.183530
O O2 0.079778 0.280679 0.232266
O O3 0.966670 0.278757 0.093365
O O4 0.938299 0.240305 0.194941
O O5 0.887059 0.745345 0.633693
O O6 0.838440 0.782827 0.493299
O O7 0.984604 0.770686 0.590534
O O8 0.906161 0.000000 0.583176
O O9 0.437298 0.500000 0.045627
O O10 0.500000 0.681979 0.000000
O O11 0.352988 0.708352 0.964580
O O12 0.258134 0.500000 0.938580
O O13 0.206263 0.745101 0.861360
O O14 0.250000 0.750000 0.000000
O O15 0.727416 0.769452 0.349618
O O16 0.644480 0.000000 0.319601
O O17 0.875039 0.237473 0.395203
O O18 0.809159 0.000000 0.403392
O O19 0.563294 0.500000 0.615569
O O20 0.609849 0.300767 0.717355
O O21 0.638155 0.500000 0.816813
#
# Coordination Sequence:
#
# PCOD9223335 Si02
#       8
#     8   8   8   8   8   8   8   8
#     4  11  22  36  57  82 112 150 188 230 279 338
#     4  10  18  32  57  82 105 143 190 233 274 327
#     4  10  23  42  62  85 115 149 184 226 277 331
#     4  11  22  37  60  87 115 147 186 227 273 329
#     4  10  21  35  53  80 113 148 182 226 281 332
#     4   9  18  33  53  79 112 144 184 234 280 327
#     4   9  18  32  53  82 109 141 187 234 278 323
#     4  11  21  35  58  85 113 146 187 238 283 328
#
# _framework density 9.3097549999999991
#
# number of rings (size 3 to 8) (size 9 to 14) (size 15 to 20)
#    0.000    1.875    2.500    1.875    0.000    3.750 
#    0.000    1.250    0.000    5.250    0.000    0.000 
#    0.000    0.000    0.000    0.000    0.000    0.000 
#
# Total GULP energy -178491.916430 kJ/mol
# GULP energy per Si atom -5577.872388 kJ/mol
# Density = 0.928857 g / cm^3
# Si number density = 9.309755 Si / 1000 Ang^3
#
#
#
# Elastic Constant Matrix: (Units=GPa)
#
#
# Indices 1 2 3 4 5 6 
#
# 1 93.8494 8.8564 28.5912 0.0000 31.1649 0.0000
# 2 8.8564 29.8003 27.5143 0.0000 7.5205 0.0000
# 3 28.5912 27.5143 41.0250 0.0000 33.4434 0.0000
# 4 0.0000 0.0000 0.0000 17.0829 0.0000 8.0832
# 5 31.1649 7.5205 33.4434 0.0000 39.9371 0.0000
# 6 0.0000 0.0000 0.0000 8.0832 0.0000 17.2629
#
#
#
# Elastic Compliance Matrix: (Units=1/GPa)
#
#
# Indices 1 2 3 4 5 6 
#
# 1 0.014443 -0.002510 0.001324 0.000000 -0.011906 0.000000
# 2 -0.002510 -0.161089 0.262996 0.000000 -0.187940 0.000000
# 3 0.001324 0.262996 -0.352029 0.000000 0.244232 0.000000
# 4 0.000000 0.000000 0.000000 0.075199 0.000000 -0.035211
# 5 -0.011906 -0.187940 0.244232 0.000000 -0.134799 0.000000
# 6 0.000000 0.000000 0.000000 -0.035211 0.000000 0.074415
#
#
# Mechanical properties :
#
#
# Convention : Reuss Voigt Hill
#
# Bulk Modulus (GPa) = 40.08957 32.73316 36.41137
# Shear Modulus (GPa) = -5.00417 21.50410 8.24996
#
# Velocity S-wave (km/s) = -1.64117 3.40210 2.10723
# Velocity P-wave (km/s) = 4.24104 5.74897 5.05159
#
# Compressibility (1/GPa) = 0.02494414
#
# Stress axis : x y z
#
# Youngs Moduli (GPa) = 69.23926 -6.20773 -2.84068
#
# Poissons Ratio (x) = -0.01558 0.00376
# Poissons Ratio (y) = 0.17378 0.74709
# Poissons Ratio (z) = -0.09167 1.63261
#
# Static dielectric constant tensor:
#      x y z
#    x 1.659960 0.000000 -0.014080 
#    y 0.000000 1.625150 0.000000 
#    z -0.014080 0.000000 1.658310 
# 
# From -- ./inp_files/319998.got.cif
#   From: 2010.05.17/outbox.ucp.g08.bks.cvg/sg12_160_cif.got.tgz:319998.got - 2010.06.11 11:47:21.
