data_PCOD9223556
_publ_section_title
;
Structure prediction by ZEFSAII (Michael W. Deem and Ramdas Pophale) SiO2 
 PCOD9223556
Probable space group: C 2/M
;
_chemical_formula_sum "Si O2"
_cell_formula_units_Z 28
_cell_length_a 30.000000
_cell_length_b 9.000000
_cell_length_c 15.000000
_cell_angle_alpha 90.000000
_cell_angle_beta 130.000000
_cell_angle_gamma 90.000000
_cell_volume 3102.479995
_symmetry_space_group_name_H-M "C 2/M"
_symmetry_group_IT_number 12
_symmetry_cell_setting 'monoclinic'
loop_
_space_group_symop_operation_xyz
x,y,z
-x,y,-z
-x,-y,-z
x,-y,z
1/2+x,1/2+y,z
1/2-x,1/2+y,-z
1/2-x,1/2-y,-z
1/2+x,1/2-y,z
loop_
_atom_site_type_symbol
_atom_site_label
_atom_site_fract_x
_atom_site_fract_y
_atom_site_fract_z
Si Si1 0.759074 0.162541 0.635491
Si Si2 0.195611 0.679645 0.982676
Si Si3 0.345191 0.832574 0.641691
Si Si4 0.430092 0.178216 0.250199
Si Si5 0.057148 0.677796 0.372296
Si Si6 0.400764 0.321186 0.390076
Si Si7 0.770876 0.174872 0.234088
O O1 0.709738 0.155923 0.496336
O O2 0.821693 0.212065 0.680261
O O3 0.737604 0.285589 0.675387
O O4 0.760799 0.000000 0.680611
O O5 0.197133 0.500000 0.974398
O O6 0.131115 0.728344 0.871599
O O7 0.250000 0.750000 0.000000
O O8 0.214356 0.723079 0.106718
O O9 0.401328 0.786891 0.657321
O O10 0.354077 0.000000 0.690038
O O11 0.488901 0.209891 0.271248
O O12 0.436731 0.255060 0.354598
O O13 0.427059 0.000000 0.258357
O O14 0.063607 0.500000 0.395879
O O15 0.079248 0.760795 0.488924
O O16 0.403052 0.500000 0.392343
O O17 0.334147 0.265828 0.287355
O O18 0.775125 0.000000 0.226721
#
# Coordination Sequence:
#
# PCOD9223556 Si02
#       7
#     8   8   8   8   8   8   8
#     4  10  19  31  51  77 100 127 165 205 251 302
#     4  10  20  35  53  74  99 133 173 214 252 289
#     4   9  18  32  50  72 102 131 159 202 253 301
#     4  10  21  35  53  73 100 137 176 211 245 295
#     4  10  20  35  52  74 103 137 171 204 249 303
#     4  11  21  32  49  75 106 138 169 204 250 302
#     4  10  20  33  50  73 104 134 165 206 252 297
#
# _framework density 9.0250380000000003
#
# number of rings (size 3 to 8) (size 9 to 14) (size 15 to 20)
#    0.000    2.000    2.857    1.286    0.000    4.571 
#    0.000    0.000    0.000    0.857    0.000    6.000 
#    0.000    0.000    0.000    0.000    0.000    0.000 
#
# Total GULP energy -155897.919677 kJ/mol
# GULP energy per Si atom -5567.782846 kJ/mol
# Density = 0.900450 g / cm^3
# Si number density = 9.025038 Si / 1000 Ang^3
#
#
#
# Elastic Constant Matrix: (Units=GPa)
#
#
# Indices 1 2 3 4 5 6 
#
# 1 97.9405 12.3833 2.6620 0.0000 31.3770 0.0000
# 2 12.3833 -15.3671 12.4919 0.0000 11.8383 0.0000
# 3 2.6620 12.4919 33.7102 0.0000 21.7027 0.0000
# 4 0.0000 0.0000 0.0000 12.8933 0.0000 3.7637
# 5 31.3770 11.8383 21.7027 0.0000 20.9459 0.0000
# 6 0.0000 0.0000 0.0000 3.7637 0.0000 18.6695
#
#
#
# Elastic Compliance Matrix: (Units=1/GPa)
#
#
# Indices 1 2 3 4 5 6 
#
# 1 -0.036466 0.007851 -0.097139 0.000000 0.150837 0.000000
# 2 0.007851 -0.047016 0.021825 0.000000 -0.007802 0.000000
# 3 -0.097139 0.021825 -0.169683 0.000000 0.308993 0.000000
# 4 0.000000 0.000000 0.000000 0.082410 0.000000 -0.016614
# 5 0.150837 -0.007802 0.308993 0.000000 -0.493960 0.000000
# 6 0.000000 0.000000 0.000000 -0.016614 0.000000 0.056913
#
#
# Mechanical properties :
#
#
# Convention : Reuss Voigt Hill
#
# Bulk Modulus (GPa) = -2.57672 19.03977 8.23152
# Shear Modulus (GPa) = -8.30235 16.41816 4.05790
#
# Velocity S-wave (km/s) = -2.14700 3.01921 1.50101
# Velocity P-wave (km/s) = 2.75260 4.76712 2.75215
#
# Compressibility (1/GPa) = -0.38808995
#
# Stress axis : x y z
#
# Youngs Moduli (GPa) = -27.42317 -21.26936 -5.89335
#
# Poissons Ratio (x) = 0.16698 -0.57247
# Poissons Ratio (y) = 0.21529 0.12862
# Poissons Ratio (z) = -2.66386 0.46421
#
# Static dielectric constant tensor:
#      x y z
#    x 1.653650 0.000000 -0.005600 
#    y 0.000000 1.624430 0.000000 
#    z -0.005600 0.000000 1.653850 
# 
# From -- ./inp_files/237349.got.cif
#   From: 2010.05.17/outbox.ucp.g08.bks.cvg/sg12_119_cif.got.tgz:237349.got - 2010.06.11 11:47:21.
