data_PCOD9223863
_publ_section_title
;
Structure prediction by ZEFSAII (Michael W. Deem and Ramdas Pophale) SiO2 
 PCOD9223863
Probable space group: C 2/M
;
_chemical_formula_sum "Si O2"
_cell_formula_units_Z 32
_cell_length_a 30.000000
_cell_length_b 9.000000
_cell_length_c 24.000000
_cell_angle_alpha 90.000000
_cell_angle_beta 30.000000
_cell_angle_gamma 90.000000
_cell_volume 3240.000000
_symmetry_space_group_name_H-M "C 2/M"
_symmetry_group_IT_number 12
_symmetry_cell_setting 'monoclinic'
loop_
_space_group_symop_operation_xyz
x,y,z
-x,y,-z
-x,-y,-z
x,-y,z
1/2+x,1/2+y,z
1/2-x,1/2+y,-z
1/2-x,1/2-y,-z
1/2+x,1/2-y,z
loop_
_atom_site_type_symbol
_atom_site_label
_atom_site_fract_x
_atom_site_fract_y
_atom_site_fract_z
Si Si1 0.972066 0.828162 0.666812
Si Si2 0.801906 0.171139 0.779864
Si Si3 0.620314 0.676671 0.417329
Si Si4 0.967450 0.819793 0.096697
Si Si5 0.328756 0.176739 0.447265
Si Si6 0.761768 0.821557 0.337084
Si Si7 0.975687 0.676749 0.779818
Si Si8 0.621759 0.678199 0.015257
O O1 0.871405 0.833853 0.754645
O O2 0.970218 0.720694 0.721231
O O3 0.039982 0.774008 0.544759
O O4 0.998620 0.000000 0.652827
O O5 0.863816 0.231755 0.662461
O O6 0.775662 0.000000 0.794945
O O7 0.714332 0.261836 0.890277
O O8 0.606528 0.500000 0.428106
O O9 0.713368 0.723266 0.343699
O O10 0.866520 0.779947 0.224231
O O11 0.041073 0.773526 0.061886
O O12 0.968318 0.000000 0.094237
O O13 0.000000 0.769185 0.000000
O O14 0.250000 0.250000 0.500000
O O15 0.300338 0.207009 0.541715
O O16 0.422313 0.229184 0.320296
O O17 0.328861 0.000000 0.441438
O O18 0.757319 0.000000 0.330723
O O19 0.968579 0.500000 0.795160
O O20 0.904594 0.756948 0.895976
O O21 0.624359 0.500000 0.014772
#
# Coordination Sequence:
#
# PCOD9223863 Si02
#       8
#     8   8   8   8   8   8   8   8
#     4  10  21  39  63  88 117 156 198 241 294 358
#     4  10  22  40  61  87 119 154 194 245 302 352
#     4  10  20  36  60  90 121 152 191 241 296 355
#     4   9  18  33  55  83 115 152 193 236 283 340
#     4  10  21  35  54  81 113 152 194 238 289 342
#     4  10  19  34  55  81 115 152 190 235 287 343
#     4  11  23  40  60  85 120 156 195 249 300 344
#     4  11  23  40  62  87 116 157 204 244 291 355
#
# _framework density 9.8765429999999999
#
# number of rings (size 3 to 8) (size 9 to 14) (size 15 to 20)
#    0.000    1.875    1.250    2.625    0.000    6.500 
#    0.000    1.250    0.000    5.625    0.000    0.000 
#    0.000    0.000    0.000    0.000    0.000    0.000 
#
# Total GULP energy -178284.675438 kJ/mol
# GULP energy per Si atom -5571.396107 kJ/mol
# Density = 0.985406 g / cm^3
# Si number density = 9.876543 Si / 1000 Ang^3
#
#
#
# Elastic Constant Matrix: (Units=GPa)
#
#
# Indices 1 2 3 4 5 6 
#
# 1 47.6345 11.4017 42.5459 -0.0009 -3.0894 0.0009
# 2 11.4017 9.0862 23.6644 -0.0011 5.8164 0.0018
# 3 42.5459 23.6644 97.2325 -0.0073 11.6710 0.0046
# 4 -0.0009 -0.0011 -0.0073 22.6869 0.0025 0.8247
# 5 -3.0894 5.8164 11.6710 0.0025 30.8998 -0.0015
# 6 0.0009 0.0018 0.0046 0.8247 -0.0015 13.7172
#
#
#
# Elastic Compliance Matrix: (Units=1/GPa)
#
#
# Indices 1 2 3 4 5 6 
#
# 1 0.039093 -0.024203 -0.012812 -0.000005 0.013304 0.000007
# 2 -0.024203 0.345401 -0.068483 -0.000001 -0.041570 -0.000025
# 3 -0.012812 -0.068483 0.032645 0.000007 -0.000720 -0.000002
# 4 -0.000005 -0.000001 0.000007 0.044175 -0.000007 -0.002656
# 5 0.013304 -0.041570 -0.000720 -0.000007 0.041790 0.000010
# 6 0.000007 -0.000025 -0.000002 -0.002656 0.000010 0.073061
#
#
# Mechanical properties :
#
#
# Convention : Reuss Voigt Hill
#
# Bulk Modulus (GPa) = 4.85105 34.35304 19.60205
# Shear Modulus (GPa) = 5.84198 18.55018 12.19608
#
# Velocity S-wave (km/s) = 1.72160 3.06780 2.48750
# Velocity P-wave (km/s) = 2.53240 5.47517 4.26560
#
# Compressibility (1/GPa) = 0.20614102
#
# Stress axis : x y z
#
# Youngs Moduli (GPa) = 25.58027 2.89519 30.63289
#
# Poissons Ratio (x) = 0.07007 0.39247
# Poissons Ratio (y) = 0.61913 2.09784
# Poissons Ratio (z) = 0.32773 0.19827
#
# Static dielectric constant tensor:
#      x y z
#    x 1.802800 0.000000 0.039180 
#    y 0.000000 1.695860 0.000000 
#    z 0.039180 0.000000 1.676620 
# 
# From -- ./inp_files/353273.got.cif
#   From: 2010.05.17/outbox.ucp.g08.bks.cvg/sg12_177_cif.got.tgz:353273.got - 2010.06.11 11:47:21.
