data_PCOD9223236
_publ_section_title
;
Structure prediction by ZEFSAII (Michael W. Deem and Ramdas Pophale) SiO2 
 PCOD9223236
Probable space group: C 2/M
;
_chemical_formula_sum "Si O2"
_cell_formula_units_Z 28
_cell_length_a 24.000000
_cell_length_b 9.000000
_cell_length_c 18.000000
_cell_angle_alpha 90.000000
_cell_angle_beta 120.000000
_cell_angle_gamma 90.000000
_cell_volume 3367.106770
_symmetry_space_group_name_H-M "C 2/M"
_symmetry_group_IT_number 12
_symmetry_cell_setting 'monoclinic'
loop_
_space_group_symop_operation_xyz
x,y,z
-x,y,-z
-x,-y,-z
x,-y,z
1/2+x,1/2+y,z
1/2-x,1/2+y,-z
1/2-x,1/2-y,-z
1/2+x,1/2-y,z
loop_
_atom_site_type_symbol
_atom_site_label
_atom_site_fract_x
_atom_site_fract_y
_atom_site_fract_z
Si Si1 0.439621 0.174651 0.273415
Si Si2 0.775170 0.322079 0.737735
Si Si3 0.803660 0.322824 0.589201
Si Si4 0.283251 0.321270 0.904208
Si Si5 0.427531 0.821817 0.571739
Si Si6 0.638296 0.825386 0.624860
Si Si7 0.841956 0.822083 0.100949
O O1 0.507700 0.237064 0.347559
O O2 0.396744 0.180487 0.319469
O O3 0.405778 0.260596 0.183378
O O4 0.445736 0.000000 0.256515
O O5 0.781312 0.500000 0.750239
O O6 0.806222 0.276999 0.678168
O O7 0.796164 0.246709 0.830500
O O8 0.701530 0.273242 0.674822
O O9 0.791497 0.500000 0.581776
O O10 0.750000 0.250000 0.500000
O O11 0.869898 0.295142 0.590355
O O12 0.277383 0.500000 0.892932
O O13 0.216662 0.254179 0.892486
O O14 0.332529 0.289976 0.006124
O O15 0.405814 0.774953 0.474279
O O16 0.437914 0.000000 0.571441
O O17 0.655685 0.000000 0.622470
O O18 0.837440 0.000000 0.106511
#
# Coordination Sequence:
#
# PCOD9223236 Si02
#       7
#     8   8   8   8   8   8   8
#     4  10  19  31  51  77 103 136 173 203 247 306
#     4  11  21  31  49  77 107 133 166 214 257 292
#     4  10  20  34  52  74 101 135 175 214 252 291
#     4  10  20  34  52  74 100 135 170 201 251 311
#     4   9  18  33  51  72 102 139 176 210 241 294
#     4  10  18  30  50  74 102 136 170 203 245 303
#     4  10  20  33  51  76 105 130 161 209 257 302
#
# _framework density 8.3157449999999997
#
# number of rings (size 3 to 8) (size 9 to 14) (size 15 to 20)
#    0.000    2.000    2.857    1.714    0.000    4.000 
#    0.000    1.429    0.000    2.571    0.000    6.000 
#    0.000    0.000    0.000    0.000    0.000    0.000 
#
# Total GULP energy -156002.255602 kJ/mol
# GULP energy per Si atom -5571.509129 kJ/mol
# Density = 0.829682 g / cm^3
# Si number density = 8.315745 Si / 1000 Ang^3
#
#
#
# Elastic Constant Matrix: (Units=GPa)
#
#
# Indices 1 2 3 4 5 6 
#
# 1 11.6179 16.1191 34.8051 0.0000 -3.8172 0.0000
# 2 16.1191 48.0497 44.6451 0.0000 -6.1506 0.0000
# 3 34.8051 44.6451 180.2777 0.0000 -11.6935 0.0000
# 4 0.0000 0.0000 0.0000 33.3201 0.0000 -2.8707
# 5 -3.8172 -6.1506 -11.6935 0.0000 30.2658 0.0000
# 6 0.0000 0.0000 0.0000 -2.8707 0.0000 15.2306
#
#
#
# Elastic Compliance Matrix: (Units=1/GPa)
#
#
# Indices 1 2 3 4 5 6 
#
# 1 0.298496 -0.059706 -0.042247 0.000000 0.009191 0.000000
# 2 -0.059706 0.039239 0.001886 0.000000 0.001173 0.000000
# 3 -0.042247 0.001886 0.013248 0.000000 0.000173 0.000000
# 4 0.000000 0.000000 0.000000 0.030507 0.000000 0.005750
# 5 0.009191 0.001173 0.000173 0.000000 0.034505 0.000000
# 6 0.000000 0.000000 0.000000 0.005750 0.000000 0.066741
#
#
# Mechanical properties :
#
#
# Convention : Reuss Voigt Hill
#
# Bulk Modulus (GPa) = 6.62917 47.89822 27.26369
# Shear Modulus (GPa) = 6.81986 25.38838 16.10412
#
# Velocity S-wave (km/s) = 2.02718 3.91131 3.11511
# Velocity P-wave (km/s) = 3.07796 7.01855 5.41913
#
# Compressibility (1/GPa) = 0.15084852
#
# Stress axis : x y z
#
# Youngs Moduli (GPa) = 3.35013 25.48467 75.48571
#
# Poissons Ratio (x) = 1.52159 3.18901
# Poissons Ratio (y) = 0.20002 -0.14234
# Poissons Ratio (z) = 0.14153 -0.04806
#
# Static dielectric constant tensor:
#      x y z
#    x 1.578600 0.000000 0.009530 
#    y 0.000000 1.571210 0.000000 
#    z 0.009530 0.000000 1.587960 
# 
# From -- ./inp_files/287877.got.cif
#   From: 2010.05.17/outbox.ucp.g08.bks.cvg/sg12_144_cif.got.tgz:287877.got - 2010.06.11 11:47:21.
