data_PCOD9223454
_publ_section_title
;
Structure prediction by ZEFSAII (Michael W. Deem and Ramdas Pophale) SiO2 
 PCOD9223454
Probable space group: C 2/M
;
_chemical_formula_sum "Si O2"
_cell_formula_units_Z 28
_cell_length_a 12.000000
_cell_length_b 30.000000
_cell_length_c 24.000000
_cell_angle_alpha 90.000000
_cell_angle_beta 20.000000
_cell_angle_gamma 90.000000
_cell_volume 2955.054038
_symmetry_space_group_name_H-M "C 2/M"
_symmetry_group_IT_number 12
_symmetry_cell_setting 'monoclinic'
loop_
_space_group_symop_operation_xyz
x,y,z
-x,y,-z
-x,-y,-z
x,-y,z
1/2+x,1/2+y,z
1/2-x,1/2+y,-z
1/2-x,1/2-y,-z
1/2+x,1/2-y,z
loop_
_atom_site_type_symbol
_atom_site_label
_atom_site_fract_x
_atom_site_fract_y
_atom_site_fract_z
Si Si1 0.383795 0.610268 0.821779
Si Si2 0.736897 0.303800 0.440459
Si Si3 0.139579 0.192918 0.095577
Si Si4 0.211900 0.772655 0.254486
Si Si5 0.279045 0.450732 0.416513
Si Si6 0.649071 0.635107 0.868120
Si Si7 0.284817 0.552558 0.237245
O O1 0.469467 0.659971 0.803326
O O2 0.516325 0.591312 0.700995
O O3 0.505575 0.575558 0.811862
O O4 0.000000 0.608989 0.000000
O O5 0.500000 0.300285 0.500000
O O6 0.507674 0.304595 0.603420
O O7 0.960524 0.259692 0.341152
O O8 0.990826 0.343831 0.310046
O O9 0.929254 0.238317 0.190406
O O10 0.065510 0.164408 0.074276
O O11 0.522932 0.204848 0.910881
O O12 0.443084 0.500000 0.339866
O O13 0.000000 0.453746 0.500000
O O14 0.085408 0.444214 0.564982
O O15 0.660179 0.584079 0.841641
O O16 0.500000 0.639293 0.000000
O O17 0.358160 0.500000 0.196031
#
# Coordination Sequence:
#
# PCOD9223454 Si02
#       7
#     8   8   8   8   8   8   8
#     4  10  19  29  49  81 110 136 166 207 258 310
#     4  10  20  34  55  77 100 136 177 215 262 311
#     4   9  19  35  52  76 111 141 173 215 257 304
#     4   9  19  36  54  75 105 140 177 216 256 306
#     4   8  15  30  49  68  98 136 166 197 247 311
#     4  10  20  35  56  77 101 137 177 219 262 303
#     4   9  19  36  55  75 102 137 173 209 255 313
#
# _framework density 9.4752919999999996
#
# number of rings (size 3 to 8) (size 9 to 14) (size 15 to 20)
#    0.000    2.714    0.000    2.143    0.000    3.714 
#    0.000   10.714    0.000    0.429    0.000    0.000 
#    0.000    0.000    0.000    0.000    0.000    0.000 
#
# Total GULP energy -156040.890633 kJ/mol
# GULP energy per Si atom -5572.888951 kJ/mol
# Density = 0.945373 g / cm^3
# Si number density = 9.475292 Si / 1000 Ang^3
#
#
#
# Elastic Constant Matrix: (Units=GPa)
#
#
# Indices 1 2 3 4 5 6 
#
# 1 32.7614 11.6557 4.4754 -0.0522 -0.7874 0.0280
# 2 11.6557 89.6189 30.6311 0.0812 11.7422 0.0456
# 3 4.4754 30.6311 60.4148 0.1986 0.5801 -0.1822
# 4 -0.0522 0.0812 0.1986 28.8293 0.0411 7.0467
# 5 -0.7874 11.7422 0.5801 0.0411 30.3336 -0.0475
# 6 0.0280 0.0456 -0.1822 7.0467 -0.0475 8.4552
#
#
#
# Elastic Compliance Matrix: (Units=1/GPa)
#
#
# Indices 1 2 3 4 5 6 
#
# 1 0.032198 -0.004476 -0.000141 0.000107 0.002571 -0.000161
# 2 -0.004476 0.014957 -0.007197 0.000087 -0.005769 -0.000326
# 3 -0.000141 -0.007197 0.020192 -0.000304 0.002398 0.000741
# 4 0.000107 0.000087 -0.000304 0.043566 -0.000141 -0.036317
# 5 0.002571 -0.005769 0.002398 -0.000141 0.035222 0.000390
# 6 -0.000161 -0.000326 0.000741 -0.036317 0.000390 0.148558
#
#
# Mechanical properties :
#
#
# Convention : Reuss Voigt Hill
#
# Bulk Modulus (GPa) = 22.87460 30.70218 26.78839
# Shear Modulus (GPa) = 15.01982 22.59248 18.80615
#
# Velocity S-wave (km/s) = 2.81833 3.45654 3.15362
# Velocity P-wave (km/s) = 4.76314 5.67156 5.23708
#
# Compressibility (1/GPa) = 0.04371661
#
# Stress axis : x y z
#
# Youngs Moduli (GPa) = 31.05822 66.86051 49.52437
#
# Poissons Ratio (x) = 0.29928 0.00699
# Poissons Ratio (y) = 0.13902 0.35645
# Poissons Ratio (z) = 0.00438 0.48122
#
# Static dielectric constant tensor:
#      x y z
#    x 1.674710 -0.000020 0.002820 
#    y -0.000020 1.693090 0.000130 
#    z 0.002820 0.000130 1.678480 
# 
# From -- ./inp_files/337286.got.cif
#   From: 2010.05.17/outbox.ucp.g08.bks.cvg/sg12_169_cif.got.tgz:337286.got - 2010.06.11 11:47:21.
