data_PCOD9223956
_publ_section_title
;
Structure prediction by ZEFSAII (Michael W. Deem and Ramdas Pophale) SiO2 
 PCOD9223956
Probable space group: C 2/M
;
_chemical_formula_sum "Si O2"
_cell_formula_units_Z 20
_cell_length_a 15.000000
_cell_length_b 18.000000
_cell_length_c 15.000000
_cell_angle_alpha 90.000000
_cell_angle_beta 30.000000
_cell_angle_gamma 90.000000
_cell_volume 2025.000000
_symmetry_space_group_name_H-M "C 2/M"
_symmetry_group_IT_number 12
_symmetry_cell_setting 'monoclinic'
loop_
_space_group_symop_operation_xyz
x,y,z
-x,y,-z
-x,-y,-z
x,-y,z
1/2+x,1/2+y,z
1/2-x,1/2+y,-z
1/2-x,1/2-y,-z
1/2+x,1/2-y,z
loop_
_atom_site_type_symbol
_atom_site_label
_atom_site_fract_x
_atom_site_fract_y
_atom_site_fract_z
Si Si1 0.614845 0.164509 0.489313
Si Si2 0.891284 0.918537 0.352235
Si Si3 0.823148 0.277330 0.190920
Si Si4 0.802352 0.082059 0.635409
Si Si5 0.894447 0.230576 0.800316
O O1 0.500000 0.145650 0.500000
O O2 0.733598 0.096737 0.419379
O O3 0.737339 0.230403 0.343837
O O4 0.518325 0.200566 0.659945
O O5 0.815978 0.920161 0.517669
O O6 0.009513 0.844100 0.249531
O O7 0.976039 0.000000 0.262955
O O8 0.845996 0.359626 0.208270
O O9 0.698275 0.285894 0.213759
O O10 0.000000 0.240949 0.000000
O O11 0.000000 0.104871 0.500000
O O12 0.769238 0.000000 0.700251
O O13 0.750000 0.250000 0.000000
#
# Coordination Sequence:
#
# PCOD9223956 Si02
#       5
#     8   8   8   8   8
#     4  10  22  41  61  86 118 155 206 250 293 346
#     4  11  22  38  63  88 121 162 195 243 305 353
#     4  11  21  35  59  89 118 156 197 246 296 347
#     4  10  19  35  56  84 122 159 191 234 300 364
#     4  11  22  37  62  90 118 155 204 249 292 353
#
# _framework density 9.8765429999999999
#
# number of rings (size 3 to 8) (size 9 to 14) (size 15 to 20)
#    0.000    1.400    4.000    2.400    2.800    0.800 
#    0.000    1.000    0.000   11.400    0.000    0.000 
#    0.000    0.000    0.000    0.000    0.000    0.000 
#
# Total GULP energy -111403.640753 kJ/mol
# GULP energy per Si atom -5570.182038 kJ/mol
# Density = 0.985406 g / cm^3
# Si number density = 9.876543 Si / 1000 Ang^3
#
#
#
# Elastic Constant Matrix: (Units=GPa)
#
#
# Indices 1 2 3 4 5 6 
#
# 1 70.4127 39.7871 9.0633 -0.0009 2.0945 0.0025
# 2 39.7871 62.5362 16.4257 -0.0001 5.4482 0.0009
# 3 9.0633 16.4257 67.0654 -0.0069 24.7620 0.0068
# 4 -0.0009 -0.0001 -0.0069 13.5594 0.0027 -13.1878
# 5 2.0945 5.4482 24.7620 0.0027 26.6308 -0.0040
# 6 0.0025 0.0009 0.0068 -13.1878 -0.0040 36.0454
#
#
#
# Elastic Compliance Matrix: (Units=1/GPa)
#
#
# Indices 1 2 3 4 5 6 
#
# 1 0.022209 -0.014248 0.000087 0.000000 0.001087 -0.000001
# 2 -0.014248 0.026236 -0.004465 -0.000003 -0.000095 0.000000
# 3 0.000087 -0.004465 0.023844 0.000015 -0.021264 -0.000001
# 4 0.000000 -0.000003 0.000015 0.114490 -0.000019 0.041888
# 5 0.001087 -0.000095 -0.021264 -0.000019 0.057256 0.000003
# 6 -0.000001 0.000000 -0.000001 0.041888 0.000003 0.043068
#
#
# Mechanical properties :
#
#
# Convention : Reuss Voigt Hill
#
# Bulk Modulus (GPa) = 28.54134 36.72964 32.63549
# Shear Modulus (GPa) = 14.87941 24.22967 19.55454
#
# Velocity S-wave (km/s) = 2.74755 3.50612 3.14976
# Velocity P-wave (km/s) = 4.95437 5.91822 5.45761
#
# Compressibility (1/GPa) = 0.03503690
#
# Stress axis : x y z
#
# Youngs Moduli (GPa) = 45.02651 38.11485 41.93951
#
# Poissons Ratio (x) = 0.54304 -0.00363
# Poissons Ratio (y) = 0.64152 0.18728
# Poissons Ratio (z) = -0.00390 0.17020
#
# Static dielectric constant tensor:
#      x y z
#    x 1.720390 0.000000 -0.084030 
#    y 0.000000 1.727150 0.000000 
#    z -0.084030 0.000000 1.770410 
# 
# From -- ./inp_files/63140.got.cif
#   From: 2010.05.17/outbox.ucp.g08.bks.cvg/sg12_32_cif.got.tgz:63140.got - 2010.06.11 11:47:21.
