data_PCOD9223991
_publ_section_title
;
Structure prediction by ZEFSAII (Michael W. Deem and Ramdas Pophale) SiO2 
 PCOD9223991
Probable space group: C 2/M
;
_chemical_formula_sum "Si O2"
_cell_formula_units_Z 32
_cell_length_a 18.000000
_cell_length_b 21.000000
_cell_length_c 24.000000
_cell_angle_alpha 90.000000
_cell_angle_beta 20.000000
_cell_angle_gamma 90.000000
_cell_volume 3102.806740
_symmetry_space_group_name_H-M "C 2/M"
_symmetry_group_IT_number 12
_symmetry_cell_setting 'monoclinic'
loop_
_space_group_symop_operation_xyz
x,y,z
-x,y,-z
-x,-y,-z
x,-y,z
1/2+x,1/2+y,z
1/2-x,1/2+y,-z
1/2-x,1/2-y,-z
1/2+x,1/2-y,z
loop_
_atom_site_type_symbol
_atom_site_label
_atom_site_fract_x
_atom_site_fract_y
_atom_site_fract_z
Si Si1 0.165769 0.816874 0.535298
Si Si2 0.028016 0.575277 0.726403
Si Si3 0.728571 0.166072 0.306157
Si Si4 0.472598 0.430965 0.310470
Si Si5 0.310440 0.792935 0.181548
Si Si6 0.900979 0.926090 0.901577
Si Si7 0.700884 0.932155 0.816210
Si Si8 0.245599 0.571885 0.194623
O O1 0.250000 0.750000 0.500000
O O2 0.304254 0.864210 0.395572
O O3 0.154767 0.865556 0.595340
O O4 0.928593 0.797495 0.678314
O O5 0.107010 0.500000 0.678168
O O6 0.899008 0.576484 0.758609
O O7 0.836035 0.586929 0.906090
O O8 0.500000 0.173598 0.500000
O O9 0.813371 0.234637 0.223156
O O10 0.681308 0.123678 0.284945
O O11 0.915756 0.124431 0.206653
O O12 0.356876 0.500000 0.388360
O O13 0.612128 0.426328 0.156256
O O14 0.601908 0.431101 0.277951
O O15 0.326010 0.864970 0.195867
O O16 0.500000 0.785832 0.000000
O O17 0.958434 0.000000 0.877635
O O18 0.710450 0.000000 0.778035
O O19 0.500000 0.934507 0.000000
O O20 0.224131 0.500000 0.232027
O O21 0.500000 0.581451 0.000000
#
# Coordination Sequence:
#
# PCOD9223991 Si02
#       8
#     8   8   8   8   8   8   8   8
#     4  11  23  37  61  90 122 159 215 267 317 372
#     4  10  21  39  63  92 126 166 210 266 323 385
#     4  12  25  37  58  87 131 172 217 259 310 369
#     4   9  19  37  60  91 127 160 201 257 316 374
#     4  10  23  42  63  86 120 169 214 263 314 380
#     4  10  22  39  61  94 134 172 208 250 318 388
#     4   8  15  34  66  92 109 144 206 266 311 362
#     4  10  19  35  58  86 121 170 223 254 295 373
#
# _framework density 10.313243
#
# number of rings (size 3 to 8) (size 9 to 14) (size 15 to 20)
#    0.000    2.000    1.250    1.875    5.250    1.500 
#    0.000    4.375    0.000    0.375    0.000    0.000 
#    0.000    0.000    0.000    0.000    0.000    0.000 
#
# Total GULP energy -178272.250305 kJ/mol
# GULP energy per Si atom -5571.007822 kJ/mol
# Density = 1.028977 g / cm^3
# Si number density = 10.313243 Si / 1000 Ang^3
#
#
#
# Elastic Constant Matrix: (Units=GPa)
#
#
# Indices 1 2 3 4 5 6 
#
# 1 11.7824 16.1221 11.8930 0.0335 9.9370 -0.0362
# 2 16.1221 203.2297 61.2264 0.0691 14.9969 -0.0806
# 3 11.8930 61.2264 129.9121 0.0691 9.1490 0.0448
# 4 0.0335 0.0691 0.0691 35.4543 0.0057 -2.7244
# 5 9.9370 14.9969 9.1490 0.0057 37.3943 0.0064
# 6 -0.0362 -0.0806 0.0448 -2.7244 0.0064 29.4636
#
#
#
# Elastic Compliance Matrix: (Units=1/GPa)
#
#
# Indices 1 2 3 4 5 6 
#
# 1 0.123782 -0.005689 -0.006609 -0.000077 -0.028995 0.000146
# 2 -0.005689 0.006100 -0.002329 -0.000001 -0.000365 0.000013
# 3 -0.006609 -0.002329 0.009372 -0.000010 0.000397 -0.000030
# 4 -0.000077 -0.000001 -0.000010 0.028407 0.000018 0.002627
# 5 -0.028995 -0.000365 0.000397 0.000018 0.034496 -0.000043
# 6 0.000146 0.000013 -0.000030 0.002627 -0.000043 0.034183
#
#
# Mechanical properties :
#
#
# Convention : Reuss Voigt Hill
#
# Bulk Modulus (GPa) = 9.09075 58.15636 33.62355
# Shear Modulus (GPa) = 16.54201 37.50795 27.02498
#
# Velocity S-wave (km/s) = 2.83500 4.26894 3.62361
# Velocity P-wave (km/s) = 3.89014 7.24946 5.81755
#
# Compressibility (1/GPa) = 0.11000192
#
# Stress axis : x y z
#
# Youngs Moduli (GPa) = 8.07873 163.92692 106.70103
#
# Poissons Ratio (x) = 0.93255 0.70516
# Poissons Ratio (y) = 0.04596 0.24845
# Poissons Ratio (z) = 0.05339 0.38170
#
# Static dielectric constant tensor:
#      x y z
#    x 1.737540 0.000040 -0.026160 
#    y 0.000040 1.799510 -0.000050 
#    z -0.026160 -0.000050 1.827770 
# 
# From -- ./inp_files/344870.got.cif
#   From: 2010.05.17/outbox.ucp.g08.bks.cvg/sg12_173_cif.got.tgz:344870.got - 2010.06.11 11:47:21.
