data_PCOD9223858
_publ_section_title
;
Structure prediction by ZEFSAII (Michael W. Deem and Ramdas Pophale) SiO2 
 PCOD9223858
Probable space group: C 2/M
;
_chemical_formula_sum "Si O2"
_cell_formula_units_Z 32
_cell_length_a 21.000000
_cell_length_b 24.000000
_cell_length_c 18.000000
_cell_angle_alpha 90.000000
_cell_angle_beta 20.000000
_cell_angle_gamma 90.000000
_cell_volume 3102.806740
_symmetry_space_group_name_H-M "C 2/M"
_symmetry_group_IT_number 12
_symmetry_cell_setting 'monoclinic'
loop_
_space_group_symop_operation_xyz
x,y,z
-x,y,-z
-x,-y,-z
x,-y,z
1/2+x,1/2+y,z
1/2-x,1/2+y,-z
1/2-x,1/2-y,-z
1/2+x,1/2-y,z
loop_
_atom_site_type_symbol
_atom_site_label
_atom_site_fract_x
_atom_site_fract_y
_atom_site_fract_z
Si Si1 0.109184 0.645066 0.768102
Si Si2 0.742364 0.855135 0.459502
Si Si3 0.947841 0.260172 0.632391
Si Si4 0.399346 0.562738 0.496785
Si Si5 0.188804 0.654938 0.106362
Si Si6 0.977025 0.061441 0.813120
Si Si7 0.712162 0.645298 0.170170
Si Si8 0.874687 0.765901 0.205563
O O1 0.226506 0.656834 0.564705
O O2 0.224200 0.604079 0.693518
O O3 0.048202 0.704940 0.863681
O O4 0.913177 0.618815 0.962308
O O5 0.531080 0.856857 0.662860
O O6 0.865171 0.808930 0.283590
O O7 0.848038 0.913143 0.335532
O O8 0.814516 0.293565 0.833652
O O9 0.853216 0.201384 0.717802
O O10 0.000000 0.292830 0.500000
O O11 0.154671 0.252233 0.437165
O O12 0.369413 0.500000 0.556098
O O13 0.457025 0.559394 0.345682
O O14 0.568815 0.596780 0.344293
O O15 0.305136 0.603206 0.008935
O O16 0.279324 0.664885 0.926070
O O17 0.927162 0.000000 0.891534
O O18 0.000000 0.788385 0.000000
#
# Coordination Sequence:
#
# PCOD9223858 Si02
#       8
#     8   8   8   8   8   8   8   8
#     4  10  19  34  55  81 109 141 174 218 268 315
#     4   9  20  34  53  81 110 139 176 219 265 316
#     4  11  22  35  52  81 110 144 176 219 268 319
#     4   9  18  34  53  80 110 138 177 220 258 313
#     4   9  20  34  53  81 110 139 176 219 265 316
#     4   9  18  32  55  80 106 140 177 218 266 309
#     4  10  19  34  55  81 109 141 174 218 268 315
#     4  11  22  35  52  81 110 144 176 219 268 319
#
# _framework density 10.313243
#
# number of rings (size 3 to 8) (size 9 to 14) (size 15 to 20)
#    0.000    2.250    1.250    1.500    3.500    1.000 
#    0.000    5.000    0.000    1.500    0.000    0.000 
#    0.000    0.000    0.000    0.000    0.000    0.000 
#
# Total GULP energy -178278.541859 kJ/mol
# GULP energy per Si atom -5571.204433 kJ/mol
# Density = 1.028977 g / cm^3
# Si number density = 10.313243 Si / 1000 Ang^3
#
#
#
# Elastic Constant Matrix: (Units=GPa)
#
#
# Indices 1 2 3 4 5 6 
#
# 1 22.7452 13.6687 28.3768 -0.0983 4.5987 0.0030
# 2 13.6687 92.5073 37.8006 -0.0767 -2.2858 0.0207
# 3 28.3768 37.8006 91.4647 0.1125 4.4828 0.0188
# 4 -0.0983 -0.0767 0.1125 -23.6071 -0.0692 -15.9049
# 5 4.5987 -2.2858 4.4828 -0.0692 21.9387 -0.0272
# 6 0.0030 0.0207 0.0188 -15.9049 -0.0272 -7.8435
#
#
#
# Elastic Compliance Matrix: (Units=1/GPa)
#
#
# Indices 1 2 3 4 5 6 
#
# 1 0.074737 -0.002505 -0.021588 0.001035 -0.011515 -0.002089
# 2 -0.002505 0.013226 -0.004831 0.000198 0.002890 -0.000388
# 3 -0.021588 -0.004831 0.019627 -0.000496 0.000011 0.001032
# 4 0.001035 0.000198 -0.000496 0.115695 -0.000021 -0.234606
# 5 -0.011515 0.002890 0.000011 -0.000021 0.048294 -0.000122
# 6 -0.002089 -0.000388 0.001032 -0.234606 -0.000122 0.348240
#
#
# Mechanical properties :
#
#
# Convention : Reuss Voigt Hill
#
# Bulk Modulus (GPa) = 20.10357 40.71216 30.40787
# Shear Modulus (GPa) = 7.20204 6.55569 6.87887
#
# Velocity S-wave (km/s) = 1.87062 1.78471 1.82817
# Velocity P-wave (km/s) = 3.79912 4.90179 4.38525
#
# Compressibility (1/GPa) = 0.04974240
#
# Stress axis : x y z
#
# Youngs Moduli (GPa) = 13.38026 75.61085 50.94957
#
# Poissons Ratio (x) = 0.18938 1.09992
# Poissons Ratio (y) = 0.03351 0.24612
# Poissons Ratio (z) = 0.28886 0.36525
#
# Static dielectric constant tensor:
#      x y z
#    x 2.383810 0.011450 -0.106090 
#    y 0.011450 1.945270 -0.000470 
#    z -0.106090 -0.000470 1.749660 
# 
# From -- ./inp_files/286400.got.cif
#   From: 2010.05.17/outbox.ucp.g08.bks.cvg/sg12_144_cif.got.tgz:286400.got - 2010.06.11 11:47:21.
