data_PCOD9223391
_publ_section_title
;
Structure prediction by ZEFSAII (Michael W. Deem and Ramdas Pophale) SiO2 
 PCOD9223391
Probable space group: C 2/M
;
_chemical_formula_sum "Si O2"
_cell_formula_units_Z 20
_cell_length_a 9.000000
_cell_length_b 18.000000
_cell_length_c 18.000000
_cell_angle_alpha 90.000000
_cell_angle_beta 130.000000
_cell_angle_gamma 90.000000
_cell_volume 2233.785596
_symmetry_space_group_name_H-M "C 2/M"
_symmetry_group_IT_number 12
_symmetry_cell_setting 'monoclinic'
loop_
_space_group_symop_operation_xyz
x,y,z
-x,y,-z
-x,-y,-z
x,-y,z
1/2+x,1/2+y,z
1/2-x,1/2+y,-z
1/2-x,1/2-y,-z
1/2+x,1/2-y,z
loop_
_atom_site_type_symbol
_atom_site_label
_atom_site_fract_x
_atom_site_fract_y
_atom_site_fract_z
Si Si1 0.555341 0.712487 0.313716
Si Si2 0.684982 0.668058 0.004123
Si Si3 0.068635 0.913861 0.195941
Si Si4 0.841192 0.161585 0.392109
Si Si5 0.073398 0.635052 0.785666
O O1 0.590601 0.643832 0.270597
O O2 0.748011 0.760927 0.392950
O O3 0.451085 0.683090 0.352683
O O4 0.421779 0.776135 0.232121
O O5 0.858575 0.630564 0.107303
O O6 0.500000 0.675201 0.000000
O O7 0.750000 0.750000 0.000000
O O8 0.605776 0.617960 0.911289
O O9 0.266645 0.906271 0.211817
O O10 0.038606 0.000000 0.206589
O O11 0.647669 0.115245 0.307707
O O12 0.000000 0.130395 0.500000
#
# Coordination Sequence:
#
# PCOD9223391 Si02
#       5
#     8   8   8   8   8
#     4  10  18  34  57  89 111 150 186 237 285 326
#     4  10  19  31  55  82 111 151 188 226 272 337
#     4  11  22  37  57  87 119 150 189 232 286 343
#     4  10  19  33  61  88 108 143 204 243 273 328
#     4   9  19  34  55  85 110 153 187 234 275 333
#
# _framework density 8.9534109999999991
#
# number of rings (size 3 to 8) (size 9 to 14) (size 15 to 20)
#    1.200    0.800    4.000    0.600    2.800    3.600 
#    0.000    1.000    0.000   10.800    0.000    0.000 
#    0.000    0.000    0.000    0.000    0.000    0.000 
#
# Total GULP energy -111337.831029 kJ/mol
# GULP energy per Si atom -5566.891551 kJ/mol
# Density = 0.893303 g / cm^3
# Si number density = 8.953411 Si / 1000 Ang^3
#
#
#
# Elastic Constant Matrix: (Units=GPa)
#
#
# Indices 1 2 3 4 5 6 
#
# 1 44.9601 -9.8509 20.2184 0.0000 5.6280 0.0000
# 2 -9.8509 48.3087 -15.0842 0.0000 10.8875 0.0000
# 3 20.2184 -15.0842 100.0673 0.0000 35.7307 0.0000
# 4 0.0000 0.0000 0.0000 13.0034 0.0000 -0.7444
# 5 5.6280 10.8875 35.7307 0.0000 19.6559 0.0000
# 6 0.0000 0.0000 0.0000 -0.7444 0.0000 13.7313
#
#
#
# Elastic Compliance Matrix: (Units=1/GPa)
#
#
# Indices 1 2 3 4 5 6 
#
# 1 0.025451 0.010155 0.002846 0.000000 -0.018086 0.000000
# 2 0.010155 0.134923 0.131112 0.000000 -0.315978 0.000000
# 3 0.002846 0.131112 0.157883 0.000000 -0.360439 0.000000
# 4 0.000000 0.000000 0.000000 0.077142 0.000000 0.004182
# 5 -0.018086 -0.315978 -0.360439 0.000000 0.886283 0.000000
# 6 0.000000 0.000000 0.000000 0.004182 0.000000 0.073053
#
#
# Mechanical properties :
#
#
# Convention : Reuss Voigt Hill
#
# Bulk Modulus (GPa) = 1.64885 20.43363 11.04124
# Shear Modulus (GPa) = 3.94114 22.48166 13.21140
#
# Velocity S-wave (km/s) = 1.48516 3.54712 2.71917
# Velocity P-wave (km/s) = 1.96563 5.31149 4.00473
#
# Compressibility (1/GPa) = 0.60648228
#
# Stress axis : x y z
#
# Youngs Moduli (GPa) = 39.29143 7.41164 6.33381
#
# Poissons Ratio (x) = -0.07526 -0.01803
# Poissons Ratio (y) = -0.39899 -0.83044
# Poissons Ratio (z) = -0.11184 -0.97175
#
# Static dielectric constant tensor:
#      x y z
#    x 1.610280 0.000000 0.013190 
#    y 0.000000 1.579860 0.000000 
#    z 0.013190 0.000000 1.655390 
# 
# From -- ./inp_files/194551.got.cif
#   From: 2010.05.17/outbox.ucp.g08.bks.cvg/sg12_98_cif.got.tgz:194551.got - 2010.06.11 11:47:21.
