data_PCOD9223334
_publ_section_title
;
Structure prediction by ZEFSAII (Michael W. Deem and Ramdas Pophale) SiO2 
 PCOD9223334
Probable space group: C 2/M
;
_chemical_formula_sum "Si O2"
_cell_formula_units_Z 32
_cell_length_a 21.000000
_cell_length_b 9.000000
_cell_length_c 18.000000
_cell_angle_alpha 90.000000
_cell_angle_beta 90.000000
_cell_angle_gamma 90.000000
_cell_volume 3402.000000
_symmetry_space_group_name_H-M "C 2/M"
_symmetry_group_IT_number 12
_symmetry_cell_setting 'monoclinic'
loop_
_space_group_symop_operation_xyz
x,y,z
-x,y,-z
-x,-y,-z
x,-y,z
1/2+x,1/2+y,z
1/2-x,1/2+y,-z
1/2-x,1/2-y,-z
1/2+x,1/2-y,z
loop_
_atom_site_type_symbol
_atom_site_label
_atom_site_fract_x
_atom_site_fract_y
_atom_site_fract_z
Si Si1 0.225710 0.822986 0.323953
Si Si2 0.445699 0.324124 0.060055
Si Si3 0.059899 0.676917 0.785633
Si Si4 0.017128 0.320811 0.628919
Si Si5 0.655441 0.819363 0.574758
Si Si6 0.305109 0.331099 0.211650
Si Si7 0.620145 0.820754 0.413169
Si Si8 0.808638 0.832740 0.034759
O O1 0.283449 0.770605 0.378629
O O2 0.248772 0.765531 0.244893
O O3 0.160007 0.749836 0.347400
O O4 0.221741 0.000000 0.327388
O O5 0.435960 0.500000 0.077942
O O6 0.461636 0.240306 0.135738
O O7 0.379179 0.266212 0.026274
O O8 0.500000 0.311052 0.000000
O O9 0.068919 0.500000 0.788873
O O10 0.013741 0.709811 0.716786
O O11 0.128097 0.752380 0.769813
O O12 0.019082 0.500000 0.618870
O O13 0.086198 0.266207 0.602816
O O14 0.953442 0.270396 0.587683
O O15 0.656188 0.777861 0.488657
O O16 0.654919 0.000000 0.580059
O O17 0.303911 0.500000 0.240292
O O18 0.300260 0.336555 0.123296
O O19 0.620345 0.000000 0.408063
O O20 0.809759 0.000000 0.004752
O O21 0.750000 0.750000 0.000000
#
# Coordination Sequence:
#
# PCOD9223334 Si02
#       8
#     8   8   8   8   8   8   8   8
#     4  11  21  35  54  78 110 140 178 227 269 312
#     4   9  19  37  57  78 109 144 180 217 257 314
#     4  10  18  32  56  83 109 137 177 226 267 308
#     4   9  17  32  54  80 107 137 178 223 265 314
#     4   9  17  32  56  80 101 137 184 223 264 319
#     4  10  20  36  57  80 106 142 184 217 258 320
#     4  10  20  34  54  78 108 143 177 219 272 325
#     4   9  19  35  56  81 107 136 172 215 261 312
#
# _framework density 9.4062319999999993
#
# number of rings (size 3 to 8) (size 9 to 14) (size 15 to 20)
#    0.000    2.375    1.250    2.625    0.000    4.250 
#    2.250    1.875    0.000    0.750    0.000    0.000 
#    0.000    0.000    0.000    0.000    0.000    0.000 
#
# Total GULP energy -178312.303407 kJ/mol
# GULP energy per Si atom -5572.259481 kJ/mol
# Density = 0.938482 g / cm^3
# Si number density = 9.406232 Si / 1000 Ang^3
#
#
#
# Elastic Constant Matrix: (Units=GPa)
#
#
# Indices 1 2 3 4 5 6 
#
# 1 56.5155 6.2281 19.5903 0.0000 -4.3515 0.0000
# 2 6.2281 22.0094 13.3434 0.0000 4.0032 0.0000
# 3 19.5903 13.3434 26.2483 0.0000 -8.9759 0.0000
# 4 0.0000 0.0000 0.0000 11.7292 0.0000 -1.5163
# 5 -4.3515 4.0032 -8.9759 0.0000 21.1157 0.0000
# 6 0.0000 0.0000 0.0000 -1.5163 0.0000 21.5671
#
#
#
# Elastic Compliance Matrix: (Units=1/GPa)
#
#
# Indices 1 2 3 4 5 6 
#
# 1 0.025326 0.010995 -0.027402 0.000000 -0.008514 0.000000
# 2 0.010995 0.094377 -0.071991 0.000000 -0.046228 0.000000
# 3 -0.027402 -0.071991 0.114531 0.000000 0.056686 0.000000
# 4 0.000000 0.000000 0.000000 0.086040 0.000000 0.006049
# 5 -0.008514 -0.046228 0.056686 0.000000 0.078464 0.000000
# 6 0.000000 0.000000 0.000000 0.006049 0.000000 0.046792
#
#
# Mechanical properties :
#
#
# Convention : Reuss Voigt Hill
#
# Bulk Modulus (GPa) = 17.41063 20.34411 18.87737
# Shear Modulus (GPa) = 7.79457 15.25650 11.52554
#
# Velocity S-wave (km/s) = 2.03772 2.85086 2.47787
# Velocity P-wave (km/s) = 3.84855 4.65555 4.27115
#
# Compressibility (1/GPa) = 0.05743616
#
# Stress axis : x y z
#
# Youngs Moduli (GPa) = 39.48551 10.59576 8.73129
#
# Poissons Ratio (x) = -0.11650 0.23926
# Poissons Ratio (y) = -0.43414 0.62858
# Poissons Ratio (z) = 1.08199 0.76280
#
# Static dielectric constant tensor:
#      x y z
#    x 1.648690 0.000000 -0.014030 
#    y 0.000000 1.658480 0.000000 
#    z -0.014030 0.000000 1.693880 
# 
# From -- ./inp_files/281310.got.cif
#   From: 2010.05.17/outbox.ucp.g08.bks.cvg/sg12_141_cif.got.tgz:281310.got - 2010.06.11 11:47:21.
