data_PCOD9223966
_publ_section_title
;
Structure prediction by ZEFSAII (Michael W. Deem and Ramdas Pophale) SiO2 
 PCOD9223966
Probable space group: C 2/M
;
_chemical_formula_sum "Si O2"
_cell_formula_units_Z 32
_cell_length_a 30.000000
_cell_length_b 9.000000
_cell_length_c 24.000000
_cell_angle_alpha 90.000000
_cell_angle_beta 150.000000
_cell_angle_gamma 90.000000
_cell_volume 3240.000000
_symmetry_space_group_name_H-M "C 2/M"
_symmetry_group_IT_number 12
_symmetry_cell_setting 'monoclinic'
loop_
_space_group_symop_operation_xyz
x,y,z
-x,y,-z
-x,-y,-z
x,-y,z
1/2+x,1/2+y,z
1/2-x,1/2+y,-z
1/2-x,1/2-y,-z
1/2+x,1/2-y,z
loop_
_atom_site_type_symbol
_atom_site_label
_atom_site_fract_x
_atom_site_fract_y
_atom_site_fract_z
Si Si1 0.489457 0.821626 0.163733
Si Si2 0.891539 0.680821 0.510376
Si Si3 0.195504 0.678563 0.991360
Si Si4 0.779444 0.178485 0.744208
Si Si5 0.944355 0.671825 0.382672
Si Si6 0.657967 0.820649 0.418533
Si Si7 0.466665 0.677795 0.902555
Si Si8 0.257602 0.323982 0.182630
O O1 0.408624 0.779717 0.117277
O O2 0.581452 0.778320 0.292243
O O3 0.486393 0.753228 0.098923
O O4 0.485673 0.000000 0.153872
O O5 0.891095 0.500000 0.508272
O O6 0.812974 0.729288 0.383630
O O7 0.870015 0.726925 0.549635
O O8 0.988132 0.724176 0.592209
O O9 0.202566 0.500000 0.993751
O O10 0.250000 0.750000 0.000000
O O11 0.229384 0.721486 0.089801
O O12 0.861094 0.212553 0.791284
O O13 0.790948 0.247031 0.817791
O O14 0.776771 0.000000 0.747818
O O15 0.916069 0.500000 0.341375
O O16 0.859981 0.775273 0.298074
O O17 0.000000 0.669891 0.500000
O O18 0.750000 0.750000 0.500000
O O19 0.665041 0.000000 0.426633
O O20 0.478114 0.500000 0.910334
O O21 0.500000 0.722680 0.000000
O O22 0.245253 0.500000 0.173763
#
# Coordination Sequence:
#
# PCOD9223966 Si02
#       8
#     8   8   8   8   8   8   8   8
#     4  10  22  40  61  86 119 157 197 237 290 356
#     4   9  18  33  55  81 107 143 192 234 271 330
#     4  10  24  43  61  85 116 155 200 244 290 347
#     4  10  19  35  57  82 113 150 191 232 278 345
#     4  10  19  35  59  84 110 149 197 235 279 347
#     4  10  21  38  60  86 117 153 194 239 286 341
#     4  10  21  36  59  89 116 145 189 241 289 337
#     4  11  23  37  55  84 121 150 185 242 301 343
#
# _framework density 9.8765429999999999
#
# number of rings (size 3 to 8) (size 9 to 14) (size 15 to 20)
#    0.000    2.000    1.250    1.875    1.750    4.000 
#    0.000    1.250    0.000    0.000    0.000    0.000 
#    0.000    0.000    0.000    0.000    0.000    0.000 
#
# Total GULP energy -178658.045938 kJ/mol
# GULP energy per Si atom -5583.063936 kJ/mol
# Density = 0.985406 g / cm^3
# Si number density = 9.876543 Si / 1000 Ang^3
#
#
#
# Elastic Constant Matrix: (Units=GPa)
#
#
# Indices 1 2 3 4 5 6 
#
# 1 161.7669 25.4764 35.1761 0.0000 0.4339 0.0000
# 2 25.4764 5.8968 16.4998 0.0000 -2.6618 0.0000
# 3 35.1761 16.4998 74.3296 0.0000 1.3537 0.0000
# 4 0.0000 0.0000 0.0000 17.7024 0.0000 -3.1847
# 5 0.4339 -2.6618 1.3537 0.0000 29.3325 0.0000
# 6 0.0000 0.0000 0.0000 -3.1847 0.0000 29.2349
#
#
#
# Elastic Compliance Matrix: (Units=1/GPa)
#
#
# Indices 1 2 3 4 5 6 
#
# 1 -0.063112 0.575664 -0.098971 0.000000 0.057740 0.000000
# 2 0.575664 -4.733901 0.787048 0.000000 -0.474421 0.000000
# 3 -0.098971 0.787048 -0.115844 0.000000 0.078232 0.000000
# 4 0.000000 0.000000 0.000000 0.057619 0.000000 0.006277
# 5 0.057740 -0.474421 0.078232 0.000000 -0.013425 0.000000
# 6 0.000000 0.000000 0.000000 0.006277 0.000000 0.034889
#
#
# Mechanical properties :
#
#
# Convention : Reuss Voigt Hill
#
# Bulk Modulus (GPa) = -0.41922 44.03309 21.80693
# Shear Modulus (GPa) = -0.61302 26.24336 12.81517
#
# Velocity S-wave (km/s) = -0.55769 3.64891 2.54986
# Velocity P-wave (km/s) = 0.79207 6.33189 4.44216
#
# Compressibility (1/GPa) = -2.38537448
#
# Stress axis : x y z
#
# Youngs Moduli (GPa) = -15.84472 -0.21124 -8.63231
#
# Poissons Ratio (x) = 0.12160 -0.85435
# Poissons Ratio (y) = 9.12124 6.79404
# Poissons Ratio (z) = -1.56816 0.16626
#
# Static dielectric constant tensor:
#      x y z
#    x 1.675730 0.000000 0.012830 
#    y 0.000000 1.669430 0.000000 
#    z 0.012830 0.000000 1.737000 
# 
# From -- ./inp_files/353470.got.cif
#   From: 2010.05.17/outbox.ucp.g08.bks.cvg/sg12_177_cif.got.tgz:353470.got - 2010.06.11 11:47:21.
