data_PCOD9223666
_publ_section_title
;
Structure prediction by ZEFSAII (Michael W. Deem and Ramdas Pophale) SiO2 
 PCOD9223666
Probable space group: C 2/M
;
_chemical_formula_sum "Si O2"
_cell_formula_units_Z 24
_cell_length_a 24.000000
_cell_length_b 9.000000
_cell_length_c 12.000000
_cell_angle_alpha 90.000000
_cell_angle_beta 70.000000
_cell_angle_gamma 90.000000
_cell_volume 2435.683273
_symmetry_space_group_name_H-M "C 2/M"
_symmetry_group_IT_number 12
_symmetry_cell_setting 'monoclinic'
loop_
_space_group_symop_operation_xyz
x,y,z
-x,y,-z
-x,-y,-z
x,-y,z
1/2+x,1/2+y,z
1/2-x,1/2+y,-z
1/2-x,1/2-y,-z
1/2+x,1/2-y,z
loop_
_atom_site_type_symbol
_atom_site_label
_atom_site_fract_x
_atom_site_fract_y
_atom_site_fract_z
Si Si1 0.988962 0.828055 0.630675
Si Si2 0.302761 0.822242 0.281706
Si Si3 0.096389 0.323649 0.628558
Si Si4 0.687017 0.831404 0.383940
Si Si5 0.699405 0.826251 0.964452
Si Si6 0.381785 0.834484 0.784073
O O1 0.033618 0.749098 0.682434
O O2 0.000000 0.763413 0.500000
O O3 0.924060 0.794208 0.716080
O O4 0.002639 0.000000 0.617167
O O5 0.356912 0.764587 0.315550
O O6 0.240305 0.775528 0.374392
O O7 0.306447 0.763895 0.154258
O O8 0.306785 0.000000 0.278301
O O9 0.090464 0.500000 0.641547
O O10 0.127034 0.290971 0.488829
O O11 0.673635 0.830298 0.262126
O O12 0.701928 0.000000 0.408042
O O13 0.714841 0.000000 0.944451
O O14 0.750000 0.750000 0.000000
O O15 0.639697 0.816848 0.076349
O O16 0.408720 0.000000 0.749800
#
# Coordination Sequence:
#
# PCOD9223666 Si02
#       6
#     8   8   8   8   8   8
#     4  11  23  37  56  82 108 137 178 227 272 314
#     4  10  21  35  54  81 112 144 179 219 265 315
#     4  10  21  37  55  78 110 147 180 215 266 325
#     4  10  19  32  54  82 111 142 177 216 266 322
#     4  10  20  35  55  80 109 142 180 219 261 312
#     4  10  20  35  56  81 108 141 180 219 263 318
#
# _framework density 9.8534980000000001
#
# number of rings (size 3 to 8) (size 9 to 14) (size 15 to 20)
#    0.000    1.833    3.333    1.000    0.000    3.333 
#    0.000    0.833    0.000    5.000    0.000    0.000 
#    0.000    0.000    0.000    0.000    0.000    0.000 
#
# Total GULP energy -133638.851579 kJ/mol
# GULP energy per Si atom -5568.285482 kJ/mol
# Density = 0.983107 g / cm^3
# Si number density = 9.853498 Si / 1000 Ang^3
#
#
#
# Elastic Constant Matrix: (Units=GPa)
#
#
# Indices 1 2 3 4 5 6 
#
# 1 76.8317 33.4218 13.0067 0.0000 8.3301 0.0000
# 2 33.4218 -5.7596 22.9022 0.0000 6.5648 0.0000
# 3 13.0067 22.9022 43.7704 0.0000 4.2729 0.0000
# 4 0.0000 0.0000 0.0000 10.3388 0.0000 -5.5328
# 5 8.3301 6.5648 4.2729 0.0000 -9.0947 0.0000
# 6 0.0000 0.0000 0.0000 -5.5328 0.0000 24.9225
#
#
#
# Elastic Compliance Matrix: (Units=1/GPa)
#
#
# Indices 1 2 3 4 5 6 
#
# 1 0.007428 0.014048 -0.010720 0.000000 0.011908 0.000000
# 2 0.014048 -0.036832 0.015716 0.000000 -0.006336 0.000000
# 3 -0.010720 0.015716 0.016886 0.000000 0.009458 0.000000
# 4 0.000000 0.000000 0.000000 0.109764 0.000000 0.024368
# 5 0.011908 -0.006336 0.009458 0.000000 -0.099177 0.000000
# 6 0.000000 0.000000 0.000000 0.024368 0.000000 0.045534
#
#
# Mechanical properties :
#
#
# Convention : Reuss Voigt Hill
#
# Bulk Modulus (GPa) = 39.10924 28.16709 33.63817
# Shear Modulus (GPa) = 356.19845 8.26745 182.23295
#
# Velocity S-wave (km/s) = 13.45881 2.05044 9.62663
# Velocity P-wave (km/s) = 16.16811 4.46427 11.86039
#
# Compressibility (1/GPa) = 0.02556940
#
# Stress axis : x y z
#
# Youngs Moduli (GPa) = 134.62261 -27.15003 59.22155
#
# Poissons Ratio (x) = 0.38142 0.63488
# Poissons Ratio (y) = -1.89124 -0.93072
# Poissons Ratio (z) = 1.44321 0.42669
#
# Static dielectric constant tensor:
#      x y z
#    x 1.717790 0.000000 0.000340 
#    y 0.000000 1.715050 0.000000 
#    z 0.000340 0.000000 1.746000 
# 
# From -- ./inp_files/172168.got.cif
#   From: 2010.05.17/outbox.ucp.g08.bks.cvg/sg12_87_cif.got.tgz:172168.got - 2010.06.11 11:47:21.
