data_PCOD9223007
_publ_section_title
;
Structure prediction by ZEFSAII (Michael W. Deem and Ramdas Pophale) SiO2 
 PCOD9223007
Probable space group: C 2/M
;
_chemical_formula_sum "Si O2"
_cell_formula_units_Z 40
_cell_length_a 28.213966
_cell_length_b 9.409690
_cell_length_c 27.143400
_cell_angle_alpha 90.000000
_cell_angle_beta 15.095752
_cell_angle_gamma 90.000000
_cell_volume 1876.720475
_symmetry_space_group_name_H-M "C 2/M"
_symmetry_group_IT_number 12
_symmetry_cell_setting 'monoclinic'
loop_
_space_group_symop_operation_xyz
x,y,z
-x,y,-z
-x,-y,-z
x,-y,z
1/2+x,1/2+y,z
1/2-x,1/2+y,-z
1/2-x,1/2-y,-z
1/2+x,1/2-y,z
loop_
_atom_site_type_symbol
_atom_site_label
_atom_site_fract_x
_atom_site_fract_y
_atom_site_fract_z
Si Si1 0.978549 0.161652 0.167696
Si Si2 0.032611 0.663964 0.617339
Si Si3 0.030958 0.660609 0.915195
Si Si4 0.444563 0.671367 0.309943
Si Si5 0.965404 0.838015 0.478829
O O1 0.755733 0.164873 0.392425
O O2 0.040622 0.259425 0.060757
O O3 0.038649 0.199802 0.162807
O O4 0.031651 0.000000 0.104409
O O5 0.977516 0.500000 0.678127
O O6 0.974467 0.759617 0.722157
O O7 0.970161 0.734118 0.628870
O O8 0.957858 0.500000 0.990434
O O9 0.247854 0.653440 0.691673
O O10 0.000000 0.728217 0.000000
O O11 0.423236 0.500000 0.336017
O O12 0.250000 0.750000 0.500000
O O13 0.000000 0.789537 0.500000
O O14 0.035531 0.000000 0.403304
#
# Coordination Sequence:
#
# PCOD9223007 Si02
#       5
#     8   8   8   8   8
#     4   8  15  25  37  56  81 108 136 166 202 245
#     4   9  16  25  38  58  83 109 137 170 209 249
#     4   9  17  28  42  61  84 109 138 171 204 240
#     4   9  15  23  36  56  82 109 137 169 208 251
#     4   9  17  29  44  61  83 112 142 170 204 247
#
# _framework density 21.313777000000002
#
# number of rings (size 3 to 8) (size 9 to 14) (size 15 to 20)
#    0.000    3.200    0.000    2.400    0.000    6.400 
#    0.000    0.000    0.000    0.000    0.000    1.400 
#    0.000    0.000    0.000    0.000    0.000    0.000 
#
# Total GULP energy -111515.889407 kJ/mol
# GULP energy per Si atom -5575.794470 kJ/mol
# Density = 2.126527 g / cm^3
# Si number density = 21.313777 Si / 1000 Ang^3
#
#
#
# Elastic Constant Matrix: (Units=GPa)
#
#
# Indices 1 2 3 4 5 6 
#
# 1 188.1747 107.5130 31.9075 0.0058 62.2572 -0.0028
# 2 107.5130 119.1924 30.5019 -0.0109 48.0213 0.0063
# 3 31.9075 30.5019 54.6309 0.0013 -5.2144 -0.0026
# 4 0.0058 -0.0109 0.0013 1.6988 0.0011 20.6346
# 5 62.2572 48.0213 -5.2144 0.0011 47.7729 0.0003
# 6 -0.0028 0.0063 -0.0026 20.6346 0.0003 30.3838
#
#
#
# Elastic Compliance Matrix: (Units=1/GPa)
#
#
# Indices 1 2 3 4 5 6 
#
# 1 0.014001 -0.005727 -0.006237 0.000013 -0.013170 -0.000007
# 2 -0.005727 0.023489 -0.011430 -0.000037 -0.017395 0.000019
# 3 -0.006237 -0.011430 0.030519 0.000019 0.022949 -0.000009
# 4 0.000013 -0.000037 0.000019 -0.081203 0.000023 0.055147
# 5 -0.013170 -0.017395 0.022949 0.000023 0.058086 -0.000012
# 6 -0.000007 0.000019 -0.000009 0.055147 -0.000012 -0.004540
#
#
# Mechanical properties :
#
#
# Convention : Reuss Voigt Hill
#
# Bulk Modulus (GPa) = 47.12169 77.98253 62.55211
# Shear Modulus (GPa) = 53.06980 28.77614 40.92297
#
# Velocity S-wave (km/s) = 4.99533 3.67838 4.38656
# Velocity P-wave (km/s) = 7.44498 7.39648 7.42077
#
# Compressibility (1/GPa) = 0.02122165
#
# Stress axis : x y z
#
# Youngs Moduli (GPa) = 71.42207 42.57293 32.76595
#
# Poissons Ratio (x) = 0.24382 0.20436
# Poissons Ratio (y) = 0.40904 0.37452
# Poissons Ratio (z) = 0.44546 0.48661
#
# Static dielectric constant tensor:
#      x y z
#    x 1.817660 0.000000 -0.048760 
#    y 0.000000 1.738820 0.000000 
#    z -0.048760 0.000000 1.849150 
# 
# From -- ./inp_files/94136.got.cif
#   From: 2010.05.17/outbox.cif.g08.bks.cpg/sg12_48_cif.got.tgz:94136.got - 2010.06.03 13:09:07.
