data_PCOD9223544
_publ_section_title
;
Structure prediction by ZEFSAII (Michael W. Deem and Ramdas Pophale) SiO2 
 PCOD9223544
Probable space group: C 2/M
;
_chemical_formula_sum "Si O2"
_cell_formula_units_Z 24
_cell_length_a 30.000000
_cell_length_b 9.000000
_cell_length_c 18.000000
_cell_angle_alpha 90.000000
_cell_angle_beta 150.000000
_cell_angle_gamma 90.000000
_cell_volume 2430.000000
_symmetry_space_group_name_H-M "C 2/M"
_symmetry_group_IT_number 12
_symmetry_cell_setting 'monoclinic'
loop_
_space_group_symop_operation_xyz
x,y,z
-x,y,-z
-x,-y,-z
x,-y,z
1/2+x,1/2+y,z
1/2-x,1/2+y,-z
1/2-x,1/2-y,-z
1/2+x,1/2-y,z
loop_
_atom_site_type_symbol
_atom_site_label
_atom_site_fract_x
_atom_site_fract_y
_atom_site_fract_z
Si Si1 0.891480 0.826446 0.244609
Si Si2 0.316538 0.821750 0.687284
Si Si3 0.624025 0.178307 0.376476
Si Si4 0.571659 0.179372 0.458743
Si Si5 0.722637 0.328557 0.070386
Si Si6 0.735286 0.824260 0.231346
O O1 0.820204 0.735039 0.190000
O O2 0.989250 0.754436 0.382373
O O3 0.895587 0.000000 0.273028
O O4 0.844366 0.819628 0.095546
O O5 0.388247 0.778906 0.727760
O O6 0.222678 0.741413 0.535431
O O7 0.329051 0.790688 0.791896
O O8 0.303106 0.000000 0.661229
O O9 0.563865 0.223520 0.359512
O O10 0.625836 0.000000 0.382735
O O11 0.669440 0.239958 0.622786
O O12 0.568536 0.000000 0.461909
O O13 0.730969 0.500000 0.104211
O O14 0.690392 0.228983 0.091408
O O15 0.753547 0.000000 0.256637
#
# Coordination Sequence:
#
# PCOD9223544 Si02
#       6
#     8   8   8   8   8   8
#     4  10  21  37  55  73  95 125 162 202 245 295
#     4   8  14  25  42  66  96 128 160 194 233 278
#     4   8  14  25  42  66  96 128 160 194 233 278
#     4  10  19  31  50  76 104 131 162 201 243 286
#     4  10  21  37  55  73  95 125 162 202 245 295
#     4  10  19  31  50  76 104 131 162 201 243 286
#
# _framework density 9.8765429999999999
#
# number of rings (size 3 to 8) (size 9 to 14) (size 15 to 20)
#    0.000    2.667    0.000    2.000    0.000    4.000 
#    0.000    3.333    0.000    1.000    0.000    7.000 
#    0.000    0.000    0.000    0.000    0.000    0.000 
#
# Total GULP energy -133668.170954 kJ/mol
# GULP energy per Si atom -5569.507123 kJ/mol
# Density = 0.985406 g / cm^3
# Si number density = 9.876543 Si / 1000 Ang^3
#
#
#
# Elastic Constant Matrix: (Units=GPa)
#
#
# Indices 1 2 3 4 5 6 
#
# 1 52.4077 2.2092 -4.2153 0.0000 -22.8398 0.0000
# 2 2.2092 48.3540 2.2225 0.0000 -2.4493 0.0000
# 3 -4.2153 2.2225 0.8919 0.0000 -3.8276 0.0000
# 4 0.0000 0.0000 0.0000 21.5733 0.0000 -4.4460
# 5 -22.8398 -2.4493 -3.8276 0.0000 16.9368 0.0000
# 6 0.0000 0.0000 0.0000 -4.4460 0.0000 21.7526
#
#
#
# Elastic Compliance Matrix: (Units=1/GPa)
#
#
# Indices 1 2 3 4 5 6 
#
# 1 0.000354 0.003703 -0.106261 0.000000 -0.023000 0.000000
# 2 0.003703 0.020705 0.006117 0.000000 0.009370 0.000000
# 3 -0.106261 0.006117 -0.245574 0.000000 -0.197909 0.000000
# 4 0.000000 0.000000 0.000000 0.048392 0.000000 0.009891
# 5 -0.023000 0.009370 -0.197909 0.000000 -0.015344 0.000000
# 6 0.000000 0.000000 0.000000 0.009891 0.000000 0.047993
#
#
# Mechanical properties :
#
#
# Convention : Reuss Voigt Hill
#
# Bulk Modulus (GPa) = -2.39581 11.34292 4.47356
# Shear Modulus (GPa) = -55.72669 18.81502 -18.45583
#
# Velocity S-wave (km/s) = -5.31722 3.08963 -3.05999
# Velocity P-wave (km/s) = 6.23800 4.29913 3.19610
#
# Compressibility (1/GPa) = -0.41739528
#
# Stress axis : x y z
#
# Youngs Moduli (GPa) = 2820.95216 48.29719 -4.07210
#
# Poissons Ratio (x) = -0.17883 -0.43270
# Poissons Ratio (y) = -10.44528 0.02491
# Poissons Ratio (z) = 299.75580 -0.29544
#
# Static dielectric constant tensor:
#      x y z
#    x 1.792270 0.000000 -0.084620 
#    y 0.000000 1.674950 0.000000 
#    z -0.084620 0.000000 1.683120 
# 
# From -- ./inp_files/123870.got.cif
#   From: 2010.05.17/outbox.ucp.g08.bks.cvg/sg12_62_cif.got.tgz:123870.got - 2010.06.11 11:47:21.
