data_PCOD9223271
_publ_section_title
;
Structure prediction by ZEFSAII (Michael W. Deem and Ramdas Pophale) SiO2 
 PCOD9223271
Probable space group: C 2/M
;
_chemical_formula_sum "Si O2"
_cell_formula_units_Z 32
_cell_length_a 24.000000
_cell_length_b 18.000000
_cell_length_c 21.000000
_cell_angle_alpha 90.000000
_cell_angle_beta 20.000000
_cell_angle_gamma 90.000000
_cell_volume 3102.806740
_symmetry_space_group_name_H-M "C 2/M"
_symmetry_group_IT_number 12
_symmetry_cell_setting 'monoclinic'
loop_
_space_group_symop_operation_xyz
x,y,z
-x,y,-z
-x,-y,-z
x,-y,z
1/2+x,1/2+y,z
1/2-x,1/2+y,-z
1/2-x,1/2-y,-z
1/2+x,1/2-y,z
loop_
_atom_site_type_symbol
_atom_site_label
_atom_site_fract_x
_atom_site_fract_y
_atom_site_fract_z
Si Si1 0.376608 0.812820 0.692704
Si Si2 0.407892 0.411176 0.789451
Si Si3 0.335840 0.582926 0.151502
Si Si4 0.064448 0.590113 0.098477
Si Si5 0.720132 0.589579 0.533303
Si Si6 0.353134 0.184989 0.112752
Si Si7 0.106886 0.586656 0.520921
Si Si8 0.611683 0.582523 0.442637
O O1 0.500000 0.806634 0.500000
O O2 0.251283 0.878500 0.812697
O O3 0.260378 0.741187 0.807001
O O4 0.479178 0.846027 0.642578
O O5 0.394632 0.500000 0.814400
O O6 0.218805 0.386864 0.979063
O O7 0.543677 0.382797 0.695665
O O8 0.500974 0.399216 0.622224
O O9 0.378727 0.500000 0.085245
O O10 0.211342 0.581549 0.344058
O O11 0.500000 0.619648 0.000000
O O12 0.071551 0.500000 0.086573
O O13 0.088135 0.625892 0.003446
O O14 0.884041 0.611526 0.317895
O O15 0.711020 0.500000 0.537813
O O16 0.772730 0.605471 0.549783
O O17 0.241423 0.143794 0.284965
O O18 0.500000 0.214856 0.000000
O O19 0.043558 0.500000 0.600068
O O20 0.500000 0.577951 0.500000
O O21 0.683746 0.500000 0.376653
#
# Coordination Sequence:
#
# PCOD9223271 Si02
#       8
#     8   8   8   8   8   8   8   8
#     4  10  21  36  54  78 110 146 178 224 281 338
#     4   9  17  31  52  76 110 145 179 234 280 318
#     4   9  17  33  58  87 112 132 166 222 284 341
#     4  10  20  35  54  80 113 150 192 235 277 323
#     4   9  18  34  55  82 112 145 189 232 273 327
#     4  12  23  33  51  80 110 149 187 236 280 332
#     4   9  18  36  60  83 110 144 180 220 275 341
#     4  10  18  31  51  77 107 142 186 231 279 332
#
# _framework density 10.313243
#
# number of rings (size 3 to 8) (size 9 to 14) (size 15 to 20)
#    0.000    2.250    1.250    2.250    0.000    3.500 
#    2.250    0.625    0.000    0.750    0.000    0.000 
#    0.000    0.000    0.000    0.000    0.000    0.000 
#
# Total GULP energy -178159.890000 kJ/mol
# GULP energy per Si atom -5567.496563 kJ/mol
# Density = 1.028977 g / cm^3
# Si number density = 10.313243 Si / 1000 Ang^3
#
#
#
# Elastic Constant Matrix: (Units=GPa)
#
#
# Indices 1 2 3 4 5 6 
#
# 1 96.4433 6.7735 -1.3078 0.0167 -34.8687 -0.0177
# 2 6.7735 48.6517 10.0378 0.0185 -9.9151 -0.0263
# 3 -1.3078 10.0378 33.4711 0.0087 -31.8067 -0.0176
# 4 0.0167 0.0185 0.0087 25.1470 0.0024 -0.5824
# 5 -34.8687 -9.9151 -31.8067 0.0024 34.3217 -0.0003
# 6 -0.0177 -0.0263 -0.0176 -0.5824 -0.0003 -39.9706
#
#
#
# Elastic Compliance Matrix: (Units=1/GPa)
#
#
# Indices 1 2 3 4 5 6 
#
# 1 -0.004500 0.000380 -0.037946 0.000020 -0.039627 0.000018
# 2 0.000380 0.021895 -0.001460 -0.000017 0.005358 -0.000014
# 3 -0.037946 -0.001460 -0.068725 0.000061 -0.102662 0.000048
# 4 0.000020 -0.000017 0.000061 0.039753 0.000069 -0.000579
# 5 -0.039627 0.005358 -0.102662 0.000069 -0.104714 0.000059
# 6 0.000018 -0.000014 0.000048 -0.000579 0.000059 -0.025010
#
#
# Mechanical properties :
#
#
# Convention : Reuss Voigt Hill
#
# Bulk Modulus (GPa) = -7.72896 23.28589 7.77846
# Shear Modulus (GPa) = -47.00343 14.77047 -16.11648
#
# Velocity S-wave (km/s) = -4.77885 2.67889 -2.79829
# Velocity P-wave (km/s) = 5.84851 4.56973 2.58095
#
# Compressibility (1/GPa) = -0.12938349
#
# Stress axis : x y z
#
# Youngs Moduli (GPa) = -222.24619 45.67348 -14.55075
#
# Poissons Ratio (x) = -0.01733 -0.55215
# Poissons Ratio (y) = 0.08435 -0.02124
# Poissons Ratio (z) = -8.43343 0.06668
#
# Static dielectric constant tensor:
#      x y z
#    x 1.750620 0.000000 -0.034130 
#    y 0.000000 1.780670 0.000010 
#    z -0.034130 0.000010 1.767690 
# 
# From -- ./inp_files/326073.got.cif
#   From: 2010.05.17/outbox.ucp.g08.bks.cvg/sg12_164_cif.got.tgz:326073.got - 2010.06.11 11:47:21.
