data_PCOD9223737
_publ_section_title
;
Structure prediction by ZEFSAII (Michael W. Deem and Ramdas Pophale) SiO2 
 PCOD9223737
Probable space group: C 2/M
;
_chemical_formula_sum "Si O2"
_cell_formula_units_Z 28
_cell_length_a 27.000000
_cell_length_b 9.000000
_cell_length_c 18.000000
_cell_angle_alpha 90.000000
_cell_angle_beta 140.000000
_cell_angle_gamma 90.000000
_cell_volume 2811.553005
_symmetry_space_group_name_H-M "C 2/M"
_symmetry_group_IT_number 12
_symmetry_cell_setting 'monoclinic'
loop_
_space_group_symop_operation_xyz
x,y,z
-x,y,-z
-x,-y,-z
x,-y,z
1/2+x,1/2+y,z
1/2-x,1/2+y,-z
1/2-x,1/2-y,-z
1/2+x,1/2-y,z
loop_
_atom_site_type_symbol
_atom_site_label
_atom_site_fract_x
_atom_site_fract_y
_atom_site_fract_z
Si Si1 0.786269 0.173788 0.730108
Si Si2 0.543148 0.165913 0.325262
Si Si3 0.402916 0.676433 0.149833
Si Si4 0.776999 0.826674 0.883500
Si Si5 0.814400 0.334010 0.620707
Si Si6 0.881491 0.174804 0.291307
Si Si7 0.117972 0.178304 0.547277
O O1 0.817521 0.188846 0.849846
O O2 0.832526 0.250837 0.717822
O O3 0.701328 0.247510 0.631164
O O4 0.777379 0.000000 0.703481
O O5 0.474197 0.235849 0.199548
O O6 0.614636 0.159558 0.352777
O O7 0.564519 0.269222 0.419299
O O8 0.525849 0.000000 0.332011
O O9 0.416600 0.500000 0.166825
O O10 0.398754 0.735482 0.229547
O O11 0.328755 0.699602 0.014502
O O12 0.708880 0.708877 0.805202
O O13 0.748898 0.000000 0.853546
O O14 0.787190 0.500000 0.607350
O O15 0.750000 0.250000 0.500000
O O16 0.912229 0.228662 0.406172
O O17 0.898777 0.000000 0.307995
O O18 0.124346 0.000000 0.555194
#
# Coordination Sequence:
#
# PCOD9223737 Si02
#       7
#     8   8   8   8   8   8   8
#     4  10  19  33  55  84 112 137 176 225 269 319
#     4  11  24  38  53  78 110 142 181 225 271 327
#     4  10  21  38  56  77 110 149 185 221 267 321
#     4   9  19  35  57  83 110 143 182 224 267 316
#     4  11  22  36  57  82 108 139 179 223 274 327
#     4   9  19  34  56  84 109 140 184 227 266 318
#     4  10  19  33  54  80 110 143 178 220 273 322
#
# _framework density 9.9589090000000002
#
# number of rings (size 3 to 8) (size 9 to 14) (size 15 to 20)
#    0.000    2.000    1.429    2.143    0.000    4.571 
#    0.000    3.571    0.000    4.286    0.000    0.000 
#    0.000    0.000    0.000    0.000    0.000    0.000 
#
# Total GULP energy -155982.549908 kJ/mol
# GULP energy per Si atom -5570.805354 kJ/mol
# Density = 0.993624 g / cm^3
# Si number density = 9.958909 Si / 1000 Ang^3
#
#
#
# Elastic Constant Matrix: (Units=GPa)
#
#
# Indices 1 2 3 4 5 6 
#
# 1 45.8116 30.5881 45.9746 0.0000 -22.8571 0.0000
# 2 30.5881 23.5809 10.3037 0.0000 -5.5819 0.0000
# 3 45.9746 10.3037 2.7014 0.0000 -5.4339 0.0000
# 4 0.0000 0.0000 0.0000 17.3576 0.0000 -4.1962
# 5 -22.8571 -5.5819 -5.4339 0.0000 17.7840 0.0000
# 6 0.0000 0.0000 0.0000 -4.1962 0.0000 17.8038
#
#
#
# Elastic Compliance Matrix: (Units=1/GPa)
#
#
# Indices 1 2 3 4 5 6 
#
# 1 0.002709 -0.016449 0.034383 0.000000 0.008825 0.000000
# 2 -0.016449 0.079536 -0.040828 0.000000 -0.008652 0.000000
# 3 0.034383 -0.040828 0.010025 0.000000 0.034439 0.000000
# 4 0.000000 0.000000 0.000000 0.061093 0.000000 0.014399
# 5 0.008825 -0.008652 0.034439 0.000000 0.075380 0.000000
# 6 0.000000 0.000000 0.000000 0.014399 0.000000 0.059562
#
#
# Mechanical properties :
#
#
# Convention : Reuss Voigt Hill
#
# Bulk Modulus (GPa) = 21.51380 27.31407 24.41393
# Shear Modulus (GPa) = 14.30262 9.60424 11.95343
#
# Velocity S-wave (km/s) = 2.68261 2.19827 2.45243
# Velocity P-wave (km/s) = 4.51884 4.49292 4.50590
#
# Compressibility (1/GPa) = 0.04648180
#
# Stress axis : x y z
#
# Youngs Moduli (GPa) = 369.11280 12.57296 99.74821
#
# Poissons Ratio (x) = 0.20681 -3.42962
# Poissons Ratio (y) = 6.07149 4.07253
# Poissons Ratio (z) = -12.69112 0.51333
#
# Static dielectric constant tensor:
#      x y z
#    x 1.774030 0.000000 -0.000030 
#    y 0.000000 1.669360 0.000000 
#    z -0.000030 0.000000 1.695800 
# 
# From -- ./inp_files/288145.got.cif
#   From: 2010.05.17/outbox.ucp.g08.bks.cvg/sg12_145_cif.got.tgz:288145.got - 2010.06.11 11:47:21.
