data_PCOD9223896
_publ_section_title
;
Structure prediction by ZEFSAII (Michael W. Deem and Ramdas Pophale) SiO2 
 PCOD9223896
Probable space group: C 2/M
;
_chemical_formula_sum "Si O2"
_cell_formula_units_Z 32
_cell_length_a 30.000000
_cell_length_b 9.000000
_cell_length_c 24.000000
_cell_angle_alpha 90.000000
_cell_angle_beta 30.000000
_cell_angle_gamma 90.000000
_cell_volume 3240.000000
_symmetry_space_group_name_H-M "C 2/M"
_symmetry_group_IT_number 12
_symmetry_cell_setting 'monoclinic'
loop_
_space_group_symop_operation_xyz
x,y,z
-x,y,-z
-x,-y,-z
x,-y,z
1/2+x,1/2+y,z
1/2-x,1/2+y,-z
1/2-x,1/2-y,-z
1/2+x,1/2-y,z
loop_
_atom_site_type_symbol
_atom_site_label
_atom_site_fract_x
_atom_site_fract_y
_atom_site_fract_z
Si Si1 0.252178 0.828561 0.312670
Si Si2 0.391789 0.678270 0.240310
Si Si3 0.581470 0.175261 0.054773
Si Si4 0.255106 0.673861 0.811428
Si Si5 0.591760 0.676700 0.275505
Si Si6 0.596809 0.172256 0.539092
Si Si7 0.597682 0.665580 0.144759
Si Si8 0.119360 0.833990 0.623048
O O1 0.338030 0.762121 0.250686
O O2 0.251315 0.825341 0.247353
O O3 0.170475 0.725564 0.417131
O O4 0.239191 0.000000 0.344588
O O5 0.389242 0.500000 0.235913
O O6 0.492406 0.737369 0.135473
O O7 0.354110 0.710507 0.343410
O O8 0.612467 0.206595 0.084356
O O9 0.566187 0.000000 0.062282
O O10 0.663102 0.239904 0.931784
O O11 0.253134 0.500000 0.831645
O O12 0.342725 0.734087 0.747303
O O13 0.577408 0.500000 0.297960
O O14 0.495349 0.749751 0.377030
O O15 0.631059 0.697962 0.170735
O O16 0.637556 0.221124 0.554407
O O17 0.581122 0.000000 0.556607
O O18 0.628759 0.500000 0.094118
O O19 0.489151 0.656535 0.262506
O O20 0.153508 0.000000 0.574316
#
# Coordination Sequence:
#
# PCOD9223896 Si02
#       8
#     8   8   8   8   8   8   8   8
#     4  11  23  40  59  78 104 144 193 232 267 319
#     4  10  21  38  58  83 114 144 177 222 276 327
#     4  10  19  34  57  84 113 144 181 225 271 320
#     4   9  21  39  58  80 106 144 194 234 261 311
#     4   9  18  37  60  80 109 148 185 221 266 322
#     4  11  22  36  56  85 116 141 174 225 280 327
#     4   8  15  29  52  82 113 143 176 217 268 325
#     4   8  16  33  56  80 109 145 180 213 260 329
#
# _framework density 9.8765429999999999
#
# number of rings (size 3 to 8) (size 9 to 14) (size 15 to 20)
#    0.000    2.500    0.000    3.750    0.000    7.000 
#    0.000   10.000    0.000    0.000    0.000    0.000 
#    0.000    0.000    0.000    0.000    0.000    0.000 
#
# Total GULP energy -178232.227854 kJ/mol
# GULP energy per Si atom -5569.757120 kJ/mol
# Density = 0.985406 g / cm^3
# Si number density = 9.876543 Si / 1000 Ang^3
#
#
#
# Elastic Constant Matrix: (Units=GPa)
#
#
# Indices 1 2 3 4 5 6 
#
# 1 109.2425 4.8899 8.4070 -0.0084 -26.4126 0.0086
# 2 4.8899 -27.6492 -25.9644 -0.0123 -7.3896 0.0087
# 3 8.4070 -25.9644 25.6368 -0.0004 -12.6364 -0.0002
# 4 -0.0084 -0.0123 -0.0004 -47.0948 -0.0001 51.0275
# 5 -26.4126 -7.3896 -12.6364 -0.0001 13.3181 0.0057
# 6 0.0086 0.0087 -0.0002 51.0275 0.0057 -21.9495
#
#
#
# Elastic Compliance Matrix: (Units=1/GPa)
#
#
# Indices 1 2 3 4 5 6 
#
# 1 0.016955 -0.007609 0.002305 -0.000008 0.031591 -0.000006
# 2 -0.007609 -0.005560 -0.022719 0.000009 -0.039731 0.000005
# 3 0.002305 -0.022719 0.021192 0.000000 0.012072 -0.000005
# 4 -0.000008 0.000009 0.000000 0.013980 -0.000024 0.032500
# 5 0.031591 -0.039731 0.012072 -0.000024 0.127147 -0.000026
# 6 -0.000006 0.000005 -0.000005 0.032500 -0.000026 0.029995
#
#
# Mechanical properties :
#
#
# Convention : Reuss Voigt Hill
#
# Bulk Modulus (GPa) = -42.62720 9.09945 -16.76387
# Shear Modulus (GPa) = 19.84639 -3.15206 8.34717
#
# Velocity S-wave (km/s) = 3.17318 -1.26459 2.05789
# Velocity P-wave (km/s) = 2.86382 1.57618 1.69073
#
# Compressibility (1/GPa) = -0.02345920
#
# Stress axis : x y z
#
# Youngs Moduli (GPa) = 58.97891 -179.86397 47.18856
#
# Poissons Ratio (x) = -1.36858 -0.10877
# Poissons Ratio (y) = 0.44877 1.07208
# Poissons Ratio (z) = -0.13594 -4.08635
#
# Static dielectric constant tensor:
#      x y z
#    x 1.720540 0.000000 0.044580 
#    y 0.000000 1.678810 0.000010 
#    z 0.044580 0.000010 1.795130 
# 
# From -- ./inp_files/353352.got.cif
#   From: 2010.05.17/outbox.ucp.g08.bks.cvg/sg12_177_cif.got.tgz:353352.got - 2010.06.11 11:47:21.
