data_PCOD9223206
_publ_section_title
;
Structure prediction by ZEFSAII (Michael W. Deem and Ramdas Pophale) SiO2 
 PCOD9223206
Probable space group: C 2/M
;
_chemical_formula_sum "Si O2"
_cell_formula_units_Z 32
_cell_length_a 24.000000
_cell_length_b 9.000000
_cell_length_c 18.000000
_cell_angle_alpha 90.000000
_cell_angle_beta 100.000000
_cell_angle_gamma 90.000000
_cell_volume 3828.932544
_symmetry_space_group_name_H-M "C 2/M"
_symmetry_group_IT_number 12
_symmetry_cell_setting 'monoclinic'
loop_
_space_group_symop_operation_xyz
x,y,z
-x,y,-z
-x,-y,-z
x,-y,z
1/2+x,1/2+y,z
1/2-x,1/2+y,-z
1/2-x,1/2-y,-z
1/2+x,1/2-y,z
loop_
_atom_site_type_symbol
_atom_site_label
_atom_site_fract_x
_atom_site_fract_y
_atom_site_fract_z
Si Si1 0.479921 0.677369 0.077058
Si Si2 0.182665 0.323044 0.104341
Si Si3 0.908286 0.822923 0.816278
Si Si4 0.208357 0.324955 0.802133
Si Si5 0.359883 0.824752 0.063238
Si Si6 0.187560 0.679681 0.499574
Si Si7 0.211329 0.178262 0.652755
Si Si8 0.664868 0.678658 0.346184
O O1 0.474643 0.500000 0.071580
O O2 0.526242 0.709582 0.151411
O O3 0.419396 0.744888 0.077899
O O4 0.500000 0.729486 0.000000
O O5 0.192960 0.500000 0.112073
O O6 0.125578 0.276140 0.132675
O O7 0.230624 0.232949 0.158192
O O8 0.176972 0.277264 0.016829
O O9 0.881875 0.795562 0.728618
O O10 0.899360 0.000000 0.829632
O O11 0.210539 0.500000 0.783456
O O12 0.170504 0.302722 0.865847
O O13 0.188920 0.229383 0.727355
O O14 0.369179 0.000000 0.054635
O O15 0.189074 0.500000 0.498959
O O16 0.250000 0.750000 0.500000
O O17 0.175568 0.745197 0.578328
O O18 0.151648 0.745789 0.422744
O O19 0.275330 0.246629 0.664028
O O20 0.213687 0.000000 0.644678
O O21 0.672666 0.500000 0.356218
#
# Coordination Sequence:
#
# PCOD9223206 Si02
#       8
#     8   8   8   8   8   8   8   8
#     4  10  20  35  55  76  98 132 175 216 257 303
#     4  11  21  33  51  75 101 132 173 213 255 302
#     4  10  20  33  51  75 103 137 171 208 257 303
#     4  11  22  36  51  71 103 138 173 209 256 308
#     4  10  23  38  52  73 100 135 174 217 260 302
#     4  10  18  29  46  69 100 135 168 201 247 299
#     4  11  20  31  48  73 102 132 170 205 249 303
#     4  10  18  30  48  71 103 136 168 205 251 300
#
# _framework density 8.3574210000000004
#
# number of rings (size 3 to 8) (size 9 to 14) (size 15 to 20)
#    0.000    1.625    2.500    5.250    0.000    2.750 
#    0.000    0.000    0.000    0.000    0.000    0.875 
#    0.000    7.000    0.000    0.000    0.000    0.000 
#
# Total GULP energy -178462.981767 kJ/mol
# GULP energy per Si atom -5576.968180 kJ/mol
# Density = 0.833840 g / cm^3
# Si number density = 8.357421 Si / 1000 Ang^3
#
#
#
# Elastic Constant Matrix: (Units=GPa)
#
#
# Indices 1 2 3 4 5 6 
#
# 1 143.7192 292.6711 -135.8005 0.0000 206.1346 0.0000
# 2 292.6711 730.1267 -279.3314 0.0000 467.4004 0.0000
# 3 -135.8005 -279.3314 296.6918 0.0000 -231.0818 0.0000
# 4 0.0000 0.0000 0.0000 30.4983 0.0000 0.6386
# 5 206.1346 467.4004 -231.0818 0.0000 353.5443 0.0000
# 6 0.0000 0.0000 0.0000 0.6386 0.0000 19.1612
#
#
#
# Elastic Compliance Matrix: (Units=1/GPa)
#
#
# Indices 1 2 3 4 5 6 
#
# 1 0.050828 -0.009619 0.002101 0.000000 -0.015545 0.000000
# 2 -0.009619 0.011123 -0.002069 0.000000 -0.010448 0.000000
# 3 0.002101 -0.002069 0.007253 0.000000 0.006251 0.000000
# 4 0.000000 0.000000 0.000000 0.032812 0.000000 -0.001094
# 5 -0.015545 -0.010448 0.006251 0.000000 0.029791 0.000000
# 6 0.000000 0.000000 0.000000 -0.001094 0.000000 0.052225
#
#
# Mechanical properties :
#
#
# Convention : Reuss Voigt Hill
#
# Bulk Modulus (GPa) = 19.98832 102.84624 61.41728
# Shear Modulus (GPa) = 22.73953 166.84064 94.79009
#
# Velocity S-wave (km/s) = 3.69241 10.00163 7.53878
# Velocity P-wave (km/s) = 5.49208 13.96568 10.61139
#
# Compressibility (1/GPa) = 0.05002922
#
# Stress axis : x y z
#
# Youngs Moduli (GPa) = 19.67418 89.90783 137.87942
#
# Poissons Ratio (x) = 0.86483 -0.28966
# Poissons Ratio (y) = 0.18925 0.28525
# Poissons Ratio (z) = -0.04133 0.18600
#
# Static dielectric constant tensor:
#      x y z
#    x 1.554040 0.000000 -0.015410 
#    y 0.000000 1.558460 0.000000 
#    z -0.015410 0.000000 1.619650 
# 
# From -- ./inp_files/287760.got.cif
#   From: 2010.05.17/outbox.ucp.g08.bks.cvg/sg12_144_cif.got.tgz:287760.got - 2010.06.11 11:47:21.
