data_PCOD9223323
_publ_section_title
;
Structure prediction by ZEFSAII (Michael W. Deem and Ramdas Pophale) SiO2 
 PCOD9223323
Probable space group: C 2/M
;
_chemical_formula_sum "Si O2"
_cell_formula_units_Z 32
_cell_length_a 24.000000
_cell_length_b 9.000000
_cell_length_c 21.000000
_cell_angle_alpha 90.000000
_cell_angle_beta 130.000000
_cell_angle_gamma 90.000000
_cell_volume 3474.777594
_symmetry_space_group_name_H-M "C 2/M"
_symmetry_group_IT_number 12
_symmetry_cell_setting 'monoclinic'
loop_
_space_group_symop_operation_xyz
x,y,z
-x,y,-z
-x,-y,-z
x,-y,z
1/2+x,1/2+y,z
1/2-x,1/2+y,-z
1/2-x,1/2-y,-z
1/2+x,1/2-y,z
loop_
_atom_site_type_symbol
_atom_site_label
_atom_site_fract_x
_atom_site_fract_y
_atom_site_fract_z
Si Si1 0.910933 0.819595 0.573638
Si Si2 0.909281 0.819826 0.104536
Si Si3 0.423538 0.322303 0.336418
Si Si4 0.171502 0.821561 0.611260
Si Si5 0.823602 0.678186 0.154448
Si Si6 0.340349 0.320414 0.924113
Si Si7 0.929545 0.819330 0.731452
Si Si8 0.677667 0.680306 0.233412
O O1 0.853632 0.770170 0.477638
O O2 0.904987 0.768494 0.642814
O O3 0.992189 0.781523 0.609755
O O4 0.906583 0.000000 0.571239
O O5 0.849434 0.751466 0.107625
O O6 0.988036 0.775624 0.190212
O O7 0.904673 0.000000 0.103740
O O8 0.895100 0.773154 0.020764
O O9 0.417594 0.500000 0.319842
O O10 0.392236 0.294506 0.383840
O O11 0.375412 0.238394 0.248698
O O12 0.243421 0.743540 0.690745
O O13 0.183161 0.000000 0.617772
O O14 0.828750 0.500000 0.154051
O O15 0.740882 0.717386 0.111885
O O16 0.345569 0.500000 0.925624
O O17 0.347477 0.269900 0.855928
O O18 0.876964 0.773959 0.750340
O O19 0.929227 0.000000 0.729393
O O20 0.681150 0.500000 0.235060
#
# Coordination Sequence:
#
# PCOD9223323 Si02
#       8
#     8   8   8   8   8   8   8   8
#     4   9  17  32  53  80 106 129 171 223 256 291
#     4  10  19  35  56  78 101 135 179 214 250 303
#     4  10  18  32  55  78 102 137 174 210 254 307
#     4  10  20  33  54  80 104 135 174 214 257 305
#     4  11  20  32  51  79 111 138 161 205 267 314
#     4   9  19  33  52  77 107 136 169 213 256 304
#     4   9  18  32  55  78  99 134 178 220 255 294
#     4  10  20  36  53  74 106 140 172 213 262 303
#
# _framework density 9.2092220000000005
#
# number of rings (size 3 to 8) (size 9 to 14) (size 15 to 20)
#    0.000    2.250    2.500    1.125    0.000    2.500 
#    0.000    5.000    0.000    1.500    0.000    1.750 
#    0.000    0.000    0.000    0.000    0.000    0.000 
#
# Total GULP energy -178487.907466 kJ/mol
# GULP energy per Si atom -5577.747108 kJ/mol
# Density = 0.918826 g / cm^3
# Si number density = 9.209222 Si / 1000 Ang^3
#
#
#
# Elastic Constant Matrix: (Units=GPa)
#
#
# Indices 1 2 3 4 5 6 
#
# 1 98.2602 12.6634 32.6172 0.0000 -34.2959 0.0000
# 2 12.6634 9.9711 10.9460 0.0000 -5.0934 0.0000
# 3 32.6172 10.9460 130.4301 0.0000 -41.2499 0.0000
# 4 0.0000 0.0000 0.0000 23.8560 0.0000 0.6349
# 5 -34.2959 -5.0934 -41.2499 0.0000 29.8274 0.0000
# 6 0.0000 0.0000 0.0000 0.6349 0.0000 19.0428
#
#
#
# Elastic Compliance Matrix: (Units=1/GPa)
#
#
# Indices 1 2 3 4 5 6 
#
# 1 0.020263 -0.017303 0.005010 0.000000 0.027273 0.000000
# 2 -0.017303 0.127212 -0.010257 0.000000 -0.012356 0.000000
# 3 0.005010 -0.010257 0.015184 0.000000 0.025008 0.000000
# 4 0.000000 0.000000 0.000000 0.041955 0.000000 -0.001399
# 5 0.027273 -0.012356 0.025008 0.000000 0.097359 0.000000
# 6 0.000000 0.000000 0.000000 -0.001399 0.000000 0.052560
#
#
# Mechanical properties :
#
#
# Convention : Reuss Voigt Hill
#
# Bulk Modulus (GPa) = 8.50627 39.01274 23.75951
# Shear Modulus (GPa) = 11.39422 26.70757 19.05090
#
# Velocity S-wave (km/s) = 2.48993 3.81208 3.21960
# Velocity P-wave (km/s) = 3.59092 6.37207 5.17194
#
# Compressibility (1/GPa) = 0.11756027
#
# Stress axis : x y z
#
# Youngs Moduli (GPa) = 49.35135 7.86087 65.85997
#
# Poissons Ratio (x) = 0.13601 -0.32997
# Poissons Ratio (y) = 0.85391 0.67551
# Poissons Ratio (z) = -0.24726 0.08063
#
# Static dielectric constant tensor:
#      x y z
#    x 1.638720 0.000000 -0.012420 
#    y 0.000000 1.614280 0.000000 
#    z -0.012420 0.000000 1.641850 
# 
# From -- ./inp_files/295801.got.cif
#   From: 2010.05.17/outbox.ucp.g08.bks.cvg/sg12_148_cif.got.tgz:295801.got - 2010.06.11 11:47:21.
