data_PCOD9223084
_publ_section_title
;
Structure prediction by ZEFSAII (Michael W. Deem and Ramdas Pophale) SiO2 
 PCOD9223084
Probable space group: C 2/M
;
_chemical_formula_sum "Si O2"
_cell_formula_units_Z 56
_cell_length_a 14.386087
_cell_length_b 7.693375
_cell_length_c 27.055004
_cell_angle_alpha 90.000000
_cell_angle_beta 122.282512
_cell_angle_gamma 90.000000
_cell_volume 2531.524977
_symmetry_space_group_name_H-M "C 2/M"
_symmetry_group_IT_number 12
_symmetry_cell_setting 'monoclinic'
loop_
_space_group_symop_operation_xyz
x,y,z
-x,y,-z
-x,-y,-z
x,-y,z
1/2+x,1/2+y,z
1/2-x,1/2+y,-z
1/2-x,1/2-y,-z
1/2+x,1/2-y,z
loop_
_atom_site_type_symbol
_atom_site_label
_atom_site_fract_x
_atom_site_fract_y
_atom_site_fract_z
Si Si1 0.765787 0.208959 0.301285
Si Si2 0.527189 0.786317 0.224707
Si Si3 0.594524 0.198181 0.454791
Si Si4 0.608624 0.289449 0.003510
Si Si5 0.141962 0.203456 0.572231
Si Si6 0.652874 0.207059 0.903394
Si Si7 0.003974 0.704171 0.329711
O O1 0.651014 0.265854 0.245267
O O2 0.768019 0.248934 0.360981
O O3 0.876559 0.283262 0.309717
O O4 0.772661 0.000000 0.298752
O O5 0.431895 0.723853 0.161245
O O6 0.512036 0.726021 0.276787
O O7 0.524557 0.000000 0.223964
O O8 0.469602 0.203151 0.441601
O O9 0.664502 0.269333 0.520738
O O10 0.576359 0.280671 0.395513
O O11 0.628406 0.000000 0.458141
O O12 0.610001 0.500000 0.005693
O O13 0.609750 0.238168 0.946506
O O14 0.500000 0.226941 0.000000
O O15 0.721983 0.225313 0.060598
O O16 0.117429 0.000000 0.570912
O O17 0.659450 0.000000 0.897363
O O18 0.034304 0.500000 0.335815
#
# Coordination Sequence:
#
# PCOD9223084 Si02
#       7
#     8   8   8   8   8   8   8
#     4   9  18  32  49  68  93 125 162 203 244 288
#     4   9  18  34  52  70  97 133 166 194 234 290
#     4   9  15  24  41  64  88 116 152 196 243 288
#     4   9  18  33  53  78 106 131 157 195 240 279
#     4   9  15  24  41  63  86 116 153 195 244 290
#     4   9  18  33  53  75 100 132 166 196 230 280
#     4   9  18  32  50  70  94 126 163 201 243 292
#
# _framework density 22.121054000000001
#
# number of rings (size 3 to 8) (size 9 to 14) (size 15 to 20)
#    0.000    3.000    0.000    1.714    0.000    2.571 
#    0.000    4.286    0.000    0.000    0.000    0.000 
#    0.000    0.000    0.000    0.000    0.000    0.000 
#
# Total GULP energy -156191.740156 kJ/mol
# GULP energy per Si atom -5578.276434 kJ/mol
# Density = 2.207071 g / cm^3
# Si number density = 22.121054 Si / 1000 Ang^3
#
#
#
# Elastic Constant Matrix: (Units=GPa)
#
#
# Indices 1 2 3 4 5 6 
#
# 1 75.0595 -6.0359 41.5967 0.0000 14.6744 0.0000
# 2 -6.0359 39.5444 6.7402 0.0000 2.6406 0.0000
# 3 41.5967 6.7402 145.9080 0.0000 21.7245 0.0000
# 4 0.0000 0.0000 0.0000 30.2971 0.0000 -4.4913
# 5 14.6744 2.6406 21.7245 0.0000 15.0528 0.0000
# 6 0.0000 0.0000 0.0000 -4.4913 0.0000 11.4316
#
#
#
# Elastic Compliance Matrix: (Units=1/GPa)
#
#
# Indices 1 2 3 4 5 6 
#
# 1 0.018190 0.004259 -0.003351 0.000000 -0.013643 0.000000
# 2 0.004259 0.026634 -0.001440 0.000000 -0.006745 0.000000
# 3 -0.003351 -0.001440 0.009364 0.000000 -0.009994 0.000000
# 4 0.000000 0.000000 0.000000 0.035048 0.000000 0.013770
# 5 -0.013643 -0.006745 -0.009994 0.000000 0.095340 0.000000
# 6 0.000000 0.000000 0.000000 0.013770 0.000000 0.092886
#
#
# Mechanical properties :
#
#
# Convention : Reuss Voigt Hill
#
# Bulk Modulus (GPa) = 18.82460 38.34600 28.58530
# Shear Modulus (GPa) = 16.87855 25.90369 21.39112
#
# Velocity S-wave (km/s) = 2.76526 3.42570 3.11304
# Velocity P-wave (km/s) = 4.32710 5.74625 5.08642
#
# Compressibility (1/GPa) = 0.05312197
#
# Stress axis : x y z
#
# Youngs Moduli (GPa) = 54.97657 37.54608 106.79690
#
# Poissons Ratio (x) = -0.15989 0.35788
# Poissons Ratio (y) = -0.23412 0.15380
# Poissons Ratio (z) = 0.18423 0.05407
#
# Static dielectric constant tensor:
#      x y z
#    x 1.823810 0.000000 0.016290 
#    y 0.000000 1.812460 0.000000 
#    z 0.016290 0.000000 1.829750 
# 
# From -- ./inp_files/375149.got.cif
#   From: 2010.05.17/outbox.cif.g08.bks.cpg/sg12_188_cif.got.tgz:375149.got - 2010.06.03 13:09:07.
