data_PCOD9223930
_publ_section_title
;
Structure prediction by ZEFSAII (Michael W. Deem and Ramdas Pophale) SiO2 
 PCOD9223930
Probable space group: C 2/M
;
_chemical_formula_sum "Si O2"
_cell_formula_units_Z 32
_cell_length_a 15.000000
_cell_length_b 9.000000
_cell_length_c 24.000000
_cell_angle_alpha 90.000000
_cell_angle_beta 90.000000
_cell_angle_gamma 90.000000
_cell_volume 3240.000000
_symmetry_space_group_name_H-M "C 2/M"
_symmetry_group_IT_number 12
_symmetry_cell_setting 'monoclinic'
loop_
_space_group_symop_operation_xyz
x,y,z
-x,y,-z
-x,-y,-z
x,-y,z
1/2+x,1/2+y,z
1/2-x,1/2+y,-z
1/2-x,1/2-y,-z
1/2+x,1/2-y,z
loop_
_atom_site_type_symbol
_atom_site_label
_atom_site_fract_x
_atom_site_fract_y
_atom_site_fract_z
Si Si1 0.409442 0.825395 0.666402
Si Si2 0.826623 0.173246 0.435348
Si Si3 0.862480 0.826264 0.557203
Si Si4 0.413053 0.326289 0.314441
Si Si5 0.263404 0.177519 0.135813
Si Si6 0.255284 0.323254 0.737834
Si Si7 0.917059 0.821121 0.075902
Si Si8 0.116982 0.180633 0.049278
O O1 0.412209 0.773015 0.602184
O O2 0.500872 0.773832 0.693841
O O3 0.330785 0.737747 0.697036
O O4 0.393846 0.000000 0.669909
O O5 0.881777 0.199478 0.491960
O O6 0.741759 0.281568 0.435833
O O7 0.880433 0.188351 0.378574
O O8 0.795129 0.000000 0.438483
O O9 0.622939 0.500000 0.430315
O O10 0.431795 0.500000 0.304192
O O11 0.333679 0.265039 0.277227
O O12 0.225378 0.205063 0.197234
O O13 0.358445 0.251059 0.124222
O O14 0.195798 0.234112 0.088533
O O15 0.272652 0.000000 0.129967
O O16 0.243967 0.500000 0.729644
O O17 0.020769 0.777654 0.074236
O O18 0.912608 0.000000 0.078929
O O19 0.879078 0.772938 0.015206
O O20 0.118766 0.000000 0.048846
#
# Coordination Sequence:
#
# PCOD9223930 Si02
#       8
#     8   8   8   8   8   8   8   8
#     4  12  25  41  61  86 117 154 197 243 293 353
#     4   9  19  35  58  88 118 150 188 235 293 352
#     4  10  19  34  59  88 119 151 187 236 292 351
#     4  11  23  41  64  87 114 151 194 243 298 353
#     4  10  21  36  56  82 115 149 186 235 291 340
#     4  11  24  42  60  83 115 155 201 249 296 346
#     4   9  17  32  57  85 114 151 195 230 271 332
#     4   8  16  33  55  82 117 154 187 228 277 335
#
# _framework density 9.8765429999999999
#
# number of rings (size 3 to 8) (size 9 to 14) (size 15 to 20)
#    0.000    2.000    1.250    3.375    0.000    3.500 
#    0.000    5.625    0.000    0.000    0.000    0.000 
#    0.000    0.000    0.000    0.000    0.000    0.000 
#
# Total GULP energy -178675.367651 kJ/mol
# GULP energy per Si atom -5583.605239 kJ/mol
# Density = 0.985406 g / cm^3
# Si number density = 9.876543 Si / 1000 Ang^3
#
#
#
# Elastic Constant Matrix: (Units=GPa)
#
#
# Indices 1 2 3 4 5 6 
#
# 1 35.7889 -6.7817 11.2003 0.0000 12.5298 0.0000
# 2 -6.7817 28.8115 23.1326 0.0000 -12.3995 0.0000
# 3 11.2003 23.1326 35.1261 0.0000 -3.4138 0.0000
# 4 0.0000 0.0000 0.0000 23.6187 0.0000 -2.3671
# 5 12.5298 -12.3995 -3.4138 0.0000 -7.1895 0.0000
# 6 0.0000 0.0000 0.0000 -2.3671 0.0000 25.8412
#
#
#
# Elastic Compliance Matrix: (Units=1/GPa)
#
#
# Indices 1 2 3 4 5 6 
#
# 1 0.055361 0.066036 -0.060061 0.000000 0.011111 0.000000
# 2 0.066036 0.115428 -0.100593 0.000000 -0.036224 0.000000
# 3 -0.060061 -0.100593 0.115237 0.000000 0.014098 0.000000
# 4 0.000000 0.000000 0.000000 0.042732 0.000000 0.003914
# 5 0.011111 -0.036224 0.014098 0.000000 -0.063946 0.000000
# 6 0.000000 0.000000 0.000000 0.003914 0.000000 0.039057
#
#
# Mechanical properties :
#
#
# Convention : Reuss Voigt Hill
#
# Bulk Modulus (GPa) = 10.33169 17.20321 13.76745
# Shear Modulus (GPa) = 9.51712 13.26575 11.39144
#
# Velocity S-wave (km/s) = 2.19739 2.59430 2.40405
# Velocity P-wave (km/s) = 3.41757 4.20736 3.83286
#
# Compressibility (1/GPa) = 0.09678960
#
# Stress axis : x y z
#
# Youngs Moduli (GPa) = 18.06314 8.66338 8.67778
#
# Poissons Ratio (x) = -0.57210 0.52120
# Poissons Ratio (y) = -1.19282 0.87293
# Poissons Ratio (z) = 1.08490 0.87148
#
# Static dielectric constant tensor:
#      x y z
#    x 1.700040 0.000000 0.021220 
#    y 0.000000 1.652180 0.000000 
#    z 0.021220 0.000000 1.710960 
# 
# From -- ./inp_files/338765.got.cif
#   From: 2010.05.17/outbox.ucp.g08.bks.cvg/sg12_170_cif.got.tgz:338765.got - 2010.06.11 11:47:21.
