data_PCOD9223530
_publ_section_title
;
Structure prediction by ZEFSAII (Michael W. Deem and Ramdas Pophale) SiO2 
 PCOD9223530
Probable space group: C 2/M
;
_chemical_formula_sum "Si O2"
_cell_formula_units_Z 32
_cell_length_a 24.000000
_cell_length_b 9.000000
_cell_length_c 21.000000
_cell_angle_alpha 90.000000
_cell_angle_beta 130.000000
_cell_angle_gamma 90.000000
_cell_volume 3474.777594
_symmetry_space_group_name_H-M "C 2/M"
_symmetry_group_IT_number 12
_symmetry_cell_setting 'monoclinic'
loop_
_space_group_symop_operation_xyz
x,y,z
-x,y,-z
-x,-y,-z
x,-y,z
1/2+x,1/2+y,z
1/2-x,1/2+y,-z
1/2-x,1/2-y,-z
1/2+x,1/2-y,z
loop_
_atom_site_type_symbol
_atom_site_label
_atom_site_fract_x
_atom_site_fract_y
_atom_site_fract_z
Si Si1 0.786849 0.674685 0.088884
Si Si2 0.559990 0.328502 0.777740
Si Si3 0.842520 0.330286 0.698651
Si Si4 0.796244 0.173330 0.478023
Si Si5 0.830533 0.670504 0.925329
Si Si6 0.446092 0.333764 0.082264
Si Si7 0.100705 0.168928 0.139949
Si Si8 0.426584 0.173386 0.625015
O O1 0.789008 0.500000 0.080773
O O2 0.865569 0.740252 0.160870
O O3 0.736469 0.722272 0.110589
O O4 0.750000 0.750000 0.000000
O O5 0.573728 0.500000 0.772181
O O6 0.528250 0.323213 0.826405
O O7 0.502535 0.255840 0.688578
O O8 0.857731 0.500000 0.731568
O O9 0.756778 0.316359 0.621121
O O10 0.866366 0.212544 0.767910
O O11 0.885064 0.312460 0.662971
O O12 0.750000 0.250000 0.500000
O O13 0.873330 0.253345 0.534436
O O14 0.806000 0.000000 0.500542
O O15 0.808698 0.500000 0.910954
O O16 0.869707 0.716764 0.889517
O O17 0.888720 0.708597 0.023101
O O18 0.412989 0.500000 0.050687
O O19 0.514294 0.322116 0.086135
O O20 0.118628 0.000000 0.134855
O O21 0.436330 0.000000 0.620062
#
# Coordination Sequence:
#
# PCOD9223530 Si02
#       8
#     8   8   8   8   8   8   8   8
#     4  12  24  40  59  79 103 136 178 225 271 318
#     4  11  21  35  56  81 108 141 177 221 269 317
#     4   9  18  31  48  73 106 141 177 216 260 314
#     4   9  17  29  46  71 104 141 177 216 263 317
#     4  12  25  39  56  77 103 140 181 225 269 315
#     4  10  21  36  54  77 107 141 178 219 265 318
#     4  11  22  36  54  77 107 143 180 220 264 317
#     4  10  19  31  49  76 109 142 178 219 262 317
#
# _framework density 9.2092220000000005
#
# number of rings (size 3 to 8) (size 9 to 14) (size 15 to 20)
#    0.000    1.500    2.500    4.875    0.000    5.500 
#    0.000    0.000    0.000    0.000    0.000    0.875 
#    0.000    7.000    0.000    0.000    0.000    0.000 
#
# Total GULP energy -178524.721341 kJ/mol
# GULP energy per Si atom -5578.897542 kJ/mol
# Density = 0.918826 g / cm^3
# Si number density = 9.209222 Si / 1000 Ang^3
#
#
#
# Elastic Constant Matrix: (Units=GPa)
#
#
# Indices 1 2 3 4 5 6 
#
# 1 43.7140 24.4383 12.6139 0.0000 18.6848 0.0000
# 2 24.4383 118.7621 42.4938 0.0000 27.5774 0.0000
# 3 12.6139 42.4938 45.4823 0.0000 28.8530 0.0000
# 4 0.0000 0.0000 0.0000 30.0577 0.0000 4.2280
# 5 18.6848 27.5774 28.8530 0.0000 24.2670 0.0000
# 6 0.0000 0.0000 0.0000 4.2280 0.0000 22.2041
#
#
#
# Elastic Compliance Matrix: (Units=1/GPa)
#
#
# Indices 1 2 3 4 5 6 
#
# 1 0.051568 -0.007535 0.050845 0.000000 -0.091598 0.000000
# 2 -0.007535 0.013760 -0.018421 0.000000 0.012066 0.000000
# 3 0.050845 -0.018421 0.149150 0.000000 -0.195552 0.000000
# 4 0.000000 0.000000 0.000000 0.034185 0.000000 -0.006509
# 5 -0.091598 0.012066 -0.195552 0.000000 0.330531 0.000000
# 6 0.000000 0.000000 0.000000 -0.006509 0.000000 0.046276
#
#
# Mechanical properties :
#
#
# Convention : Reuss Voigt Hill
#
# Bulk Modulus (GPa) = 3.78418 40.78338 22.28378
# Shear Modulus (GPa) = 7.53267 23.86658 15.69962
#
# Velocity S-wave (km/s) = 2.02450 3.60362 2.92273
# Velocity P-wave (km/s) = 2.74296 6.28535 4.84920
#
# Compressibility (1/GPa) = 0.26425782
#
# Stress axis : x y z
#
# Youngs Moduli (GPa) = 19.39175 72.67576 6.70468
#
# Poissons Ratio (x) = 0.54758 -0.34090
# Poissons Ratio (y) = 0.14611 0.12351
# Poissons Ratio (z) = -0.98598 1.33874
#
# Static dielectric constant tensor:
#      x y z
#    x 1.666390 0.000000 0.006060 
#    y 0.000000 1.630080 0.000000 
#    z 0.006060 0.000000 1.652440 
# 
# From -- ./inp_files/324308.got.cif
#   From: 2010.05.17/outbox.ucp.g08.bks.cvg/sg12_163_cif.got.tgz:324308.got - 2010.06.11 11:47:21.
