data_PCOD9223767
_publ_section_title
;
Structure prediction by ZEFSAII (Michael W. Deem and Ramdas Pophale) SiO2 
 PCOD9223767
Probable space group: C 2/M
;
_chemical_formula_sum "Si O2"
_cell_formula_units_Z 28
_cell_length_a 30.000000
_cell_length_b 9.000000
_cell_length_c 21.000000
_cell_angle_alpha 90.000000
_cell_angle_beta 30.000000
_cell_angle_gamma 90.000000
_cell_volume 2835.000000
_symmetry_space_group_name_H-M "C 2/M"
_symmetry_group_IT_number 12
_symmetry_cell_setting 'monoclinic'
loop_
_space_group_symop_operation_xyz
x,y,z
-x,y,-z
-x,-y,-z
x,-y,z
1/2+x,1/2+y,z
1/2-x,1/2+y,-z
1/2-x,1/2-y,-z
1/2+x,1/2-y,z
loop_
_atom_site_type_symbol
_atom_site_label
_atom_site_fract_x
_atom_site_fract_y
_atom_site_fract_z
Si Si1 0.373920 0.329228 0.342853
Si Si2 0.807990 0.666351 0.644453
Si Si3 0.269533 0.825266 0.372642
Si Si4 0.616275 0.333679 0.329653
Si Si5 0.008571 0.332431 0.364290
Si Si6 0.226462 0.334072 0.964850
Si Si7 0.934916 0.169368 0.832929
O O1 0.348449 0.500000 0.359320
O O2 0.354369 0.227851 0.306980
O O3 0.312140 0.281809 0.478857
O O4 0.475155 0.325754 0.238796
O O5 0.777921 0.500000 0.693422
O O6 0.740471 0.751011 0.682959
O O7 0.835228 0.743356 0.675678
O O8 0.902334 0.663825 0.490313
O O9 0.265521 0.000000 0.369982
O O10 0.598142 0.500000 0.374610
O O11 0.533580 0.258322 0.396343
O O12 0.688000 0.340129 0.184432
O O13 0.042120 0.500000 0.330739
O O14 0.047829 0.257027 0.253543
O O15 0.196003 0.500000 0.016865
O O16 0.250000 0.250000 0.000000
O O17 0.146965 0.244654 0.030569
O O18 0.913364 0.000000 0.843203
#
# Coordination Sequence:
#
# PCOD9223767 Si02
#       7
#     8   8   8   8   8   8   8
#     4   9  19  34  53  81 113 144 181 224 273 329
#     4  11  23  37  55  81 114 149 185 226 276 331
#     4  10  19  33  55  81 112 146 181 223 273 329
#     4  11  24  39  56  78 109 149 190 229 274 328
#     4  11  22  35  54  81 113 148 184 225 273 328
#     4  11  23  38  57  81 109 145 188 233 276 324
#     4  11  21  35  57  83 113 147 183 227 277 325
#
# _framework density 9.8765429999999999
#
# number of rings (size 3 to 8) (size 9 to 14) (size 15 to 20)
#    0.000    1.429    2.857    3.000    0.000    6.857 
#    0.000    0.000    0.000    0.857    0.000    6.000 
#    0.000    0.000    0.000    0.000    0.000    0.000 
#
# Total GULP energy -156184.953015 kJ/mol
# GULP energy per Si atom -5578.034036 kJ/mol
# Density = 0.985406 g / cm^3
# Si number density = 9.876543 Si / 1000 Ang^3
#
#
#
# Elastic Constant Matrix: (Units=GPa)
#
#
# Indices 1 2 3 4 5 6 
#
# 1 101.8687 66.7644 -6.1601 -0.0001 7.5821 0.0000
# 2 66.7644 98.4597 1.3594 0.0037 -2.3793 -0.0004
# 3 -6.1601 1.3594 29.5641 0.0001 -4.8640 0.0006
# 4 -0.0001 0.0037 0.0001 19.1815 0.0002 0.3393
# 5 7.5821 -2.3793 -4.8640 0.0002 11.8809 -0.0003
# 6 0.0000 -0.0004 0.0006 0.3393 -0.0003 32.1033
#
#
#
# Elastic Compliance Matrix: (Units=1/GPa)
#
#
# Indices 1 2 3 4 5 6 
#
# 1 0.020390 -0.014219 0.002459 0.000003 -0.014853 0.000000
# 2 -0.014219 0.020122 -0.001857 -0.000004 0.012343 0.000000
# 3 0.002459 -0.001857 0.036566 0.000000 0.013029 -0.000001
# 4 0.000003 -0.000004 0.000000 0.052143 -0.000004 -0.000551
# 5 -0.014853 0.012343 0.013029 -0.000004 0.101453 0.000001
# 6 0.000000 0.000000 -0.000001 -0.000551 0.000001 0.031155
#
#
# Mechanical properties :
#
#
# Convention : Reuss Voigt Hill
#
# Bulk Modulus (GPa) = 20.06301 39.31333 29.68817
# Shear Modulus (GPa) = 16.35702 23.82841 20.09271
#
# Velocity S-wave (km/s) = 2.88075 3.47697 3.19281
# Velocity P-wave (km/s) = 4.60911 6.00539 5.35297
#
# Compressibility (1/GPa) = 0.04984296
#
# Stress axis : x y z
#
# Youngs Moduli (GPa) = 49.04400 49.69659 27.34773
#
# Poissons Ratio (x) = 0.70664 -0.06724
# Poissons Ratio (y) = 0.69736 0.05079
# Poissons Ratio (z) = -0.12058 0.09230
#
# Static dielectric constant tensor:
#      x y z
#    x 1.647270 0.000000 -0.006970 
#    y 0.000000 1.721320 0.000000 
#    z -0.006970 0.000000 1.726940 
# 
# From -- ./inp_files/287391.got.cif
#   From: 2010.05.17/outbox.ucp.g08.bks.cvg/sg12_144_cif.got.tgz:287391.got - 2010.06.11 11:47:21.
