data_PCOD9223947
_publ_section_title
;
Structure prediction by ZEFSAII (Michael W. Deem and Ramdas Pophale) SiO2 
 PCOD9223947
Probable space group: C 2/M
;
_chemical_formula_sum "Si O2"
_cell_formula_units_Z 26
_cell_length_a 21.000000
_cell_length_b 24.000000
_cell_length_c 18.000000
_cell_angle_alpha 90.000000
_cell_angle_beta 20.000000
_cell_angle_gamma 90.000000
_cell_volume 3102.806740
_symmetry_space_group_name_H-M "C 2/M"
_symmetry_group_IT_number 12
_symmetry_cell_setting 'monoclinic'
loop_
_space_group_symop_operation_xyz
x,y,z
-x,y,-z
-x,-y,-z
x,-y,z
1/2+x,1/2+y,z
1/2-x,1/2+y,-z
1/2-x,1/2-y,-z
1/2+x,1/2-y,z
loop_
_atom_site_type_symbol
_atom_site_label
_atom_site_fract_x
_atom_site_fract_y
_atom_site_fract_z
Si Si1 0.120315 0.821694 0.433143
Si Si2 0.282489 0.938960 0.256382
Si Si3 0.500000 0.753206 0.000000
Si Si4 0.888145 0.156224 0.839268
Si Si5 0.685181 0.564424 0.536700
Si Si6 0.081580 0.773680 0.757248
Si Si7 0.437040 0.834042 0.313444
O O1 0.175421 0.884441 0.347636
O O2 0.316231 0.789429 0.219577
O O3 0.000000 0.794866 0.500000
O O4 0.993740 0.825863 0.646509
O O5 0.253675 0.938649 0.376503
O O6 0.221524 0.000000 0.294521
O O7 0.500000 0.933158 0.000000
O O8 0.518951 0.717996 0.054305
O O9 0.984687 0.096380 0.753718
O O10 0.964929 0.197372 0.818994
O O11 0.660297 0.158556 0.084639
O O12 0.677393 0.500000 0.572791
O O13 0.832725 0.606848 0.413917
O O14 0.291539 0.799938 0.526957
O O15 0.079087 0.707718 0.739680
#
# Coordination Sequence:
#
# PCOD9223947 Si02
#       7
#     8   8   4   8   8   8   8
#     4  11  22  31  50  74 100 136 178 211 247 296
#     4   9  17  30  45  63  98 139 173 210 243 275
#     4  12  22  36  51  74 103 128 166 218 258 310
#     4  10  21  36  53  76 107 139 174 215 257 307
#     4   9  19  33  50  75 102 138 179 213 252 300
#     4  10  21  35  55  76 103 137 173 211 266 313
#     4  10  19  35  55  75 104 141 170 212 259 306
#
# _framework density 8.3795099999999998
#
# number of rings (size 3 to 8) (size 9 to 14) (size 15 to 20)
#    0.000    2.000    0.769    5.077    2.154    2.154 
#    0.000    0.000    0.000    0.000    0.000    8.615 
#    0.000    9.846    0.000    0.000    0.000    0.000 
#
# Total GULP energy -144749.887846 kJ/mol
# GULP energy per Si atom -5567.303379 kJ/mol
# Density = 0.836044 g / cm^3
# Si number density = 8.379510 Si / 1000 Ang^3
#
#
#
# Elastic Constant Matrix: (Units=GPa)
#
#
# Indices 1 2 3 4 5 6 
#
# 1 69.8611 31.3445 50.2087 0.0263 -3.4234 -0.0170
# 2 31.3445 91.4255 43.8025 0.0097 -11.2797 -0.0150
# 3 50.2087 43.8025 136.2753 0.0024 -22.5357 -0.0240
# 4 0.0263 0.0097 0.0024 14.9261 -0.0081 0.4428
# 5 -3.4234 -11.2797 -22.5357 -0.0081 33.4245 0.0053
# 6 -0.0170 -0.0150 -0.0240 0.4428 0.0053 14.6059
#
#
#
# Elastic Compliance Matrix: (Units=1/GPa)
#
#
# Indices 1 2 3 4 5 6 
#
# 1 0.021150 -0.004370 -0.007061 -0.000036 -0.004069 0.000011
# 2 -0.004370 0.013924 -0.002434 0.000000 0.002610 0.000004
# 3 -0.007061 -0.002434 0.011780 0.000015 0.006398 0.000006
# 4 -0.000036 0.000000 0.000015 0.067057 0.000024 -0.002033
# 5 -0.004069 0.002610 0.006398 0.000024 0.034696 -0.000005
# 6 0.000011 0.000004 0.000006 -0.002033 -0.000005 0.068527
#
#
# Mechanical properties :
#
#
# Convention : Reuss Voigt Hill
#
# Bulk Modulus (GPa) = 52.28852 60.91925 56.60388
# Shear Modulus (GPa) = 19.90141 24.07171 21.98656
#
# Velocity S-wave (km/s) = 3.44976 3.79402 3.62598
# Velocity P-wave (km/s) = 6.86555 7.45801 7.16790
#
# Compressibility (1/GPa) = 0.01912466
#
# Stress axis : x y z
#
# Youngs Moduli (GPa) = 47.28141 71.81688 84.89175
#
# Poissons Ratio (x) = 0.31387 0.59938
# Poissons Ratio (y) = 0.20664 0.20661
# Poissons Ratio (z) = 0.33383 0.17478
#
# Static dielectric constant tensor:
#      x y z
#    x 1.634040 -0.000010 -0.016500 
#    y -0.000010 1.613550 0.000040 
#    z -0.016500 0.000040 1.568230 
# 
# From -- ./inp_files/286275.got.cif
#   From: 2010.05.17/outbox.ucp.g08.bks.cvg/sg12_144_cif.got.tgz:286275.got - 2010.06.11 11:47:21.
