data_PCOD9223196
_publ_section_title
;
Structure prediction by ZEFSAII (Michael W. Deem and Ramdas Pophale) SiO2 
 PCOD9223196
Probable space group: C 2/M
;
_chemical_formula_sum "Si O2"
_cell_formula_units_Z 24
_cell_length_a 24.000000
_cell_length_b 9.000000
_cell_length_c 21.000000
_cell_angle_alpha 90.000000
_cell_angle_beta 40.000000
_cell_angle_gamma 90.000000
_cell_volume 2915.684598
_symmetry_space_group_name_H-M "C 2/M"
_symmetry_group_IT_number 12
_symmetry_cell_setting 'monoclinic'
loop_
_space_group_symop_operation_xyz
x,y,z
-x,y,-z
-x,-y,-z
x,-y,z
1/2+x,1/2+y,z
1/2-x,1/2+y,-z
1/2-x,1/2-y,-z
1/2+x,1/2-y,z
loop_
_atom_site_type_symbol
_atom_site_label
_atom_site_fract_x
_atom_site_fract_y
_atom_site_fract_z
Si Si1 0.953974 0.320909 0.340560
Si Si2 0.866186 0.824159 0.833250
Si Si3 0.623319 0.677488 0.721091
Si Si4 0.826359 0.325577 0.001791
Si Si5 0.999917 0.328144 0.925055
Si Si6 0.712014 0.320009 0.467545
O O1 0.946611 0.500000 0.346246
O O2 0.925547 0.253295 0.296634
O O3 0.884863 0.246840 0.449687
O O4 0.052608 0.267816 0.264411
O O5 0.770527 0.794273 0.888237
O O6 0.885122 0.000000 0.812726
O O7 0.850828 0.774967 0.919958
O O8 0.630762 0.500000 0.704585
O O9 0.564794 0.718669 0.832425
O O10 0.717949 0.754416 0.643020
O O11 0.825939 0.500000 0.981509
O O12 0.902489 0.306663 0.985318
O O13 0.024554 0.500000 0.887850
O O14 0.000000 0.309599 0.000000
O O15 0.712069 0.500000 0.469151
O O16 0.750000 0.250000 0.500000
#
# Coordination Sequence:
#
# PCOD9223196 Si02
#       6
#     8   8   8   8   8   8
#     4  11  19  29  45  68  97 127 157 191 237 288
#     4  10  18  28  45  69  95 126 158 193 236 285
#     4  11  20  31  46  67  95 126 159 197 238 281
#     4   9  18  31  46  66  94 126 160 196 236 282
#     4  10  20  34  51  70  94 128 166 201 236 277
#     4  10  18  29  45  66  93 124 156 191 234 286
#
# _framework density 8.2313430000000007
#
# number of rings (size 3 to 8) (size 9 to 14) (size 15 to 20)
#    0.000    1.833    1.667    7.000    0.000    1.000 
#    0.000    0.000    0.000    0.000    0.000    1.167 
#    0.000    9.333    0.000    0.000    0.000    0.000 
#
# Total GULP energy -133783.542319 kJ/mol
# GULP energy per Si atom -5574.314263 kJ/mol
# Density = 0.821261 g / cm^3
# Si number density = 8.231343 Si / 1000 Ang^3
#
#
#
# Elastic Constant Matrix: (Units=GPa)
#
#
# Indices 1 2 3 4 5 6 
#
# 1 39.6033 28.9856 39.6556 -0.0001 -12.7426 0.0001
# 2 28.9856 144.3674 58.4435 0.0002 -20.4267 -0.0003
# 3 39.6556 58.4435 102.8026 -0.0001 -39.2814 0.0001
# 4 -0.0001 0.0002 -0.0001 32.7273 0.0000 -7.3576
# 5 -12.7426 -20.4267 -39.2814 0.0000 24.3822 0.0000
# 6 0.0001 -0.0003 0.0001 -7.3576 0.0000 14.0780
#
#
#
# Elastic Compliance Matrix: (Units=1/GPa)
#
#
# Indices 1 2 3 4 5 6 
#
# 1 0.042796 -0.002300 -0.019227 0.000000 -0.010537 0.000000
# 2 -0.002300 0.009153 -0.004801 0.000000 -0.001269 0.000000
# 3 -0.019227 -0.004801 0.037713 0.000000 0.046688 0.000000
# 4 0.000000 0.000000 0.000000 0.034624 0.000000 0.018096
# 5 -0.010537 -0.001269 0.046688 0.000000 0.109661 0.000000
# 6 0.000000 0.000000 0.000000 0.018096 0.000000 0.080490
#
#
# Mechanical properties :
#
#
# Convention : Reuss Voigt Hill
#
# Bulk Modulus (GPa) = 27.02255 60.10474 43.56364
# Shear Modulus (GPa) = 13.17776 24.88341 19.03058
#
# Velocity S-wave (km/s) = 2.83231 3.89202 3.40366
# Velocity P-wave (km/s) = 5.21019 7.53565 6.47812
#
# Compressibility (1/GPa) = 0.03700613
#
# Stress axis : x y z
#
# Youngs Moduli (GPa) = 23.36688 109.25964 26.51597
#
# Poissons Ratio (x) = 0.25126 0.50982
# Poissons Ratio (y) = 0.05374 0.12730
# Poissons Ratio (z) = 0.44927 0.52455
#
# Static dielectric constant tensor:
#      x y z
#    x 1.552630 0.000000 -0.038580 
#    y 0.000000 1.561450 0.000000 
#    z -0.038580 0.000000 1.599330 
# 
# From -- ./inp_files/323490.got.cif
#   From: 2010.05.17/outbox.ucp.g08.bks.cvg/sg12_162_cif.got.tgz:323490.got - 2010.06.11 11:47:21.
