data_PCOD9223513
_publ_section_title
;
Structure prediction by ZEFSAII (Michael W. Deem and Ramdas Pophale) SiO2 
 PCOD9223513
Probable space group: C 2/M
;
_chemical_formula_sum "Si O2"
_cell_formula_units_Z 32
_cell_length_a 15.000000
_cell_length_b 27.000000
_cell_length_c 9.000000
_cell_angle_alpha 90.000000
_cell_angle_beta 80.000000
_cell_angle_gamma 90.000000
_cell_volume 3589.624260
_symmetry_space_group_name_H-M "C 2/M"
_symmetry_group_IT_number 12
_symmetry_cell_setting 'monoclinic'
loop_
_space_group_symop_operation_xyz
x,y,z
-x,y,-z
-x,-y,-z
x,-y,z
1/2+x,1/2+y,z
1/2-x,1/2+y,-z
1/2-x,1/2-y,-z
1/2+x,1/2-y,z
loop_
_atom_site_type_symbol
_atom_site_label
_atom_site_fract_x
_atom_site_fract_y
_atom_site_fract_z
Si Si1 0.075351 0.166419 0.368319
Si Si2 0.733204 0.356615 0.113332
Si Si3 0.557264 0.055950 0.208701
Si Si4 0.364601 0.943492 0.151533
Si Si5 0.053411 0.264548 0.196964
Si Si6 0.863902 0.264960 0.137408
Si Si7 0.818470 0.355946 0.762028
Si Si8 0.208219 0.799390 0.582119
O O1 0.131970 0.142990 0.213157
O O2 0.039348 0.218689 0.311346
O O3 0.148747 0.180000 0.468858
O O4 0.000000 0.141824 0.500000
O O5 0.788030 0.402019 0.171920
O O6 0.785038 0.305428 0.143481
O O7 0.753840 0.360573 0.928570
O O8 0.450874 0.068291 0.230071
O O9 0.618261 0.096450 0.269189
O O10 0.567251 0.000000 0.262824
O O11 0.594271 0.056262 0.027861
O O12 0.334223 0.000000 0.191115
O O13 0.117822 0.307880 0.234094
O O14 0.956311 0.287015 0.179803
O O15 0.104549 0.246052 0.032989
O O16 0.836580 0.220901 0.253363
O O17 0.769030 0.343772 0.624090
O O18 0.250000 0.750000 0.500000
#
# Coordination Sequence:
#
# PCOD9223513 Si02
#       8
#     8   8   8   8   8   8   8   8
#     4  12  23  35  48  65  96 133 176 218 253 291
#     4  10  19  32  50  74 101 132 169 208 252 300
#     4   8  14  27  50  82 112 131 156 200 251 303
#     4   8  14  27  51  81 108 131 160 202 250 303
#     4  10  19  31  48  72 101 132 164 203 250 297
#     4  10  19  31  49  71  99 132 167 205 246 301
#     4  10  19  31  50  76 104 134 165 202 251 305
#     4  12  21  33  48  67  97 135 178 211 248 296
#
# _framework density 8.9145819999999993
#
# number of rings (size 3 to 8) (size 9 to 14) (size 15 to 20)
#    0.000    2.000    3.750    2.250    0.000    5.000 
#    0.000    0.000    0.000    1.125    0.000    1.750 
#    0.000    4.000    0.000    0.000    0.000    0.000 
#
# Total GULP energy -178164.437698 kJ/mol
# GULP energy per Si atom -5567.638678 kJ/mol
# Density = 0.889429 g / cm^3
# Si number density = 8.914582 Si / 1000 Ang^3
#
#
#
# Elastic Constant Matrix: (Units=GPa)
#
#
# Indices 1 2 3 4 5 6 
#
# 1 60.4614 23.2916 18.2684 0.0000 0.8407 0.0000
# 2 23.2916 56.3643 13.7138 0.0000 3.4729 0.0000
# 3 18.2684 13.7138 33.3819 0.0000 4.1251 0.0000
# 4 0.0000 0.0000 0.0000 13.1602 0.0000 5.5688
# 5 0.8407 3.4729 4.1251 0.0000 33.6870 0.0000
# 6 0.0000 0.0000 0.0000 5.5688 0.0000 27.1365
#
#
#
# Elastic Compliance Matrix: (Units=1/GPa)
#
#
# Indices 1 2 3 4 5 6 
#
# 1 0.022010 -0.006895 -0.009374 0.000000 0.001309 0.000000
# 2 -0.006895 0.021909 -0.005046 0.000000 -0.001469 0.000000
# 3 -0.009374 -0.005046 0.037636 0.000000 -0.003854 0.000000
# 4 0.000000 0.000000 0.000000 0.083213 0.000000 -0.017076
# 5 0.001309 -0.001469 -0.003854 0.000000 0.030276 0.000000
# 6 0.000000 0.000000 0.000000 -0.017076 0.000000 0.040355
#
#
# Mechanical properties :
#
#
# Convention : Reuss Voigt Hill
#
# Bulk Modulus (GPa) = 25.69072 28.97278 27.33175
# Shear Modulus (GPa) = 17.18194 21.12566 19.15380
#
# Velocity S-wave (km/s) = 3.10772 3.44596 3.28120
# Velocity P-wave (km/s) = 5.22665 5.66731 5.45143
#
# Compressibility (1/GPa) = 0.03892456
#
# Stress axis : x y z
#
# Youngs Moduli (GPa) = 45.43408 45.64297 26.57054
#
# Poissons Ratio (x) = 0.31471 0.24908
# Poissons Ratio (y) = 0.31327 0.13407
# Poissons Ratio (z) = 0.42591 0.23030
#
# Static dielectric constant tensor:
#      x y z
#    x 1.692570 0.000000 -0.009350 
#    y 0.000000 1.601490 0.000000 
#    z -0.009350 0.000000 1.632190 
# 
# From -- ./inp_files/66952.got.cif
#   From: 2010.05.17/outbox.ucp.g08.bks.cvg/sg12_34_cif.got.tgz:66952.got - 2010.06.11 11:47:21.
