data_PCOD9223642
_publ_section_title
;
Structure prediction by ZEFSAII (Michael W. Deem and Ramdas Pophale) SiO2 
 PCOD9223642
Probable space group: C 2/M
;
_chemical_formula_sum "Si O2"
_cell_formula_units_Z 32
_cell_length_a 30.000000
_cell_length_b 9.000000
_cell_length_c 15.000000
_cell_angle_alpha 90.000000
_cell_angle_beta 130.000000
_cell_angle_gamma 90.000000
_cell_volume 3102.479995
_symmetry_space_group_name_H-M "C 2/M"
_symmetry_group_IT_number 12
_symmetry_cell_setting 'monoclinic'
loop_
_space_group_symop_operation_xyz
x,y,z
-x,y,-z
-x,-y,-z
x,-y,z
1/2+x,1/2+y,z
1/2-x,1/2+y,-z
1/2-x,1/2-y,-z
1/2+x,1/2-y,z
loop_
_atom_site_type_symbol
_atom_site_label
_atom_site_fract_x
_atom_site_fract_y
_atom_site_fract_z
Si Si1 0.570210 0.175627 0.280127
Si Si2 0.852211 0.325131 0.291020
Si Si3 0.670045 0.178478 0.539850
Si Si4 0.634736 0.333016 0.851937
Si Si5 0.464309 0.330303 0.131488
Si Si6 0.410411 0.676100 0.876036
Si Si7 0.708048 0.168719 0.265739
Si Si8 0.769445 0.669331 0.912285
O O1 0.627958 0.224786 0.405774
O O2 0.510726 0.232923 0.245412
O O3 0.561456 0.248121 0.172669
O O4 0.572530 0.000000 0.277264
O O5 0.845052 0.500000 0.272602
O O6 0.862939 0.294127 0.408450
O O7 0.891569 0.262112 0.263117
O O8 0.792338 0.243040 0.188297
O O9 0.730384 0.266728 0.622960
O O10 0.681193 0.000000 0.548701
O O11 0.644378 0.500000 0.831889
O O12 0.591097 0.338420 0.877103
O O13 0.692131 0.264502 0.971384
O O14 0.486269 0.500000 0.147207
O O15 0.438947 0.271418 0.004837
O O16 0.416123 0.500000 0.882454
O O17 0.343743 0.722338 0.777264
O O18 0.704782 0.164195 0.154331
O O19 0.699455 0.000000 0.288512
O O20 0.767341 0.500000 0.941962
#
# Coordination Sequence:
#
# PCOD9223642 Si02
#       8
#     8   8   8   8   8   8   8   8
#     4  11  24  41  62  86 111 148 196 244 287 335
#     4  10  20  35  56  81 112 151 191 231 279 337
#     4   9  21  41  60  81 116 156 193 233 286 343
#     4  11  21  35  55  82 115 150 189 231 280 339
#     4  10  23  41  60  84 116 153 190 231 287 347
#     4  11  22  39  62  87 118 153 187 230 290 351
#     4  10  20  34  58  90 119 149 190 238 283 333
#     4  10  19  32  52  82 118 151 185 229 282 337
#
# _framework density 10.314329000000001
#
# number of rings (size 3 to 8) (size 9 to 14) (size 15 to 20)
#    0.000    1.750    1.250    3.000    0.000    6.500 
#    0.000    0.625    0.000    3.750    0.000    0.000 
#    0.000    0.000    0.000    0.000    0.000    0.000 
#
# Total GULP energy -178299.680355 kJ/mol
# GULP energy per Si atom -5571.865011 kJ/mol
# Density = 1.029085 g / cm^3
# Si number density = 10.314329 Si / 1000 Ang^3
#
#
#
# Elastic Constant Matrix: (Units=GPa)
#
#
# Indices 1 2 3 4 5 6 
#
# 1 42.0329 15.4295 40.7325 0.0000 -0.6331 0.0000
# 2 15.4295 60.6334 28.6035 0.0000 4.8574 0.0000
# 3 40.7325 28.6035 40.2614 0.0000 28.9621 0.0000
# 4 0.0000 0.0000 0.0000 22.7275 0.0000 0.7486
# 5 -0.6331 4.8574 28.9621 0.0000 7.1101 0.0000
# 6 0.0000 0.0000 0.0000 0.7486 0.0000 25.2732
#
#
#
# Elastic Compliance Matrix: (Units=1/GPa)
#
#
# Indices 1 2 3 4 5 6 
#
# 1 0.017032 -0.006068 0.008804 0.000000 -0.030200 0.000000
# 2 -0.006068 0.019310 -0.001191 0.000000 -0.008881 0.000000
# 3 0.008804 -0.001191 -0.008096 0.000000 0.034577 0.000000
# 4 0.000000 0.000000 0.000000 0.044042 0.000000 -0.001305
# 5 -0.030200 -0.008881 0.034577 0.000000 0.003177 0.000000
# 6 0.000000 0.000000 0.000000 -0.001305 0.000000 0.039606
#
#
# Mechanical properties :
#
#
# Convention : Reuss Voigt Hill
#
# Bulk Modulus (GPa) = 31.91278 34.71764 33.31521
# Shear Modulus (GPa) = 40.84090 14.89965 27.87028
#
# Velocity S-wave (km/s) = 4.45434 2.69044 3.67965
# Velocity P-wave (km/s) = 6.47754 5.14953 5.85133
#
# Compressibility (1/GPa) = 0.03133541
#
# Stress axis : x y z
#
# Youngs Moduli (GPa) = 58.71327 51.78660 -123.51227
#
# Poissons Ratio (x) = 0.31424 1.08739
# Poissons Ratio (y) = 0.35627 -0.14710
# Poissons Ratio (z) = -0.51690 0.06168
#
# Static dielectric constant tensor:
#      x y z
#    x 2.253300 0.000000 0.019220 
#    y 0.000000 1.734880 0.000000 
#    z 0.019220 0.000000 1.682890 
# 
# From -- ./inp_files/249933.got.cif
#   From: 2010.05.17/outbox.ucp.g08.bks.cvg/sg12_125_cif.got.tgz:249933.got - 2010.06.11 11:47:21.
