data_PCOD9223193
_publ_section_title
;
Structure prediction by ZEFSAII (Michael W. Deem and Ramdas Pophale) SiO2 
 PCOD9223193
Probable space group: C 2/M
;
_chemical_formula_sum "Si O2"
_cell_formula_units_Z 28
_cell_length_a 15.000000
_cell_length_b 21.000000
_cell_length_c 9.000000
_cell_angle_alpha 90.000000
_cell_angle_beta 90.000000
_cell_angle_gamma 90.000000
_cell_volume 2835.000000
_symmetry_space_group_name_H-M "C 2/M"
_symmetry_group_IT_number 12
_symmetry_cell_setting 'monoclinic'
loop_
_space_group_symop_operation_xyz
x,y,z
-x,y,-z
-x,-y,-z
x,-y,z
1/2+x,1/2+y,z
1/2-x,1/2+y,-z
1/2-x,1/2-y,-z
1/2+x,1/2-y,z
loop_
_atom_site_type_symbol
_atom_site_label
_atom_site_fract_x
_atom_site_fract_y
_atom_site_fract_z
Si Si1 0.666472 0.232299 0.105673
Si Si2 0.910610 0.574340 0.579259
Si Si3 0.405153 0.651207 0.040849
Si Si4 0.735240 0.429583 0.115315
Si Si5 0.268744 0.846994 0.404387
Si Si6 0.682011 0.712429 0.672746
Si Si7 0.906826 0.403181 0.931547
O O1 0.717111 0.213994 0.256798
O O2 0.611630 0.172038 0.053563
O O3 0.750000 0.250000 0.000000
O O4 0.605265 0.293178 0.083798
O O5 0.907235 0.500000 0.545078
O O6 0.826708 0.606299 0.503159
O O7 0.907522 0.582022 0.756754
O O8 0.000000 0.600324 0.500000
O O9 0.382627 0.681455 0.203233
O O10 0.500000 0.622561 0.000000
O O11 0.330228 0.599716 0.006826
O O12 0.708775 0.500000 0.163649
O O13 0.738760 0.382421 0.255465
O O14 0.829208 0.432155 0.031342
O O15 0.330770 0.787214 0.356571
O O16 0.190591 0.821853 0.513809
O O17 0.000000 0.421726 0.000000
#
# Coordination Sequence:
#
# PCOD9223193 Si02
#       7
#     8   8   8   8   8   8   8
#     4  10  17  37  62  89 121 148 194 251 308 357
#     4  11  24  39  55  85 129 168 202 245 298 367
#     4  11  22  40  65  91 121 155 208 261 307 365
#     4  12  24  40  63  89 122 166 208 254 305 363
#     4  11  21  39  62  86 124 159 202 247 311 377
#     4  10  20  39  65  89 118 158 196 256 319 363
#     4  12  23  39  65  94 122 161 210 255 307 371
#
# _framework density 9.8765429999999999
#
# number of rings (size 3 to 8) (size 9 to 14) (size 15 to 20)
#    0.000    1.000    5.714    3.000    0.000    3.714 
#    0.000    1.429    0.000    0.857    0.000    0.000 
#    0.000    0.000    0.000    0.000    0.000    0.000 
#
# Total GULP energy -156121.489854 kJ/mol
# GULP energy per Si atom -5575.767495 kJ/mol
# Density = 0.985406 g / cm^3
# Si number density = 9.876543 Si / 1000 Ang^3
#
#
#
# Elastic Constant Matrix: (Units=GPa)
#
#
# Indices 1 2 3 4 5 6 
#
# 1 62.7690 26.6762 21.8005 0.0000 -7.5726 0.0000
# 2 26.6762 97.9755 29.2145 0.0000 -5.4104 0.0000
# 3 21.8005 29.2145 123.7974 0.0000 -16.4159 0.0000
# 4 0.0000 0.0000 0.0000 2532.8634 0.0000 2244.0165
# 5 -7.5726 -5.4104 -16.4159 0.0000 22.2096 0.0000
# 6 0.0000 0.0000 0.0000 2244.0165 0.0000 2017.9515
#
#
#
# Elastic Compliance Matrix: (Units=1/GPa)
#
#
# Indices 1 2 3 4 5 6 
#
# 1 0.018901 -0.004399 -0.001749 0.000000 0.004080 0.000000
# 2 -0.004399 0.012017 -0.002075 0.000000 -0.000106 0.000000
# 3 -0.001749 -0.002075 0.009678 0.000000 0.006051 0.000000
# 4 0.000000 0.000000 0.000000 0.026698 0.000000 -0.029688
# 5 0.004080 -0.000106 0.006051 0.000000 0.050863 0.000000
# 6 0.000000 0.000000 0.000000 -0.029688 0.000000 0.033510
#
#
# Mechanical properties :
#
#
# Convention : Reuss Voigt Hill
#
# Bulk Modulus (GPa) = 41.41064 48.88047 45.14555
# Shear Modulus (GPa) = 28.38262 928.39496 478.38879
#
# Velocity S-wave (km/s) = 3.79472 21.70300 15.57916
# Velocity P-wave (km/s) = 6.34110 25.55047 18.61499
#
# Compressibility (1/GPa) = 0.02414838
#
# Stress axis : x y z
#
# Youngs Moduli (GPa) = 52.90770 83.21263 103.32792
#
# Poissons Ratio (x) = 0.36608 0.18074
# Poissons Ratio (y) = 0.23276 0.21444
# Poissons Ratio (z) = 0.09255 0.17270
#
# Static dielectric constant tensor:
#      x y z
#    x 1.738600 0.000000 0.030700 
#    y 0.000000 1.744460 0.000000 
#    z 0.030700 0.000000 1.723210 
# 
# From -- ./inp_files/64111.got.cif
#   From: 2010.05.17/outbox.ucp.g08.bks.cvg/sg12_33_cif.got.tgz:64111.got - 2010.06.11 11:47:21.
