data_PCOD9223353
_publ_section_title
;
Structure prediction by ZEFSAII (Michael W. Deem and Ramdas Pophale) SiO2 
 PCOD9223353
Probable space group: C 2/M
;
_chemical_formula_sum "Si O2"
_cell_formula_units_Z 28
_cell_length_a 27.000000
_cell_length_b 21.000000
_cell_length_c 12.000000
_cell_angle_alpha 90.000000
_cell_angle_beta 30.000000
_cell_angle_gamma 90.000000
_cell_volume 3402.000000
_symmetry_space_group_name_H-M "C 2/M"
_symmetry_group_IT_number 12
_symmetry_cell_setting 'monoclinic'
loop_
_space_group_symop_operation_xyz
x,y,z
-x,y,-z
-x,-y,-z
x,-y,z
1/2+x,1/2+y,z
1/2-x,1/2+y,-z
1/2-x,1/2-y,-z
1/2+x,1/2-y,z
loop_
_atom_site_type_symbol
_atom_site_label
_atom_site_fract_x
_atom_site_fract_y
_atom_site_fract_z
Si Si1 0.614791 0.230123 0.668390
Si Si2 0.881378 0.922643 0.868659
Si Si3 0.108360 0.693324 0.928911
Si Si4 0.699793 0.318463 0.815856
Si Si5 0.103753 0.923715 0.422571
Si Si6 0.610339 0.371472 0.760944
Si Si7 0.260080 0.925577 0.299153
O O1 0.650119 0.209886 0.723634
O O2 0.690687 0.204969 0.429447
O O3 0.601371 0.306343 0.705069
O O4 0.508897 0.198665 0.853344
O O5 0.878189 0.910372 0.742222
O O6 0.995190 0.904188 0.676944
O O7 0.866218 0.000000 0.917012
O O8 0.811808 0.872953 0.068595
O O9 0.142732 0.750983 0.942253
O O10 0.149535 0.623611 0.873178
O O11 0.653950 0.350507 0.794429
O O12 0.192687 0.903296 0.326878
O O13 0.100011 0.000000 0.437226
O O14 0.687059 0.416362 0.547326
O O15 0.500000 0.397214 0.000000
O O16 0.287196 0.000000 0.235992
#
# Coordination Sequence:
#
# PCOD9223353 Si02
#       7
#     8   8   8   8   8   8   8
#     4  10  18  33  52  72 101 143 176 199 252 319
#     4   9  18  33  52  77 104 135 173 212 259 312
#     4  10  19  34  52  72 102 145 177 200 251 321
#     4  11  18  30  53  77 101 131 171 215 259 297
#     4   8  17  34  53  72 103 141 169 201 264 328
#     4  11  18  30  52  78 104 131 167 210 262 313
#     4  11  21  33  51  76 106 138 172 216 258 305
#
# _framework density 8.2304530000000007
#
# number of rings (size 3 to 8) (size 9 to 14) (size 15 to 20)
#    0.000    2.000    5.714    2.571    0.000    0.857 
#    0.000    2.857    0.000    0.857    0.000    3.000 
#    0.000    0.000    0.000    0.000    0.000    0.000 
#
# Total GULP energy -155919.827828 kJ/mol
# GULP energy per Si atom -5568.565280 kJ/mol
# Density = 0.821172 g / cm^3
# Si number density = 8.230453 Si / 1000 Ang^3
#
#
#
# Elastic Constant Matrix: (Units=GPa)
#
#
# Indices 1 2 3 4 5 6 
#
# 1 23.7635 12.8373 2.7519 0.0000 -3.3025 0.0000
# 2 12.8373 69.6917 10.0685 0.0000 1.3578 0.0000
# 3 2.7519 10.0685 53.3122 0.0000 1.0479 0.0000
# 4 0.0000 0.0000 0.0000 26.7786 0.0000 0.6710
# 5 -3.3025 1.3578 1.0479 0.0000 15.2884 0.0000
# 6 0.0000 0.0000 0.0000 0.6710 0.0000 24.1375
#
#
#
# Elastic Compliance Matrix: (Units=1/GPa)
#
#
# Indices 1 2 3 4 5 6 
#
# 1 0.048665 -0.009037 -0.001029 0.000000 0.011385 0.000000
# 2 -0.009037 0.016449 -0.002576 0.000000 -0.003236 0.000000
# 3 -0.001029 -0.002576 0.019323 0.000000 -0.001318 0.000000
# 4 0.000000 0.000000 0.000000 0.037369 0.000000 -0.001039
# 5 0.011385 -0.003236 -0.001318 0.000000 0.068246 0.000000
# 6 0.000000 0.000000 0.000000 -0.001039 0.000000 0.041458
#
#
# Mechanical properties :
#
#
# Convention : Reuss Voigt Hill
#
# Bulk Modulus (GPa) = 16.90581 22.00922 19.45752
# Shear Modulus (GPa) = 18.08233 21.31488 19.69861
#
# Velocity S-wave (km/s) = 3.31796 3.60235 3.46307
# Velocity P-wave (km/s) = 4.99711 5.54095 5.27604
#
# Compressibility (1/GPa) = 0.05915125
#
# Stress axis : x y z
#
# Youngs Moduli (GPa) = 20.54869 60.79440 51.75175
#
# Poissons Ratio (x) = 0.54942 0.05326
# Poissons Ratio (y) = 0.18570 0.13333
# Poissons Ratio (z) = 0.02115 0.15663
#
# Static dielectric constant tensor:
#      x y z
#    x 1.609530 0.000000 -0.017510 
#    y 0.000000 1.547870 0.000000 
#    z -0.017510 0.000000 1.570770 
# 
# From -- ./inp_files/184568.got.cif
#   From: 2010.05.17/outbox.ucp.g08.bks.cvg/sg12_93_cif.got.tgz:184568.got - 2010.06.11 11:47:21.
