data_PCOD9223715
_publ_section_title
;
Structure prediction by ZEFSAII (Michael W. Deem and Ramdas Pophale) SiO2 
 PCOD9223715
Probable space group: C 2/M
;
_chemical_formula_sum "Si O2"
_cell_formula_units_Z 32
_cell_length_a 30.000000
_cell_length_b 9.000000
_cell_length_c 24.000000
_cell_angle_alpha 90.000000
_cell_angle_beta 150.000000
_cell_angle_gamma 90.000000
_cell_volume 3240.000000
_symmetry_space_group_name_H-M "C 2/M"
_symmetry_group_IT_number 12
_symmetry_cell_setting 'monoclinic'
loop_
_space_group_symop_operation_xyz
x,y,z
-x,y,-z
-x,-y,-z
x,-y,z
1/2+x,1/2+y,z
1/2-x,1/2+y,-z
1/2-x,1/2-y,-z
1/2+x,1/2-y,z
loop_
_atom_site_type_symbol
_atom_site_label
_atom_site_fract_x
_atom_site_fract_y
_atom_site_fract_z
Si Si1 0.378967 0.323032 0.519188
Si Si2 0.946615 0.677790 0.329728
Si Si3 0.346995 0.321206 0.608455
Si Si4 0.562193 0.680058 0.177645
Si Si5 0.715487 0.819274 0.773917
Si Si6 0.276439 0.319788 0.717719
Si Si7 0.347563 0.822775 0.105171
Si Si8 0.619417 0.679602 0.973039
O O1 0.369602 0.500000 0.504763
O O2 0.461229 0.263504 0.572679
O O3 0.393987 0.284678 0.600659
O O4 0.290980 0.243334 0.401165
O O5 0.962280 0.500000 0.350571
O O6 0.881609 0.724564 0.309468
O O7 0.896269 0.706078 0.216508
O O8 0.339393 0.500000 0.603011
O O9 0.250000 0.250000 0.500000
O O10 0.395272 0.272003 0.717205
O O11 0.563821 0.500000 0.178767
O O12 0.624663 0.727521 0.194425
O O13 0.459196 0.721883 0.069490
O O14 0.745548 0.769257 0.745395
O O15 0.716483 0.000000 0.774146
O O16 0.787441 0.775383 0.898518
O O17 0.272615 0.500000 0.712815
O O18 0.394782 0.752941 0.102285
O O19 0.340126 0.000000 0.091119
O O20 0.250000 0.750000 0.000000
O O21 0.619197 0.500000 0.965712
#
# Coordination Sequence:
#
# PCOD9223715 Si02
#       8
#     8   8   8   8   8   8   8   8
#     4  11  23  37  56  84 113 145 183 231 286 331
#     4  10  21  38  57  81 112 148 187 227 275 332
#     4  10  19  33  53  80 110 141 176 217 275 333
#     4   9  18  32  56  85 111 142 181 226 277 326
#     4   9  19  36  58  82 109 146 190 232 275 321
#     4  10  20  37  59  81 109 148 192 231 272 330
#     4  11  21  35  58  86 115 148 185 224 277 336
#     4  10  19  36  58  83 118 148 181 231 277 329
#
# _framework density 9.8765429999999999
#
# number of rings (size 3 to 8) (size 9 to 14) (size 15 to 20)
#    0.000    2.000    2.500    1.500    0.000    3.500 
#    0.000    7.500    0.000    0.000    0.000    1.750 
#    0.000    0.000    0.000    0.000    0.000    0.000 
#
# Total GULP energy -178592.656243 kJ/mol
# GULP energy per Si atom -5581.020508 kJ/mol
# Density = 0.985406 g / cm^3
# Si number density = 9.876543 Si / 1000 Ang^3
#
#
#
# Elastic Constant Matrix: (Units=GPa)
#
#
# Indices 1 2 3 4 5 6 
#
# 1 141.8363 14.2730 5.3271 0.0000 18.3700 0.0000
# 2 14.2730 9.7205 2.4005 0.0000 1.3764 0.0000
# 3 5.3271 2.4005 10.9456 0.0000 18.1226 0.0000
# 4 0.0000 0.0000 0.0000 19.3963 0.0000 -0.8671
# 5 18.3700 1.3764 18.1226 0.0000 36.5018 0.0000
# 6 0.0000 0.0000 0.0000 -0.8671 0.0000 18.6576
#
#
#
# Elastic Compliance Matrix: (Units=1/GPa)
#
#
# Indices 1 2 3 4 5 6 
#
# 1 0.011101 -0.023038 0.041926 0.000000 -0.025534 0.000000
# 2 -0.023038 0.170438 -0.195105 0.000000 0.102035 0.000000
# 3 0.041926 -0.195105 0.766979 0.000000 -0.394538 0.000000
# 4 0.000000 0.000000 0.000000 0.051664 0.000000 0.002401
# 5 -0.025534 0.102035 -0.394538 0.000000 0.232281 0.000000
# 6 0.000000 0.000000 0.000000 0.002401 0.000000 0.053709
#
#
# Mechanical properties :
#
#
# Convention : Reuss Voigt Hill
#
# Bulk Modulus (GPa) = 1.67762 22.94485 12.31124
# Shear Modulus (GPa) = 2.72138 24.27792 13.49965
#
# Velocity S-wave (km/s) = 1.17503 3.50961 2.61707
# Velocity P-wave (km/s) = 1.64075 5.29757 3.92150
#
# Compressibility (1/GPa) = 0.59608191
#
# Stress axis : x y z
#
# Youngs Moduli (GPa) = 90.08116 5.86725 1.30382
#
# Poissons Ratio (x) = 0.13517 -0.05466
# Poissons Ratio (y) = 2.07533 0.25438
# Poissons Ratio (z) = -3.77674 1.14473
#
# Static dielectric constant tensor:
#      x y z
#    x 1.728870 0.000000 0.018410 
#    y 0.000000 1.663880 0.000000 
#    z 0.018410 0.000000 1.687090 
# 
# From -- ./inp_files/353549.got.cif
#   From: 2010.05.17/outbox.ucp.g08.bks.cvg/sg12_177_cif.got.tgz:353549.got - 2010.06.11 11:47:21.
