data_PCOD9223749
_publ_section_title
;
Structure prediction by ZEFSAII (Michael W. Deem and Ramdas Pophale) SiO2 
 PCOD9223749
Probable space group: C 2/M
;
_chemical_formula_sum "Si O2"
_cell_formula_units_Z 28
_cell_length_a 15.000000
_cell_length_b 9.000000
_cell_length_c 24.000000
_cell_angle_alpha 90.000000
_cell_angle_beta 60.000000
_cell_angle_gamma 90.000000
_cell_volume 2805.922308
_symmetry_space_group_name_H-M "C 2/M"
_symmetry_group_IT_number 12
_symmetry_cell_setting 'monoclinic'
loop_
_space_group_symop_operation_xyz
x,y,z
-x,y,-z
-x,-y,-z
x,-y,z
1/2+x,1/2+y,z
1/2-x,1/2+y,-z
1/2-x,1/2-y,-z
1/2+x,1/2-y,z
loop_
_atom_site_type_symbol
_atom_site_label
_atom_site_fract_x
_atom_site_fract_y
_atom_site_fract_z
Si Si1 0.254206 0.679331 0.622181
Si Si2 0.180488 0.821622 0.944375
Si Si3 0.887905 0.820996 0.909709
Si Si4 0.185937 0.320456 0.282886
Si Si5 0.387706 0.680963 0.154270
Si Si6 0.589296 0.674065 0.518518
Si Si7 0.538459 0.178564 0.651344
O O1 0.263871 0.500000 0.624762
O O2 0.308345 0.758198 0.656567
O O3 0.307743 0.719574 0.546836
O O4 0.135035 0.725192 0.658340
O O5 0.294416 0.754091 0.906907
O O6 0.120057 0.775456 0.908121
O O7 0.187524 0.000000 0.941449
O O8 0.129732 0.781470 0.019346
O O9 0.001916 0.771693 0.856758
O O10 0.880511 0.000000 0.907565
O O11 0.188806 0.500000 0.282927
O O12 0.286100 0.267365 0.218125
O O13 0.074808 0.273249 0.294049
O O14 0.387327 0.500000 0.155852
O O15 0.500000 0.687635 0.500000
O O16 0.597395 0.500000 0.531170
O O17 0.561345 0.764601 0.581936
O O18 0.539680 0.000000 0.649693
#
# Coordination Sequence:
#
# PCOD9223749 Si02
#       7
#     8   8   8   8   8   8   8
#     4  10  21  37  54  75 103 133 165 206 256 304
#     4   9  17  31  53  78 102 131 167 208 252 295
#     4   9  17  31  52  77 103 131 166 208 251 296
#     4  10  21  36  52  73 100 134 173 210 244 291
#     4   9  18  33  52  72 100 137 173 203 243 301
#     4  10  19  33  55  78 102 130 162 205 256 304
#     4  10  21  35  53  76 101 130 167 209 252 297
#
# _framework density 9.9788940000000004
#
# number of rings (size 3 to 8) (size 9 to 14) (size 15 to 20)
#    0.000    2.429    1.429    0.857    0.000    4.286 
#    0.000    3.571    0.000    3.429    0.000    0.000 
#    0.000    0.000    0.000    0.000    0.000    0.000 
#
# Total GULP energy -156180.396470 kJ/mol
# GULP energy per Si atom -5577.871302 kJ/mol
# Density = 0.995618 g / cm^3
# Si number density = 9.978894 Si / 1000 Ang^3
#
#
#
# Elastic Constant Matrix: (Units=GPa)
#
#
# Indices 1 2 3 4 5 6 
#
# 1 97.2514 4.5718 11.7100 0.0000 -37.3914 0.0000
# 2 4.5718 -12.3997 -3.7337 0.0000 -6.5217 0.0000
# 3 11.7100 -3.7337 20.9558 0.0000 -26.1403 0.0000
# 4 0.0000 0.0000 0.0000 14.9400 0.0000 -3.7497
# 5 -37.3914 -6.5217 -26.1403 0.0000 36.5171 0.0000
# 6 0.0000 0.0000 0.0000 -3.7497 0.0000 17.7993
#
#
#
# Elastic Compliance Matrix: (Units=1/GPa)
#
#
# Indices 1 2 3 4 5 6 
#
# 1 0.029497 -0.038314 0.054461 0.000000 0.062346 0.000000
# 2 -0.038314 0.027561 -0.153907 0.000000 -0.144482 0.000000
# 3 0.054461 -0.153907 0.234814 0.000000 0.196367 0.000000
# 4 0.000000 0.000000 0.000000 0.070671 0.000000 0.014888
# 5 0.062346 -0.144482 0.196367 0.000000 0.205986 0.000000
# 6 0.000000 0.000000 0.000000 0.014888 0.000000 0.059319
#
#
# Mechanical properties :
#
#
# Convention : Reuss Voigt Hill
#
# Bulk Modulus (GPa) = 61.15598 14.54486 37.85042
# Shear Modulus (GPa) = 5.50165 20.06857 12.78511
#
# Velocity S-wave (km/s) = 1.66212 3.17448 2.53377
# Velocity P-wave (km/s) = 5.86453 4.55413 5.25037
#
# Compressibility (1/GPa) = 0.01635163
#
# Stress axis : x y z
#
# Youngs Moduli (GPa) = 33.90184 36.28381 4.25868
#
# Poissons Ratio (x) = 1.39019 -0.23193
# Poissons Ratio (y) = 1.29893 0.65544
# Poissons Ratio (z) = -1.84632 5.58432
#
# Static dielectric constant tensor:
#      x y z
#    x 1.740980 0.000000 -0.042710 
#    y 0.000000 1.659730 0.000000 
#    z -0.042710 0.000000 1.703080 
# 
# From -- ./inp_files/269387.got.cif
#   From: 2010.05.17/outbox.ucp.g08.bks.cvg/sg12_135_cif.got.tgz:269387.got - 2010.06.11 11:47:21.
