data_PCOD9223547
_publ_section_title
;
Structure prediction by ZEFSAII (Michael W. Deem and Ramdas Pophale) SiO2 
 PCOD9223547
Probable space group: C 2/M
;
_chemical_formula_sum "Si O2"
_cell_formula_units_Z 32
_cell_length_a 30.000000
_cell_length_b 9.000000
_cell_length_c 12.000000
_cell_angle_alpha 90.000000
_cell_angle_beta 90.000000
_cell_angle_gamma 90.000000
_cell_volume 3240.000000
_symmetry_space_group_name_H-M "C 2/M"
_symmetry_group_IT_number 12
_symmetry_cell_setting 'monoclinic'
loop_
_space_group_symop_operation_xyz
x,y,z
-x,y,-z
-x,-y,-z
x,-y,z
1/2+x,1/2+y,z
1/2-x,1/2+y,-z
1/2-x,1/2-y,-z
1/2+x,1/2-y,z
loop_
_atom_site_type_symbol
_atom_site_label
_atom_site_fract_x
_atom_site_fract_y
_atom_site_fract_z
Si Si1 0.393106 0.824265 0.530449
Si Si2 0.481642 0.171653 0.624458
Si Si3 0.002756 0.824160 0.167523
Si Si4 0.591702 0.328128 0.895335
Si Si5 0.821296 0.672906 0.709347
Si Si6 0.640468 0.179125 0.695856
Si Si7 0.396272 0.673073 0.852738
Si Si8 0.261109 0.177378 0.380738
O O1 0.431862 0.763333 0.608207
O O2 0.345674 0.813771 0.589333
O O3 0.389576 0.764402 0.407014
O O4 0.404165 0.000000 0.523191
O O5 0.500000 0.169455 0.500000
O O6 0.508585 0.275847 0.706879
O O7 0.482099 0.000000 0.666048
O O8 0.053033 0.765105 0.154919
O O9 0.959931 0.774627 0.097679
O O10 0.007209 0.000000 0.149014
O O11 0.589297 0.500000 0.857689
O O12 0.620496 0.236823 0.809294
O O13 0.612941 0.326081 0.016193
O O14 0.811438 0.500000 0.728609
O O15 0.858861 0.732280 0.792166
O O16 0.777231 0.769948 0.703648
O O17 0.690964 0.223499 0.667625
O O18 0.639110 0.000000 0.694175
O O19 0.395347 0.500000 0.813768
O O20 0.250000 0.250000 0.500000
O O21 0.260952 0.000000 0.394070
#
# Coordination Sequence:
#
# PCOD9223547 Si02
#       8
#     8   8   8   8   8   8   8   8
#     4   9  17  32  52  78 113 147 180 227 282 332
#     4  10  19  31  50  76 111 153 188 226 281 340
#     4  10  20  35  56  82 112 150 194 239 286 336
#     4  10  22  39  58  83 116 153 195 242 290 341
#     4  11  21  37  60  87 117 148 190 239 288 340
#     4  10  21  39  60  84 116 151 189 235 288 345
#     4  10  21  39  60  83 115 155 197 241 289 338
#     4  11  22  38  62  91 120 152 190 234 288 349
#
# _framework density 9.8765429999999999
#
# number of rings (size 3 to 8) (size 9 to 14) (size 15 to 20)
#    0.000    1.875    2.500    1.875    0.000    4.750 
#    0.000    1.250    0.000    2.250    0.000    0.000 
#    0.000    0.000    0.000    0.000    0.000    0.000 
#
# Total GULP energy -178355.502698 kJ/mol
# GULP energy per Si atom -5573.609459 kJ/mol
# Density = 0.985406 g / cm^3
# Si number density = 9.876543 Si / 1000 Ang^3
#
#
#
# Elastic Constant Matrix: (Units=GPa)
#
#
# Indices 1 2 3 4 5 6 
#
# 1 99.5253 21.2341 37.4338 0.0000 10.3454 0.0000
# 2 21.2341 16.3021 17.2179 0.0000 1.8041 0.0000
# 3 37.4338 17.2179 68.6554 0.0000 7.0603 0.0000
# 4 0.0000 0.0000 0.0000 21.4727 0.0000 -2.7147
# 5 10.3454 1.8041 7.0603 0.0000 15.9157 0.0000
# 6 0.0000 0.0000 0.0000 -2.7147 0.0000 22.8730
#
#
#
# Elastic Compliance Matrix: (Units=1/GPa)
#
#
# Indices 1 2 3 4 5 6 
#
# 1 0.015467 -0.015270 -0.003927 0.000000 -0.006581 0.000000
# 2 -0.015270 0.098521 -0.017031 0.000000 0.006313 0.000000
# 3 -0.003927 -0.017031 0.021497 0.000000 -0.005053 0.000000
# 4 0.000000 0.000000 0.000000 0.047280 0.000000 0.005612
# 5 -0.006581 0.006313 -0.005053 0.000000 0.068635 0.000000
# 6 0.000000 0.000000 0.000000 0.005612 0.000000 0.044386
#
#
# Mechanical properties :
#
#
# Convention : Reuss Voigt Hill
#
# Bulk Modulus (GPa) = 15.86577 37.36161 26.61369
# Shear Modulus (GPa) = 12.84517 19.29206 16.06862
#
# Velocity S-wave (km/s) = 2.55284 3.12855 2.85524
# Velocity P-wave (km/s) = 4.09131 5.65737 4.93683
#
# Compressibility (1/GPa) = 0.06302875
#
# Stress axis : x y z
#
# Youngs Moduli (GPa) = 64.65529 10.15015 46.51725
#
# Poissons Ratio (x) = 0.15499 0.18266
# Poissons Ratio (y) = 0.98730 0.79224
# Poissons Ratio (z) = 0.25389 0.17287
#
# Static dielectric constant tensor:
#      x y z
#    x 1.755890 0.000000 0.002690 
#    y 0.000000 1.685430 0.000000 
#    z 0.002690 0.000000 1.731800 
# 
# From -- ./inp_files/187577.got.cif
#   From: 2010.05.17/outbox.ucp.g08.bks.cvg/sg12_94_cif.got.tgz:187577.got - 2010.06.11 11:47:21.
