data_PCOD9223182
_publ_section_title
;
Structure prediction by ZEFSAII (Michael W. Deem and Ramdas Pophale) SiO2 
 PCOD9223182
Probable space group: C 2/M
;
_chemical_formula_sum "Si O2"
_cell_formula_units_Z 32
_cell_length_a 18.000000
_cell_length_b 24.000000
_cell_length_c 24.000000
_cell_angle_alpha 90.000000
_cell_angle_beta 20.000000
_cell_angle_gamma 90.000000
_cell_volume 3546.064846
_symmetry_space_group_name_H-M "C 2/M"
_symmetry_group_IT_number 12
_symmetry_cell_setting 'monoclinic'
loop_
_space_group_symop_operation_xyz
x,y,z
-x,y,-z
-x,-y,-z
x,-y,z
1/2+x,1/2+y,z
1/2-x,1/2+y,-z
1/2-x,1/2-y,-z
1/2+x,1/2-y,z
loop_
_atom_site_type_symbol
_atom_site_label
_atom_site_fract_x
_atom_site_fract_y
_atom_site_fract_z
Si Si1 0.607119 0.932268 0.659732
Si Si2 0.321318 0.565262 0.959218
Si Si3 0.156387 0.345227 0.225559
Si Si4 0.737148 0.280358 0.188204
Si Si5 0.398369 0.750322 0.237497
Si Si6 0.720597 0.325407 0.081041
Si Si7 0.922138 0.145736 0.146276
Si Si8 0.069047 0.842982 0.512451
O O1 0.518049 0.890821 0.672887
O O2 0.802895 0.894112 0.547536
O O3 0.651881 0.000000 0.616578
O O4 0.401598 0.933501 0.847312
O O5 0.361892 0.500000 0.916507
O O6 0.288396 0.611045 0.933706
O O7 0.518676 0.593738 0.855626
O O8 0.113315 0.279481 0.268574
O O9 0.266564 0.367915 0.204438
O O10 0.342036 0.340432 0.046787
O O11 0.697175 0.318574 0.162791
O O12 0.636358 0.315985 0.310024
O O13 0.000000 0.269220 0.000000
O O14 0.532828 0.712366 0.185790
O O15 0.332692 0.701879 0.239408
O O16 0.224037 0.789184 0.390973
O O17 0.561353 0.794186 0.093383
O O18 0.000000 0.863349 0.500000
#
# Coordination Sequence:
#
# PCOD9223182 Si02
#       8
#     8   8   8   8   8   8   8   8
#     4  10  22  38  56  83 116 155 199 241 284 336
#     4   9  18  32  55  83 113 155 201 232 270 335
#     4  10  17  32  58  85 121 152 183 230 288 352
#     4  12  23  37  59  88 118 150 189 245 308 354
#     4  10  18  34  55  86 116 152 184 229 288 352
#     4  10  18  33  59  79 117 152 186 232 289 341
#     4   9  16  29  54  86 122 154 179 226 283 345
#     4  12  25  38  59  85 116 151 202 244 297 347
#
# _framework density 9.0240880000000008
#
# number of rings (size 3 to 8) (size 9 to 14) (size 15 to 20)
#    0.000    1.750    3.750    2.250    0.000    2.750 
#    0.000    3.125    0.000    0.750    0.000    0.000 
#    0.000    8.500    0.000    0.000    0.000    0.000 
#
# Total GULP energy -178246.714289 kJ/mol
# GULP energy per Si atom -5570.209822 kJ/mol
# Density = 0.900355 g / cm^3
# Si number density = 9.024088 Si / 1000 Ang^3
#
#
#
# Elastic Constant Matrix: (Units=GPa)
#
#
# Indices 1 2 3 4 5 6 
#
# 1 89.6280 56.6595 22.9570 0.0558 -1.8261 -0.0172
# 2 56.6595 171.7546 24.7949 0.1384 -10.6751 -0.0315
# 3 22.9570 24.7949 46.8892 0.1389 -4.2867 0.0050
# 4 0.0558 0.1384 0.1389 24.6030 -0.0250 0.3757
# 5 -1.8261 -10.6751 -4.2867 -0.0250 20.0466 -0.0060
# 6 -0.0172 -0.0315 0.0050 0.3757 -0.0060 27.9397
#
#
#
# Elastic Compliance Matrix: (Units=1/GPa)
#
#
# Indices 1 2 3 4 5 6 
#
# 1 0.015259 -0.004393 -0.005339 0.000018 -0.002091 0.000005
# 2 -0.004393 0.007714 -0.001621 -0.000021 0.003361 0.000007
# 3 -0.005339 -0.001621 0.025167 -0.000117 0.004032 -0.000007
# 4 0.000018 -0.000021 -0.000117 0.040654 0.000016 -0.000547
# 5 -0.002091 0.003361 0.004032 0.000016 0.052345 0.000013
# 6 0.000005 0.000007 -0.000007 -0.000547 0.000013 0.035799
#
#
# Mechanical properties :
#
#
# Convention : Reuss Voigt Hill
#
# Bulk Modulus (GPa) = 39.31728 57.45496 48.38612
# Shear Modulus (GPa) = 24.02410 28.10856 26.06633
#
# Velocity S-wave (km/s) = 3.65240 3.95070 3.80447
# Velocity P-wave (km/s) = 6.29433 7.26044 6.79458
#
# Compressibility (1/GPa) = 0.02543411
#
# Stress axis : x y z
#
# Youngs Moduli (GPa) = 65.53391 129.62725 39.73430
#
# Poissons Ratio (x) = 0.56946 0.21215
# Poissons Ratio (y) = 0.28789 0.06442
# Poissons Ratio (z) = 0.34990 0.21015
#
# Static dielectric constant tensor:
#      x y z
#    x 1.704270 0.000000 -0.010490 
#    y 0.000000 1.592870 0.000030 
#    z -0.010490 0.000030 1.633300 
# 
# From -- ./inp_files/345007.got.cif
#   From: 2010.05.17/outbox.ucp.g08.bks.cvg/sg12_173_cif.got.tgz:345007.got - 2010.06.11 11:47:21.
