data_PCOD9223089
_publ_section_title
;
Structure prediction by ZEFSAII (Michael W. Deem and Ramdas Pophale) SiO2 
 PCOD9223089
Probable space group: C 2/M
;
_chemical_formula_sum "Si O2"
_cell_formula_units_Z 56
_cell_length_a 23.408491
_cell_length_b 9.286708
_cell_length_c 21.976725
_cell_angle_alpha 90.000000
_cell_angle_beta 130.960658
_cell_angle_gamma 90.000000
_cell_volume 3607.755465
_symmetry_space_group_name_H-M "C 2/M"
_symmetry_group_IT_number 12
_symmetry_cell_setting 'monoclinic'
loop_
_space_group_symop_operation_xyz
x,y,z
-x,y,-z
-x,-y,-z
x,-y,z
1/2+x,1/2+y,z
1/2-x,1/2+y,-z
1/2-x,1/2-y,-z
1/2+x,1/2-y,z
loop_
_atom_site_type_symbol
_atom_site_label
_atom_site_fract_x
_atom_site_fract_y
_atom_site_fract_z
Si Si1 0.747706 0.665866 0.593797
Si Si2 0.133783 0.827648 0.245403
Si Si3 0.084387 0.175459 0.075919
Si Si4 0.301859 0.327186 0.950939
Si Si5 0.651163 0.672480 0.878970
Si Si6 0.366901 0.834171 0.564055
Si Si7 0.018076 0.827956 0.274569
O O1 0.731622 0.500000 0.597258
O O2 0.792308 0.746817 0.678338
O O3 0.673786 0.749091 0.518741
O O4 0.806307 0.667042 0.577555
O O5 0.109022 0.781759 0.160833
O O6 0.066324 0.800493 0.246654
O O7 0.147183 0.000000 0.254827
O O8 0.144521 0.219781 0.066769
O O9 0.082722 0.000000 0.074347
O O10 0.000000 0.224498 0.000000
O O11 0.292282 0.500000 0.940794
O O12 0.220583 0.251543 0.895037
O O13 0.341009 0.295382 0.043426
O O14 0.659010 0.500000 0.877827
O O15 0.568709 0.713776 0.796924
O O16 0.440248 0.755349 0.642157
O O17 0.381393 0.000000 0.558425
O O18 0.021818 0.000000 0.288066
#
# Coordination Sequence:
#
# PCOD9223089 Si02
#       7
#     8   8   8   8   8   8   8
#     4   9  16  26  39  57  85 117 144 171 208 256
#     4   9  16  26  42  63  86 113 145 179 213 251
#     4   9  16  27  45  67  88 112 145 182 215 249
#     4   9  17  29  45  64  85 112 147 182 214 249
#     4   9  17  29  44  62  86 115 145 178 215 254
#     4   9  16  25  39  60  85 112 142 176 212 251
#     4   9  16  26  41  62  87 114 143 175 214 257
#
# _framework density 15.522116
#
# number of rings (size 3 to 8) (size 9 to 14) (size 15 to 20)
#    0.000    3.000    0.000    1.714    0.000    7.429 
#    0.000    0.714    0.000    3.429    0.000    1.000 
#    0.000    8.000    0.000    0.000    0.000    0.000 
#
# Total GULP energy -155966.116671 kJ/mol
# GULP energy per Si atom -5570.218453 kJ/mol
# Density = 1.548679 g / cm^3
# Si number density = 15.522116 Si / 1000 Ang^3
#
#
#
# Elastic Constant Matrix: (Units=GPa)
#
#
# Indices 1 2 3 4 5 6 
#
# 1 76.2423 38.5756 73.7245 0.0000 13.5647 0.0000
# 2 38.5756 50.4863 67.3492 0.0000 13.1224 0.0000
# 3 73.7245 67.3492 169.6220 0.0000 24.4148 0.0000
# 4 0.0000 0.0000 0.0000 24.9236 0.0000 5.3614
# 5 13.5647 13.1224 24.4148 0.0000 25.1331 0.0000
# 6 0.0000 0.0000 0.0000 5.3614 0.0000 17.4181
#
#
#
# Elastic Compliance Matrix: (Units=1/GPa)
#
#
# Indices 1 2 3 4 5 6 
#
# 1 0.024733 -0.009418 -0.006739 0.000000 -0.001885 0.000000
# 2 -0.009418 0.046687 -0.013563 0.000000 -0.006117 0.000000
# 3 -0.006739 -0.013563 0.014726 0.000000 -0.003586 0.000000
# 4 0.000000 0.000000 0.000000 0.042968 0.000000 -0.013226
# 5 -0.001885 -0.006117 -0.003586 0.000000 0.047483 0.000000
# 6 0.000000 0.000000 0.000000 -0.013226 0.000000 0.061483
#
#
# Mechanical properties :
#
#
# Convention : Reuss Voigt Hill
#
# Bulk Modulus (GPa) = 37.44572 72.84992 55.14782
# Shear Modulus (GPa) = 16.31726 21.27503 18.79614
#
# Velocity S-wave (km/s) = 3.24578 3.70621 3.48361
# Velocity P-wave (km/s) = 6.18250 8.08391 7.19628
#
# Compressibility (1/GPa) = 0.02670532
#
# Stress axis : x y z
#
# Youngs Moduli (GPa) = 40.43120 21.41910 67.90584
#
# Poissons Ratio (x) = 0.20173 0.45764
# Poissons Ratio (y) = 0.38078 0.92104
# Poissons Ratio (z) = 0.27248 0.29052
#
# Static dielectric constant tensor:
#      x y z
#    x 1.493350 0.000000 -0.000110 
#    y 0.000000 1.519760 0.000000 
#    z -0.000110 0.000000 1.508780 
# 
# From -- ./inp_files/287355.got.cif
#   From: 2010.05.17/outbox.cif.g08.bks.cpg/sg12_144_cif.got.tgz:287355.got - 2010.06.03 13:09:07.
