data_PCOD9223705
_publ_section_title
;
Structure prediction by ZEFSAII (Michael W. Deem and Ramdas Pophale) SiO2 
 PCOD9223705
Probable space group: C 2/M
;
_chemical_formula_sum "Si O2"
_cell_formula_units_Z 28
_cell_length_a 27.000000
_cell_length_b 9.000000
_cell_length_c 18.000000
_cell_angle_alpha 90.000000
_cell_angle_beta 40.000000
_cell_angle_gamma 90.000000
_cell_volume 2811.553005
_symmetry_space_group_name_H-M "C 2/M"
_symmetry_group_IT_number 12
_symmetry_cell_setting 'monoclinic'
loop_
_space_group_symop_operation_xyz
x,y,z
-x,y,-z
-x,-y,-z
x,-y,z
1/2+x,1/2+y,z
1/2-x,1/2+y,-z
1/2-x,1/2-y,-z
1/2+x,1/2-y,z
loop_
_atom_site_type_symbol
_atom_site_label
_atom_site_fract_x
_atom_site_fract_y
_atom_site_fract_z
Si Si1 0.555750 0.679416 0.263463
Si Si2 0.883922 0.179377 0.420254
Si Si3 0.128773 0.825723 0.728367
Si Si4 0.187310 0.180786 0.219886
Si Si5 0.349208 0.175723 0.977120
Si Si6 0.249023 0.822345 0.308916
Si Si7 0.518498 0.832729 0.065873
O O1 0.553512 0.500000 0.268845
O O2 0.467880 0.732796 0.351853
O O3 0.606054 0.729437 0.277638
O O4 0.604249 0.733077 0.136991
O O5 0.854824 0.234415 0.373374
O O6 0.818811 0.208215 0.554853
O O7 0.891120 0.000000 0.404189
O O8 0.174978 0.747166 0.741504
O O9 0.037902 0.792127 0.838315
O O10 0.144927 0.000000 0.714284
O O11 0.214904 0.231422 0.269500
O O12 0.184279 0.000000 0.226763
O O13 0.260361 0.221440 0.084837
O O14 0.395057 0.191554 0.003261
O O15 0.351457 0.000000 0.956571
O O16 0.262045 0.000000 0.287681
O O17 0.497023 0.000000 0.117524
O O18 0.500000 0.832626 0.000000
#
# Coordination Sequence:
#
# PCOD9223705 Si02
#       7
#     8   8   8   8   8   8   8
#     4  10  19  35  56  80 109 141 175 220 271 318
#     4   9  19  34  55  81 109 139 180 224 268 320
#     4  11  21  35  53  80 113 141 176 222 272 327
#     4   9  19  34  56  81 106 138 181 225 265 311
#     4  10  19  33  52  79 108 138 179 219 260 320
#     4  10  20  37  57  78 106 144 184 226 267 314
#     4  10  20  34  54  78 108 146 183 219 261 315
#
# _framework density 9.9589090000000002
#
# number of rings (size 3 to 8) (size 9 to 14) (size 15 to 20)
#    0.000    2.143    1.429    2.143    0.000    3.143 
#    0.000    7.143    0.000    0.000    0.000    2.000 
#    0.000    0.000    0.000    0.000    0.000    0.000 
#
# Total GULP energy -156061.953685 kJ/mol
# GULP energy per Si atom -5573.641203 kJ/mol
# Density = 0.993624 g / cm^3
# Si number density = 9.958909 Si / 1000 Ang^3
#
#
#
# Elastic Constant Matrix: (Units=GPa)
#
#
# Indices 1 2 3 4 5 6 
#
# 1 112.9081 15.5286 13.1536 0.0028 -0.9978 -0.0016
# 2 15.5286 8.8417 5.7682 -0.0029 -0.0194 0.0030
# 3 13.1536 5.7682 22.1992 0.0004 -0.1737 0.0008
# 4 0.0028 -0.0029 0.0004 19.5812 0.0023 -2.4061
# 5 -0.9978 -0.0194 -0.1737 0.0023 27.7603 -0.0020
# 6 -0.0016 0.0030 0.0008 -2.4061 -0.0020 19.8445
#
#
#
# Elastic Compliance Matrix: (Units=1/GPa)
#
#
# Indices 1 2 3 4 5 6 
#
# 1 0.011750 -0.019380 -0.001923 -0.000004 0.000397 0.000003
# 2 -0.019380 0.168152 -0.032215 0.000026 -0.000780 -0.000022
# 3 -0.001923 -0.032215 0.054559 -0.000005 0.000250 0.000002
# 4 -0.000004 0.000026 -0.000005 0.051842 -0.000004 0.006286
# 5 0.000397 -0.000780 0.000250 -0.000004 0.036038 0.000003
# 6 0.000003 -0.000022 0.000002 0.006286 0.000003 0.051154
#
#
# Mechanical properties :
#
#
# Convention : Reuss Voigt Hill
#
# Bulk Modulus (GPa) = 7.84782 23.64998 15.74890
# Shear Modulus (GPa) = 9.56013 20.73712 15.14862
#
# Velocity S-wave (km/s) = 2.19322 3.23016 2.76081
# Velocity P-wave (km/s) = 3.21905 5.08050 4.25287
#
# Compressibility (1/GPa) = 0.12742387
#
# Stress axis : x y z
#
# Youngs Moduli (GPa) = 85.10823 5.94700 18.32887
#
# Poissons Ratio (x) = 0.11525 0.03525
# Poissons Ratio (y) = 1.64942 0.59046
# Poissons Ratio (z) = 0.16368 0.19158
#
# Static dielectric constant tensor:
#      x y z
#    x 1.721270 0.000000 0.030420 
#    y 0.000000 1.679710 0.000000 
#    z 0.030420 0.000000 1.743580 
# 
# From -- ./inp_files/288150.got.cif
#   From: 2010.05.17/outbox.ucp.g08.bks.cvg/sg12_145_cif.got.tgz:288150.got - 2010.06.11 11:47:21.
