data_PCOD9223740
_publ_section_title
;
Structure prediction by ZEFSAII (Michael W. Deem and Ramdas Pophale) SiO2 
 PCOD9223740
Probable space group: C 2/M
;
_chemical_formula_sum "Si O2"
_cell_formula_units_Z 28
_cell_length_a 15.000000
_cell_length_b 18.000000
_cell_length_c 18.000000
_cell_angle_alpha 90.000000
_cell_angle_beta 140.000000
_cell_angle_gamma 90.000000
_cell_volume 3123.947783
_symmetry_space_group_name_H-M "C 2/M"
_symmetry_group_IT_number 12
_symmetry_cell_setting 'monoclinic'
loop_
_space_group_symop_operation_xyz
x,y,z
-x,y,-z
-x,-y,-z
x,-y,z
1/2+x,1/2+y,z
1/2-x,1/2+y,-z
1/2-x,1/2-y,-z
1/2+x,1/2-y,z
loop_
_atom_site_type_symbol
_atom_site_label
_atom_site_fract_x
_atom_site_fract_y
_atom_site_fract_z
Si Si1 0.362007 0.412463 0.062010
Si Si2 0.405512 0.329052 0.865908
Si Si3 0.336851 0.830009 0.183210
Si Si4 0.906144 0.587605 0.709161
Si Si5 0.407653 0.842784 0.866438
Si Si6 0.872120 0.845515 0.228506
Si Si7 0.582334 0.410703 0.475802
O O1 0.342553 0.500000 0.034204
O O2 0.517500 0.385390 0.139321
O O3 0.346997 0.394057 0.139031
O O4 0.255930 0.363123 0.944221
O O5 0.252235 0.345993 0.798854
O O6 0.413869 0.243636 0.844951
O O7 0.500000 0.330788 0.000000
O O8 0.485212 0.868707 0.272430
O O9 0.357554 0.740905 0.194554
O O10 0.922465 0.500000 0.708719
O O11 0.943255 0.607901 0.818300
O O12 0.745124 0.606959 0.590960
O O13 0.252400 0.859797 0.793494
O O14 0.500000 0.851103 0.000000
O O15 0.011016 0.867342 0.361774
O O16 0.500000 0.394151 0.500000
O O17 0.569687 0.500000 0.454959
#
# Coordination Sequence:
#
# PCOD9223740 Si02
#       7
#     8   8   8   8   8   8   8
#     4  11  21  34  57  86 116 150 186 225 273 332
#     4   8  18  35  53  76 109 150 184 220 268 324
#     4  10  21  36  55  83 116 145 185 230 280 329
#     4  11  22  35  55  80 112 148 182 233 284 328
#     4  10  19  33  54  81 113 145 179 225 284 337
#     4  11  21  36  59  82 112 151 187 228 274 331
#     4  10  21  39  58  80 111 147 189 230 275 333
#
# _framework density 8.9630179999999999
#
# number of rings (size 3 to 8) (size 9 to 14) (size 15 to 20)
#    0.000    1.857    1.429    3.857    0.000    4.571 
#    0.000    0.000    0.000    0.000    0.000    3.000 
#    0.000    0.000    0.000    0.000    0.000    0.000 
#
# Total GULP energy -156239.116332 kJ/mol
# GULP energy per Si atom -5579.968440 kJ/mol
# Density = 0.894262 g / cm^3
# Si number density = 8.963018 Si / 1000 Ang^3
#
#
#
# Elastic Constant Matrix: (Units=GPa)
#
#
# Indices 1 2 3 4 5 6 
#
# 1 55.8700 24.6102 15.7525 0.0000 23.3052 0.0000
# 2 24.6102 52.6915 26.6248 0.0000 0.8144 0.0000
# 3 15.7525 26.6248 81.8130 0.0001 9.8325 0.0000
# 4 0.0000 0.0000 0.0001 24.7419 0.0000 7.0748
# 5 23.3052 0.8144 9.8325 0.0000 32.1334 0.0000
# 6 0.0000 0.0000 0.0000 7.0748 0.0000 16.5038
#
#
#
# Elastic Compliance Matrix: (Units=1/GPa)
#
#
# Indices 1 2 3 4 5 6 
#
# 1 0.035923 -0.017316 0.001866 0.000000 -0.026186 0.000000
# 2 -0.017316 0.031156 -0.008533 0.000000 0.014380 0.000000
# 3 0.001866 -0.008533 0.015342 0.000000 -0.005831 0.000000
# 4 0.000000 0.000000 0.000000 0.046064 0.000000 -0.019746
# 5 -0.026186 0.014380 -0.005831 0.000000 0.051532 0.000000
# 6 0.000000 0.000000 0.000000 -0.019746 0.000000 0.069057
#
#
# Mechanical properties :
#
#
# Convention : Reuss Voigt Hill
#
# Bulk Modulus (GPa) = 29.02529 36.03881 32.53205
# Shear Modulus (GPa) = 16.20612 22.90161 19.55386
#
# Velocity S-wave (km/s) = 3.01001 3.57818 3.30632
# Velocity P-wave (km/s) = 5.32044 6.10073 5.72390
#
# Compressibility (1/GPa) = 0.03445272
#
# Stress axis : x y z
#
# Youngs Moduli (GPa) = 27.83706 32.09674 65.18209
#
# Poissons Ratio (x) = 0.55580 -0.12161
# Poissons Ratio (y) = 0.48204 0.55622
# Poissons Ratio (z) = -0.05194 0.27389
#
# Static dielectric constant tensor:
#      x y z
#    x 1.640640 0.000000 0.029340 
#    y 0.000000 1.612690 0.000000 
#    z 0.029340 0.000000 1.603220 
# 
# From -- ./inp_files/143754.got.cif
#   From: 2010.05.17/outbox.ucp.g08.bks.cvg/sg12_72_cif.got.tgz:143754.got - 2010.06.11 11:47:21.
