data_PCOD9223189
_publ_section_title
;
Structure prediction by ZEFSAII (Michael W. Deem and Ramdas Pophale) SiO2 
 PCOD9223189
Probable space group: C 2/M
;
_chemical_formula_sum "Si O2"
_cell_formula_units_Z 28
_cell_length_a 15.000000
_cell_length_b 24.000000
_cell_length_c 9.000000
_cell_angle_alpha 90.000000
_cell_angle_beta 70.000000
_cell_angle_gamma 90.000000
_cell_volume 3044.604091
_symmetry_space_group_name_H-M "C 2/M"
_symmetry_group_IT_number 12
_symmetry_cell_setting 'monoclinic'
loop_
_space_group_symop_operation_xyz
x,y,z
-x,y,-z
-x,-y,-z
x,-y,z
1/2+x,1/2+y,z
1/2-x,1/2+y,-z
1/2-x,1/2-y,-z
1/2+x,1/2-y,z
loop_
_atom_site_type_symbol
_atom_site_label
_atom_site_fract_x
_atom_site_fract_y
_atom_site_fract_z
Si Si1 0.528322 0.434490 0.308814
Si Si2 0.891211 0.784696 0.499859
Si Si3 0.889260 0.666287 0.589027
Si Si4 0.216962 0.433141 0.489093
Si Si5 0.220429 0.878260 0.249888
Si Si6 0.741920 0.814768 0.061403
Si Si7 0.879630 0.864070 0.234115
O O1 0.500000 0.421352 0.500000
O O2 0.508277 0.500000 0.298238
O O3 0.638774 0.420254 0.242114
O O4 0.478634 0.396405 0.210219
O O5 0.852476 0.721506 0.523072
O O6 0.830854 0.825777 0.639553
O O7 0.886735 0.811191 0.339786
O O8 0.000000 0.785518 0.500000
O O9 0.859614 0.605907 0.547237
O O10 0.847089 0.677204 0.776774
O O11 0.000000 0.669033 0.500000
O O12 0.208219 0.500000 0.484952
O O13 0.222874 0.411518 0.655621
O O14 0.310215 0.410046 0.350224
O O15 0.270324 0.852652 0.077702
O O16 0.831472 0.839892 0.109847
O O17 0.750000 0.750000 0.000000
#
# Coordination Sequence:
#
# PCOD9223189 Si02
#       7
#     8   8   8   8   8   8   8
#     4  11  19  34  59  90 127 166 201 232 277 366
#     4  10  17  34  59  89 117 151 196 238 281 359
#     4  10  23  41  64  86 112 153 206 256 303 359
#     4  10  21  38  62  87 112 157 212 250 291 355
#     4  11  20  35  57  88 128 158 194 238 304 353
#     4  11  24  38  57  90 128 155 194 253 314 355
#     4  10  20  34  60  89 123 163 200 236 288 362
#
# _framework density 9.1965979999999998
#
# number of rings (size 3 to 8) (size 9 to 14) (size 15 to 20)
#    0.000    1.571    5.714    0.857    2.000    2.571 
#    0.000    8.571    0.000    0.857    0.000    0.000 
#    0.000    0.000    0.000    0.000    0.000    0.000 
#
# Total GULP energy -155964.115870 kJ/mol
# GULP energy per Si atom -5570.146995 kJ/mol
# Density = 0.917567 g / cm^3
# Si number density = 9.196598 Si / 1000 Ang^3
#
#
#
# Elastic Constant Matrix: (Units=GPa)
#
#
# Indices 1 2 3 4 5 6 
#
# 1 48.9956 23.5693 35.0258 0.0000 1.2083 0.0000
# 2 23.5693 154.9453 56.4193 0.0000 9.0804 0.0000
# 3 35.0258 56.4193 92.1248 0.0000 8.1995 0.0000
# 4 0.0000 0.0000 0.0000 24.5126 0.0000 7.2494
# 5 1.2083 9.0804 8.1995 0.0000 27.0959 0.0000
# 6 0.0000 0.0000 0.0000 7.2494 0.0000 22.5368
#
#
#
# Elastic Compliance Matrix: (Units=1/GPa)
#
#
# Indices 1 2 3 4 5 6 
#
# 1 0.028175 -0.000568 -0.010554 0.000000 0.002128 0.000000
# 2 -0.000568 0.008361 -0.004786 0.000000 -0.001328 0.000000
# 3 -0.010554 -0.004786 0.018102 0.000000 -0.003403 0.000000
# 4 0.000000 0.000000 0.000000 0.045084 0.000000 -0.014502
# 5 0.002128 -0.001328 -0.003403 0.000000 0.038286 0.000000
# 6 0.000000 0.000000 0.000000 -0.014502 0.000000 0.049037
#
#
# Mechanical properties :
#
#
# Convention : Reuss Voigt Hill
#
# Bulk Modulus (GPa) = 43.81745 58.45496 51.13620
# Shear Modulus (GPa) = 22.07816 26.89916 24.48866
#
# Velocity S-wave (km/s) = 3.46836 3.82835 3.65279
# Velocity P-wave (km/s) = 6.31773 7.16878 6.75667
#
# Compressibility (1/GPa) = 0.02282196
#
# Stress axis : x y z
#
# Youngs Moduli (GPa) = 35.49193 119.60430 55.24348
#
# Poissons Ratio (x) = 0.06788 0.58304
# Poissons Ratio (y) = 0.02014 0.26442
# Poissons Ratio (z) = 0.37458 0.57247
#
# Static dielectric constant tensor:
#      x y z
#    x 1.766290 0.000000 -0.042700 
#    y 0.000000 1.639620 0.000000 
#    z -0.042700 0.000000 1.677170 
# 
# From -- ./inp_files/65296.got.cif
#   From: 2010.05.17/outbox.ucp.g08.bks.cvg/sg12_33_cif.got.tgz:65296.got - 2010.06.11 11:47:21.
