data_PCOD9223338
_publ_section_title
;
Structure prediction by ZEFSAII (Michael W. Deem and Ramdas Pophale) SiO2 
 PCOD9223338
Probable space group: C 2/M
;
_chemical_formula_sum "Si O2"
_cell_formula_units_Z 24
_cell_length_a 21.000000
_cell_length_b 18.000000
_cell_length_c 18.000000
_cell_angle_alpha 90.000000
_cell_angle_beta 20.000000
_cell_angle_gamma 90.000000
_cell_volume 2327.105055
_symmetry_space_group_name_H-M "C 2/M"
_symmetry_group_IT_number 12
_symmetry_cell_setting 'monoclinic'
loop_
_space_group_symop_operation_xyz
x,y,z
-x,y,-z
-x,-y,-z
x,-y,z
1/2+x,1/2+y,z
1/2-x,1/2+y,-z
1/2-x,1/2-y,-z
1/2+x,1/2-y,z
loop_
_atom_site_type_symbol
_atom_site_label
_atom_site_fract_x
_atom_site_fract_y
_atom_site_fract_z
Si Si1 0.290157 0.841261 0.708787
Si Si2 0.456314 0.837780 0.234183
Si Si3 0.463376 0.693695 0.328401
Si Si4 0.587256 0.915237 0.567884
Si Si5 0.651337 0.586264 0.002524
Si Si6 0.166259 0.818868 0.265044
O O1 0.500000 0.867108 0.500000
O O2 0.291949 0.861055 0.618847
O O3 0.150348 0.882071 0.919097
O O4 0.283752 0.755280 0.742046
O O5 0.501693 0.768122 0.238871
O O6 0.257771 0.817265 0.414887
O O7 0.407869 0.900099 0.349172
O O8 0.631149 0.851156 0.986174
O O9 0.567042 0.696675 0.294072
O O10 0.536784 0.630347 0.191002
O O11 0.368185 0.906764 0.788897
O O12 0.642373 0.000000 0.490426
O O13 0.598879 0.500000 0.059683
O O14 0.000000 0.855197 0.500000
#
# Coordination Sequence:
#
# PCOD9223338 Si02
#       6
#     8   8   8   8   8   8
#     4   9  17  31  57  88 122 161 197 237 297 361
#     4  11  22  37  60  87 121 161 205 253 298 359
#     4  11  22  37  58  89 119 160 210 250 300 360
#     4  10  20  36  61  92 127 165 201 242 303 372
#     4  10  18  32  57  85 120 160 199 243 297 364
#     4  11  21  37  63  86 118 159 200 258 305 349
#
# _framework density 10.313243
#
# number of rings (size 3 to 8) (size 9 to 14) (size 15 to 20)
#    0.000    1.667    3.333    4.000    0.000    3.333 
#    0.000    0.833    0.000    4.000    0.000    2.333 
#    0.000    0.000    0.000    0.000    0.000    0.000 
#
# Total GULP energy -133866.390336 kJ/mol
# GULP energy per Si atom -5577.766264 kJ/mol
# Density = 1.028977 g / cm^3
# Si number density = 10.313243 Si / 1000 Ang^3
#
#
#
# Elastic Constant Matrix: (Units=GPa)
#
#
# Indices 1 2 3 4 5 6 
#
# 1 51.7899 13.0255 43.0888 -0.0058 22.2294 0.0027
# 2 13.0255 52.3154 13.3008 -0.0141 17.3836 0.0062
# 3 43.0888 13.3008 116.3216 -0.0200 20.8067 0.0118
# 4 -0.0058 -0.0141 -0.0200 25.0102 0.0163 14.2751
# 5 22.2294 17.3836 20.8067 0.0163 44.9270 -0.0069
# 6 0.0027 0.0062 0.0118 14.2751 -0.0069 23.9539
#
#
#
# Elastic Compliance Matrix: (Units=1/GPa)
#
#
# Indices 1 2 3 4 5 6 
#
# 1 0.032748 -0.002030 -0.009966 0.000010 -0.010802 -0.000007
# 2 -0.002030 0.022186 -0.000468 0.000031 -0.007363 -0.000026
# 3 -0.009966 -0.000468 0.012460 0.000016 -0.000658 -0.000015
# 4 0.000010 0.000031 0.000016 0.060595 -0.000052 -0.036111
# 5 -0.010802 -0.007363 -0.000658 -0.000052 0.030757 0.000043
# 6 -0.000007 -0.000026 -0.000015 -0.036111 0.000043 0.063267
#
#
# Mechanical properties :
#
#
# Convention : Reuss Voigt Hill
#
# Bulk Modulus (GPa) = 23.54883 39.91746 31.73314
# Shear Modulus (GPa) = 19.15005 28.84568 23.99786
#
# Velocity S-wave (km/s) = 3.05030 3.74368 3.41464
# Velocity P-wave (km/s) = 4.88338 6.17101 5.56457
#
# Compressibility (1/GPa) = 0.04246496
#
# Stress axis : x y z
#
# Youngs Moduli (GPa) = 30.53634 45.07359 80.25741
#
# Poissons Ratio (x) = 0.09151 0.79988
# Poissons Ratio (y) = 0.06200 0.03753
# Poissons Ratio (z) = 0.30434 0.02108
#
# Static dielectric constant tensor:
#      x y z
#    x 1.770290 0.000000 -0.034540 
#    y 0.000000 1.763680 0.000010 
#    z -0.034540 0.000010 1.773210 
# 
# From -- ./inp_files/285351.got.cif
#   From: 2010.05.17/outbox.ucp.g08.bks.cvg/sg12_143_cif.got.tgz:285351.got - 2010.06.11 11:47:21.
