data_PCOD9223378
_publ_section_title
;
Structure prediction by ZEFSAII (Michael W. Deem and Ramdas Pophale) SiO2 
 PCOD9223378
Probable space group: C 2/M
;
_chemical_formula_sum "Si O2"
_cell_formula_units_Z 30
_cell_length_a 12.000000
_cell_length_b 30.000000
_cell_length_c 12.000000
_cell_angle_alpha 90.000000
_cell_angle_beta 50.000000
_cell_angle_gamma 90.000000
_cell_volume 3309.311994
_symmetry_space_group_name_H-M "C 2/M"
_symmetry_group_IT_number 12
_symmetry_cell_setting 'monoclinic'
loop_
_space_group_symop_operation_xyz
x,y,z
-x,y,-z
-x,-y,-z
x,-y,z
1/2+x,1/2+y,z
1/2-x,1/2+y,-z
1/2-x,1/2-y,-z
1/2+x,1/2-y,z
loop_
_atom_site_type_symbol
_atom_site_label
_atom_site_fract_x
_atom_site_fract_y
_atom_site_fract_z
Si Si1 0.173324 0.948560 0.646231
Si Si2 0.291664 0.311130 0.981550
Si Si3 0.456061 0.176615 0.151700
Si Si4 0.091499 0.908760 0.055695
Si Si5 0.881363 0.379800 0.403829
Si Si6 0.645065 0.949553 0.239925
Si Si7 0.262034 0.750052 0.793742
Si Si8 0.500000 0.806330 0.500000
O O1 0.243472 0.910486 0.523413
O O2 0.274771 0.947994 0.691967
O O3 0.013645 0.933832 0.790453
O O4 0.173934 0.000000 0.604470
O O5 0.358594 0.360096 0.936105
O O6 0.328432 0.282970 0.846760
O O7 0.326778 0.285488 0.073442
O O8 0.114903 0.313228 0.100210
O O9 0.378104 0.142123 0.283727
O O10 0.351645 0.219426 0.201700
O O11 0.500000 0.159617 0.000000
O O12 0.233742 0.936768 0.929437
O O13 0.000000 0.903267 0.000000
O O14 0.914112 0.339533 0.470193
O O15 0.018573 0.413300 0.320604
O O16 0.590653 0.000000 0.258534
O O17 0.382996 0.775473 0.641901
#
# Coordination Sequence:
#
# PCOD9223378 Si02
#       8
#     8   8   8   8   8   8   8   4
#     4  10  21  35  54  90 126 151 186 238 305 358
#     4  10  20  41  58  82 116 158 201 236 285 348
#     4  10  22  41  61  84 112 159 204 246 283 342
#     4  10  20  33  57  88 122 155 193 239 292 356
#     4  12  21  37  59  87 121 155 190 242 295 356
#     4  10  18  33  58  86 118 156 192 235 294 358
#     4  10  23  37  57  84 117 156 197 247 286 335
#     4  12  22  38  57  88 122 150 199 238 296 354
#
# _framework density 9.0653279999999992
#
# number of rings (size 3 to 8) (size 9 to 14) (size 15 to 20)
#    0.000    1.600    4.000    0.800    1.867    6.933 
#    0.000    0.000    0.000    1.600    0.000    3.733 
#    0.000    0.000    0.000    0.000    0.000    0.000 
#
# Total GULP energy -167449.681391 kJ/mol
# GULP energy per Si atom -5581.656046 kJ/mol
# Density = 0.904470 g / cm^3
# Si number density = 9.065328 Si / 1000 Ang^3
#
#
#
# Elastic Constant Matrix: (Units=GPa)
#
#
# Indices 1 2 3 4 5 6 
#
# 1 31.6780 28.2679 25.2312 0.0000 -4.3660 0.0000
# 2 28.2679 137.2115 69.2589 0.0000 3.7895 0.0000
# 3 25.2312 69.2589 131.7859 0.0000 -2.4706 0.0000
# 4 0.0000 0.0000 0.0000 34.1966 0.0000 -3.6149
# 5 -4.3660 3.7895 -2.4706 0.0000 22.1790 0.0000
# 6 0.0000 0.0000 0.0000 -3.6149 0.0000 28.9764
#
#
#
# Elastic Compliance Matrix: (Units=1/GPa)
#
#
# Indices 1 2 3 4 5 6 
#
# 1 0.042329 -0.006756 -0.004385 0.000000 0.008998 0.000000
# 2 -0.006756 0.011114 -0.004618 0.000000 -0.003743 0.000000
# 3 -0.004385 -0.004618 0.010876 0.000000 0.001137 0.000000
# 4 0.000000 0.000000 0.000000 0.029633 0.000000 0.003697
# 5 0.008998 -0.003743 0.001137 0.000000 0.047625 0.000000
# 6 0.000000 0.000000 0.000000 0.003697 0.000000 0.034972
#
#
# Mechanical properties :
#
#
# Convention : Reuss Voigt Hill
#
# Bulk Modulus (GPa) = 30.48606 60.68796 45.58701
# Shear Modulus (GPa) = 22.83110 28.93156 25.88133
#
# Velocity S-wave (km/s) = 3.55245 3.99899 3.78231
# Velocity P-wave (km/s) = 5.80324 7.40728 6.65377
#
# Compressibility (1/GPa) = 0.03280188
#
# Stress axis : x y z
#
# Youngs Moduli (GPa) = 23.62461 89.97703 91.94825
#
# Poissons Ratio (x) = 0.60784 0.40320
# Poissons Ratio (y) = 0.15960 0.42458
# Poissons Ratio (z) = 0.10360 0.41548
#
# Static dielectric constant tensor:
#      x y z
#    x 1.644620 0.000000 0.008560 
#    y 0.000000 1.629970 0.000000 
#    z 0.008560 0.000000 1.633700 
# 
# From -- ./inp_files/137606.got.cif
#   From: 2010.05.17/outbox.ucp.g08.bks.cvg/sg12_69_cif.got.tgz:137606.got - 2010.06.11 11:47:21.
