data_PCOD9223963
_publ_section_title
;
Structure prediction by ZEFSAII (Michael W. Deem and Ramdas Pophale) SiO2 
 PCOD9223963
Probable space group: C 2/M
;
_chemical_formula_sum "Si O2"
_cell_formula_units_Z 24
_cell_length_a 18.000000
_cell_length_b 9.000000
_cell_length_c 21.000000
_cell_angle_alpha 90.000000
_cell_angle_beta 50.000000
_cell_angle_gamma 90.000000
_cell_volume 2606.083195
_symmetry_space_group_name_H-M "C 2/M"
_symmetry_group_IT_number 12
_symmetry_cell_setting 'monoclinic'
loop_
_space_group_symop_operation_xyz
x,y,z
-x,y,-z
-x,-y,-z
x,-y,z
1/2+x,1/2+y,z
1/2-x,1/2+y,-z
1/2-x,1/2-y,-z
1/2+x,1/2-y,z
loop_
_atom_site_type_symbol
_atom_site_label
_atom_site_fract_x
_atom_site_fract_y
_atom_site_fract_z
Si Si1 0.166625 0.326092 0.587784
Si Si2 0.676329 0.164445 0.732782
Si Si3 0.460349 0.324206 0.720694
Si Si4 0.106515 0.321095 0.968932
Si Si5 0.446131 0.169977 0.861590
Si Si6 0.232526 0.327301 0.208906
O O1 0.157641 0.500000 0.575898
O O2 0.250000 0.250000 0.500000
O O3 0.191749 0.319178 0.649150
O O4 0.061529 0.248036 0.642395
O O5 0.561589 0.164401 0.810477
O O6 0.721695 0.295600 0.747682
O O7 0.712872 0.000000 0.732650
O O8 0.466281 0.500000 0.711882
O O9 0.437480 0.276647 0.806301
O O10 0.369515 0.256063 0.734476
O O11 0.115560 0.500000 0.957434
O O12 0.192501 0.243458 0.883153
O O13 0.106159 0.285641 0.044405
O O14 0.000000 0.280296 0.000000
O O15 0.417197 0.000000 0.860547
O O16 0.219870 0.500000 0.202728
#
# Coordination Sequence:
#
# PCOD9223963 Si02
#       6
#     8   8   8   8   8   8
#     4  10  21  40  66  92 117 145 182 227 277 340
#     4   9  18  36  59  83 113 151 187 225 280 340
#     4  11  23  39  59  82 115 153 190 233 287 340
#     4  10  19  35  57  80 111 153 196 236 283 337
#     4   9  18  35  58  81 110 149 194 239 282 334
#     4  12  24  36  54  83 118 152 192 241 285 329
#
# _framework density 9.2092220000000005
#
# number of rings (size 3 to 8) (size 9 to 14) (size 15 to 20)
#    0.000    1.833    1.667    4.500    0.000    5.000 
#    0.000    0.833    0.000    5.000    0.000    0.000 
#    0.000    0.000    0.000    0.000    0.000    0.000 
#
# Total GULP energy -133954.528964 kJ/mol
# GULP energy per Si atom -5581.438707 kJ/mol
# Density = 0.918826 g / cm^3
# Si number density = 9.209222 Si / 1000 Ang^3
#
#
#
# Elastic Constant Matrix: (Units=GPa)
#
#
# Indices 1 2 3 4 5 6 
#
# 1 37.4802 21.9428 10.9320 0.0000 -4.3946 0.0000
# 2 21.9428 100.9628 42.1569 0.0000 -6.1936 0.0000
# 3 10.9320 42.1569 107.8980 0.0000 -7.0285 0.0000
# 4 0.0000 0.0000 0.0000 27.0915 0.0000 -2.1459
# 5 -4.3946 -6.1936 -7.0285 0.0000 11.8492 0.0000
# 6 0.0000 0.0000 0.0000 -2.1459 0.0000 26.5961
#
#
#
# Elastic Compliance Matrix: (Units=1/GPa)
#
#
# Indices 1 2 3 4 5 6 
#
# 1 0.031351 -0.006220 -0.000208 0.000000 0.008252 0.000000
# 2 -0.006220 0.013218 -0.004404 0.000000 0.001989 0.000000
# 3 -0.000208 -0.004404 0.011291 0.000000 0.004318 0.000000
# 4 0.000000 0.000000 0.000000 0.037149 0.000000 0.002997
# 5 0.008252 0.001989 0.004318 0.000000 0.091055 0.000000
# 6 0.000000 0.000000 0.000000 0.002997 0.000000 0.037841
#
#
# Mechanical properties :
#
#
# Convention : Reuss Voigt Hill
#
# Bulk Modulus (GPa) = 29.24557 44.04493 36.64525
# Shear Modulus (GPa) = 19.61013 24.52799 22.06906
#
# Velocity S-wave (km/s) = 3.26652 3.65322 3.46526
# Velocity P-wave (km/s) = 5.48997 6.46220 5.99582
#
# Compressibility (1/GPa) = 0.03419321
#
# Stress axis : x y z
#
# Youngs Moduli (GPa) = 31.89701 75.65635 88.56391
#
# Poissons Ratio (x) = 0.47061 0.01846
# Poissons Ratio (y) = 0.19841 0.39008
# Poissons Ratio (z) = 0.00665 0.33323
#
# Static dielectric constant tensor:
#      x y z
#    x 1.690850 0.000000 0.025540 
#    y 0.000000 1.626540 0.000000 
#    z 0.025540 0.000000 1.592270 
# 
# From -- ./inp_files/313630.got.cif
#   From: 2010.05.17/outbox.ucp.g08.bks.cvg/sg12_157_cif.got.tgz:313630.got - 2010.06.11 11:47:21.
