data_PCOD9223584
_publ_section_title
;
Structure prediction by ZEFSAII (Michael W. Deem and Ramdas Pophale) SiO2 
 PCOD9223584
Probable space group: C 2/M
;
_chemical_formula_sum "Si O2"
_cell_formula_units_Z 32
_cell_length_a 27.000000
_cell_length_b 9.000000
_cell_length_c 15.000000
_cell_angle_alpha 90.000000
_cell_angle_beta 100.000000
_cell_angle_gamma 90.000000
_cell_volume 3589.624260
_symmetry_space_group_name_H-M "C 2/M"
_symmetry_group_IT_number 12
_symmetry_cell_setting 'monoclinic'
loop_
_space_group_symop_operation_xyz
x,y,z
-x,y,-z
-x,-y,-z
x,-y,z
1/2+x,1/2+y,z
1/2-x,1/2+y,-z
1/2-x,1/2-y,-z
1/2+x,1/2-y,z
loop_
_atom_site_type_symbol
_atom_site_label
_atom_site_fract_x
_atom_site_fract_y
_atom_site_fract_z
Si Si1 0.474886 0.169861 0.287509
Si Si2 0.559075 0.169422 0.035863
Si Si3 0.058117 0.169366 0.552380
Si Si4 0.909883 0.673549 0.609358
Si Si5 0.586343 0.326955 0.869351
Si Si6 0.186933 0.323864 0.896611
Si Si7 0.711759 0.178348 0.110013
Si Si8 0.625174 0.820304 0.217249
O O1 0.442607 0.227266 0.361286
O O2 0.532762 0.176889 0.335729
O O3 0.461818 0.271730 0.200078
O O4 0.463400 0.000000 0.260545
O O5 0.576440 0.210697 0.140441
O O6 0.578626 0.000000 0.025539
O O7 0.500000 0.166162 0.000000
O O8 0.580949 0.279409 0.969953
O O9 0.090515 0.234094 0.481414
O O10 0.000000 0.168703 0.500000
O O11 0.071526 0.000000 0.578873
O O12 0.898081 0.500000 0.587641
O O13 0.878101 0.734689 0.682837
O O14 0.593283 0.500000 0.862480
O O15 0.634612 0.241087 0.847448
O O16 0.187833 0.500000 0.889436
O O17 0.234307 0.252370 0.862744
O O18 0.193041 0.284912 0.004008
O O19 0.672127 0.227664 0.172087
O O20 0.716035 0.000000 0.115610
O O21 0.626837 0.000000 0.225867
#
# Coordination Sequence:
#
# PCOD9223584 Si02
#       8
#     8   8   8   8   8   8   8   8
#     4  10  19  32  50  71  96 129 170 206 238 284
#     4  10  19  33  50  67  94 134 173 202 233 279
#     4   9  17  30  47  69  98 128 158 200 250 287
#     4   9  17  30  50  73  96 128 167 201 235 283
#     4  12  23  33  47  70 100 130 163 202 249 294
#     4  10  19  33  51  69  92 123 164 205 247 293
#     4   9  17  31  50  70  94 122 159 206 252 287
#     4   9  16  29  48  71  96 126 163 201 238 282
#
# _framework density 8.9145819999999993
#
# number of rings (size 3 to 8) (size 9 to 14) (size 15 to 20)
#    0.000    2.250    1.250    3.000    0.000    4.750 
#    0.000    1.250    0.000    0.000    0.000    0.875 
#    0.000    0.000    0.000    0.000    0.000    0.000 
#
# Total GULP energy -178399.089018 kJ/mol
# GULP energy per Si atom -5574.971532 kJ/mol
# Density = 0.889429 g / cm^3
# Si number density = 8.914582 Si / 1000 Ang^3
#
#
#
# Elastic Constant Matrix: (Units=GPa)
#
#
# Indices 1 2 3 4 5 6 
#
# 1 61.0968 18.1260 5.4042 0.0000 -18.7905 0.0000
# 2 18.1260 3.8998 -2.4954 0.0000 -6.5420 0.0000
# 3 5.4042 -2.4954 33.4312 0.0000 -25.7846 0.0000
# 4 0.0000 0.0000 0.0000 6.3606 0.0000 -7.6636
# 5 -18.7905 -6.5420 -25.7846 0.0000 28.0471 0.0000
# 6 0.0000 0.0000 0.0000 -7.6636 0.0000 16.5405
#
#
#
# Elastic Compliance Matrix: (Units=1/GPa)
#
#
# Indices 1 2 3 4 5 6 
#
# 1 0.027591 0.018269 0.049655 0.000000 0.068396 0.000000
# 2 0.018269 -0.185101 -0.139646 0.000000 -0.159316 0.000000
# 3 0.049655 -0.139646 0.041238 0.000000 0.038606 0.000000
# 4 0.000000 0.000000 0.000000 0.355897 0.000000 0.164897
# 5 0.068396 -0.159316 0.038606 0.000000 0.079808 0.000000
# 6 0.000000 0.000000 0.000000 0.164897 0.000000 0.136859
#
#
# Mechanical properties :
#
#
# Convention : Reuss Voigt Hill
#
# Bulk Modulus (GPa) = -3.85038 15.61082 5.88022
# Shear Modulus (GPa) = 9.74347 15.34915 12.54631
#
# Velocity S-wave (km/s) = 2.34025 2.93729 2.65560
# Velocity P-wave (km/s) = 2.26673 4.50315 3.56486
#
# Compressibility (1/GPa) = -0.25971472
#
# Stress axis : x y z
#
# Youngs Moduli (GPa) = 36.24414 -5.40247 24.24954
#
# Poissons Ratio (x) = 0.09870 -1.20412
# Poissons Ratio (y) = -0.66214 3.38634
# Poissons Ratio (z) = -1.79971 -0.75443
#
# Static dielectric constant tensor:
#      x y z
#    x 1.648660 0.000000 -0.011900 
#    y 0.000000 1.595280 0.000000 
#    z -0.011900 0.000000 1.615810 
# 
# From -- ./inp_files/244032.got.cif
#   From: 2010.05.17/outbox.ucp.g08.bks.cvg/sg12_123_cif.got.tgz:244032.got - 2010.06.11 11:47:21.
