data_PCOD9223371
_publ_section_title
;
Structure prediction by ZEFSAII (Michael W. Deem and Ramdas Pophale) SiO2 
 PCOD9223371
Probable space group: C 2/M
;
_chemical_formula_sum "Si O2"
_cell_formula_units_Z 28
_cell_length_a 27.000000
_cell_length_b 9.000000
_cell_length_c 18.000000
_cell_angle_alpha 90.000000
_cell_angle_beta 40.000000
_cell_angle_gamma 90.000000
_cell_volume 2811.553005
_symmetry_space_group_name_H-M "C 2/M"
_symmetry_group_IT_number 12
_symmetry_cell_setting 'monoclinic'
loop_
_space_group_symop_operation_xyz
x,y,z
-x,y,-z
-x,-y,-z
x,-y,z
1/2+x,1/2+y,z
1/2-x,1/2+y,-z
1/2-x,1/2-y,-z
1/2+x,1/2-y,z
loop_
_atom_site_type_symbol
_atom_site_label
_atom_site_fract_x
_atom_site_fract_y
_atom_site_fract_z
Si Si1 0.962096 0.177757 0.222429
Si Si2 0.553636 0.326274 0.600518
Si Si3 0.603493 0.829037 0.252995
Si Si4 0.864728 0.175522 0.927105
Si Si5 0.642632 0.337210 0.351824
Si Si6 0.087610 0.166768 0.873322
Si Si7 0.816008 0.336082 0.116841
O O1 0.917345 0.202362 0.350128
O O2 0.919667 0.239085 0.199469
O O3 0.050194 0.224012 0.139118
O O4 0.967344 0.000000 0.201882
O O5 0.525908 0.500000 0.632437
O O6 0.483994 0.217668 0.662990
O O7 0.613599 0.308623 0.466946
O O8 0.648992 0.736798 0.138734
O O9 0.618179 0.781474 0.319780
O O10 0.617995 0.000000 0.224154
O O11 0.864065 0.000000 0.926054
O O12 0.807737 0.237756 0.053320
O O13 0.611382 0.500000 0.363475
O O14 0.733340 0.345202 0.248285
O O15 0.129103 0.262228 0.886892
O O16 0.122070 0.000000 0.831386
O O17 0.000000 0.152221 0.000000
O O18 0.842940 0.500000 0.064040
#
# Coordination Sequence:
#
# PCOD9223371 Si02
#       7
#     8   8   8   8   8   8   8
#     4   8  15  30  55  82 102 131 180 228 262 313
#     4   9  18  36  60  80 104 146 192 225 262 322
#     4  11  22  35  56  86 112 136 177 233 282 319
#     4  10  19  36  58  80 108 145 183 219 269 334
#     4  10  22  39  55  74 108 153 191 221 266 331
#     4  10  18  33  56  81 108 141 182 223 272 335
#     4  11  23  36  52  80 114 144 181 231 279 318
#
# _framework density 9.9589090000000002
#
# number of rings (size 3 to 8) (size 9 to 14) (size 15 to 20)
#    0.000    2.143    1.429    3.429    0.000    4.286 
#    0.000    1.429    0.000    0.000    0.000    0.000 
#    0.000    0.000    0.000    0.000    0.000    0.000 
#
# Total GULP energy -155984.641804 kJ/mol
# GULP energy per Si atom -5570.880064 kJ/mol
# Density = 0.993624 g / cm^3
# Si number density = 9.958909 Si / 1000 Ang^3
#
#
#
# Elastic Constant Matrix: (Units=GPa)
#
#
# Indices 1 2 3 4 5 6 
#
# 1 89.0020 35.8235 7.3641 0.0054 12.3527 -0.0060
# 2 35.8235 68.4195 39.4856 0.0096 16.8143 0.0046
# 3 7.3641 39.4856 106.5371 -0.0041 39.3299 0.0217
# 4 0.0054 0.0096 -0.0041 21.0087 -0.0077 -26.4058
# 5 12.3527 16.8143 39.3299 -0.0077 25.4937 0.0023
# 6 -0.0060 0.0046 0.0217 -26.4058 0.0023 -19.3902
#
#
#
# Elastic Compliance Matrix: (Units=1/GPa)
#
#
# Indices 1 2 3 4 5 6 
#
# 1 0.016165 -0.009436 0.006908 -0.000002 -0.012266 0.000001
# 2 -0.009436 0.024260 -0.009571 -0.000004 0.003337 0.000004
# 3 0.006908 -0.009571 0.026393 0.000007 -0.037752 0.000011
# 4 -0.000002 -0.000004 0.000007 0.017554 -0.000001 -0.023905
# 5 -0.012266 0.003337 -0.037752 -0.000001 0.101208 -0.000025
# 6 0.000001 0.000004 0.000011 -0.023905 -0.000025 -0.019019
#
#
# Mechanical properties :
#
#
# Convention : Reuss Voigt Hill
#
# Bulk Modulus (GPa) = 23.46334 47.70056 35.58195
# Shear Modulus (GPa) = 24.39454 17.50815 20.95134
#
# Velocity S-wave (km/s) = 3.50345 2.96804 3.24680
# Velocity P-wave (km/s) = 5.30766 5.97883 5.65321
#
# Compressibility (1/GPa) = 0.04261968
#
# Stress axis : x y z
#
# Youngs Moduli (GPa) = 61.86396 41.22084 37.88909
#
# Poissons Ratio (x) = 0.38895 -0.26174
# Poissons Ratio (y) = 0.58373 0.36264
# Poissons Ratio (z) = -0.42737 0.39453
#
# Static dielectric constant tensor:
#      x y z
#    x 1.654330 0.000000 -0.021690 
#    y 0.000000 1.754680 0.000010 
#    z -0.021690 0.000010 1.730150 
# 
# From -- ./inp_files/292369.got.cif
#   From: 2010.05.17/outbox.ucp.g08.bks.cvg/sg12_147_cif.got.tgz:292369.got - 2010.06.11 11:47:21.
