data_PCOD9223126
_publ_section_title
;
Structure prediction by ZEFSAII (Michael W. Deem and Ramdas Pophale) SiO2 
 PCOD9223126
Probable space group: C 2/M
;
_chemical_formula_sum "Si O2"
_cell_formula_units_Z 56
_cell_length_a 22.591900
_cell_length_b 14.213914
_cell_length_c 22.964502
_cell_angle_alpha 90.000000
_cell_angle_beta 158.046887
_cell_angle_gamma 90.000000
_cell_volume 2756.882221
_symmetry_space_group_name_H-M "C 2/M"
_symmetry_group_IT_number 12
_symmetry_cell_setting 'monoclinic'
loop_
_space_group_symop_operation_xyz
x,y,z
-x,y,-z
-x,-y,-z
x,-y,z
1/2+x,1/2+y,z
1/2-x,1/2+y,-z
1/2-x,1/2-y,-z
1/2+x,1/2-y,z
loop_
_atom_site_type_symbol
_atom_site_label
_atom_site_fract_x
_atom_site_fract_y
_atom_site_fract_z
Si Si1 0.887445 0.280211 0.454662
Si Si2 0.867957 0.395602 0.256263
Si Si3 0.744859 0.282304 0.910701
Si Si4 0.740122 0.392180 0.477195
Si Si5 0.981375 0.262908 0.761672
Si Si6 0.982837 0.106079 0.611325
Si Si7 0.152561 0.106281 0.172984
O O1 0.722734 0.323618 0.283941
O O2 0.000000 0.279567 0.500000
O O3 0.966031 0.348146 0.575023
O O4 0.893870 0.176734 0.486935
O O5 0.880677 0.500000 0.242943
O O6 0.769487 0.323134 0.127647
O O7 0.781157 0.403050 0.239150
O O8 0.622529 0.284350 0.853135
O O9 0.656630 0.350471 0.784292
O O10 0.923061 0.300246 0.095007
O O11 0.757380 0.500000 0.472383
O O12 0.899788 0.344925 0.648734
O O13 0.653495 0.317117 0.355663
O O14 0.622402 0.394928 0.425935
O O15 0.996293 0.000000 0.602061
O O16 0.120267 0.000000 0.166237
O O17 0.000000 0.142284 0.000000
#
# Coordination Sequence:
#
# PCOD9223126 Si02
#       7
#     8   8   8   8   8   8   8
#     4   9  17  30  48  67  89 119 149 182 225 268
#     4   9  17  29  45  67  93 117 144 180 225 275
#     4   9  18  31  48  69  92 119 151 193 231 262
#     4   9  18  32  48  66  92 124 152 184 227 272
#     4   9  18  32  48  68  92 119 156 190 224 272
#     4   9  18  32  48  67  91 120 155 190 225 265
#     4   9  17  29  46  68  92 118 147 179 221 274
#
# _framework density 20.312801
#
# number of rings (size 3 to 8) (size 9 to 14) (size 15 to 20)
#    0.000    3.000    0.000    0.429    0.000    4.857 
#    0.000    2.857    0.000    4.714    0.000    0.000 
#    0.000    0.000    0.000    0.000    0.000    0.000 
#
# Total GULP energy -156083.339475 kJ/mol
# GULP energy per Si atom -5574.404981 kJ/mol
# Density = 2.026657 g / cm^3
# Si number density = 20.312801 Si / 1000 Ang^3
#
#
#
# Elastic Constant Matrix: (Units=GPa)
#
#
# Indices 1 2 3 4 5 6 
#
# 1 31.9297 3.4322 7.9004 -0.0002 -5.2142 0.0003
# 2 3.4322 116.2686 84.4312 0.0022 -14.6735 0.0013
# 3 7.9004 84.4312 160.5899 0.0036 -26.2443 0.0020
# 4 -0.0002 0.0022 0.0036 22.4401 0.0005 -11.8893
# 5 -5.2142 -14.6735 -26.2443 0.0005 23.5363 0.0002
# 6 0.0003 0.0013 0.0020 -11.8893 0.0002 35.2265
#
#
#
# Elastic Compliance Matrix: (Units=1/GPa)
#
#
# Indices 1 2 3 4 5 6 
#
# 1 0.032541 0.000408 -0.000728 0.000000 0.006651 0.000000
# 2 0.000408 0.013925 -0.007224 0.000000 0.000716 0.000000
# 3 -0.000728 -0.007224 0.011371 -0.000002 0.008014 -0.000001
# 4 0.000000 0.000000 -0.000002 0.054267 -0.000004 0.018316
# 5 0.006651 0.000716 0.008014 -0.000004 0.053344 -0.000002
# 6 0.000000 0.000000 -0.000001 0.018316 -0.000002 0.034569
#
#
# Mechanical properties :
#
#
# Convention : Reuss Voigt Hill
#
# Bulk Modulus (GPa) = 23.39315 55.59066 39.49191
# Shear Modulus (GPa) = 21.80013 30.44219 26.12116
#
# Velocity S-wave (km/s) = 3.27956 3.87547 3.58990
# Velocity P-wave (km/s) = 5.08745 6.88857 6.05535
#
# Compressibility (1/GPa) = 0.04274756
#
# Stress axis : x y z
#
# Youngs Moduli (GPa) = 30.73010 71.81221 87.94521
#
# Poissons Ratio (x) = -0.02927 0.06405
# Poissons Ratio (y) = -0.01253 0.63534
# Poissons Ratio (z) = 0.02238 0.51879
#
# Static dielectric constant tensor:
#      x y z
#    x 1.787230 0.000000 0.026500 
#    y 0.000000 1.714320 0.000000 
#    z 0.026500 0.000000 1.752460 
# 
# From -- ./inp_files/349795.got.cif
#   From: 2010.05.17/outbox.cif.g08.bks.cpg/sg12_175_cif.got.tgz:349795.got - 2010.06.03 13:09:07.
