data_PCOD9223061
_publ_section_title
;
Structure prediction by ZEFSAII (Michael W. Deem and Ramdas Pophale) SiO2 
 PCOD9223061
Probable space group: C 2/M
;
_chemical_formula_sum "Si O2"
_cell_formula_units_Z 48
_cell_length_a 20.053308
_cell_length_b 7.471434
_cell_length_c 17.162702
_cell_angle_alpha 90.000000
_cell_angle_beta 112.109305
_cell_angle_gamma 90.000000
_cell_volume 2382.351550
_symmetry_space_group_name_H-M "C 2/M"
_symmetry_group_IT_number 12
_symmetry_cell_setting 'monoclinic'
loop_
_space_group_symop_operation_xyz
x,y,z
-x,y,-z
-x,-y,-z
x,-y,z
1/2+x,1/2+y,z
1/2-x,1/2+y,-z
1/2-x,1/2-y,-z
1/2+x,1/2-y,z
loop_
_atom_site_type_symbol
_atom_site_label
_atom_site_fract_x
_atom_site_fract_y
_atom_site_fract_z
Si Si1 0.169644 0.780536 0.719706
Si Si2 0.171139 0.711666 0.235465
Si Si3 0.952749 0.214822 0.220405
Si Si4 0.524359 0.786847 0.094212
Si Si5 0.416543 0.281724 0.471743
Si Si6 0.101828 0.215625 0.363812
O O1 0.251718 0.716962 0.756590
O O2 0.119598 0.722544 0.769504
O O3 0.130279 0.724879 0.622538
O O4 0.170777 0.000000 0.720088
O O5 0.172156 0.500000 0.220374
O O6 0.158493 0.732934 0.322465
O O7 0.100219 0.786000 0.161017
O O8 0.965738 0.260136 0.136293
O O9 0.023549 0.278893 0.298562
O O10 0.953242 0.000000 0.226680
O O11 0.533682 0.000000 0.089608
O O12 0.500000 0.714676 0.000000
O O13 0.500000 0.227494 0.500000
O O14 0.416493 0.500000 0.471007
O O15 0.387151 0.223142 0.542986
O O16 0.099711 0.000000 0.364411
#
# Coordination Sequence:
#
# PCOD9223061 Si02
#       6
#     8   8   8   8   8   8
#     4   9  16  27  44  67  92 118 147 181 219 256
#     4   9  18  31  46  64  90 119 146 180 223 265
#     4   9  16  28  48  70  89 111 145 186 221 253
#     4   9  18  33  50  65  85 117 150 176 214 274
#     4   9  14  23  42  67  91 116 150 183 211 251
#     4   9  16  27  45  67  89 117 152 184 212 251
#
# _framework density 20.148159
#
# number of rings (size 3 to 8) (size 9 to 14) (size 15 to 20)
#    0.000    3.000    1.667    0.000    0.000    1.000 
#    0.000    1.667    0.000    1.500    0.000    0.000 
#    0.000    0.000    0.000    0.000    0.000    0.000 
#
# Total GULP energy -133870.845733 kJ/mol
# GULP energy per Si atom -5577.951906 kJ/mol
# Density = 2.010230 g / cm^3
# Si number density = 20.148159 Si / 1000 Ang^3
#
#
#
# Elastic Constant Matrix: (Units=GPa)
#
#
# Indices 1 2 3 4 5 6 
#
# 1 177.0193 3.1081 89.5275 0.0000 -16.0588 0.0000
# 2 3.1081 56.7929 1.8781 0.0000 3.3252 0.0000
# 3 89.5275 1.8781 151.3129 0.0000 -25.6612 0.0000
# 4 0.0000 0.0000 0.0000 17.4796 0.0000 -11.2152
# 5 -16.0588 3.3252 -25.6612 0.0000 20.0973 0.0000
# 6 0.0000 0.0000 0.0000 -11.2152 0.0000 9.1708
#
#
#
# Elastic Compliance Matrix: (Units=1/GPa)
#
#
# Indices 1 2 3 4 5 6 
#
# 1 0.008070 -0.000317 -0.004682 0.000000 0.000522 0.000000
# 2 -0.000317 0.017893 -0.000740 0.000000 -0.004158 0.000000
# 3 -0.004682 -0.000740 0.011200 0.000000 0.010681 0.000000
# 4 0.000000 0.000000 0.000000 0.265665 0.000000 0.324890
# 5 0.000522 -0.004158 0.010681 0.000000 0.064502 0.000000
# 6 0.000000 0.000000 0.000000 0.324890 0.000000 0.506359
#
#
# Mechanical properties :
#
#
# Convention : Reuss Voigt Hill
#
# Bulk Modulus (GPa) = 38.93375 63.79474 51.36424
# Shear Modulus (GPa) = 5.59454 28.72361 17.15907
#
# Velocity S-wave (km/s) = 1.66815 3.77983 2.92146
# Velocity P-wave (km/s) = 4.80375 7.12608 6.07688
#
# Compressibility (1/GPa) = 0.02568466
#
# Stress axis : x y z
#
# Youngs Moduli (GPa) = 123.91315 55.88734 89.28652
#
# Poissons Ratio (x) = 0.01774 0.41807
# Poissons Ratio (y) = 0.03933 0.06603
# Poissons Ratio (z) = 0.58021 0.04133
#
# Static dielectric constant tensor:
#      x y z
#    x 1.704470 0.000000 0.001190 
#    y 0.000000 1.769160 0.000000 
#    z 0.001190 0.000000 1.695380 
# 
# From -- ./inp_files/212765.got.cif
#   From: 2010.05.17/outbox.cif.g08.bks.cpg/sg12_107_cif.got.tgz:212765.got - 2010.06.03 13:09:07.
