data_PCOD9223406
_publ_section_title
;
Structure prediction by ZEFSAII (Michael W. Deem and Ramdas Pophale) SiO2 
 PCOD9223406
Probable space group: C 2/M
;
_chemical_formula_sum "Si O2"
_cell_formula_units_Z 28
_cell_length_a 30.000000
_cell_length_b 9.000000
_cell_length_c 12.000000
_cell_angle_alpha 90.000000
_cell_angle_beta 70.000000
_cell_angle_gamma 90.000000
_cell_volume 3044.604091
_symmetry_space_group_name_H-M "C 2/M"
_symmetry_group_IT_number 12
_symmetry_cell_setting 'monoclinic'
loop_
_space_group_symop_operation_xyz
x,y,z
-x,y,-z
-x,-y,-z
x,-y,z
1/2+x,1/2+y,z
1/2-x,1/2+y,-z
1/2-x,1/2-y,-z
1/2+x,1/2-y,z
loop_
_atom_site_type_symbol
_atom_site_label
_atom_site_fract_x
_atom_site_fract_y
_atom_site_fract_z
Si Si1 0.740536 0.177534 0.186557
Si Si2 0.707235 0.819461 0.466395
Si Si3 0.578930 0.678425 0.184178
Si Si4 0.512055 0.820547 0.858876
Si Si5 0.555707 0.176864 0.435529
Si Si6 0.102650 0.678222 0.634744
Si Si7 0.323833 0.822333 0.977754
O O1 0.717320 0.220046 0.326414
O O2 0.703740 0.204238 0.116241
O O3 0.749633 0.000000 0.182774
O O4 0.789297 0.258367 0.104905
O O5 0.750000 0.750000 0.500000
O O6 0.657278 0.770148 0.567534
O O7 0.707863 0.000000 0.469848
O O8 0.580069 0.500000 0.177931
O O9 0.530071 0.742143 0.173784
O O10 0.578007 0.734386 0.313424
O O11 0.624723 0.746000 0.080538
O O12 0.564176 0.773641 0.763623
O O13 0.509024 0.000000 0.845106
O O14 0.500000 0.791698 0.000000
O O15 0.500000 0.208075 0.500000
O O16 0.579146 0.208034 0.534589
O O17 0.561115 0.000000 0.407377
O O18 0.105912 0.500000 0.646871
O O19 0.329367 0.000000 0.987672
#
# Coordination Sequence:
#
# PCOD9223406 Si02
#       7
#     8   8   8   8   8   8   8
#     4   9  19  37  58  83 114 146 187 247 305 342
#     4  10  21  37  57  81 114 153 195 237 286 341
#     4  12  24  36  54  85 125 155 185 231 290 352
#     4  10  21  39  61  83 110 150 202 244 279 336
#     4  10  18  34  62  86 110 146 194 242 288 342
#     4   9  18  36  60  85 112 147 189 242 291 334
#     4  10  20  36  61  86 112 148 192 235 287 354
#
# _framework density 9.1965979999999998
#
# number of rings (size 3 to 8) (size 9 to 14) (size 15 to 20)
#    0.000    2.000    1.429    2.571    0.000    5.143 
#    0.000    4.286    0.000    0.000    0.000    0.000 
#    0.000    0.000    0.000    0.000    0.000    0.000 
#
# Total GULP energy -156159.047114 kJ/mol
# GULP energy per Si atom -5577.108826 kJ/mol
# Density = 0.917567 g / cm^3
# Si number density = 9.196598 Si / 1000 Ang^3
#
#
#
# Elastic Constant Matrix: (Units=GPa)
#
#
# Indices 1 2 3 4 5 6 
#
# 1 120.4506 27.6086 56.4779 0.0000 -40.1402 0.0000
# 2 27.6086 49.2525 35.7595 0.0000 -13.9952 0.0000
# 3 56.4779 35.7595 152.4515 0.0000 -38.3884 0.0000
# 4 0.0000 0.0000 0.0000 31.1264 0.0000 -6.7263
# 5 -40.1402 -13.9952 -38.3884 0.0000 32.6173 0.0000
# 6 0.0000 0.0000 0.0000 -6.7263 0.0000 27.2987
#
#
#
# Elastic Compliance Matrix: (Units=1/GPa)
#
#
# Indices 1 2 3 4 5 6 
#
# 1 0.014632 -0.003209 -0.000683 0.000000 0.015826 0.000000
# 2 -0.003209 0.025843 -0.004370 0.000000 0.001995 0.000000
# 3 -0.000683 -0.004370 0.010167 0.000000 0.009250 0.000000
# 4 0.000000 0.000000 0.000000 0.033934 0.000000 0.008361
# 5 0.015826 0.001995 0.009250 0.000000 0.061878 0.000000
# 6 0.000000 0.000000 0.000000 0.008361 0.000000 0.038692
#
#
# Mechanical properties :
#
#
# Convention : Reuss Voigt Hill
#
# Bulk Modulus (GPa) = 29.31127 62.42738 45.86933
# Shear Modulus (GPa) = 23.46956 31.69572 27.58264
#
# Velocity S-wave (km/s) = 3.57598 4.15569 3.87668
# Velocity P-wave (km/s) = 5.74636 7.55251 6.71048
#
# Compressibility (1/GPa) = 0.03411657
#
# Stress axis : x y z
#
# Youngs Moduli (GPa) = 68.34361 38.69590 98.35944
#
# Poissons Ratio (x) = 0.12419 0.06715
# Poissons Ratio (y) = 0.21933 0.42987
# Poissons Ratio (z) = 0.04666 0.16912
#
# Static dielectric constant tensor:
#      x y z
#    x 1.653510 0.000000 -0.000730 
#    y 0.000000 1.617420 0.000000 
#    z -0.000730 0.000000 1.639460 
# 
# From -- ./inp_files/186362.got.cif
#   From: 2010.05.17/outbox.ucp.g08.bks.cvg/sg12_94_cif.got.tgz:186362.got - 2010.06.11 11:47:21.
