data_PCOD9223553
_publ_section_title
;
Structure prediction by ZEFSAII (Michael W. Deem and Ramdas Pophale) SiO2 
 PCOD9223553
Probable space group: C 2/M
;
_chemical_formula_sum "Si O2"
_cell_formula_units_Z 28
_cell_length_a 15.000000
_cell_length_b 27.000000
_cell_length_c 15.000000
_cell_angle_alpha 90.000000
_cell_angle_beta 30.000000
_cell_angle_gamma 90.000000
_cell_volume 3037.500000
_symmetry_space_group_name_H-M "C 2/M"
_symmetry_group_IT_number 12
_symmetry_cell_setting 'monoclinic'
loop_
_space_group_symop_operation_xyz
x,y,z
-x,y,-z
-x,-y,-z
x,-y,z
1/2+x,1/2+y,z
1/2-x,1/2+y,-z
1/2-x,1/2-y,-z
1/2+x,1/2-y,z
loop_
_atom_site_type_symbol
_atom_site_label
_atom_site_fract_x
_atom_site_fract_y
_atom_site_fract_z
Si Si1 0.812713 0.624446 0.906579
Si Si2 0.839651 0.346125 0.072698
Si Si3 0.400652 0.369853 0.331710
Si Si4 0.364164 0.057815 0.340567
Si Si5 0.703026 0.442438 0.288378
Si Si6 0.550715 0.821394 0.558160
Si Si7 0.509461 0.707789 0.387556
O O1 0.890915 0.654446 0.755030
O O2 0.938179 0.575453 0.800860
O O3 0.889174 0.651970 0.927383
O O4 0.596275 0.621603 0.113811
O O5 0.740644 0.398371 0.185488
O O6 0.717948 0.298094 0.188577
O O7 0.000000 0.342223 0.000000
O O8 0.297581 0.416381 0.465106
O O9 0.427311 0.331771 0.390928
O O10 0.243834 0.345818 0.408039
O O11 0.329370 0.066754 0.264934
O O12 0.348341 0.000000 0.367974
O O13 0.500000 0.439383 0.500000
O O14 0.731311 0.500000 0.232906
O O15 0.500000 0.827749 0.500000
O O16 0.560835 0.762610 0.567389
O O17 0.500000 0.693878 0.500000
#
# Coordination Sequence:
#
# PCOD9223553 Si02
#       7
#     8   8   8   8   8   8   8
#     4  10  22  38  59  84 117 155 198 245 291 343
#     4  11  20  32  52  83 120 158 194 236 277 341
#     4  10  21  38  62  87 118 157 195 243 293 353
#     4  10  20  35  56  85 124 161 194 236 286 349
#     4  10  19  31  50  78 120 167 202 230 273 341
#     4  10  23  43  60  86 113 151 201 253 306 346
#     4  10  21  37  58  85 118 158 196 237 291 350
#
# _framework density 9.2181069999999998
#
# number of rings (size 3 to 8) (size 9 to 14) (size 15 to 20)
#    0.000    1.857    1.429    3.429    2.000    4.286 
#    5.143    0.000    0.000    6.857    0.000    8.000 
#    0.000    0.000    0.000    0.000    0.000    0.000 
#
# Total GULP energy -155973.079665 kJ/mol
# GULP energy per Si atom -5570.467131 kJ/mol
# Density = 0.919713 g / cm^3
# Si number density = 9.218107 Si / 1000 Ang^3
#
#
#
# Elastic Constant Matrix: (Units=GPa)
#
#
# Indices 1 2 3 4 5 6 
#
# 1 66.3789 55.8057 40.1841 0.0022 -4.1450 -0.0571
# 2 55.8057 76.3276 47.1929 -0.0102 1.5476 -0.0348
# 3 40.1841 47.1929 96.7323 0.0132 -0.8335 -0.0539
# 4 0.0022 -0.0102 0.0132 13.6608 -0.0061 8.2588
# 5 -4.1450 1.5476 -0.8335 -0.0061 31.7213 0.0584
# 6 -0.0571 -0.0348 -0.0539 8.2588 0.0584 60.7141
#
#
#
# Elastic Compliance Matrix: (Units=1/GPa)
#
#
# Indices 1 2 3 4 5 6 
#
# 1 0.041204 -0.028228 -0.003287 -0.000032 0.006675 0.000018
# 2 -0.028228 0.038142 -0.006931 0.000044 -0.005732 -0.000011
# 3 -0.003287 -0.006931 0.015088 -0.000025 0.000305 0.000009
# 4 -0.000032 0.000044 -0.000025 0.079762 0.000028 -0.010850
# 5 0.006675 -0.005732 0.000305 0.000028 0.032684 -0.000032
# 6 0.000018 -0.000011 0.000009 -0.010850 -0.000032 0.017947
#
#
# Mechanical properties :
#
#
# Convention : Reuss Voigt Hill
#
# Bulk Modulus (GPa) = 57.01430 58.42269 57.71850
# Shear Modulus (GPa) = 16.25664 27.63631 21.94648
#
# Velocity S-wave (km/s) = 2.97270 3.87592 3.45396
# Velocity P-wave (km/s) = 6.54025 7.19641 6.87616
#
# Compressibility (1/GPa) = 0.01753946
#
# Stress axis : x y z
#
# Youngs Moduli (GPa) = 24.26949 26.21796 66.27940
#
# Poissons Ratio (x) = 0.74009 0.21789
# Poissons Ratio (y) = 0.68509 0.45939
# Poissons Ratio (z) = 0.07979 0.18172
#
# Static dielectric constant tensor:
#      x y z
#    x 2.702330 0.000140 1.535650 
#    y 0.000140 1.646130 0.000210 
#    z 1.535650 0.000210 3.974150 
# 
# From -- ./inp_files/219070.got.cif
#   From: 2010.05.17/outbox.ucp.g08.bks.cvg/sg12_110_cif.got.tgz:219070.got - 2010.06.11 11:47:21.
