data_PCOD9223950
_publ_section_title
;
Structure prediction by ZEFSAII (Michael W. Deem and Ramdas Pophale) SiO2 
 PCOD9223950
Probable space group: C 2/M
;
_chemical_formula_sum "Si O2"
_cell_formula_units_Z 28
_cell_length_a 30.000000
_cell_length_b 9.000000
_cell_length_c 12.000000
_cell_angle_alpha 90.000000
_cell_angle_beta 120.000000
_cell_angle_gamma 90.000000
_cell_volume 2805.922308
_symmetry_space_group_name_H-M "C 2/M"
_symmetry_group_IT_number 12
_symmetry_cell_setting 'monoclinic'
loop_
_space_group_symop_operation_xyz
x,y,z
-x,y,-z
-x,-y,-z
x,-y,z
1/2+x,1/2+y,z
1/2-x,1/2+y,-z
1/2-x,1/2-y,-z
1/2+x,1/2-y,z
loop_
_atom_site_type_symbol
_atom_site_label
_atom_site_fract_x
_atom_site_fract_y
_atom_site_fract_z
Si Si1 0.942058 0.671713 0.380181
Si Si2 0.097279 0.674571 0.294304
Si Si3 0.020345 0.322222 0.812491
Si Si4 0.902847 0.174913 0.938994
Si Si5 0.325734 0.172489 0.009399
Si Si6 0.132635 0.169182 0.542329
Si Si7 0.294311 0.332148 0.176227
O O1 0.923362 0.500000 0.359791
O O2 0.949189 0.722399 0.261320
O O3 0.908584 0.774211 0.418220
O O4 0.000000 0.668674 0.500000
O O5 0.099246 0.500000 0.275079
O O6 0.108327 0.761237 0.195966
O O7 0.133607 0.724269 0.438887
O O8 0.039908 0.711749 0.267291
O O9 0.025461 0.500000 0.827617
O O10 0.044679 0.245511 0.949317
O O11 0.860420 0.229771 0.973435
O O12 0.906386 0.000000 0.941229
O O13 0.266041 0.195911 0.904196
O O14 0.339581 0.000000 0.013903
O O15 0.326238 0.221259 0.138538
O O16 0.185925 0.172974 0.674501
O O17 0.120619 0.000000 0.494045
O O18 0.303280 0.500000 0.143826
#
# Coordination Sequence:
#
# PCOD9223950 Si02
#       7
#     8   8   8   8   8   8   8
#     4  10  19  35  55  80 113 151 191 229 270 327
#     4  11  23  41  60  80 111 153 198 236 276 338
#     4  10  21  38  60  83 111 151 196 237 279 334
#     4  12  25  39  57  84 116 148 190 240 289 337
#     4  10  20  38  63  88 115 150 191 232 281 339
#     4  11  22  36  56  86 120 151 185 232 291 339
#     4   9  20  38  61  90 120 148 183 234 288 339
#
# _framework density 9.9788940000000004
#
# number of rings (size 3 to 8) (size 9 to 14) (size 15 to 20)
#    0.000    1.571    1.429    3.857    0.000    7.714 
#    0.000    0.714    0.000    0.000    0.000    0.000 
#    0.000    0.000    0.000    0.000    0.000    0.000 
#
# Total GULP energy -156393.619651 kJ/mol
# GULP energy per Si atom -5585.486416 kJ/mol
# Density = 0.995618 g / cm^3
# Si number density = 9.978894 Si / 1000 Ang^3
#
#
#
# Elastic Constant Matrix: (Units=GPa)
#
#
# Indices 1 2 3 4 5 6 
#
# 1 6.0515 0.4113 28.1030 0.0000 -3.7656 0.0000
# 2 0.4113 -41.9527 10.3232 0.0000 0.7205 0.0000
# 3 28.1030 10.3232 82.0684 0.0000 -9.2138 0.0000
# 4 0.0000 0.0000 0.0000 34.2719 0.0000 -0.1198
# 5 -3.7656 0.7205 -9.2138 0.0000 21.8098 0.0000
# 6 0.0000 0.0000 0.0000 -0.1198 0.0000 29.6614
#
#
#
# Elastic Compliance Matrix: (Units=1/GPa)
#
#
# Indices 1 2 3 4 5 6 
#
# 1 -0.296473 0.020951 0.097696 0.000000 -0.010608 0.000000
# 2 0.020951 -0.024511 -0.003773 0.000000 0.002833 0.000000
# 3 0.097696 -0.003773 -0.019828 0.000000 0.008616 0.000000
# 4 0.000000 0.000000 0.000000 0.029179 0.000000 0.000118
# 5 -0.010608 0.002833 0.008616 0.000000 0.047566 0.000000
# 6 0.000000 0.000000 0.000000 0.000118 0.000000 0.033714
#
#
# Mechanical properties :
#
#
# Convention : Reuss Voigt Hill
#
# Bulk Modulus (GPa) = -9.00386 13.76025 2.37819
# Shear Modulus (GPa) = -10.05790 17.63728 3.78969
#
# Velocity S-wave (km/s) = -2.24734 2.97598 1.37948
# Velocity P-wave (km/s) = 3.35489 4.32646 1.93171
#
# Compressibility (1/GPa) = -0.11106351
#
# Stress axis : x y z
#
# Youngs Moduli (GPa) = -3.37299 -40.79842 -50.43500
#
# Poissons Ratio (x) = 0.85477 4.92730
# Poissons Ratio (y) = 0.07067 -0.19030
# Poissons Ratio (z) = 0.32953 -0.15394
#
# Static dielectric constant tensor:
#      x y z
#    x 1.676800 0.000000 0.033140 
#    y 0.000000 1.687810 0.000000 
#    z 0.033140 0.000000 1.718260 
# 
# From -- ./inp_files/187778.got.cif
#   From: 2010.05.17/outbox.ucp.g08.bks.cvg/sg12_94_cif.got.tgz:187778.got - 2010.06.11 11:47:21.
