data_PCOD9223489
_publ_section_title
;
Structure prediction by ZEFSAII (Michael W. Deem and Ramdas Pophale) SiO2 
 PCOD9223489
Probable space group: C 2/M
;
_chemical_formula_sum "Si O2"
_cell_formula_units_Z 24
_cell_length_a 9.000000
_cell_length_b 18.000000
_cell_length_c 21.000000
_cell_angle_alpha 90.000000
_cell_angle_beta 50.000000
_cell_angle_gamma 90.000000
_cell_volume 2606.083195
_symmetry_space_group_name_H-M "C 2/M"
_symmetry_group_IT_number 12
_symmetry_cell_setting 'monoclinic'
loop_
_space_group_symop_operation_xyz
x,y,z
-x,y,-z
-x,-y,-z
x,-y,z
1/2+x,1/2+y,z
1/2-x,1/2+y,-z
1/2-x,1/2-y,-z
1/2+x,1/2-y,z
loop_
_atom_site_type_symbol
_atom_site_label
_atom_site_fract_x
_atom_site_fract_y
_atom_site_fract_z
Si Si1 0.478968 0.691433 0.581395
Si Si2 0.290810 0.697949 0.163201
Si Si3 0.888640 0.309303 0.925970
Si Si4 0.400322 0.417028 0.956709
Si Si5 0.433677 0.173650 0.350684
Si Si6 0.834868 0.586763 0.496007
O O1 0.500000 0.704398 0.500000
O O2 0.558092 0.758965 0.601093
O O3 0.246982 0.678860 0.648696
O O4 0.624672 0.625143 0.559599
O O5 0.179402 0.688355 0.127777
O O6 0.394498 0.778401 0.131651
O O7 0.466386 0.639291 0.119347
O O8 0.136335 0.681169 0.259513
O O9 0.750000 0.250000 0.000000
O O10 0.817880 0.386224 0.976123
O O11 0.406831 0.500000 0.930325
O O12 0.500000 0.416176 0.000000
O O13 0.404847 0.103377 0.404642
O O14 0.813102 0.500000 0.512970
O O15 0.000000 0.614685 0.500000
#
# Coordination Sequence:
#
# PCOD9223489 Si02
#       6
#     8   8   8   8   8   8
#     4  10  20  34  53  75 102 136 177 214 253 311
#     4  10  19  30  50  77 101 129 164 212 260 298
#     4   9  17  31  50  72  98 131 169 203 246 303
#     4   8  15  29  48  69  95 128 165 201 241 295
#     4  11  20  32  52  78 105 133 171 222 267 304
#     4  10  21  37  55  74 101 139 176 210 257 317
#
# _framework density 9.2092220000000005
#
# number of rings (size 3 to 8) (size 9 to 14) (size 15 to 20)
#    0.000    2.333    0.000    6.000    0.000    3.667 
#    0.000    0.000    0.000   11.000    0.000    0.000 
#    0.000    0.000    0.000    0.000    0.000    0.000 
#
# Total GULP energy -133605.523741 kJ/mol
# GULP energy per Si atom -5566.896823 kJ/mol
# Density = 0.918826 g / cm^3
# Si number density = 9.209222 Si / 1000 Ang^3
#
#
#
# Elastic Constant Matrix: (Units=GPa)
#
#
# Indices 1 2 3 4 5 6 
#
# 1 89.9403 28.0245 26.2023 -0.0002 -21.5243 0.0001
# 2 28.0245 75.6084 29.6511 -0.0001 -12.6782 0.0001
# 3 26.2023 29.6511 66.8301 -0.0003 -25.2791 0.0002
# 4 -0.0002 -0.0001 -0.0003 3.5614 0.0002 -0.9935
# 5 -21.5243 -12.6782 -25.2791 0.0002 31.0849 -0.0001
# 6 0.0001 0.0001 0.0002 -0.9935 -0.0001 24.4026
#
#
#
# Elastic Compliance Matrix: (Units=1/GPa)
#
#
# Indices 1 2 3 4 5 6 
#
# 1 0.014390 -0.003602 -0.001199 0.000000 0.007520 0.000000
# 2 -0.003602 0.016939 -0.006403 0.000000 -0.000793 0.000000
# 3 -0.001199 -0.006403 0.024513 0.000001 0.016493 0.000000
# 4 0.000000 0.000000 0.000001 0.284018 -0.000001 0.011564
# 5 0.007520 -0.000793 0.016493 -0.000001 0.050466 0.000000
# 6 0.000000 0.000000 0.000000 0.011564 0.000000 0.041450
#
#
# Mechanical properties :
#
#
# Convention : Reuss Voigt Hill
#
# Bulk Modulus (GPa) = 29.91083 44.45940 37.18511
# Shear Modulus (GPa) = 10.74506 21.70983 16.22744
#
# Velocity S-wave (km/s) = 2.41796 3.43695 2.97146
# Velocity P-wave (km/s) = 4.90614 6.31989 5.65735
#
# Compressibility (1/GPa) = 0.03343271
#
# Stress axis : x y z
#
# Youngs Moduli (GPa) = 69.49306 59.03374 40.79479
#
# Poissons Ratio (x) = 0.21267 0.04892
# Poissons Ratio (y) = 0.25035 0.26121
# Poissons Ratio (z) = 0.08334 0.37800
#
# Static dielectric constant tensor:
#      x y z
#    x 1.641400 0.000000 -0.043890 
#    y 0.000000 1.711220 0.000000 
#    z -0.043890 0.000000 1.632100 
# 
# From -- ./inp_files/300613.got.cif
#   From: 2010.05.17/outbox.ucp.g08.bks.cvg/sg12_151_cif.got.tgz:300613.got - 2010.06.11 11:47:21.
