data_PCOD9223706
_publ_section_title
;
Structure prediction by ZEFSAII (Michael W. Deem and Ramdas Pophale) SiO2 
 PCOD9223706
Probable space group: C 2/M
;
_chemical_formula_sum "Si O2"
_cell_formula_units_Z 28
_cell_length_a 18.000000
_cell_length_b 21.000000
_cell_length_c 21.000000
_cell_angle_alpha 90.000000
_cell_angle_beta 20.000000
_cell_angle_gamma 90.000000
_cell_volume 2714.955898
_symmetry_space_group_name_H-M "C 2/M"
_symmetry_group_IT_number 12
_symmetry_cell_setting 'monoclinic'
loop_
_space_group_symop_operation_xyz
x,y,z
-x,y,-z
-x,-y,-z
x,-y,z
1/2+x,1/2+y,z
1/2-x,1/2+y,-z
1/2-x,1/2-y,-z
1/2+x,1/2-y,z
loop_
_atom_site_type_symbol
_atom_site_label
_atom_site_fract_x
_atom_site_fract_y
_atom_site_fract_z
Si Si1 0.119486 0.806924 0.072765
Si Si2 0.391422 0.073184 0.883863
Si Si3 0.249544 0.929657 0.508170
Si Si4 0.693880 0.208014 0.480452
Si Si5 0.676494 0.611132 0.223313
Si Si6 0.638019 0.072316 0.803582
Si Si7 0.776537 0.245942 0.141103
O O1 0.875834 0.784208 0.280884
O O2 0.250000 0.750000 0.000000
O O3 0.199532 0.875261 0.035264
O O4 0.178184 0.802986 0.951966
O O5 0.523804 0.069091 0.712336
O O6 0.580606 0.096705 0.779964
O O7 0.327282 0.000000 0.952594
O O8 0.274597 0.866122 0.528450
O O9 0.042242 0.917713 0.628564
O O10 0.219759 0.000000 0.561817
O O11 0.750000 0.250000 0.500000
O O12 0.456588 0.223994 0.644948
O O13 0.701994 0.610713 0.279393
O O14 0.720545 0.682342 0.163311
O O15 0.891076 0.572581 0.030069
O O16 0.718827 0.000000 0.734982
O O17 0.000000 0.250547 0.000000
#
# Coordination Sequence:
#
# PCOD9223706 Si02
#       7
#     8   8   8   8   8   8   8
#     4  12  23  40  69  91 127 172 220 272 324 375
#     4  10  22  38  60  92 126 165 214 267 322 382
#     4  11  21  37  62  93 126 165 213 268 320 381
#     4  12  23  42  65  94 127 171 221 270 323 382
#     4  11  20  34  54  83 126 168 209 250 315 382
#     4  10  19  33  52  82 124 170 210 249 310 386
#     4  12  25  43  63  94 133 171 217 271 324 382
#
# _framework density 10.313243
#
# number of rings (size 3 to 8) (size 9 to 14) (size 15 to 20)
#    0.000    0.857    5.714    3.429    0.000    2.857 
#    0.000    3.571    0.000    1.714    0.000    2.000 
#    0.000    0.000    0.000    0.000    0.000    0.000 
#
# Total GULP energy -156076.252416 kJ/mol
# GULP energy per Si atom -5574.151872 kJ/mol
# Density = 1.028977 g / cm^3
# Si number density = 10.313243 Si / 1000 Ang^3
#
#
#
# Elastic Constant Matrix: (Units=GPa)
#
#
# Indices 1 2 3 4 5 6 
#
# 1 13.4980 19.0061 7.5193 -0.0017 -9.7579 0.0125
# 2 19.0061 113.6184 19.3139 -0.0494 -15.7467 -0.0523
# 3 7.5193 19.3139 119.2258 -0.1389 -21.3848 -0.0660
# 4 -0.0017 -0.0494 -0.1389 17.9273 -0.0366 -0.3922
# 5 -9.7579 -15.7467 -21.3848 -0.0366 28.6637 -0.0188
# 6 0.0125 -0.0523 -0.0660 -0.3922 -0.0188 20.4896
#
#
#
# Elastic Compliance Matrix: (Units=1/GPa)
#
#
# Indices 1 2 3 4 5 6 
#
# 1 0.119092 -0.015544 0.000863 0.000040 0.032647 -0.000079
# 2 -0.015544 0.011606 -0.000814 0.000026 0.000477 0.000037
# 3 0.000863 -0.000814 0.009741 0.000089 0.007114 0.000037
# 4 0.000040 0.000026 0.000089 0.055805 0.000166 0.001069
# 5 0.032647 0.000477 0.007114 0.000166 0.051571 0.000055
# 6 -0.000079 0.000037 0.000037 0.001069 0.000055 0.048826
#
#
# Mechanical properties :
#
#
# Convention : Reuss Voigt Hill
#
# Bulk Modulus (GPa) = 9.13668 37.55785 23.34726
# Shear Modulus (GPa) = 13.73193 26.78298 20.25745
#
# Velocity S-wave (km/s) = 2.58300 3.60735 3.13726
# Velocity P-wave (km/s) = 3.65172 5.96646 4.94640
#
# Compressibility (1/GPa) = 0.10944894
#
# Stress axis : x y z
#
# Youngs Moduli (GPa) = 8.39686 86.16154 102.65840
#
# Poissons Ratio (x) = 1.33928 -0.08857
# Poissons Ratio (y) = 0.13052 0.08358
# Poissons Ratio (z) = -0.00724 0.07015
#
# Static dielectric constant tensor:
#      x y z
#    x 1.837330 -0.000220 0.107240 
#    y -0.000220 1.721560 -0.000150 
#    z 0.107240 -0.000150 1.828710 
# 
# From -- ./inp_files/317985.got.cif
#   From: 2010.05.17/outbox.ucp.g08.bks.cvg/sg12_159_cif.got.tgz:317985.got - 2010.06.11 11:47:21.
