data_PCOD9223567
_publ_section_title
;
Structure prediction by ZEFSAII (Michael W. Deem and Ramdas Pophale) SiO2 
 PCOD9223567
Probable space group: C 2/M
;
_chemical_formula_sum "Si O2"
_cell_formula_units_Z 32
_cell_length_a 24.000000
_cell_length_b 9.000000
_cell_length_c 21.000000
_cell_angle_alpha 90.000000
_cell_angle_beta 50.000000
_cell_angle_gamma 90.000000
_cell_volume 3474.777594
_symmetry_space_group_name_H-M "C 2/M"
_symmetry_group_IT_number 12
_symmetry_cell_setting 'monoclinic'
loop_
_space_group_symop_operation_xyz
x,y,z
-x,y,-z
-x,-y,-z
x,-y,z
1/2+x,1/2+y,z
1/2-x,1/2+y,-z
1/2-x,1/2-y,-z
1/2+x,1/2-y,z
loop_
_atom_site_type_symbol
_atom_site_label
_atom_site_fract_x
_atom_site_fract_y
_atom_site_fract_z
Si Si1 0.355333 0.325762 0.204105
Si Si2 0.636944 0.331080 0.197637
Si Si3 0.144672 0.824865 0.555141
Si Si4 0.731502 0.329854 0.858129
Si Si5 0.511127 0.173741 0.840723
Si Si6 0.489395 0.174460 0.306840
Si Si7 0.720293 0.823949 0.621893
Si Si8 0.134110 0.832201 0.052163
O O1 0.354535 0.500000 0.218003
O O2 0.325502 0.301142 0.155611
O O3 0.435702 0.263545 0.153634
O O4 0.306518 0.246329 0.293279
O O5 0.612619 0.500000 0.224678
O O6 0.704271 0.287211 0.191068
O O7 0.571885 0.218754 0.257823
O O8 0.658754 0.315213 0.107007
O O9 0.063954 0.764549 0.608988
O O10 0.195786 0.794806 0.457259
O O11 0.177950 0.742886 0.592348
O O12 0.146015 0.000000 0.566358
O O13 0.758360 0.500000 0.830964
O O14 0.694486 0.320399 0.954297
O O15 0.524900 0.217307 0.756749
O O16 0.428210 0.213502 0.914628
O O17 0.525066 0.000000 0.836307
O O18 0.477166 0.000000 0.321760
O O19 0.707397 0.000000 0.632855
O O20 0.102557 0.000000 0.070771
#
# Coordination Sequence:
#
# PCOD9223567 Si02
#       8
#     8   8   8   8   8   8   8   8
#     4  11  22  35  53  74 105 146 180 214 258 316
#     4  10  20  34  56  81 103 134 176 222 269 312
#     4  10  19  31  52  80 109 138 172 212 257 312
#     4  10  22  38  54  75 103 140 181 219 265 315
#     4  10  20  33  51  77 107 138 174 216 264 313
#     4  10  19  32  53  79 109 140 171 215 265 310
#     4  10  20  33  50  77 110 141 172 212 259 307
#     4   9  19  36  56  77 104 135 173 221 269 317
#
# _framework density 9.2092220000000005
#
# number of rings (size 3 to 8) (size 9 to 14) (size 15 to 20)
#    0.000    2.000    1.250    2.625    0.000    5.000 
#    0.000    2.500    0.000    0.750    0.000    5.250 
#    0.000    0.000    0.000    0.000    0.000    0.000 
#
# Total GULP energy -178440.799600 kJ/mol
# GULP energy per Si atom -5576.274988 kJ/mol
# Density = 0.918826 g / cm^3
# Si number density = 9.209222 Si / 1000 Ang^3
#
#
#
# Elastic Constant Matrix: (Units=GPa)
#
#
# Indices 1 2 3 4 5 6 
#
# 1 41.2283 31.7570 -1.2339 0.0005 -10.4885 -0.0004
# 2 31.7570 16.0847 6.0542 0.0010 -6.2720 -0.0009
# 3 -1.2339 6.0542 -0.2280 0.0007 -4.4906 -0.0008
# 4 0.0005 0.0010 0.0007 23.2191 -0.0002 -6.9288
# 5 -10.4885 -6.2720 -4.4906 -0.0002 -2.7986 0.0003
# 6 -0.0004 -0.0009 -0.0008 -6.9288 0.0003 23.4583
#
#
#
# Elastic Compliance Matrix: (Units=1/GPa)
#
#
# Indices 1 2 3 4 5 6 
#
# 1 0.010219 0.027718 -0.086871 0.000001 0.038972 -0.000002
# 2 0.027718 -0.065818 0.090086 -0.000001 -0.100926 0.000002
# 3 -0.086871 0.090086 0.129385 -0.000005 -0.083932 0.000006
# 4 0.000001 -0.000001 -0.000005 0.047231 0.000004 0.013950
# 5 0.038972 -0.100926 -0.083932 0.000004 -0.142517 -0.000003
# 6 -0.000002 0.000002 0.000006 0.013950 -0.000003 0.046749
#
#
# Mechanical properties :
#
#
# Convention : Reuss Voigt Hill
#
# Bulk Modulus (GPa) = 7.37172 14.47109 10.92140
# Shear Modulus (GPa) = 581.35533 10.14293 295.74913
#
# Velocity S-wave (km/s) = 17.78547 2.34923 12.68546
# Velocity P-wave (km/s) = 20.63431 3.90287 14.84936
#
# Compressibility (1/GPa) = 0.13565353
#
# Stress axis : x y z
#
# Youngs Moduli (GPa) = 97.85559 -15.19349 7.72887
#
# Poissons Ratio (x) = 0.42114 0.67141
# Poissons Ratio (y) = -2.71238 -0.69626
# Poissons Ratio (z) = 8.50078 1.36872
#
# Static dielectric constant tensor:
#      x y z
#    x 1.632220 0.000000 -0.048180 
#    y 0.000000 1.505040 0.000000 
#    z -0.048180 0.000000 1.649350 
# 
# From -- ./inp_files/324089.got.cif
#   From: 2010.05.17/outbox.ucp.g08.bks.cvg/sg12_163_cif.got.tgz:324089.got - 2010.06.11 11:47:21.
