data_PCOD9223817
_publ_section_title
;
Structure prediction by ZEFSAII (Michael W. Deem and Ramdas Pophale) SiO2 
 PCOD9223817
Probable space group: C 2/M
;
_chemical_formula_sum "Si O2"
_cell_formula_units_Z 24
_cell_length_a 18.000000
_cell_length_b 9.000000
_cell_length_c 30.000000
_cell_angle_alpha 90.000000
_cell_angle_beta 30.000000
_cell_angle_gamma 90.000000
_cell_volume 2430.000000
_symmetry_space_group_name_H-M "C 2/M"
_symmetry_group_IT_number 12
_symmetry_cell_setting 'monoclinic'
loop_
_space_group_symop_operation_xyz
x,y,z
-x,y,-z
-x,-y,-z
x,-y,z
1/2+x,1/2+y,z
1/2-x,1/2+y,-z
1/2-x,1/2-y,-z
1/2+x,1/2-y,z
loop_
_atom_site_type_symbol
_atom_site_label
_atom_site_fract_x
_atom_site_fract_y
_atom_site_fract_z
Si Si1 0.633100 0.173375 0.896023
Si Si2 0.597607 0.166079 0.206174
Si Si3 0.489259 0.677930 0.399182
Si Si4 0.184824 0.176149 0.776893
Si Si5 0.819087 0.675876 0.404475
Si Si6 0.112091 0.331694 0.095416
O O1 0.796673 0.206901 0.829918
O O2 0.633015 0.279871 0.853662
O O3 0.620370 0.000000 0.890279
O O4 0.500000 0.205960 0.000000
O O5 0.423107 0.193301 0.306942
O O6 0.642346 0.157415 0.131882
O O7 0.628539 0.000000 0.210086
O O8 0.511271 0.500000 0.387393
O O9 0.651694 0.753894 0.318087
O O10 0.356732 0.714940 0.503908
O O11 0.408920 0.733383 0.395504
O O12 0.045787 0.247507 0.823414
O O13 0.193032 0.000000 0.766678
O O14 0.822314 0.500000 0.414761
O O15 0.097334 0.500000 0.084762
O O16 0.250000 0.250000 0.000000
#
# Coordination Sequence:
#
# PCOD9223817 Si02
#       6
#     8   8   8   8   8   8
#     4  11  23  37  57  86 116 146 189 245 297 346
#     4  10  21  38  60  86 115 151 192 237 291 352
#     4  10  19  33  57  88 119 151 190 238 294 347
#     4  12  24  39  59  84 117 157 200 241 289 344
#     4   9  18  34  57  87 119 151 188 235 294 355
#     4  11  24  42  62  85 117 157 199 240 293 351
#
# _framework density 9.8765429999999999
#
# number of rings (size 3 to 8) (size 9 to 14) (size 15 to 20)
#    0.000    1.500    1.667    4.000    0.000    6.000 
#    0.000    0.833    0.000    5.000    0.000    0.000 
#    0.000    0.000    0.000    0.000    0.000    0.000 
#
# Total GULP energy -133757.063564 kJ/mol
# GULP energy per Si atom -5573.210982 kJ/mol
# Density = 0.985406 g / cm^3
# Si number density = 9.876543 Si / 1000 Ang^3
#
#
#
# Elastic Constant Matrix: (Units=GPa)
#
#
# Indices 1 2 3 4 5 6 
#
# 1 15.3406 8.1893 -11.3069 -0.0002 -4.3827 0.0006
# 2 8.1893 103.0428 39.0433 -0.0007 -13.8933 0.0006
# 3 -11.3069 39.0433 138.4115 0.0000 -8.5633 -0.0001
# 4 -0.0002 -0.0007 0.0000 22.1011 0.0000 -4.5413
# 5 -4.3827 -13.8933 -8.5633 0.0000 34.0586 -0.0001
# 6 0.0006 0.0006 -0.0001 -4.5413 -0.0001 18.7558
#
#
#
# Elastic Compliance Matrix: (Units=1/GPa)
#
#
# Indices 1 2 3 4 5 6 
#
# 1 0.079416 -0.008689 0.009499 0.000000 0.009063 -0.000002
# 2 -0.008689 0.012301 -0.004001 0.000000 0.002894 0.000000
# 3 0.009499 -0.004001 0.009248 0.000000 0.001916 0.000000
# 4 0.000000 0.000000 0.000000 0.047616 0.000000 0.011529
# 5 0.009063 0.002894 0.001916 0.000000 0.032190 0.000000
# 6 -0.000002 0.000000 0.000000 0.011529 0.000000 0.056108
#
#
# Mechanical properties :
#
#
# Convention : Reuss Voigt Hill
#
# Bulk Modulus (GPa) = 10.57261 36.51628 23.54444
# Shear Modulus (GPa) = 18.19590 29.70771 23.95180
#
# Velocity S-wave (km/s) = 3.03837 3.88229 3.48596
# Velocity P-wave (km/s) = 4.20391 6.21472 5.30545
#
# Compressibility (1/GPa) = 0.09458403
#
# Stress axis : x y z
#
# Youngs Moduli (GPa) = 12.59199 81.29195 108.13310
#
# Poissons Ratio (x) = 0.70633 -1.02717
# Poissons Ratio (y) = 0.10941 0.43261
# Poissons Ratio (z) = -0.11961 0.32523
#
# Static dielectric constant tensor:
#      x y z
#    x 1.824620 0.000000 0.003130 
#    y 0.000000 1.711340 0.000000 
#    z 0.003130 0.000000 1.694750 
# 
# From -- ./inp_files/281812.got.cif
#   From: 2010.05.17/outbox.ucp.g08.bks.cvg/sg12_141_cif.got.tgz:281812.got - 2010.06.11 11:47:21.
