data_PCOD9223301
_publ_section_title
;
Structure prediction by ZEFSAII (Michael W. Deem and Ramdas Pophale) SiO2 
 PCOD9223301
Probable space group: C 2/M
;
_chemical_formula_sum "Si O2"
_cell_formula_units_Z 28
_cell_length_a 24.000000
_cell_length_b 18.000000
_cell_length_c 9.000000
_cell_angle_alpha 90.000000
_cell_angle_beta 130.000000
_cell_angle_gamma 90.000000
_cell_volume 2978.380795
_symmetry_space_group_name_H-M "C 2/M"
_symmetry_group_IT_number 12
_symmetry_cell_setting 'monoclinic'
loop_
_space_group_symop_operation_xyz
x,y,z
-x,y,-z
-x,-y,-z
x,-y,z
1/2+x,1/2+y,z
1/2-x,1/2+y,-z
1/2-x,1/2-y,-z
1/2+x,1/2-y,z
loop_
_atom_site_type_symbol
_atom_site_label
_atom_site_fract_x
_atom_site_fract_y
_atom_site_fract_z
Si Si1 0.423381 0.911015 0.615517
Si Si2 0.178837 0.087814 0.005359
Si Si3 0.831525 0.733437 0.468293
Si Si4 0.077240 0.806907 0.642273
Si Si5 0.157705 0.416606 0.826135
Si Si6 0.335509 0.293612 0.790052
Si Si7 0.930234 0.317199 0.126512
O O1 0.363331 0.849202 0.566111
O O2 0.404902 0.911988 0.407386
O O3 0.501546 0.872338 0.782731
O O4 0.419175 0.000000 0.653924
O O5 0.135282 0.136750 0.811570
O O6 0.164261 0.000000 0.975484
O O7 0.264988 0.097845 0.119029
O O8 0.155734 0.125883 0.121026
O O9 0.882247 0.766302 0.425191
O O10 0.745042 0.729646 0.287928
O O11 0.835247 0.788912 0.613614
O O12 0.054081 0.741579 0.716475
O O13 0.000000 0.848682 0.500000
O O14 0.159514 0.500000 0.886464
O O15 0.137069 0.363778 0.924252
O O16 0.398463 0.235709 0.944787
#
# Coordination Sequence:
#
# PCOD9223301 Si02
#       7
#     8   8   8   8   8   8   8
#     4  11  21  34  58  89 125 156 188 238 291 351
#     4  10  21  38  60  86 110 147 199 249 303 346
#     4  11  21  40  57  88 114 157 206 229 288 347
#     4  11  20  36  60  84 114 148 189 250 291 347
#     4  10  18  31  56  86 117 151 193 243 287 342
#     4  10  23  37  61  80 117 159 196 245 279 349
#     4  11  19  35  54  90 115 156 193 233 286 345
#
# _framework density 9.4010809999999996
#
# number of rings (size 3 to 8) (size 9 to 14) (size 15 to 20)
#    0.000    1.429    4.286    1.714    0.000    4.286 
#    0.000    2.857    0.000    3.429    0.000    0.000 
#    0.000    0.000    0.000    0.000    0.000    0.000 
#
# Total GULP energy -155932.079751 kJ/mol
# GULP energy per Si atom -5569.002848 kJ/mol
# Density = 0.937968 g / cm^3
# Si number density = 9.401081 Si / 1000 Ang^3
#
#
#
# Elastic Constant Matrix: (Units=GPa)
#
#
# Indices 1 2 3 4 5 6 
#
# 1 42.4052 18.4530 22.7117 0.0000 15.8307 0.0000
# 2 18.4530 104.9225 34.0349 0.0000 15.0491 0.0000
# 3 22.7117 34.0349 51.6648 0.0000 17.0942 0.0000
# 4 0.0000 0.0000 0.0000 22.2860 0.0000 10.4254
# 5 15.8307 15.0491 17.0942 0.0000 25.4474 0.0000
# 6 0.0000 0.0000 0.0000 10.4254 0.0000 28.0176
#
#
#
# Elastic Compliance Matrix: (Units=1/GPa)
#
#
# Indices 1 2 3 4 5 6 
#
# 1 0.034623 -0.000804 -0.009928 0.000000 -0.014394 0.000000
# 2 -0.000804 0.012247 -0.007051 0.000000 -0.002006 0.000000
# 3 -0.009928 -0.007051 0.032069 0.000000 -0.011197 0.000000
# 4 0.000000 0.000000 0.000000 0.054328 0.000000 -0.020216
# 5 -0.014394 -0.002006 -0.011197 0.000000 0.056959 0.000000
# 6 0.000000 0.000000 0.000000 -0.020216 0.000000 0.043214
#
#
# Mechanical properties :
#
#
# Convention : Reuss Voigt Hill
#
# Bulk Modulus (GPa) = 23.05547 38.82130 30.93839
# Shear Modulus (GPa) = 17.63895 23.40305 20.52100
#
# Velocity S-wave (km/s) = 3.06622 3.53186 3.30724
# Velocity P-wave (km/s) = 4.98241 6.10935 5.57443
#
# Compressibility (1/GPa) = 0.04337365
#
# Stress axis : x y z
#
# Youngs Moduli (GPa) = 28.88268 81.65172 31.18275
#
# Poissons Ratio (x) = 0.06567 0.30957
# Poissons Ratio (y) = 0.02323 0.21986
# Poissons Ratio (z) = 0.28674 0.57570
#
# Static dielectric constant tensor:
#      x y z
#    x 1.641330 0.000000 0.021520 
#    y 0.000000 1.654580 0.000000 
#    z 0.021520 0.000000 1.746770 
# 
# From -- ./inp_files/98194.got.cif
#   From: 2010.05.17/outbox.ucp.g08.bks.cvg/sg12_50_cif.got.tgz:98194.got - 2010.06.11 11:47:21.
