data_PCOD9223376
_publ_section_title
;
Structure prediction by ZEFSAII (Michael W. Deem and Ramdas Pophale) SiO2 
 PCOD9223376
Probable space group: C 2/M
;
_chemical_formula_sum "Si O2"
_cell_formula_units_Z 32
_cell_length_a 30.000000
_cell_length_b 9.000000
_cell_length_c 18.000000
_cell_angle_alpha 90.000000
_cell_angle_beta 140.000000
_cell_angle_gamma 90.000000
_cell_volume 3123.947783
_symmetry_space_group_name_H-M "C 2/M"
_symmetry_group_IT_number 12
_symmetry_cell_setting 'monoclinic'
loop_
_space_group_symop_operation_xyz
x,y,z
-x,y,-z
-x,-y,-z
x,-y,z
1/2+x,1/2+y,z
1/2-x,1/2+y,-z
1/2-x,1/2-y,-z
1/2+x,1/2-y,z
loop_
_atom_site_type_symbol
_atom_site_label
_atom_site_fract_x
_atom_site_fract_y
_atom_site_fract_z
Si Si1 0.543036 0.673933 0.477794
Si Si2 0.176237 0.822257 0.887721
Si Si3 0.286078 0.680367 0.769096
Si Si4 0.665794 0.178696 0.716669
Si Si5 0.542927 0.178041 0.766336
Si Si6 0.075244 0.179162 0.118814
Si Si7 0.424194 0.175043 0.724244
Si Si8 0.214447 0.322350 0.525916
O O1 0.500000 0.677452 0.500000
O O2 0.557067 0.500000 0.478471
O O3 0.611702 0.767102 0.585427
O O4 0.499402 0.750356 0.356567
O O5 0.153947 0.765225 0.777651
O O6 0.117013 0.756370 0.864983
O O7 0.179037 0.000000 0.894645
O O8 0.250000 0.750000 0.000000
O O9 0.285286 0.500000 0.766818
O O10 0.242107 0.720718 0.784573
O O11 0.364838 0.729892 0.860728
O O12 0.246335 0.731321 0.643804
O O13 0.660466 0.000000 0.720196
O O14 0.498468 0.205453 0.783565
O O15 0.549050 0.000000 0.762927
O O16 0.091348 0.232773 0.222223
O O17 0.074353 0.000000 0.117476
O O18 0.000000 0.235282 0.000000
O O19 0.366962 0.206607 0.588078
O O20 0.419048 0.000000 0.735542
O O21 0.225157 0.500000 0.536510
O O22 0.250000 0.250000 0.500000
#
# Coordination Sequence:
#
# PCOD9223376 Si02
#       8
#     8   8   8   8   8   8   8   8
#     4  11  22  37  60  92 127 158 197 252 304 364
#     4  12  26  45  65  90 122 158 205 256 302 360
#     4   9  19  36  58  86 120 153 194 244 295 357
#     4  11  22  39  64  90 121 164 204 249 308 364
#     4  11  23  41  65  92 123 162 202 247 306 367
#     4  10  21  38  60  85 115 156 203 246 292 351
#     4  10  22  38  59  89 121 153 196 246 301 360
#     4  10  18  33  57  85 118 154 192 237 291 352
#
# _framework density 10.243449
#
# number of rings (size 3 to 8) (size 9 to 14) (size 15 to 20)
#    0.000    1.500    2.500    3.000    0.000    4.750 
#    0.000    5.000    0.000    0.000    0.000    0.000 
#    0.000    0.000    0.000    0.000    0.000    0.000 
#
# Total GULP energy -178767.185432 kJ/mol
# GULP energy per Si atom -5586.474545 kJ/mol
# Density = 1.022013 g / cm^3
# Si number density = 10.243449 Si / 1000 Ang^3
#
#
#
# Elastic Constant Matrix: (Units=GPa)
#
#
# Indices 1 2 3 4 5 6 
#
# 1 85.3957 22.6439 -1.0363 0.0000 32.7772 0.0000
# 2 22.6439 72.0794 4.9973 0.0000 16.5452 0.0000
# 3 -1.0363 4.9973 45.1659 0.0000 29.0190 0.0000
# 4 0.0000 0.0000 0.0000 25.4956 0.0000 -2.0439
# 5 32.7772 16.5452 29.0190 0.0000 33.3791 0.0000
# 6 0.0000 0.0000 0.0000 -2.0439 0.0000 14.9953
#
#
#
# Elastic Compliance Matrix: (Units=1/GPa)
#
#
# Indices 1 2 3 4 5 6 
#
# 1 0.117391 0.014820 0.180860 0.000000 -0.279855 0.000000
# 2 0.014820 0.018689 0.030751 0.000000 -0.050552 0.000000
# 3 0.180860 0.030751 0.332527 0.000000 -0.481932 0.000000
# 4 0.000000 0.000000 0.000000 0.039656 0.000000 0.005405
# 5 -0.279855 -0.050552 -0.481932 0.000000 0.748803 0.000000
# 6 0.000000 0.000000 0.000000 0.005405 0.000000 0.067424
#
#
# Mechanical properties :
#
#
# Convention : Reuss Voigt Hill
#
# Bulk Modulus (GPa) = 1.08522 28.42787 14.75655
# Shear Modulus (GPa) = 4.24166 26.50974 15.37570
#
# Velocity S-wave (km/s) = 1.44046 3.60110 2.74252
# Velocity P-wave (km/s) = 1.81588 5.58541 4.15297
#
# Compressibility (1/GPa) = 0.92147068
#
# Stress axis : x y z
#
# Youngs Moduli (GPa) = 8.51854 53.50637 3.00727
#
# Poissons Ratio (x) = -0.79299 -0.54389
# Poissons Ratio (y) = -0.12625 -0.09248
# Poissons Ratio (z) = -1.54066 -1.64540
#
# Static dielectric constant tensor:
#      x y z
#    x 1.749290 0.000000 0.046150 
#    y 0.000000 1.682660 0.000000 
#    z 0.046150 0.000000 1.750780 
# 
# From -- ./inp_files/295842.got.cif
#   From: 2010.05.17/outbox.ucp.g08.bks.cvg/sg12_148_cif.got.tgz:295842.got - 2010.06.11 11:47:21.
