data_PCOD9223398
_publ_section_title
;
Structure prediction by ZEFSAII (Michael W. Deem and Ramdas Pophale) SiO2 
 PCOD9223398
Probable space group: C 2/M
;
_chemical_formula_sum "Si O2"
_cell_formula_units_Z 28
_cell_length_a 15.000000
_cell_length_b 9.000000
_cell_length_c 24.000000
_cell_angle_alpha 90.000000
_cell_angle_beta 120.000000
_cell_angle_gamma 90.000000
_cell_volume 2805.922308
_symmetry_space_group_name_H-M "C 2/M"
_symmetry_group_IT_number 12
_symmetry_cell_setting 'monoclinic'
loop_
_space_group_symop_operation_xyz
x,y,z
-x,y,-z
-x,-y,-z
x,-y,z
1/2+x,1/2+y,z
1/2-x,1/2+y,-z
1/2-x,1/2-y,-z
1/2+x,1/2-y,z
loop_
_atom_site_type_symbol
_atom_site_label
_atom_site_fract_x
_atom_site_fract_y
_atom_site_fract_z
Si Si1 0.385776 0.824710 0.489803
Si Si2 0.439424 0.678764 0.619818
Si Si3 0.161920 0.679878 0.058238
Si Si4 0.371189 0.820506 0.158230
Si Si5 0.510177 0.179628 0.909552
Si Si6 0.148774 0.679950 0.718870
Si Si7 0.224311 0.179981 0.343794
O O1 0.500000 0.811422 0.500000
O O2 0.381091 0.734609 0.546061
O O3 0.309180 0.775578 0.416678
O O4 0.366239 0.000000 0.495210
O O5 0.447974 0.500000 0.620884
O O6 0.549237 0.757895 0.656032
O O7 0.381458 0.723784 0.659110
O O8 0.173942 0.500000 0.062974
O O9 0.269187 0.762373 0.095938
O O10 0.094052 0.725567 0.091318
O O11 0.099384 0.718048 0.982415
O O12 0.463183 0.770069 0.144994
O O13 0.361437 0.769626 0.219777
O O14 0.373334 0.000000 0.160228
O O15 0.507138 0.000000 0.907095
O O16 0.147187 0.500000 0.718761
O O17 0.244323 0.728571 0.708861
O O18 0.225176 0.000000 0.342523
#
# Coordination Sequence:
#
# PCOD9223398 Si02
#       7
#     8   8   8   8   8   8   8
#     4  10  18  34  60  79 101 138 171 200 250 323
#     4  11  22  35  54  80 106 129 167 222 260 292
#     4   9  17  32  54  75 105 140 169 206 260 316
#     4  10  20  33  53  77 102 133 177 220 250 294
#     4   8  16  32  52  77 105 138 171 206 258 312
#     4  10  21  39  55  70 101 145 178 204 251 316
#     4   9  19  36  55  75 102 137 170 204 257 312
#
# _framework density 9.9788940000000004
#
# number of rings (size 3 to 8) (size 9 to 14) (size 15 to 20)
#    0.000    2.429    1.429    2.143    0.000    2.000 
#    0.000    4.286    0.000    0.000    0.000    0.000 
#    0.000    0.000    0.000    0.000    0.000    0.000 
#
# Total GULP energy -156091.740686 kJ/mol
# GULP energy per Si atom -5574.705025 kJ/mol
# Density = 0.995618 g / cm^3
# Si number density = 9.978894 Si / 1000 Ang^3
#
#
#
# Elastic Constant Matrix: (Units=GPa)
#
#
# Indices 1 2 3 4 5 6 
#
# 1 102.1274 -1.1800 18.1251 0.0000 -40.3676 0.0000
# 2 -1.1800 0.7934 -1.5771 0.0000 -9.0590 0.0000
# 3 18.1251 -1.5771 32.2904 0.0000 -31.7997 0.0000
# 4 0.0000 0.0000 0.0000 22.8287 0.0000 -0.5115
# 5 -40.3676 -9.0590 -31.7997 0.0000 46.1650 0.0000
# 6 0.0000 0.0000 0.0000 -0.5115 0.0000 16.8605
#
#
#
# Elastic Compliance Matrix: (Units=1/GPa)
#
#
# Indices 1 2 3 4 5 6 
#
# 1 0.010319 -0.024622 -0.008914 0.000000 -0.001949 0.000000
# 2 -0.024622 -0.086847 -0.088321 0.000000 -0.099410 0.000000
# 3 -0.008914 -0.088321 0.021498 0.000000 -0.010317 0.000000
# 4 0.000000 0.000000 0.000000 0.043834 0.000000 0.001330
# 5 -0.001949 -0.099410 -0.010317 0.000000 -0.006657 0.000000
# 6 0.000000 0.000000 0.000000 0.001330 0.000000 0.059351
#
#
# Mechanical properties :
#
#
# Convention : Reuss Voigt Hill
#
# Bulk Modulus (GPa) = -3.34735 18.43857 7.54561
# Shear Modulus (GPa) = 26.93522 25.16039 26.04781
#
# Velocity S-wave (km/s) = 3.67769 3.55446 3.61660
# Velocity P-wave (km/s) = 4.04388 5.10925 4.60746
#
# Compressibility (1/GPa) = -0.29874403
#
# Stress axis : x y z
#
# Youngs Moduli (GPa) = 96.90961 -11.51444 46.51503
#
# Poissons Ratio (x) = -0.28351 0.41463
# Poissons Ratio (y) = 2.38614 4.10824
# Poissons Ratio (z) = 0.86385 -1.01696
#
# Static dielectric constant tensor:
#      x y z
#    x 1.761270 0.000000 -0.016050 
#    y 0.000000 1.650890 0.000000 
#    z -0.016050 0.000000 1.705290 
# 
# From -- ./inp_files/337853.got.cif
#   From: 2010.05.17/outbox.ucp.g08.bks.cvg/sg12_169_cif.got.tgz:337853.got - 2010.06.11 11:47:21.
