data_PCOD9223723
_publ_section_title
;
Structure prediction by ZEFSAII (Michael W. Deem and Ramdas Pophale) SiO2 
 PCOD9223723
Probable space group: C 2/M
;
_chemical_formula_sum "Si O2"
_cell_formula_units_Z 28
_cell_length_a 24.000000
_cell_length_b 18.000000
_cell_length_c 12.000000
_cell_angle_alpha 90.000000
_cell_angle_beta 40.000000
_cell_angle_gamma 90.000000
_cell_volume 3332.210969
_symmetry_space_group_name_H-M "C 2/M"
_symmetry_group_IT_number 12
_symmetry_cell_setting 'monoclinic'
loop_
_space_group_symop_operation_xyz
x,y,z
-x,y,-z
-x,-y,-z
x,-y,z
1/2+x,1/2+y,z
1/2-x,1/2+y,-z
1/2-x,1/2-y,-z
1/2+x,1/2-y,z
loop_
_atom_site_type_symbol
_atom_site_label
_atom_site_fract_x
_atom_site_fract_y
_atom_site_fract_z
Si Si1 0.359201 0.716980 0.527774
Si Si2 0.173898 0.291559 0.183530
Si Si3 0.199945 0.089892 0.931258
Si Si4 0.273364 0.661973 0.351240
Si Si5 0.097363 0.288211 0.891552
Si Si6 0.261451 0.911130 0.363938
Si Si7 0.063169 0.218311 0.181972
O O1 0.343922 0.748644 0.674719
O O2 0.307744 0.781120 0.537565
O O3 0.311756 0.637464 0.587736
O O4 0.459855 0.708585 0.343078
O O5 0.213636 0.373415 0.144785
O O6 0.089859 0.275381 0.238659
O O7 0.250000 0.250000 0.000000
O O8 0.210325 0.114516 0.785792
O O9 0.192297 0.000000 0.955683
O O10 0.117823 0.140109 0.101674
O O11 0.353427 0.719324 0.244095
O O12 0.258863 0.607052 0.475734
O O13 0.151143 0.364426 0.797243
O O14 0.094101 0.259673 0.023082
O O15 0.000000 0.297271 0.000000
O O16 0.264011 0.000000 0.339057
#
# Coordination Sequence:
#
# PCOD9223723 Si02
#       7
#     8   8   8   8   8   8   8
#     4  10  19  34  54  74  99 131 171 208 244 295
#     4   9  18  34  54  74  97 131 170 202 239 294
#     4   9  18  32  52  77 103 130 163 208 255 292
#     4   9  18  33  53  73  97 135 174 207 245 291
#     4  10  19  34  53  73  99 133 174 207 241 294
#     4  11  21  32  49  75 106 134 163 206 257 300
#     4  10  19  33  54  76  99 131 169 206 244 296
#
# _framework density 8.4028290000000005
#
# number of rings (size 3 to 8) (size 9 to 14) (size 15 to 20)
#    0.000    2.286    0.000    6.857    0.000    0.857 
#    0.000    6.429    0.000   17.571    0.000    0.000 
#    0.000    0.000    0.000    0.000    0.000    0.000 
#
# Total GULP energy -155923.950881 kJ/mol
# GULP energy per Si atom -5568.712531 kJ/mol
# Density = 0.838370 g / cm^3
# Si number density = 8.402829 Si / 1000 Ang^3
#
#
#
# Elastic Constant Matrix: (Units=GPa)
#
#
# Indices 1 2 3 4 5 6 
#
# 1 70.6063 33.2586 35.9529 0.0000 -16.0625 0.0000
# 2 33.2586 150.7248 44.0544 0.0000 -18.0911 0.0000
# 3 35.9529 44.0544 84.5195 0.0000 -11.2586 0.0000
# 4 0.0000 0.0000 0.0000 18.7584 0.0000 3.3698
# 5 -16.0625 -18.0911 -11.2586 0.0000 38.7984 0.0000
# 6 0.0000 0.0000 0.0000 3.3698 0.0000 18.5101
#
#
#
# Elastic Compliance Matrix: (Units=1/GPa)
#
#
# Indices 1 2 3 4 5 6 
#
# 1 0.019624 -0.001716 -0.006738 0.000000 0.005369 0.000000
# 2 -0.001716 0.008230 -0.003270 0.000000 0.002178 0.000000
# 3 -0.006738 -0.003270 0.016464 0.000000 0.000463 0.000000
# 4 0.000000 0.000000 0.000000 0.055112 0.000000 -0.010033
# 5 0.005369 0.002178 0.000463 0.000000 0.029147 0.000000
# 6 0.000000 0.000000 0.000000 -0.010033 0.000000 0.055851
#
#
# Mechanical properties :
#
#
# Convention : Reuss Voigt Hill
#
# Bulk Modulus (GPa) = 47.91515 59.15360 53.53437
# Shear Modulus (GPa) = 23.27392 28.05236 25.66314
#
# Velocity S-wave (km/s) = 3.72544 4.09004 3.91199
# Velocity P-wave (km/s) = 6.86137 7.58812 7.23388
#
# Compressibility (1/GPa) = 0.02087023
#
# Stress axis : x y z
#
# Youngs Moduli (GPa) = 50.95854 121.49952 60.73962
#
# Poissons Ratio (x) = 0.20854 0.40925
# Poissons Ratio (y) = 0.08747 0.19860
# Poissons Ratio (z) = 0.34335 0.39727
#
# Static dielectric constant tensor:
#      x y z
#    x 1.652250 0.000000 0.025580 
#    y 0.000000 1.522290 0.000000 
#    z 0.025580 0.000000 1.605790 
# 
# From -- ./inp_files/145680.got.cif
#   From: 2010.05.17/outbox.ucp.g08.bks.cvg/sg12_73_cif.got.tgz:145680.got - 2010.06.11 11:47:21.
