data_PCOD9223170
_publ_section_title
;
Structure prediction by ZEFSAII (Michael W. Deem and Ramdas Pophale) SiO2 
 PCOD9223170
Probable space group: C 2/M
;
_chemical_formula_sum "Si O2"
_cell_formula_units_Z 20
_cell_length_a 21.000000
_cell_length_b 15.000000
_cell_length_c 18.000000
_cell_angle_alpha 90.000000
_cell_angle_beta 20.000000
_cell_angle_gamma 90.000000
_cell_volume 1939.254213
_symmetry_space_group_name_H-M "C 2/M"
_symmetry_group_IT_number 12
_symmetry_cell_setting 'monoclinic'
loop_
_space_group_symop_operation_xyz
x,y,z
-x,y,-z
-x,-y,-z
x,-y,z
1/2+x,1/2+y,z
1/2-x,1/2+y,-z
1/2-x,1/2-y,-z
1/2+x,1/2-y,z
loop_
_atom_site_type_symbol
_atom_site_label
_atom_site_fract_x
_atom_site_fract_y
_atom_site_fract_z
Si Si1 0.695266 0.300622 0.374005
Si Si2 0.832197 0.106737 0.445631
Si Si3 0.366862 0.891285 0.496259
Si Si4 0.258703 0.106957 0.991382
Si Si5 0.785785 0.890647 0.795178
O O1 0.755327 0.341133 0.388141
O O2 0.694688 0.191888 0.382738
O O3 0.489180 0.346320 0.588718
O O4 0.790295 0.340542 0.194876
O O5 0.739078 0.117659 0.466959
O O6 0.827354 0.000000 0.467918
O O7 0.049170 0.137813 0.203532
O O8 0.581851 0.868154 0.241249
O O9 0.352095 0.000000 0.533400
O O10 0.249842 0.000000 0.997881
O O11 0.313946 0.126759 0.016341
O O12 0.797645 0.000000 0.771755
#
# Coordination Sequence:
#
# PCOD9223170 Si02
#       5
#     8   8   8   8   8
#     4  10  17  29  49  73  99 130 166 201 244 296
#     4   9  17  30  49  72 100 130 160 202 250 291
#     4  10  20  32  48  75 104 129 164 203 240 292
#     4   8  16  32  52  73  99 129 160 201 250 292
#     4   9  17  31  52  75  99 129 165 206 251 294
#
# _framework density 10.313243
#
# number of rings (size 3 to 8) (size 9 to 14) (size 15 to 20)
#    0.000    2.800    0.000    4.200    0.000    3.200 
#    0.000    3.000    0.000    9.600    0.000    4.200 
#    0.000   30.400    0.000    0.000    0.000    0.000 
#
# Total GULP energy -111431.850222 kJ/mol
# GULP energy per Si atom -5571.592511 kJ/mol
# Density = 1.028977 g / cm^3
# Si number density = 10.313243 Si / 1000 Ang^3
#
#
#
# Elastic Constant Matrix: (Units=GPa)
#
#
# Indices 1 2 3 4 5 6 
#
# 1 49.0422 26.3479 0.0368 0.0117 -5.3382 -0.0106
# 2 26.3479 131.5864 -4.0443 -0.0053 10.7409 0.0069
# 3 0.0368 -4.0443 23.6542 0.0014 -5.3870 0.0006
# 4 0.0117 -0.0053 0.0014 12.3364 0.0028 5.6916
# 5 -5.3382 10.7409 -5.3870 0.0028 25.0852 -0.0022
# 6 -0.0106 0.0069 0.0006 5.6916 -0.0022 40.1559
#
#
#
# Elastic Compliance Matrix: (Units=1/GPa)
#
#
# Indices 1 2 3 4 5 6 
#
# 1 0.024139 -0.005432 0.000771 -0.000033 0.007628 0.000012
# 2 -0.005432 0.009106 0.000435 0.000012 -0.004961 -0.000005
# 3 0.000771 0.000435 0.044521 -0.000008 0.009538 0.000001
# 4 -0.000033 0.000012 -0.000008 0.086732 -0.000025 -0.012293
# 5 0.007628 -0.004961 0.009538 -0.000025 0.045660 0.000009
# 6 0.000012 -0.000005 0.000001 -0.012293 0.000009 0.026645
#
#
# Mechanical properties :
#
#
# Convention : Reuss Voigt Hill
#
# Bulk Modulus (GPa) = 14.42717 27.66262 21.04490
# Shear Modulus (GPa) = 18.63167 27.64501 23.13834
#
# Velocity S-wave (km/s) = 3.00874 3.66494 3.35293
# Velocity P-wave (km/s) = 4.36803 5.59905 5.02141
#
# Compressibility (1/GPa) = 0.06931368
#
# Stress axis : x y z
#
# Youngs Moduli (GPa) = 41.42687 109.82171 22.46120
#
# Poissons Ratio (x) = 0.59659 -0.01732
# Poissons Ratio (y) = 0.22505 -0.00978
# Poissons Ratio (z) = -0.03194 -0.04782
#
# Static dielectric constant tensor:
#      x y z
#    x 1.762190 0.000000 0.001180 
#    y 0.000000 1.748540 0.000010 
#    z 0.001180 0.000010 1.828520 
# 
# From -- ./inp_files/58921.got.cif
#   From: 2010.05.17/outbox.ucp.g08.bks.cvg/sg12_30_cif.got.tgz:58921.got - 2010.06.11 11:47:21.
