data_PCOD9223214
_publ_section_title
;
Structure prediction by ZEFSAII (Michael W. Deem and Ramdas Pophale) SiO2 
 PCOD9223214
Probable space group: C 2/M
;
_chemical_formula_sum "Si O2"
_cell_formula_units_Z 32
_cell_length_a 30.000000
_cell_length_b 9.000000
_cell_length_c 15.000000
_cell_angle_alpha 90.000000
_cell_angle_beta 120.000000
_cell_angle_gamma 90.000000
_cell_volume 3507.402885
_symmetry_space_group_name_H-M "C 2/M"
_symmetry_group_IT_number 12
_symmetry_cell_setting 'monoclinic'
loop_
_space_group_symop_operation_xyz
x,y,z
-x,y,-z
-x,-y,-z
x,-y,z
1/2+x,1/2+y,z
1/2-x,1/2+y,-z
1/2-x,1/2-y,-z
1/2+x,1/2-y,z
loop_
_atom_site_type_symbol
_atom_site_label
_atom_site_fract_x
_atom_site_fract_y
_atom_site_fract_z
Si Si1 0.122804 0.177648 0.590799
Si Si2 0.542361 0.321390 0.356900
Si Si3 0.087868 0.178422 0.926353
Si Si4 0.681201 0.329382 0.362025
Si Si5 0.393419 0.678072 0.868754
Si Si6 0.576245 0.680003 0.724550
Si Si7 0.801702 0.667576 0.442747
Si Si8 0.476932 0.823694 0.842259
O O1 0.082156 0.218237 0.473385
O O2 0.102989 0.239802 0.663974
O O3 0.178018 0.234317 0.617109
O O4 0.123211 0.000000 0.594740
O O5 0.544398 0.500000 0.342864
O O6 0.484280 0.284563 0.330037
O O7 0.551971 0.235512 0.275156
O O8 0.102972 0.227875 0.843057
O O9 0.032472 0.248915 0.890070
O O10 0.081357 0.000000 0.916675
O O11 0.122147 0.213354 0.045853
O O12 0.667119 0.500000 0.370935
O O13 0.648636 0.279774 0.245436
O O14 0.740743 0.327557 0.394055
O O15 0.675321 0.230842 0.442866
O O16 0.401937 0.500000 0.870872
O O17 0.445018 0.762098 0.893054
O O18 0.578377 0.500000 0.721988
O O19 0.818532 0.500000 0.445462
O O20 0.480644 0.000000 0.847746
#
# Coordination Sequence:
#
# PCOD9223214 Si02
#       8
#     8   8   8   8   8   8   8   8
#     4  10  18  29  49  72  93 121 156 192 230 272
#     4   9  17  30  47  67  93 125 160 193 223 263
#     4   9  18  33  51  68  89 121 160 197 227 261
#     4   9  19  35  52  70  93 121 153 189 229 274
#     4  10  19  32  51  70  88 118 160 197 228 267
#     4   8  15  29  48  69  91 118 156 197 229 259
#     4  10  20  33  49  71  98 123 148 184 232 282
#     4  11  21  30  43  68 101 129 151 183 230 279
#
# _framework density 9.1235599999999994
#
# number of rings (size 3 to 8) (size 9 to 14) (size 15 to 20)
#    0.000    2.500    0.000    3.750    0.000    8.000 
#    0.000    2.500    0.000    4.500    0.000    0.000 
#    0.000    0.000    0.000    0.000    0.000    0.375 
#
# Total GULP energy -178296.091973 kJ/mol
# GULP energy per Si atom -5571.752874 kJ/mol
# Density = 0.910279 g / cm^3
# Si number density = 9.123560 Si / 1000 Ang^3
#
#
#
# Elastic Constant Matrix: (Units=GPa)
#
#
# Indices 1 2 3 4 5 6 
#
# 1 49.1403 6.2838 41.5679 0.0000 -23.9319 0.0000
# 2 6.2838 -23.2935 22.1527 0.0000 -6.3520 0.0000
# 3 41.5679 22.1527 88.7571 0.0000 -17.1064 0.0000
# 4 0.0000 0.0000 0.0000 -21.7461 0.0000 4.2473
# 5 -23.9319 -6.3520 -17.1064 0.0000 22.8891 0.0000
# 6 0.0000 0.0000 0.0000 4.2473 0.0000 10.1179
#
#
#
# Elastic Compliance Matrix: (Units=1/GPa)
#
#
# Indices 1 2 3 4 5 6 
#
# 1 0.055905 -0.011132 -0.014877 0.000000 0.044245 0.000000
# 2 -0.011132 -0.032214 0.010850 0.000000 -0.012470 0.000000
# 3 -0.014877 0.010850 0.015314 0.000000 -0.001098 0.000000
# 4 0.000000 0.000000 0.000000 -0.042501 0.000000 0.017841
# 5 0.044245 -0.012470 -0.001098 0.000000 0.085669 0.000000
# 6 0.000000 0.000000 0.000000 0.017841 0.000000 0.091346
#
#
# Mechanical properties :
#
#
# Convention : Reuss Voigt Hill
#
# Bulk Modulus (GPa) = 115.08319 28.29029 71.68674
# Shear Modulus (GPa) = 24.18591 5.22547 14.70569
#
# Velocity S-wave (km/s) = 3.64464 1.69409 2.84195
# Velocity P-wave (km/s) = 8.99541 4.40048 7.08102
#
# Compressibility (1/GPa) = 0.00868937
#
# Stress axis : x y z
#
# Youngs Moduli (GPa) = 17.88735 -31.04236 65.29914
#
# Poissons Ratio (x) = -0.34556 0.97143
# Poissons Ratio (y) = 0.19912 -0.70852
# Poissons Ratio (z) = 0.26610 0.33682
#
# Static dielectric constant tensor:
#      x y z
#    x 1.638180 0.000000 -0.019500 
#    y 0.000000 1.609900 0.000000 
#    z -0.019500 0.000000 1.682300 
# 
# From -- ./inp_files/249180.got.cif
#   From: 2010.05.17/outbox.ucp.g08.bks.cvg/sg12_125_cif.got.tgz:249180.got - 2010.06.11 11:47:21.
