data_PCOD9223751
_publ_section_title
;
Structure prediction by ZEFSAII (Michael W. Deem and Ramdas Pophale) SiO2 
 PCOD9223751
Probable space group: C 2/M
;
_chemical_formula_sum "Si O2"
_cell_formula_units_Z 28
_cell_length_a 18.000000
_cell_length_b 9.000000
_cell_length_c 24.000000
_cell_angle_alpha 90.000000
_cell_angle_beta 50.000000
_cell_angle_gamma 90.000000
_cell_volume 2978.380795
_symmetry_space_group_name_H-M "C 2/M"
_symmetry_group_IT_number 12
_symmetry_cell_setting 'monoclinic'
loop_
_space_group_symop_operation_xyz
x,y,z
-x,y,-z
-x,-y,-z
x,-y,z
1/2+x,1/2+y,z
1/2-x,1/2+y,-z
1/2-x,1/2-y,-z
1/2+x,1/2-y,z
loop_
_atom_site_type_symbol
_atom_site_label
_atom_site_fract_x
_atom_site_fract_y
_atom_site_fract_z
Si Si1 0.101514 0.320151 0.978197
Si Si2 0.727727 0.673250 0.594498
Si Si3 0.679882 0.320047 0.158641
Si Si4 0.957364 0.679152 0.868480
Si Si5 0.879183 0.180553 0.688219
Si Si6 0.594726 0.325311 0.547948
Si Si7 0.174742 0.678799 0.732500
O O1 0.101410 0.500000 0.971589
O O2 0.206767 0.271524 0.903656
O O3 0.089524 0.285581 0.049136
O O4 0.000000 0.266421 0.000000
O O5 0.735802 0.500000 0.605329
O O6 0.655527 0.684052 0.576349
O O7 0.834624 0.737217 0.528162
O O8 0.679419 0.765095 0.667252
O O9 0.679549 0.500000 0.154959
O O10 0.609608 0.253259 0.145862
O O11 0.634797 0.278990 0.240302
O O12 0.955628 0.500000 0.862784
O O13 0.071466 0.725156 0.809416
O O14 0.777838 0.230125 0.708831
O O15 0.983432 0.227602 0.611790
O O16 0.881643 0.000000 0.684156
O O17 0.591384 0.500000 0.533072
O O18 0.176100 0.500000 0.734727
#
# Coordination Sequence:
#
# PCOD9223751 Si02
#       7
#     8   8   8   8   8   8   8
#     4   9  17  31  53  79 105 135 173 213 249 290
#     4  10  20  34  53  77 103 129 163 207 254 305
#     4  10  19  33  55  78 102 135 173 211 250 295
#     4  10  20  33  51  77 106 134 168 210 254 300
#     4   9  18  33  53  75  97 129 175 214 244 291
#     4   9  18  34  54  73  97 131 169 207 247 297
#     4  10  20  34  52  73 100 134 170 209 252 297
#
# _framework density 9.4010809999999996
#
# number of rings (size 3 to 8) (size 9 to 14) (size 15 to 20)
#    0.000    2.429    0.000    2.571    0.000    6.286 
#    0.000    5.000    0.000    3.429    0.000    0.000 
#    0.000    0.000    0.000    0.000    0.000    0.000 
#
# Total GULP energy -156099.148349 kJ/mol
# GULP energy per Si atom -5574.969584 kJ/mol
# Density = 0.937968 g / cm^3
# Si number density = 9.401081 Si / 1000 Ang^3
#
#
#
# Elastic Constant Matrix: (Units=GPa)
#
#
# Indices 1 2 3 4 5 6 
#
# 1 52.6641 7.1784 -3.7100 0.0000 -25.1843 0.0001
# 2 7.1784 -0.1752 2.4169 0.0000 -5.6043 0.0002
# 3 -3.7100 2.4169 76.3531 0.0000 -37.5077 0.0000
# 4 0.0000 0.0000 0.0000 19.9774 0.0000 2.1397
# 5 -25.1843 -5.6043 -37.5077 0.0000 41.2388 0.0000
# 6 0.0001 0.0002 0.0000 2.1397 0.0000 22.8915
#
#
#
# Elastic Compliance Matrix: (Units=1/GPa)
#
#
# Indices 1 2 3 4 5 6 
#
# 1 0.041030 0.076616 0.030716 0.000000 0.063405 -0.000001
# 2 0.076616 -0.760369 0.000028 0.000000 -0.056519 0.000008
# 3 0.030716 0.000028 0.043031 0.000000 0.057900 0.000000
# 4 0.000000 0.000000 0.000000 0.050563 0.000000 -0.004726
# 5 0.063405 -0.056519 0.057900 0.000000 0.107951 0.000000
# 6 -0.000001 0.000008 0.000000 -0.004726 0.000000 0.044126
#
#
# Mechanical properties :
#
#
# Convention : Reuss Voigt Hill
#
# Bulk Modulus (GPa) = -2.16643 15.62361 6.72859
# Shear Modulus (GPa) = -5.93648 25.01867 9.54109
#
# Velocity S-wave (km/s) = -1.77882 3.65173 2.25510
# Velocity P-wave (km/s) = 2.31811 5.10957 3.21979
#
# Compressibility (1/GPa) = -0.46158853
#
# Stress axis : x y z
#
# Youngs Moduli (GPa) = 24.37251 -1.31515 23.23889
#
# Poissons Ratio (x) = 0.10076 -0.71380
# Poissons Ratio (y) = -1.86733 -0.00064
# Poissons Ratio (z) = -0.74862 0.00004
#
# Static dielectric constant tensor:
#      x y z
#    x 1.670340 0.000000 0.014270 
#    y 0.000000 1.634000 0.000000 
#    z 0.014270 0.000000 1.649570 
# 
# From -- ./inp_files/342269.got.cif
#   From: 2010.05.17/outbox.ucp.g08.bks.cvg/sg12_172_cif.got.tgz:342269.got - 2010.06.11 11:47:21.
