data_PCOD9223058
_publ_section_title
;
Structure prediction by ZEFSAII (Michael W. Deem and Ramdas Pophale) SiO2 
 PCOD9223058
Probable space group: C 2/M
;
_chemical_formula_sum "Si O2"
_cell_formula_units_Z 48
_cell_length_a 11.074619
_cell_length_b 28.733076
_cell_length_c 11.298030
_cell_angle_alpha 90.000000
_cell_angle_beta 38.059620
_cell_angle_gamma 90.000000
_cell_volume 2216.324865
_symmetry_space_group_name_H-M "C 2/M"
_symmetry_group_IT_number 12
_symmetry_cell_setting 'monoclinic'
loop_
_space_group_symop_operation_xyz
x,y,z
-x,y,-z
-x,-y,-z
x,-y,z
1/2+x,1/2+y,z
1/2-x,1/2+y,-z
1/2-x,1/2-y,-z
1/2+x,1/2-y,z
loop_
_atom_site_type_symbol
_atom_site_label
_atom_site_fract_x
_atom_site_fract_y
_atom_site_fract_z
Si Si1 0.604366 0.052394 0.032872
Si Si2 0.298642 0.881975 0.847267
Si Si3 0.823916 0.228003 0.236031
Si Si4 0.150336 0.876447 0.714131
Si Si5 0.453321 0.553104 0.399156
Si Si6 0.414334 0.775944 0.793510
O O1 0.833084 0.050188 0.825863
O O2 0.527717 0.000000 0.104235
O O3 0.500000 0.074702 0.000000
O O4 0.584721 0.081036 0.166502
O O5 0.279369 0.894623 0.724548
O O6 0.384922 0.830989 0.803638
O O7 0.076182 0.879131 0.068506
O O8 0.800544 0.178614 0.321528
O O9 0.639097 0.241164 0.297230
O O10 0.891433 0.263923 0.283626
O O11 0.000000 0.222040 0.000000
O O12 0.160127 0.907447 0.588504
O O13 0.500000 0.564882 0.500000
O O14 0.371729 0.500000 0.457500
O O15 0.250000 0.750000 0.000000
#
# Coordination Sequence:
#
# PCOD9223058 Si02
#       6
#     8   8   8   8   8   8
#     4   9  18  30  44  65  96 120 140 184 234 271
#     4   9  15  25  40  63  90 115 145 181 229 268
#     4   9  14  23  36  57  91 116 142 183 230 265
#     4   9  14  26  42  60  88 113 142 192 227 256
#     4   9  18  31  47  66  87 117 156 188 218 269
#     4   9  14  22  34  56  89 116 141 180 225 267
#
# _framework density 21.657473
#
# number of rings (size 3 to 8) (size 9 to 14) (size 15 to 20)
#    0.000    3.000    5.000    0.000    0.000    2.667 
#    0.000    3.333    0.000    1.000    0.000    9.333 
#    0.000    0.000    0.000    0.000    0.000    0.000 
#
# Total GULP energy -133775.772409 kJ/mol
# GULP energy per Si atom -5573.990517 kJ/mol
# Density = 2.160818 g / cm^3
# Si number density = 21.657473 Si / 1000 Ang^3
#
#
#
# Elastic Constant Matrix: (Units=GPa)
#
#
# Indices 1 2 3 4 5 6 
#
# 1 203.1936 100.4623 26.0165 0.0000 60.4007 0.0000
# 2 100.4623 84.5396 22.1381 0.0000 41.0481 0.0000
# 3 26.0165 22.1381 86.1129 0.0000 9.3252 0.0000
# 4 0.0000 0.0000 0.0000 -0.4790 0.0000 11.1474
# 5 60.4007 41.0481 9.3252 0.0000 33.9574 0.0000
# 6 0.0000 0.0000 0.0000 11.1474 0.0000 37.6354
#
#
#
# Elastic Compliance Matrix: (Units=1/GPa)
#
#
# Indices 1 2 3 4 5 6 
#
# 1 0.013482 -0.010551 -0.000149 0.000000 -0.011186 0.000000
# 2 -0.010551 0.038102 -0.003764 0.000000 -0.026256 0.000000
# 3 -0.000149 -0.003764 0.012475 0.000000 0.001390 0.000000
# 4 0.000000 0.000000 0.000000 -0.264490 0.000000 0.078341
# 5 -0.011186 -0.026256 0.001390 0.000000 0.080702 0.000000
# 6 0.000000 0.000000 0.000000 0.078341 0.000000 0.003367
#
#
# Mechanical properties :
#
#
# Convention : Reuss Voigt Hill
#
# Bulk Modulus (GPa) = 28.46639 74.56445 51.51542
# Shear Modulus (GPa) = -66.03015 29.23803 -18.39606
#
# Velocity S-wave (km/s) = -5.52762 3.67825 -2.91762
# Velocity P-wave (km/s) = 5.25043 7.24866 3.53384
#
# Compressibility (1/GPa) = 0.03512915
#
# Stress axis : x y z
#
# Youngs Moduli (GPa) = 74.17120 26.24542 80.16049
#
# Poissons Ratio (x) = 0.27693 0.01198
# Poissons Ratio (y) = 0.78261 0.30174
# Poissons Ratio (z) = 0.01108 0.09879
#
# Static dielectric constant tensor:
#      x y z
#    x 1.819930 0.000000 -0.050150 
#    y 0.000000 1.757320 0.000000 
#    z -0.050150 0.000000 1.905950 
# 
# From -- ./inp_files/135192.got.cif
#   From: 2010.05.17/outbox.cif.g08.bks.cpg/sg12_68_cif.got.tgz:135192.got - 2010.06.03 13:09:07.
