data_PCOD9223140
_publ_section_title
;
Structure prediction by ZEFSAII (Michael W. Deem and Ramdas Pophale) SiO2 
 PCOD9223140
Probable space group: C 2/M
;
_chemical_formula_sum "Si O2"
_cell_formula_units_Z 40
_cell_length_a 14.838628
_cell_length_b 7.405583
_cell_length_c 18.101617
_cell_angle_alpha 90.000000
_cell_angle_beta 69.800801
_cell_angle_gamma 90.000000
_cell_volume 1866.825200
_symmetry_space_group_name_H-M "C 2/M"
_symmetry_group_IT_number 12
_symmetry_cell_setting 'monoclinic'
loop_
_space_group_symop_operation_xyz
x,y,z
-x,y,-z
-x,-y,-z
x,-y,z
1/2+x,1/2+y,z
1/2-x,1/2+y,-z
1/2-x,1/2-y,-z
1/2+x,1/2-y,z
loop_
_atom_site_type_symbol
_atom_site_label
_atom_site_fract_x
_atom_site_fract_y
_atom_site_fract_z
Si Si1 0.105203 0.212987 0.988616
Si Si2 0.807950 0.718301 0.876595
Si Si3 0.650595 0.792081 0.431392
Si Si4 0.632269 0.218887 0.601934
Si Si5 0.072755 0.720807 0.298050
O O1 0.132377 0.233487 0.066934
O O2 0.101306 0.000000 0.972494
O O3 0.198645 0.285194 0.918538
O O4 0.000000 0.288533 0.000000
O O5 0.804323 0.500000 0.875157
O O6 0.861710 0.782200 0.788058
O O7 0.621647 0.716875 0.519729
O O8 0.766086 0.785514 0.397327
O O9 0.610121 0.714702 0.367179
O O10 0.618076 0.000000 0.441890
O O11 0.539150 0.270785 0.674741
O O12 0.638031 0.000000 0.598348
O O13 0.076890 0.500000 0.296863
#
# Coordination Sequence:
#
# PCOD9223140 Si02
#       5
#     8   8   8   8   8
#     4   9  18  33  51  69  92 121 149 183 230 276
#     4   9  18  32  49  70  93 118 153 190 222 268
#     4   9  17  30  48  68  91 122 157 189 224 268
#     4   9  17  30  47  67  92 122 156 191 225 264
#     4   9  17  30  48  68  92 123 155 186 224 271
#
# _framework density 21.426749999999998
#
# number of rings (size 3 to 8) (size 9 to 14) (size 15 to 20)
#    0.000    3.000    0.000    0.600    0.000    4.400 
#    0.000    5.000    0.000    4.800    0.000    0.000 
#    0.000    0.000    0.000    0.000    0.000    0.000 
#
# Total GULP energy -111601.668165 kJ/mol
# GULP energy per Si atom -5580.083408 kJ/mol
# Density = 2.137798 g / cm^3
# Si number density = 21.426750 Si / 1000 Ang^3
#
#
#
# Elastic Constant Matrix: (Units=GPa)
#
#
# Indices 1 2 3 4 5 6 
#
# 1 142.8440 1.0831 70.9698 0.0000 -31.8970 0.0000
# 2 1.0831 67.7224 1.6041 0.0000 -6.3616 0.0000
# 3 70.9698 1.6041 78.6378 0.0000 -34.6976 0.0000
# 4 0.0000 0.0000 0.0000 8.8916 0.0000 3.5824
# 5 -31.8970 -6.3616 -34.6976 0.0000 22.4173 0.0000
# 6 0.0000 0.0000 0.0000 3.5824 0.0000 7.0149
#
#
#
# Elastic Compliance Matrix: (Units=1/GPa)
#
#
# Indices 1 2 3 4 5 6 
#
# 1 0.012701 0.000166 -0.010948 0.000000 0.001174 0.000000
# 2 0.000166 0.015827 0.005088 0.000000 0.012603 0.000000
# 3 -0.010948 0.005088 0.051274 0.000000 0.065228 0.000000
# 4 0.000000 0.000000 0.000000 0.141601 0.000000 -0.072313
# 5 0.001174 0.012603 0.065228 0.000000 0.150815 0.000000
# 6 0.000000 0.000000 0.000000 -0.072313 0.000000 0.179482
#
#
# Mechanical properties :
#
#
# Convention : Reuss Voigt Hill
#
# Bulk Modulus (GPa) = 14.61678 48.50204 31.55941
# Shear Modulus (GPa) = 8.53401 22.03459 15.28430
#
# Velocity S-wave (km/s) = 1.99788 3.21030 2.67372
# Velocity P-wave (km/s) = 3.48692 6.03545 4.92876
#
# Compressibility (1/GPa) = 0.06841451
#
# Stress axis : x y z
#
# Youngs Moduli (GPa) = 78.73578 63.18371 19.50313
#
# Poissons Ratio (x) = -0.01052 0.21352
# Poissons Ratio (y) = -0.01310 -0.09923
# Poissons Ratio (z) = 0.86198 -0.32147
#
# Static dielectric constant tensor:
#      x y z
#    x 1.757580 0.000000 -0.024190 
#    y 0.000000 1.810880 0.000000 
#    z -0.024190 0.000000 1.748410 
# 
# From -- ./inp_files/202867.got.cif
#   From: 2010.05.17/outbox.cif.g08.bks.cpg/sg12_102_cif.got.tgz:202867.got - 2010.06.03 13:09:07.
