data_PCOD9223053
_publ_section_title
;
Structure prediction by ZEFSAII (Michael W. Deem and Ramdas Pophale) SiO2 
 PCOD9223053
Probable space group: C 2/M
;
_chemical_formula_sum "Si O2"
_cell_formula_units_Z 48
_cell_length_a 35.890210
_cell_length_b 7.306566
_cell_length_c 28.941672
_cell_angle_alpha 90.000000
_cell_angle_beta 162.072760
_cell_angle_gamma 90.000000
_cell_volume 2336.115111
_symmetry_space_group_name_H-M "C 2/M"
_symmetry_group_IT_number 12
_symmetry_cell_setting 'monoclinic'
loop_
_space_group_symop_operation_xyz
x,y,z
-x,y,-z
-x,-y,-z
x,-y,z
1/2+x,1/2+y,z
1/2-x,1/2+y,-z
1/2-x,1/2-y,-z
1/2+x,1/2-y,z
loop_
_atom_site_type_symbol
_atom_site_label
_atom_site_fract_x
_atom_site_fract_y
_atom_site_fract_z
Si Si1 0.941764 0.276891 0.882242
Si Si2 0.071424 0.213653 0.755285
Si Si3 0.129460 0.723158 0.025945
Si Si4 0.828728 0.223352 0.420962
Si Si5 0.333973 0.221012 0.033843
Si Si6 0.368638 0.277261 0.362023
O O1 0.943355 0.500000 0.884174
O O2 0.802367 0.218233 0.715516
O O3 0.000000 0.221324 0.000000
O O4 0.024417 0.217586 0.936965
O O5 0.085923 0.227650 0.827477
O O6 0.945701 0.287556 0.587400
O O7 0.071228 0.000000 0.742269
O O8 0.196705 0.288277 0.881724
O O9 0.128202 0.500000 0.024543
O O10 0.258884 0.779421 0.199613
O O11 0.119767 0.781969 0.961441
O O12 0.843165 0.277162 0.384553
O O13 0.827257 0.000000 0.420330
O O14 0.329866 0.000000 0.028617
O O15 0.500000 0.216433 0.500000
O O16 0.369705 0.500000 0.362710
#
# Coordination Sequence:
#
# PCOD9223053 Si02
#       6
#     8   8   8   8   8   8
#     4   9  14  22  35  54  83 115 137 162 209 260
#     4   9  17  29  44  62  85 113 143 174 209 248
#     4   9  15  23  36  56  82 109 138 170 208 252
#     4   9  15  23  36  56  82 109 138 170 208 252
#     4   9  17  29  44  62  85 113 143 174 209 248
#     4   9  14  19  31  53  80 105 129 166 214 255
#
# _framework density 20.546932000000002
#
# number of rings (size 3 to 8) (size 9 to 14) (size 15 to 20)
#    0.000    3.000    1.667    1.000    0.000    4.000 
#    0.000    0.833    0.000    0.000    0.000    1.167 
#    0.000    8.000    0.000    0.000    0.000    0.000 
#
# Total GULP energy -133990.049639 kJ/mol
# GULP energy per Si atom -5582.918735 kJ/mol
# Density = 2.050017 g / cm^3
# Si number density = 20.546932 Si / 1000 Ang^3
#
#
#
# Elastic Constant Matrix: (Units=GPa)
#
#
# Indices 1 2 3 4 5 6 
#
# 1 109.4641 -16.3461 4.9201 0.0000 8.3062 0.0000
# 2 -16.3461 80.2765 -11.5603 0.0004 3.3189 -0.0002
# 3 4.9201 -11.5603 41.9147 0.0000 2.0242 0.0000
# 4 0.0000 0.0004 0.0000 -5.0826 0.0000 -8.9640
# 5 8.3062 3.3189 2.0242 0.0000 31.0634 0.0000
# 6 0.0000 -0.0002 0.0000 -8.9640 0.0000 -0.6472
#
#
#
# Elastic Compliance Matrix: (Units=1/GPa)
#
#
# Indices 1 2 3 4 5 6 
#
# 1 0.009667 0.002019 -0.000444 0.000000 -0.002772 0.000000
# 2 0.002019 0.013476 0.003587 0.000000 -0.002213 0.000001
# 3 -0.000444 0.003587 0.024991 0.000000 -0.001893 0.000000
# 4 0.000000 0.000000 0.000000 0.008399 0.000000 -0.116320
# 5 -0.002772 -0.002213 -0.001893 0.000000 0.033293 0.000000
# 6 0.000000 0.000001 0.000000 -0.116320 0.000000 0.065953
#
#
# Mechanical properties :
#
#
# Convention : Reuss Voigt Hill
#
# Bulk Modulus (GPa) = 17.10641 20.63139 18.86890
# Shear Modulus (GPa) = 30.31374 22.04284 26.17829
#
# Velocity S-wave (km/s) = 3.84518 3.27892 3.57329
# Velocity P-wave (km/s) = 5.29694 4.93943 5.12131
#
# Compressibility (1/GPa) = 0.05845761
#
# Stress axis : x y z
#
# Youngs Moduli (GPa) = 103.44250 74.20545 40.01481
#
# Poissons Ratio (x) = -0.14983 0.01777
# Poissons Ratio (y) = -0.20886 -0.14352
# Poissons Ratio (z) = 0.04593 -0.26615
#
# Static dielectric constant tensor:
#      x y z
#    x 1.689760 0.000000 0.008760 
#    y 0.000000 1.829030 0.000000 
#    z 0.008760 0.000000 1.695190 
# 
# From -- ./inp_files/164159.got.cif
#   From: 2010.05.17/outbox.cif.g08.bks.cpg/sg12_83_cif.got.tgz:164159.got - 2010.06.03 13:09:07.
