data_PCOD9223462
_publ_section_title
;
Structure prediction by ZEFSAII (Michael W. Deem and Ramdas Pophale) SiO2 
 PCOD9223462
Probable space group: C 2/M
;
_chemical_formula_sum "Si O2"
_cell_formula_units_Z 32
_cell_length_a 30.000000
_cell_length_b 9.000000
_cell_length_c 30.000000
_cell_angle_alpha 90.000000
_cell_angle_beta 30.000000
_cell_angle_gamma 90.000000
_cell_volume 4050.000000
_symmetry_space_group_name_H-M "C 2/M"
_symmetry_group_IT_number 12
_symmetry_cell_setting 'monoclinic'
loop_
_space_group_symop_operation_xyz
x,y,z
-x,y,-z
-x,-y,-z
x,-y,z
1/2+x,1/2+y,z
1/2-x,1/2+y,-z
1/2-x,1/2-y,-z
1/2+x,1/2-y,z
loop_
_atom_site_type_symbol
_atom_site_label
_atom_site_fract_x
_atom_site_fract_y
_atom_site_fract_z
Si Si1 0.924536 0.177892 0.780245
Si Si2 0.795550 0.328591 0.394990
Si Si3 0.119352 0.173942 0.594495
Si Si4 0.090845 0.820705 0.871149
Si Si5 0.592803 0.323818 0.773745
Si Si6 0.078181 0.677528 0.120871
Si Si7 0.730712 0.178403 0.922734
Si Si8 0.881182 0.178800 0.058191
O O1 0.932274 0.252577 0.821643
O O2 0.832550 0.228988 0.838089
O O3 0.016294 0.206740 0.674697
O O4 0.917960 0.000000 0.792254
O O5 0.816567 0.500000 0.366511
O O6 0.844431 0.281223 0.398328
O O7 0.690092 0.312751 0.493721
O O8 0.834508 0.219869 0.324967
O O9 0.124801 0.000000 0.605019
O O10 0.126752 0.774137 0.792636
O O11 0.138150 0.768192 0.874795
O O12 0.093941 0.000000 0.871141
O O13 0.985697 0.783962 0.961563
O O14 0.575607 0.500000 0.788957
O O15 0.501268 0.242361 0.840318
O O16 0.071274 0.500000 0.129008
O O17 0.172663 0.717958 0.016695
O O18 0.679932 0.246983 0.925182
O O19 0.729129 0.000000 0.920502
O O20 0.873424 0.000000 0.061389
#
# Coordination Sequence:
#
# PCOD9223462 Si02
#       8
#     8   8   8   8   8   8   8   8
#     4  10  20  34  49  64  89 128 164 189 221 273
#     4  10  19  30  46  69  94 116 149 197 235 272
#     4   9  18  32  48  65  88 123 158 188 230 275
#     4   8  16  29  48  69  89 117 156 192 223 273
#     4  11  19  30  48  69  93 125 155 183 229 283
#     4  11  21  31  43  66  97 125 157 194 223 258
#     4  10  21  33  45  67  97 124 155 193 231 267
#     4   9  16  31  50  67  88 119 157 192 225 270
#
# _framework density 7.9012349999999998
#
# number of rings (size 3 to 8) (size 9 to 14) (size 15 to 20)
#    0.000    2.250    2.500    2.250    0.000    1.500 
#    0.000    2.500    0.000    0.000    0.000    0.875 
#    0.000    7.000    0.000    0.000    0.000    0.000 
#
# Total GULP energy -178215.942976 kJ/mol
# GULP energy per Si atom -5569.248218 kJ/mol
# Density = 0.788325 g / cm^3
# Si number density = 7.901235 Si / 1000 Ang^3
#
#
#
# Elastic Constant Matrix: (Units=GPa)
#
#
# Indices 1 2 3 4 5 6 
#
# 1 16.4065 -5.1293 9.0282 0.0155 -5.7196 0.0020
# 2 -5.1293 0.0083 7.3131 0.0208 -7.5246 -0.0006
# 3 9.0282 7.3131 62.8480 0.0003 -21.0041 0.0037
# 4 0.0155 0.0208 0.0003 5.2244 0.0057 -6.4079
# 5 -5.7196 -7.5246 -21.0041 0.0057 15.1291 0.0014
# 6 0.0020 -0.0006 0.0037 -6.4079 0.0014 14.5055
#
#
#
# Elastic Compliance Matrix: (Units=1/GPa)
#
#
# Indices 1 2 3 4 5 6 
#
# 1 0.033777 -0.066056 -0.007235 0.000422 -0.030128 0.000184
# 2 -0.066056 -0.119215 -0.008957 0.001742 -0.096702 0.000785
# 3 -0.007235 -0.008957 0.029085 0.000015 0.033190 -0.000003
# 4 0.000422 0.001742 0.000015 0.417751 0.000872 0.184546
# 5 -0.030128 -0.096702 0.033190 0.000872 0.052690 0.000372
# 6 0.000184 0.000785 -0.000003 0.184546 0.000372 0.150464
#
#
# Mechanical properties :
#
#
# Convention : Reuss Voigt Hill
#
# Bulk Modulus (GPa) = -4.52799 11.29854 3.38527
# Shear Modulus (GPa) = 7.62855 11.50852 9.56854
#
# Velocity S-wave (km/s) = 2.19953 2.70158 2.46338
# Velocity P-wave (km/s) = 1.89182 4.11057 3.19967
#
# Compressibility (1/GPa) = -0.22084845
#
# Stress axis : x y z
#
# Youngs Moduli (GPa) = 29.60584 -8.38820 34.38188
#
# Poissons Ratio (x) = -0.55409 0.24874
# Poissons Ratio (y) = 1.95565 0.30796
# Poissons Ratio (z) = 0.21419 -0.07513
#
# Static dielectric constant tensor:
#      x y z
#    x 1.520130 0.000000 0.022050 
#    y 0.000000 1.529890 0.000010 
#    z 0.022050 0.000010 1.561620 
# 
# From -- ./inp_files/248274.got.cif
#   From: 2010.05.17/outbox.ucp.g08.bks.cvg/sg12_125_cif.got.tgz:248274.got - 2010.06.11 11:47:21.
