data_PCOD9223268
_publ_section_title
;
Structure prediction by ZEFSAII (Michael W. Deem and Ramdas Pophale) SiO2 
 PCOD9223268
Probable space group: C 2/M
;
_chemical_formula_sum "Si O2"
_cell_formula_units_Z 32
_cell_length_a 21.000000
_cell_length_b 9.000000
_cell_length_c 21.000000
_cell_angle_alpha 90.000000
_cell_angle_beta 60.000000
_cell_angle_gamma 90.000000
_cell_volume 3437.254828
_symmetry_space_group_name_H-M "C 2/M"
_symmetry_group_IT_number 12
_symmetry_cell_setting 'monoclinic'
loop_
_space_group_symop_operation_xyz
x,y,z
-x,y,-z
-x,-y,-z
x,-y,z
1/2+x,1/2+y,z
1/2-x,1/2+y,-z
1/2-x,1/2-y,-z
1/2+x,1/2-y,z
loop_
_atom_site_type_symbol
_atom_site_label
_atom_site_fract_x
_atom_site_fract_y
_atom_site_fract_z
Si Si1 0.964758 0.177848 0.583729
Si Si2 0.995189 0.822952 0.711628
Si Si3 0.466070 0.830290 0.190407
Si Si4 0.820034 0.663464 0.686455
Si Si5 0.793210 0.328722 0.071762
Si Si6 0.305341 0.839462 0.218600
Si Si7 0.052567 0.821782 0.034589
Si Si8 0.652876 0.830165 0.174878
O O1 0.996733 0.228206 0.636937
O O2 0.880168 0.225905 0.629263
O O3 0.000000 0.233429 0.500000
O O4 0.970934 0.000000 0.580818
O O5 0.918622 0.772410 0.783253
O O6 0.049214 0.743046 0.733389
O O7 0.001682 0.000000 0.709602
O O8 0.389693 0.835558 0.192118
O O9 0.518231 0.738783 0.117082
O O10 0.491637 0.000000 0.185793
O O11 0.834702 0.500000 0.654344
O O12 0.737545 0.717409 0.719916
O O13 0.826487 0.661402 0.760240
O O14 0.789810 0.500000 0.052141
O O15 0.798975 0.327477 0.145946
O O16 0.716705 0.241964 0.100283
O O17 0.866532 0.247748 0.012245
O O18 0.272328 0.000000 0.252176
O O19 0.056878 0.000000 0.033141
O O20 0.000000 0.780107 0.000000
O O21 0.640478 0.000000 0.160993
#
# Coordination Sequence:
#
# PCOD9223268 Si02
#       8
#     8   8   8   8   8   8   8   8
#     4   9  18  34  57  82 108 138 169 204 251 307
#     4  10  20  35  54  78 106 136 172 211 255 310
#     4  11  22  36  53  74 103 141 178 214 260 310
#     4   9  17  28  48  78 107 132 165 212 256 296
#     4  10  18  31  51  74 100 132 174 221 265 307
#     4   9  18  31  49  72 100 136 175 212 253 304
#     4  11  22  34  50  74 104 136 175 222 266 306
#     4   9  17  31  50  73 101 134 171 212 260 310
#
# _framework density 9.3097549999999991
#
# number of rings (size 3 to 8) (size 9 to 14) (size 15 to 20)
#    0.000    2.250    1.250    2.250    0.000    5.750 
#    0.000    0.625    0.000    0.750    0.000    0.000 
#    0.000    0.000    0.000    0.000    0.000    0.000 
#
# Total GULP energy -178181.536522 kJ/mol
# GULP energy per Si atom -5568.173016 kJ/mol
# Density = 0.928857 g / cm^3
# Si number density = 9.309755 Si / 1000 Ang^3
#
#
#
# Elastic Constant Matrix: (Units=GPa)
#
#
# Indices 1 2 3 4 5 6 
#
# 1 22.1170 16.1479 3.3402 0.0000 -2.1718 -0.0004
# 2 16.1479 49.9192 24.2601 0.0006 6.2426 -0.0025
# 3 3.3402 24.2601 63.9007 -0.0001 3.1877 0.0003
# 4 0.0000 0.0006 -0.0001 53.0037 0.0000 -103.1977
# 5 -2.1718 6.2426 3.1877 0.0000 19.5169 0.0000
# 6 -0.0004 -0.0025 0.0003 -103.1977 0.0000 325.1814
#
#
#
# Elastic Compliance Matrix: (Units=1/GPa)
#
#
# Indices 1 2 3 4 5 6 
#
# 1 0.064218 -0.025243 0.005513 0.000000 0.014320 0.000000
# 2 -0.025243 0.035303 -0.011474 0.000000 -0.012227 0.000000
# 3 0.005513 -0.011474 0.019664 0.000000 0.001072 0.000000
# 4 0.000000 0.000000 0.000000 0.049374 0.000000 0.015669
# 5 0.014320 -0.012227 0.001072 0.000000 0.056567 0.000000
# 6 0.000000 0.000000 0.000000 0.015669 0.000000 0.008048
#
#
# Mechanical properties :
#
#
# Convention : Reuss Voigt Hill
#
# Bulk Modulus (GPa) = 17.61291 24.82593 21.21942
# Shear Modulus (GPa) = 15.89787 85.68632 50.79209
#
# Velocity S-wave (km/s) = 2.92520 6.79114 5.22859
# Velocity P-wave (km/s) = 4.57045 8.65188 6.91896
#
# Compressibility (1/GPa) = 0.05677654
#
# Stress axis : x y z
#
# Youngs Moduli (GPa) = 15.57194 28.32612 50.85527
#
# Poissons Ratio (x) = 0.71504 -0.28034
# Poissons Ratio (y) = 0.39309 0.58349
# Poissons Ratio (z) = -0.08584 0.32500
#
# Static dielectric constant tensor:
#      x y z
#    x 1.746720 0.000000 0.019430 
#    y 0.000000 1.679740 0.000000 
#    z 0.019430 0.000000 1.610710 
# 
# From -- ./inp_files/319849.got.cif
#   From: 2010.05.17/outbox.ucp.g08.bks.cvg/sg12_160_cif.got.tgz:319849.got - 2010.06.11 11:47:21.
