data_PCOD9223481
_publ_section_title
;
Structure prediction by ZEFSAII (Michael W. Deem and Ramdas Pophale) SiO2 
 PCOD9223481
Probable space group: C 2/M
;
_chemical_formula_sum "Si O2"
_cell_formula_units_Z 28
_cell_length_a 30.000000
_cell_length_b 9.000000
_cell_length_c 18.000000
_cell_angle_alpha 90.000000
_cell_angle_beta 40.000000
_cell_angle_gamma 90.000000
_cell_volume 3123.947783
_symmetry_space_group_name_H-M "C 2/M"
_symmetry_group_IT_number 12
_symmetry_cell_setting 'monoclinic'
loop_
_space_group_symop_operation_xyz
x,y,z
-x,y,-z
-x,-y,-z
x,-y,z
1/2+x,1/2+y,z
1/2-x,1/2+y,-z
1/2-x,1/2-y,-z
1/2+x,1/2-y,z
loop_
_atom_site_type_symbol
_atom_site_label
_atom_site_fract_x
_atom_site_fract_y
_atom_site_fract_z
Si Si1 0.705668 0.178256 0.122761
Si Si2 0.290861 0.679263 0.517260
Si Si3 0.319269 0.170139 0.223617
Si Si4 0.670830 0.323157 0.941297
Si Si5 0.059347 0.680245 0.688856
Si Si6 0.916685 0.678612 0.813676
Si Si7 0.962646 0.328494 0.119291
O O1 0.749029 0.217871 0.140412
O O2 0.626954 0.221004 0.204102
O O3 0.709335 0.000000 0.112222
O O4 0.750000 0.250000 0.000000
O O5 0.289935 0.500000 0.511948
O O6 0.250000 0.750000 0.500000
O O7 0.248995 0.719948 0.645605
O O8 0.368290 0.742180 0.419563
O O9 0.342032 0.265177 0.124394
O O10 0.381525 0.170321 0.203532
O O11 0.310276 0.000000 0.209835
O O12 0.662805 0.500000 0.955498
O O13 0.622085 0.249643 0.065849
O O14 0.069100 0.500000 0.679736
O O15 0.031379 0.731923 0.805687
O O16 0.997494 0.716546 0.711335
O O17 0.912707 0.500000 0.827901
O O18 0.988774 0.500000 0.090069
O O19 0.000000 0.258618 0.000000
#
# Coordination Sequence:
#
# PCOD9223481 Si02
#       7
#     8   8   8   8   8   8   8
#     4   8  15  28  46  72 102 132 164 199 243 293
#     4  11  22  37  55  72  96 130 170 214 251 293
#     4  10  20  34  50  69  96 132 170 202 242 300
#     4  10  19  30  48  76 108 133 162 208 251 290
#     4  10  19  33  53  75  98 129 169 208 246 293
#     4   9  17  31  53  76 102 136 168 198 243 308
#     4   9  16  28  47  70  96 125 157 194 236 289
#
# _framework density 8.9630179999999999
#
# number of rings (size 3 to 8) (size 9 to 14) (size 15 to 20)
#    0.000    2.429    1.429    1.714    0.000    4.571 
#    0.000    0.000    0.000    2.571    0.000    6.000 
#    0.000    0.000    0.000    0.000    0.000    0.000 
#
# Total GULP energy -155910.586512 kJ/mol
# GULP energy per Si atom -5568.235233 kJ/mol
# Density = 0.894262 g / cm^3
# Si number density = 8.963018 Si / 1000 Ang^3
#
#
#
# Elastic Constant Matrix: (Units=GPa)
#
#
# Indices 1 2 3 4 5 6 
#
# 1 71.0588 10.7509 -1.7654 -0.0015 -26.3383 0.0011
# 2 10.7509 13.5291 5.8740 -0.0039 -7.1946 0.0048
# 3 -1.7654 5.8740 51.4224 -0.0014 -21.4902 0.0017
# 4 -0.0015 -0.0039 -0.0014 23.7040 0.0014 -4.3393
# 5 -26.3383 -7.1946 -21.4902 0.0014 26.8951 -0.0013
# 6 0.0011 0.0048 0.0017 -4.3393 -0.0013 15.7323
#
#
#
# Elastic Compliance Matrix: (Units=1/GPa)
#
#
# Indices 1 2 3 4 5 6 
#
# 1 0.034678 -0.011322 0.023136 -0.000001 0.049418 0.000002
# 2 -0.011322 0.089873 -0.007869 0.000009 0.006667 -0.000022
# 3 0.023136 -0.007869 0.044634 -0.000001 0.056217 0.000000
# 4 -0.000001 0.000009 -0.000001 0.044430 -0.000001 0.012255
# 5 0.049418 0.006667 0.056217 -0.000001 0.132279 -0.000001
# 6 0.000002 -0.000022 0.000000 0.012255 -0.000001 0.066944
#
#
# Mechanical properties :
#
#
# Convention : Reuss Voigt Hill
#
# Bulk Modulus (GPa) = 5.64728 18.41435 12.03082
# Shear Modulus (GPa) = 10.77654 21.34302 16.05978
#
# Velocity S-wave (km/s) = 2.45453 3.45427 2.99639
# Velocity P-wave (km/s) = 3.34516 5.11899 4.32401
#
# Compressibility (1/GPa) = 0.17707641
#
# Stress axis : x y z
#
# Youngs Moduli (GPa) = 28.83702 11.12681 22.40460
#
# Poissons Ratio (x) = 0.12597 -0.51836
# Poissons Ratio (y) = 0.32648 0.17629
# Poissons Ratio (z) = -0.66718 0.08755
#
# Static dielectric constant tensor:
#      x y z
#    x 1.657400 0.000000 -0.032460 
#    y 0.000000 1.610590 0.000000 
#    z -0.032460 0.000000 1.598220 
# 
# From -- ./inp_files/287911.got.cif
#   From: 2010.05.17/outbox.ucp.g08.bks.cvg/sg12_144_cif.got.tgz:287911.got - 2010.06.11 11:47:21.
