data_PCOD9223871
_publ_section_title
;
Structure prediction by ZEFSAII (Michael W. Deem and Ramdas Pophale) SiO2 
 PCOD9223871
Probable space group: C 2/M
;
_chemical_formula_sum "Si O2"
_cell_formula_units_Z 18
_cell_length_a 9.000000
_cell_length_b 30.000000
_cell_length_c 9.000000
_cell_angle_alpha 90.000000
_cell_angle_beta 50.000000
_cell_angle_gamma 90.000000
_cell_volume 1861.487997
_symmetry_space_group_name_H-M "C 2/M"
_symmetry_group_IT_number 12
_symmetry_cell_setting 'monoclinic'
loop_
_space_group_symop_operation_xyz
x,y,z
-x,y,-z
-x,-y,-z
x,-y,z
1/2+x,1/2+y,z
1/2-x,1/2+y,-z
1/2-x,1/2-y,-z
1/2+x,1/2-y,z
loop_
_atom_site_type_symbol
_atom_site_label
_atom_site_fract_x
_atom_site_fract_y
_atom_site_fract_z
Si Si1 0.923269 0.950433 0.216593
Si Si2 0.104929 0.861077 0.224112
Si Si3 0.000000 0.587965 0.500000
Si Si4 0.616310 0.207037 0.078851
Si Si5 0.698812 0.157957 0.583178
O O1 0.693965 0.940409 0.351291
O O2 0.036514 0.911127 0.230522
O O3 0.954396 0.000000 0.260300
O O4 0.000000 0.949554 0.000000
O O5 0.219981 0.857539 0.306968
O O6 0.899229 0.834848 0.366090
O O7 0.244520 0.836546 0.017501
O O8 0.930669 0.619911 0.410281
O O9 0.446764 0.199399 0.307342
O O10 0.500000 0.209384 0.000000
O O11 0.750000 0.250000 0.000000
#
# Coordination Sequence:
#
# PCOD9223871 Si02
#       5
#     8   8   4   8   8
#     4  10  20  34  54  80 107 137 174 215 260 310
#     4   9  19  37  54  73 107 140 172 213 258 309
#     4  10  19  34  56  78 106 138 174 218 259 304
#     4  10  21  35  54  78 104 135 173 215 260 312
#     4   9  19  35  54  76 103 139 173 211 260 306
#
# _framework density 9.6696840000000002
#
# number of rings (size 3 to 8) (size 9 to 14) (size 15 to 20)
#    0.000    2.444    0.000    1.667    0.000    5.333 
#    0.000   12.222    0.000    8.667    0.000    0.000 
#    0.000    0.000    0.000    0.000    0.000    0.000 
#
# Total GULP energy -100281.514044 kJ/mol
# GULP energy per Si atom -5571.195225 kJ/mol
# Density = 0.964767 g / cm^3
# Si number density = 9.669684 Si / 1000 Ang^3
#
#
#
# Elastic Constant Matrix: (Units=GPa)
#
#
# Indices 1 2 3 4 5 6 
#
# 1 85.0010 51.9428 28.7771 0.0000 -35.0807 0.0000
# 2 51.9428 94.7828 36.2236 0.0000 -33.2823 0.0000
# 3 28.7771 36.2236 79.1433 0.0000 -29.3841 0.0000
# 4 0.0000 0.0000 0.0000-1131.4792 0.0000 843.9291
# 5 -35.0807 -33.2823 -29.3841 0.0000 20.6511 0.0000
# 6 0.0000 0.0000 0.0000 843.9291 0.0000 -603.9239
#
#
#
# Elastic Compliance Matrix: (Units=1/GPa)
#
#
# Indices 1 2 3 4 5 6 
#
# 1 0.097100 0.027979 0.063324 0.000000 0.300142 0.000000
# 2 0.027979 0.034501 0.026131 0.000000 0.140313 0.000000
# 3 0.063324 0.026131 0.070433 0.000000 0.249902 0.000000
# 4 0.000000 0.000000 0.000000 0.020905 0.000000 0.029213
# 5 0.300142 0.140313 0.249902 0.000000 1.140003 0.000000
# 6 0.000000 0.000000 0.000000 0.029213 0.000000 0.039166
#
#
# Mechanical properties :
#
#
# Convention : Reuss Voigt Hill
#
# Bulk Modulus (GPa) = 2.28884 54.75713 28.52298
# Shear Modulus (GPa) = 3.80843 -333.48483 -164.83820
#
# Velocity S-wave (km/s) = 1.40483 -13.14582 -9.24227
# Velocity P-wave (km/s) = 1.95384 14.21413 9.95551
#
# Compressibility (1/GPa) = 0.43690164
#
# Stress axis : x y z
#
# Youngs Moduli (GPa) = 10.29863 28.98489 14.19782
#
# Poissons Ratio (x) = -0.81097 -0.89906
# Poissons Ratio (y) = -0.28815 -0.37100
# Poissons Ratio (z) = -0.65215 -0.75740
#
# Static dielectric constant tensor:
#      x y z
#    x 1.627320 0.000000 0.004480 
#    y 0.000000 1.696860 0.000000 
#    z 0.004480 0.000000 1.758330 
# 
# From -- ./inp_files/39520.got.cif
#   From: 2010.05.17/outbox.ucp.g08.bks.cvg/sg12_20_cif.got.tgz:39520.got - 2010.06.11 11:47:21.
