data_PCOD9223992
_publ_section_title
;
Structure prediction by ZEFSAII (Michael W. Deem and Ramdas Pophale) SiO2 
 PCOD9223992
Probable space group: C 2/M
;
_chemical_formula_sum "Si O2"
_cell_formula_units_Z 28
_cell_length_a 27.000000
_cell_length_b 9.000000
_cell_length_c 18.000000
_cell_angle_alpha 90.000000
_cell_angle_beta 40.000000
_cell_angle_gamma 90.000000
_cell_volume 2811.553005
_symmetry_space_group_name_H-M "C 2/M"
_symmetry_group_IT_number 12
_symmetry_cell_setting 'monoclinic'
loop_
_space_group_symop_operation_xyz
x,y,z
-x,y,-z
-x,-y,-z
x,-y,z
1/2+x,1/2+y,z
1/2-x,1/2+y,-z
1/2-x,1/2-y,-z
1/2+x,1/2-y,z
loop_
_atom_site_type_symbol
_atom_site_label
_atom_site_fract_x
_atom_site_fract_y
_atom_site_fract_z
Si Si1 0.255156 0.676459 0.637112
Si Si2 0.067377 0.177599 0.042570
Si Si3 0.232809 0.172018 0.802346
Si Si4 0.308073 0.170438 0.877119
Si Si5 0.544503 0.323416 0.242729
Si Si6 0.413158 0.831369 0.200625
Si Si7 0.389297 0.832025 0.405231
O O1 0.253907 0.500000 0.629457
O O2 0.279016 0.728358 0.691385
O O3 0.167799 0.734898 0.731598
O O4 0.311040 0.748332 0.513478
O O5 0.065942 0.214255 0.132115
O O6 0.990031 0.241893 0.096716
O O7 0.066845 0.000000 0.037817
O O8 0.146115 0.231336 0.915523
O O9 0.271369 0.171925 0.838290
O O10 0.229818 0.000000 0.779885
O O11 0.388702 0.254158 0.785272
O O12 0.318977 0.000000 0.888332
O O13 0.250000 0.250000 0.000000
O O14 0.542004 0.500000 0.251334
O O15 0.461781 0.254727 0.355042
O O16 0.403636 0.836756 0.300781
O O17 0.420636 0.000000 0.164102
O O18 0.385457 0.000000 0.437714
#
# Coordination Sequence:
#
# PCOD9223992 Si02
#       7
#     8   8   8   8   8   8   8
#     4  11  23  38  55  80 113 150 188 233 281 326
#     4   9  18  34  55  81 112 146 184 226 276 329
#     4  10  22  39  55  79 115 151 187 226 274 336
#     4  11  21  36  59  86 115 146 185 229 277 332
#     4  10  19  35  58  87 116 143 182 233 280 327
#     4   9  20  36  56  83 112 143 187 233 278 328
#     4  10  20  37  60  84 110 147 189 230 278 332
#
# _framework density 9.9589090000000002
#
# number of rings (size 3 to 8) (size 9 to 14) (size 15 to 20)
#    0.000    2.000    1.429    2.143    0.000    4.571 
#    0.000    3.571    0.000    4.286    0.000    0.000 
#    0.000    0.000    0.000    0.000    0.000    0.000 
#
# Total GULP energy -156263.342373 kJ/mol
# GULP energy per Si atom -5580.833656 kJ/mol
# Density = 0.993624 g / cm^3
# Si number density = 9.958909 Si / 1000 Ang^3
#
#
#
# Elastic Constant Matrix: (Units=GPa)
#
#
# Indices 1 2 3 4 5 6 
#
# 1 49.4000 26.7153 42.6615 -0.0017 -23.8118 0.0011
# 2 26.7153 45.1758 26.0398 0.0029 -3.8568 -0.0020
# 3 42.6615 26.0398 37.4384 -0.0009 -6.8897 -0.0012
# 4 -0.0017 0.0029 -0.0009 23.5612 0.0007 -8.8519
# 5 -23.8118 -3.8568 -6.8897 0.0007 18.7803 0.0004
# 6 0.0011 -0.0020 -0.0012 -8.8519 0.0004 22.6129
#
#
#
# Elastic Compliance Matrix: (Units=1/GPa)
#
#
# Indices 1 2 3 4 5 6 
#
# 1 -0.071818 -0.005596 0.073740 0.000004 -0.065156 0.000010
# 2 -0.005596 0.036582 -0.020365 -0.000005 -0.007054 0.000001
# 3 0.073740 -0.020365 -0.028650 0.000001 0.078802 -0.000008
# 4 0.000004 -0.000005 0.000001 0.049761 0.000002 0.019479
# 5 -0.065156 -0.007054 0.078802 0.000002 -0.001904 0.000008
# 6 0.000010 0.000001 -0.000008 0.019479 0.000008 0.051848
#
#
# Mechanical properties :
#
#
# Convention : Reuss Voigt Hill
#
# Bulk Modulus (GPa) = 31.57578 35.87195 33.72386
# Shear Modulus (GPa) = -101.66043 15.43072 -43.11485
#
# Velocity S-wave (km/s) = -7.15197 2.78640 -4.65761
# Velocity P-wave (km/s) = 7.23281 5.32927 3.45778
#
# Compressibility (1/GPa) = 0.03166984
#
# Stress axis : x y z
#
# Youngs Moduli (GPa) = -13.92400 27.33622 -34.90379
#
# Poissons Ratio (x) = 0.15298 2.57379
# Poissons Ratio (y) = -0.07792 -0.71082
# Poissons Ratio (z) = 1.02675 0.55670
#
# Static dielectric constant tensor:
#      x y z
#    x 1.753430 0.000000 0.013480 
#    y 0.000000 1.685960 0.000000 
#    z 0.013480 0.000000 1.677310 
# 
# From -- ./inp_files/288196.got.cif
#   From: 2010.05.17/outbox.ucp.g08.bks.cvg/sg12_145_cif.got.tgz:288196.got - 2010.06.11 11:47:21.
