data_PCOD9223697
_publ_section_title
;
Structure prediction by ZEFSAII (Michael W. Deem and Ramdas Pophale) SiO2 
 PCOD9223697
Probable space group: C 2/M
;
_chemical_formula_sum "Si O2"
_cell_formula_units_Z 32
_cell_length_a 24.000000
_cell_length_b 9.000000
_cell_length_c 24.000000
_cell_angle_alpha 90.000000
_cell_angle_beta 50.000000
_cell_angle_gamma 90.000000
_cell_volume 3971.174393
_symmetry_space_group_name_H-M "C 2/M"
_symmetry_group_IT_number 12
_symmetry_cell_setting 'monoclinic'
loop_
_space_group_symop_operation_xyz
x,y,z
-x,y,-z
-x,-y,-z
x,-y,z
1/2+x,1/2+y,z
1/2-x,1/2+y,-z
1/2-x,1/2-y,-z
1/2+x,1/2-y,z
loop_
_atom_site_type_symbol
_atom_site_label
_atom_site_fract_x
_atom_site_fract_y
_atom_site_fract_z
Si Si1 0.314630 0.821556 0.687092
Si Si2 0.608600 0.678263 0.563966
Si Si3 0.113155 0.179791 0.688541
Si Si4 0.432066 0.826583 0.000569
Si Si5 0.270002 0.678441 0.600832
Si Si6 0.668618 0.321921 0.846714
Si Si7 0.465243 0.321913 0.150934
Si Si8 0.482066 0.176449 0.576130
O O1 0.305520 0.735828 0.634933
O O2 0.248941 0.779321 0.771852
O O3 0.398878 0.794208 0.648226
O O4 0.306845 0.000000 0.682657
O O5 0.610888 0.500000 0.562320
O O6 0.600318 0.726372 0.633179
O O7 0.681042 0.727763 0.483720
O O8 0.539331 0.734746 0.575385
O O9 0.190863 0.249393 0.652293
O O10 0.053951 0.222994 0.773398
O O11 0.118531 0.000000 0.687703
O O12 0.465291 0.751952 0.923605
O O13 0.417419 0.000000 0.000674
O O14 0.500000 0.813526 0.000000
O O15 0.363585 0.752081 0.076350
O O16 0.265329 0.500000 0.603339
O O17 0.668713 0.500000 0.854389
O O18 0.608006 0.287644 0.838001
O O19 0.474818 0.500000 0.142529
O O20 0.500000 0.212320 0.500000
O O21 0.494522 0.000000 0.574246
#
# Coordination Sequence:
#
# PCOD9223697 Si02
#       8
#     8   8   8   8   8   8   8   8
#     4  10  19  33  51  72  96 130 167 202 243 288
#     4  10  22  36  50  70  98 131 167 206 248 289
#     4  10  20  35  51  69  97 134 169 200 238 291
#     4   9  17  27  41  65  98 127 150 187 237 286
#     4  11  21  31  47  73 100 129 163 204 247 287
#     4   9  16  28  46  67  92 124 162 195 229 283
#     4   9  16  28  47  67  90 126 163 191 228 284
#     4  10  20  34  54  73  93 126 168 209 248 288
#
# _framework density 8.0580700000000007
#
# number of rings (size 3 to 8) (size 9 to 14) (size 15 to 20)
#    0.000    2.250    2.500    1.125    0.000    4.250 
#    0.000    0.000    0.000    0.000    0.000    0.875 
#    0.000    0.000    0.000    0.000    0.000    0.000 
#
# Total GULP energy -178272.003462 kJ/mol
# GULP energy per Si atom -5571.000108 kJ/mol
# Density = 0.803973 g / cm^3
# Si number density = 8.058070 Si / 1000 Ang^3
#
#
#
# Elastic Constant Matrix: (Units=GPa)
#
#
# Indices 1 2 3 4 5 6 
#
# 1 1.2773 -0.2586 12.1939 0.0000 5.6439 -0.0002
# 2 -0.2586 6.3638 33.7380 -0.0001 3.1561 -0.0006
# 3 12.1939 33.7380 170.7710 0.0000 1.1485 0.0000
# 4 0.0000 -0.0001 0.0000 24.7408 0.0000 -2.2414
# 5 5.6439 3.1561 1.1485 0.0000 21.1447 0.0000
# 6 -0.0002 -0.0006 0.0000 -2.2414 0.0000 14.3831
#
#
#
# Elastic Compliance Matrix: (Units=1/GPa)
#
#
# Indices 1 2 3 4 5 6 
#
# 1 0.063886 -0.310467 0.056599 -0.000002 0.026215 -0.000011
# 2 -0.310467 0.095432 0.002855 0.000001 0.068469 0.000000
# 3 0.056599 0.002855 0.001355 0.000000 -0.015607 0.000001
# 4 -0.000002 0.000001 0.000000 0.040998 0.000000 0.006389
# 5 0.026215 0.068469 -0.015607 0.000000 0.030924 0.000003
# 6 -0.000011 0.000000 0.000001 0.006389 0.000003 0.070521
#
#
# Mechanical properties :
#
#
# Convention : Reuss Voigt Hill
#
# Bulk Modulus (GPa) = -2.92951 29.97320 13.52185
# Shear Modulus (GPa) = 7.23213 20.90298 14.06756
#
# Velocity S-wave (km/s) = 2.12067 3.60533 2.95767
# Velocity P-wave (km/s) = 2.04319 5.99748 4.48020
#
# Compressibility (1/GPa) = -0.34135443
#
# Stress axis : x y z
#
# Youngs Moduli (GPa) = 15.65286 10.47869 737.82096
#
# Poissons Ratio (x) = 3.25329 -41.75967
# Poissons Ratio (y) = 4.85970 -2.10625
# Poissons Ratio (z) = -0.88593 -0.02991
#
# Static dielectric constant tensor:
#      x y z
#    x 1.539680 0.000000 0.018100 
#    y 0.000000 1.539370 0.000000 
#    z 0.018100 0.000000 1.555390 
# 
# From -- ./inp_files/348533.got.cif
#   From: 2010.05.17/outbox.ucp.g08.bks.cvg/sg12_175_cif.got.tgz:348533.got - 2010.06.11 11:47:21.
