data_PCOD9223788
_publ_section_title
;
Structure prediction by ZEFSAII (Michael W. Deem and Ramdas Pophale) SiO2 
 PCOD9223788
Probable space group: C 2/M
;
_chemical_formula_sum "Si O2"
_cell_formula_units_Z 24
_cell_length_a 15.000000
_cell_length_b 9.000000
_cell_length_c 18.000000
_cell_angle_alpha 90.000000
_cell_angle_beta 90.000000
_cell_angle_gamma 90.000000
_cell_volume 2430.000000
_symmetry_space_group_name_H-M "C 2/M"
_symmetry_group_IT_number 12
_symmetry_cell_setting 'monoclinic'
loop_
_space_group_symop_operation_xyz
x,y,z
-x,y,-z
-x,-y,-z
x,-y,z
1/2+x,1/2+y,z
1/2-x,1/2+y,-z
1/2-x,1/2-y,-z
1/2+x,1/2-y,z
loop_
_atom_site_type_symbol
_atom_site_label
_atom_site_fract_x
_atom_site_fract_y
_atom_site_fract_z
Si Si1 0.992333 0.824204 0.613566
Si Si2 0.169270 0.822944 0.821460
Si Si3 0.845434 0.175466 0.484949
Si Si4 0.006938 0.675872 0.760873
Si Si5 0.357031 0.178037 0.868062
Si Si6 0.397222 0.322229 0.014793
O O1 0.913931 0.807832 0.553627
O O2 0.089147 0.773334 0.582118
O O3 0.965997 0.732709 0.685152
O O4 0.000229 0.000000 0.630009
O O5 0.105420 0.740211 0.765798
O O6 0.272900 0.786835 0.816633
O O7 0.157868 0.000000 0.813896
O O8 0.136495 0.779323 0.904144
O O9 0.750000 0.250000 0.500000
O O10 0.829548 0.000000 0.474103
O O11 0.007834 0.500000 0.764674
O O12 0.946917 0.732722 0.829224
O O13 0.343956 0.247897 0.948238
O O14 0.360376 0.000000 0.876475
O O15 0.390436 0.500000 0.009341
O O16 0.500000 0.279398 0.000000
#
# Coordination Sequence:
#
# PCOD9223788 Si02
#       6
#     8   8   8   8   8   8
#     4   9  20  39  59  81 114 152 181 213 266 327
#     4  10  21  38  56  76 107 146 183 225 281 336
#     4   9  19  37  62  89 114 144 182 219 263 318
#     4  11  23  37  54  81 112 143 184 229 270 318
#     4  10  22  37  54  77 107 143 182 228 281 328
#     4  10  19  33  56  81 103 136 185 232 276 331
#
# _framework density 9.8765429999999999
#
# number of rings (size 3 to 8) (size 9 to 14) (size 15 to 20)
#    0.000    2.167    1.667    2.000    0.000    5.000 
#    0.000    6.667    0.000    0.000    0.000    0.000 
#    0.000    0.000    0.000    0.000    0.000    0.000 
#
# Total GULP energy -133803.154497 kJ/mol
# GULP energy per Si atom -5575.131437 kJ/mol
# Density = 0.985406 g / cm^3
# Si number density = 9.876543 Si / 1000 Ang^3
#
#
#
# Elastic Constant Matrix: (Units=GPa)
#
#
# Indices 1 2 3 4 5 6 
#
# 1 86.8151 28.0003 6.1192 0.0000 -6.4705 0.0000
# 2 28.0003 -2.2370 14.0249 0.0000 4.7193 0.0000
# 3 6.1192 14.0249 42.1483 0.0000 0.5607 0.0000
# 4 0.0000 0.0000 0.0000 21.7323 0.0000 2.5073
# 5 -6.4705 4.7193 0.5607 0.0000 9.3742 0.0000
# 6 0.0000 0.0000 0.0000 2.5073 0.0000 26.9332
#
#
#
# Elastic Compliance Matrix: (Units=1/GPa)
#
#
# Indices 1 2 3 4 5 6 
#
# 1 0.005726 0.018337 -0.006868 0.000000 -0.004869 0.000000
# 2 0.018337 -0.051197 0.013873 0.000000 0.037601 0.000000
# 3 -0.006868 0.013873 0.020279 0.000000 -0.012938 0.000000
# 4 0.000000 0.000000 0.000000 0.046514 0.000000 -0.004330
# 5 -0.004869 0.037601 -0.012938 0.000000 0.085159 0.000000
# 6 0.000000 0.000000 0.000000 -0.004330 0.000000 0.037532
#
#
# Mechanical properties :
#
#
# Convention : Reuss Voigt Hill
#
# Bulk Modulus (GPa) = 39.22804 24.77948 32.00376
# Shear Modulus (GPa) = 49.10389 16.84674 32.97531
#
# Velocity S-wave (km/s) = 4.99127 2.92356 4.09023
# Velocity P-wave (km/s) = 7.28830 4.89572 6.20836
#
# Compressibility (1/GPa) = 0.02549197
#
# Stress axis : x y z
#
# Youngs Moduli (GPa) = 174.64975 -19.53236 49.31309
#
# Poissons Ratio (x) = 0.35817 0.33869
# Poissons Ratio (y) = -3.20257 -0.68414
# Poissons Ratio (z) = 1.19953 0.27098
#
# Static dielectric constant tensor:
#      x y z
#    x 1.698880 0.000000 -0.016640 
#    y 0.000000 1.652200 0.000000 
#    z -0.016640 0.000000 1.674160 
# 
# From -- ./inp_files/267617.got.cif
#   From: 2010.05.17/outbox.ucp.g08.bks.cvg/sg12_134_cif.got.tgz:267617.got - 2010.06.11 11:47:21.
