data_PCOD9223972
_publ_section_title
;
Structure prediction by ZEFSAII (Michael W. Deem and Ramdas Pophale) SiO2 
 PCOD9223972
Probable space group: C 2/M
;
_chemical_formula_sum "Si O2"
_cell_formula_units_Z 28
_cell_length_a 15.000000
_cell_length_b 9.000000
_cell_length_c 21.000000
_cell_angle_alpha 90.000000
_cell_angle_beta 90.000000
_cell_angle_gamma 90.000000
_cell_volume 2835.000000
_symmetry_space_group_name_H-M "C 2/M"
_symmetry_group_IT_number 12
_symmetry_cell_setting 'monoclinic'
loop_
_space_group_symop_operation_xyz
x,y,z
-x,y,-z
-x,-y,-z
x,-y,z
1/2+x,1/2+y,z
1/2-x,1/2+y,-z
1/2-x,1/2-y,-z
1/2+x,1/2-y,z
loop_
_atom_site_type_symbol
_atom_site_label
_atom_site_fract_x
_atom_site_fract_y
_atom_site_fract_z
Si Si1 0.721793 0.327642 0.197796
Si Si2 0.146234 0.825021 0.718357
Si Si3 0.895033 0.820589 0.508814
Si Si4 0.215290 0.327260 0.937396
Si Si5 0.235307 0.677848 0.596233
Si Si6 0.026750 0.179714 0.210916
Si Si7 0.471006 0.679146 0.071512
O O1 0.746064 0.500000 0.213599
O O2 0.795023 0.212167 0.220061
O O3 0.716349 0.323026 0.121326
O O4 0.627967 0.290082 0.229625
O O5 0.199054 0.743600 0.662123
O O6 0.047790 0.769073 0.738882
O O7 0.141566 0.000000 0.704162
O O8 0.834089 0.743568 0.455359
O O9 0.837353 0.786236 0.573338
O O10 0.000000 0.778291 0.500000
O O11 0.891974 0.000000 0.501142
O O12 0.194012 0.500000 0.948809
O O13 0.128478 0.236092 0.919424
O O14 0.250000 0.250000 0.000000
O O15 0.229282 0.500000 0.597728
O O16 0.015849 0.232364 0.137648
O O17 0.017346 0.000000 0.208550
O O18 0.477389 0.500000 0.070463
O O19 0.500000 0.729677 0.000000
#
# Coordination Sequence:
#
# PCOD9223972 Si02
#       7
#     8   8   8   8   8   8   8
#     4  10  21  39  59  80 108 147 192 238 288 344
#     4  11  22  38  59  83 116 155 196 239 284 344
#     4   9  19  38  63  89 119 156 197 235 277 334
#     4  11  22  35  55  81 111 143 184 239 297 356
#     4  10  21  37  59  88 121 155 192 238 286 334
#     4   9  19  36  57  79 107 147 190 230 284 348
#     4  10  19  35  58  80 107 143 187 235 290 354
#
# _framework density 9.8765429999999999
#
# number of rings (size 3 to 8) (size 9 to 14) (size 15 to 20)
#    0.000    2.000    1.429    2.143    0.000    5.143 
#    0.000    7.857    0.000    0.000    0.000    0.000 
#    0.000    0.000    0.000    0.000    0.000    0.000 
#
# Total GULP energy -155970.394320 kJ/mol
# GULP energy per Si atom -5570.371226 kJ/mol
# Density = 0.985406 g / cm^3
# Si number density = 9.876543 Si / 1000 Ang^3
#
#
#
# Elastic Constant Matrix: (Units=GPa)
#
#
# Indices 1 2 3 4 5 6 
#
# 1 112.0988 7.8254 24.2255 0.0000 -37.1118 0.0000
# 2 7.8254 -2.0378 19.9749 0.0000 -13.0309 0.0000
# 3 24.2255 19.9749 79.9346 0.0000 -33.5934 0.0000
# 4 0.0000 0.0000 0.0000 25.7628 0.0000 -2.6242
# 5 -37.1118 -13.0309 -33.5934 0.0000 32.9164 0.0000
# 6 0.0000 0.0000 0.0000 -2.6242 0.0000 24.7845
#
#
#
# Elastic Compliance Matrix: (Units=1/GPa)
#
#
# Indices 1 2 3 4 5 6 
#
# 1 0.014476 -0.008627 0.005590 0.000000 0.018611 0.000000
# 2 -0.008627 -0.117216 0.014562 0.000000 -0.041268 0.000000
# 3 0.005590 0.014562 0.021447 0.000000 0.033956 0.000000
# 4 0.000000 0.000000 0.000000 0.039239 0.000000 0.004155
# 5 0.018611 -0.041268 0.033956 0.000000 0.069681 0.000000
# 6 0.000000 0.000000 0.000000 0.004155 0.000000 0.040788
#
#
# Mechanical properties :
#
#
# Convention : Reuss Voigt Hill
#
# Bulk Modulus (GPa) = -17.17006 32.67190 7.75092
# Shear Modulus (GPa) = 192.67875 25.89074 109.28474
#
# Velocity S-wave (km/s) = 9.88713 3.62431 7.44617
# Velocity P-wave (km/s) = 11.02857 5.83869 8.82382
#
# Compressibility (1/GPa) = -0.05824091
#
# Stress axis : x y z
#
# Youngs Moduli (GPa) = 69.07779 -8.53124 46.62550
#
# Poissons Ratio (x) = -0.07360 -0.26064
# Poissons Ratio (y) = 0.59592 -0.67898
# Poissons Ratio (z) = -0.38615 0.12424
#
# Static dielectric constant tensor:
#      x y z
#    x 1.739480 0.000000 -0.000200 
#    y 0.000000 1.577950 0.000000 
#    z -0.000200 0.000000 1.793100 
# 
# From -- ./inp_files/308942.got.cif
#   From: 2010.05.17/outbox.ucp.g08.bks.cvg/sg12_155_cif.got.tgz:308942.got - 2010.06.11 11:47:21.
