data_PCOD9223795
_publ_section_title
;
Structure prediction by ZEFSAII (Michael W. Deem and Ramdas Pophale) SiO2 
 PCOD9223795
Probable space group: C 2/M
;
_chemical_formula_sum "Si O2"
_cell_formula_units_Z 24
_cell_length_a 24.000000
_cell_length_b 18.000000
_cell_length_c 18.000000
_cell_angle_alpha 90.000000
_cell_angle_beta 160.000000
_cell_angle_gamma 90.000000
_cell_volume 2659.548635
_symmetry_space_group_name_H-M "C 2/M"
_symmetry_group_IT_number 12
_symmetry_cell_setting 'monoclinic'
loop_
_space_group_symop_operation_xyz
x,y,z
-x,y,-z
-x,-y,-z
x,-y,z
1/2+x,1/2+y,z
1/2-x,1/2+y,-z
1/2-x,1/2-y,-z
1/2+x,1/2-y,z
loop_
_atom_site_type_symbol
_atom_site_label
_atom_site_fract_x
_atom_site_fract_y
_atom_site_fract_z
Si Si1 0.693900 0.586410 0.229100
Si Si2 0.172402 0.584727 0.924660
Si Si3 0.177161 0.910714 0.039291
Si Si4 0.366354 0.834798 0.584500
Si Si5 0.641661 0.657553 0.438733
Si Si6 0.474663 0.413292 0.555706
O O1 0.744707 0.500000 0.295366
O O2 0.778541 0.628347 0.403086
O O3 0.500000 0.589857 0.000000
O O4 0.721207 0.613448 0.178182
O O5 0.113245 0.500000 0.857475
O O6 0.051660 0.639967 0.812785
O O7 0.189989 0.601811 0.858816
O O8 0.347789 0.588593 0.183336
O O9 0.015643 0.872924 0.803514
O O10 0.148080 0.000000 0.005892
O O11 0.358531 0.746680 0.562921
O O12 0.288999 0.860820 0.566144
O O13 0.633215 0.627623 0.514015
O O14 0.500000 0.388164 0.500000
O O15 0.421124 0.500000 0.484526
#
# Coordination Sequence:
#
# PCOD9223795 Si02
#       6
#     8   8   8   8   8   8
#     4  10  19  33  56  82 108 144 188 221 261 328
#     4   9  19  35  57  82 108 138 177 229 275 311
#     4   9  18  35  58  80 105 145 185 221 267 327
#     4  11  22  35  51  83 117 142 176 225 279 326
#     4  10  21  37  53  78 111 150 182 214 277 336
#     4   9  19  39  61  79 102 141 193 231 264 325
#
# _framework density 9.0240880000000008
#
# number of rings (size 3 to 8) (size 9 to 14) (size 15 to 20)
#    0.000    2.333    1.667    2.000    0.000    5.333 
#    6.000    3.333    0.000    3.000    0.000    0.000 
#    0.000    0.000    0.000    0.000    0.000    0.000 
#
# Total GULP energy -133634.345910 kJ/mol
# GULP energy per Si atom -5568.097746 kJ/mol
# Density = 0.900355 g / cm^3
# Si number density = 9.024088 Si / 1000 Ang^3
#
#
#
# Elastic Constant Matrix: (Units=GPa)
#
#
# Indices 1 2 3 4 5 6 
#
# 1 180.4823 47.6448 18.1849 0.0000 -14.0363 0.0000
# 2 47.6448 40.8203 14.0890 0.0000 4.9718 -0.0001
# 3 18.1849 14.0890 22.9151 0.0000 -2.8937 -0.0001
# 4 0.0000 0.0000 0.0000 10.8137 0.0000 -0.8950
# 5 -14.0363 4.9718 -2.8937 0.0000 23.8590 -0.0001
# 6 0.0000 -0.0001 -0.0001 -0.8950 -0.0001 34.2738
#
#
#
# Elastic Compliance Matrix: (Units=1/GPa)
#
#
# Indices 1 2 3 4 5 6 
#
# 1 0.009288 -0.012245 0.001188 0.000000 0.008160 0.000000
# 2 -0.012245 0.049236 -0.023114 0.000000 -0.020267 0.000000
# 3 0.001188 -0.023114 0.058500 0.000000 0.012611 0.000000
# 4 0.000000 0.000000 0.000000 0.092676 0.000000 0.002420
# 5 0.008160 -0.020267 0.012611 0.000000 0.052466 0.000000
# 6 0.000000 0.000000 0.000000 0.002420 0.000000 0.029240
#
#
# Mechanical properties :
#
#
# Convention : Reuss Voigt Hill
#
# Bulk Modulus (GPa) = 20.54111 44.89502 32.71806
# Shear Modulus (GPa) = 13.29876 24.74256 19.02066
#
# Velocity S-wave (km/s) = 2.71744 3.70661 3.24988
# Velocity P-wave (km/s) = 4.60998 6.57630 5.67889
#
# Compressibility (1/GPa) = 0.04868287
#
# Stress axis : x y z
#
# Youngs Moduli (GPa) = 107.66505 20.31040 17.09392
#
# Poissons Ratio (x) = 0.24870 -0.02031
# Poissons Ratio (y) = 1.31834 0.39511
# Poissons Ratio (z) = -0.12793 0.46945
#
# Static dielectric constant tensor:
#      x y z
#    x 1.655230 0.000000 0.023300 
#    y 0.000000 1.621060 0.000000 
#    z 0.023300 0.000000 1.622600 
# 
# From -- ./inp_files/88124.got.cif
#   From: 2010.05.17/outbox.ucp.g08.bks.cvg/sg12_45_cif.got.tgz:88124.got - 2010.06.11 11:47:21.
