data_PCOD9223253
_publ_section_title
;
Structure prediction by ZEFSAII (Michael W. Deem and Ramdas Pophale) SiO2 
 PCOD9223253
Probable space group: C 2/M
;
_chemical_formula_sum "Si O2"
_cell_formula_units_Z 32
_cell_length_a 30.000000
_cell_length_b 9.000000
_cell_length_c 15.000000
_cell_angle_alpha 90.000000
_cell_angle_beta 90.000000
_cell_angle_gamma 90.000000
_cell_volume 4050.000000
_symmetry_space_group_name_H-M "C 2/M"
_symmetry_group_IT_number 12
_symmetry_cell_setting 'monoclinic'
loop_
_space_group_symop_operation_xyz
x,y,z
-x,y,-z
-x,-y,-z
x,-y,z
1/2+x,1/2+y,z
1/2-x,1/2+y,-z
1/2-x,1/2-y,-z
1/2+x,1/2-y,z
loop_
_atom_site_type_symbol
_atom_site_label
_atom_site_fract_x
_atom_site_fract_y
_atom_site_fract_z
Si Si1 0.852847 0.822541 0.347675
Si Si2 0.810140 0.821340 0.731459
Si Si3 0.279977 0.678271 0.192190
Si Si4 0.349165 0.179611 0.061635
Si Si5 0.079147 0.181248 0.801740
Si Si6 0.201376 0.180561 0.477771
Si Si7 0.616308 0.320330 0.121599
Si Si8 0.987671 0.819985 0.898327
O O1 0.813327 0.794012 0.276120
O O2 0.898454 0.775080 0.294579
O O3 0.834426 0.770568 0.444964
O O4 0.857495 0.000000 0.357115
O O5 0.768010 0.742721 0.779468
O O6 0.811396 0.781800 0.625373
O O7 0.854921 0.788162 0.788877
O O8 0.803443 0.000000 0.735592
O O9 0.277767 0.500000 0.178302
O O10 0.303856 0.756114 0.107273
O O11 0.388794 0.244067 0.124510
O O12 0.348527 0.000000 0.062270
O O13 0.359816 0.241931 0.962871
O O14 0.028052 0.221262 0.829758
O O15 0.082877 0.000000 0.808488
O O16 0.250000 0.250000 0.500000
O O17 0.204790 0.000000 0.483030
O O18 0.617464 0.500000 0.107827
O O19 0.563556 0.275975 0.124733
O O20 0.987630 0.000000 0.899413
O O21 0.000000 0.771575 0.000000
#
# Coordination Sequence:
#
# PCOD9223253 Si02
#       8
#     8   8   8   8   8   8   8   8
#     4   8  15  27  47  72  96 123 157 197 240 286
#     4  10  21  33  49  72 101 131 164 210 254 289
#     4  10  19  33  52  71  97 134 168 199 239 295
#     4  11  21  32  48  73 102 131 163 204 247 292
#     4   9  16  30  51  74  97 128 167 205 244 292
#     4  10  18  31  49  73  99 128 163 204 249 292
#     4  10  20  35  50  69  98 134 170 204 248 298
#     4   9  15  27  52  75  92 124 172 211 239 288
#
# _framework density 7.9012349999999998
#
# number of rings (size 3 to 8) (size 9 to 14) (size 15 to 20)
#    0.000    2.375    2.500    2.250    0.000    1.000 
#    0.000    1.250    0.000    0.750    0.000    5.250 
#    0.000    0.000    0.000    6.625    0.000    8.000 
#
# Total GULP energy -178213.194097 kJ/mol
# GULP energy per Si atom -5569.162316 kJ/mol
# Density = 0.788325 g / cm^3
# Si number density = 7.901235 Si / 1000 Ang^3
#
#
#
# Elastic Constant Matrix: (Units=GPa)
#
#
# Indices 1 2 3 4 5 6 
#
# 1 136.5389 24.9834 77.8463 0.0000 -18.6644 0.0000
# 2 24.9834 40.1879 27.0461 0.0000 -1.1827 0.0000
# 3 77.8463 27.0461 138.2694 0.0000 -18.0586 0.0000
# 4 0.0000 0.0000 0.0000 18.0957 0.0000 -4.0751
# 5 -18.6644 -1.1827 -18.0586 0.0000 33.2977 0.0000
# 6 0.0000 0.0000 0.0000 -4.0751 0.0000 21.7381
#
#
#
# Elastic Compliance Matrix: (Units=1/GPa)
#
#
# Indices 1 2 3 4 5 6 
#
# 1 0.011460 -0.003433 -0.005335 0.000000 0.003408 0.000000
# 2 -0.003433 0.029831 -0.004321 0.000000 -0.003208 0.000000
# 3 -0.005335 -0.004321 0.011484 0.000000 0.003084 0.000000
# 4 0.000000 0.000000 0.000000 0.057698 0.000000 0.010816
# 5 0.003408 -0.003208 0.003084 0.000000 0.033501 0.000000
# 6 0.000000 0.000000 0.000000 0.010816 0.000000 0.048030
#
#
# Mechanical properties :
#
#
# Convention : Reuss Voigt Hill
#
# Bulk Modulus (GPa) = 37.60015 63.86086 50.73050
# Shear Modulus (GPa) = 22.02172 26.96765 24.49469
#
# Velocity S-wave (km/s) = 3.73709 4.13552 3.94134
# Velocity P-wave (km/s) = 6.51664 7.95632 7.27220
#
# Compressibility (1/GPa) = 0.02659564
#
# Stress axis : x y z
#
# Youngs Moduli (GPa) = 87.26095 33.52194 87.07704
#
# Poissons Ratio (x) = 0.11509 0.46458
# Poissons Ratio (y) = 0.29960 0.37627
# Poissons Ratio (z) = 0.46556 0.14485
#
# Static dielectric constant tensor:
#      x y z
#    x 1.539180 0.000000 -0.014670 
#    y 0.000000 1.526780 0.000000 
#    z -0.014670 0.000000 1.543150 
# 
# From -- ./inp_files/248427.got.cif
#   From: 2010.05.17/outbox.ucp.g08.bks.cvg/sg12_125_cif.got.tgz:248427.got - 2010.06.11 11:47:21.
