data_PCOD9223060
_publ_section_title
;
Structure prediction by ZEFSAII (Michael W. Deem and Ramdas Pophale) SiO2 
 PCOD9223060
Probable space group: C 2/M
;
_chemical_formula_sum "Si O2"
_cell_formula_units_Z 48
_cell_length_a 24.474109
_cell_length_b 7.407613
_cell_length_c 15.377306
_cell_angle_alpha 90.000000
_cell_angle_beta 117.928194
_cell_angle_gamma 90.000000
_cell_volume 2463.141266
_symmetry_space_group_name_H-M "C 2/M"
_symmetry_group_IT_number 12
_symmetry_cell_setting 'monoclinic'
loop_
_space_group_symop_operation_xyz
x,y,z
-x,y,-z
-x,-y,-z
x,-y,z
1/2+x,1/2+y,z
1/2-x,1/2+y,-z
1/2-x,1/2-y,-z
1/2+x,1/2-y,z
loop_
_atom_site_type_symbol
_atom_site_label
_atom_site_fract_x
_atom_site_fract_y
_atom_site_fract_z
Si Si1 0.545288 0.287327 0.107056
Si Si2 0.181113 0.206360 0.241947
Si Si3 0.187828 0.721404 0.632513
Si Si4 0.485547 0.216538 0.719948
Si Si5 0.055213 0.720568 0.606611
Si Si6 0.654059 0.782178 0.417828
O O1 0.552522 0.500000 0.094379
O O2 0.615487 0.211503 0.163322
O O3 0.515416 0.273876 0.180609
O O4 0.500000 0.211005 0.000000
O O5 0.248985 0.284834 0.274840
O O6 0.176954 0.204862 0.344004
O O7 0.182276 0.000000 0.211272
O O8 0.188661 0.500000 0.633342
O O9 0.123122 0.777811 0.626838
O O10 0.186459 0.777662 0.530233
O O11 0.537013 0.279134 0.690405
O O12 0.418521 0.265293 0.630866
O O13 0.488215 0.000000 0.723475
O O14 0.055449 0.500000 0.604918
O O15 0.000000 0.775404 0.500000
O O16 0.658521 0.000000 0.415318
#
# Coordination Sequence:
#
# PCOD9223060 Si02
#       6
#     8   8   8   8   8   8
#     4   9  18  32  47  60  79 110 143 177 217 252
#     4   9  17  27  40  60  82 105 139 176 206 240
#     4   9  15  23  38  60  86 113 137 163 196 242
#     4   9  16  26  44  68  87 106 137 173 206 242
#     4   9  14  23  40  63  90 116 138 161 195 245
#     4   9  15  24  39  60  86 112 134 160 201 248
#
# _framework density 19.487310000000001
#
# number of rings (size 3 to 8) (size 9 to 14) (size 15 to 20)
#    0.000    3.000    1.667    0.500    0.000    0.333 
#    0.000    0.000    0.000    3.500    0.000    0.000 
#    0.000    0.000    0.000    0.000    0.000    0.000 
#
# Total GULP energy -133776.338674 kJ/mol
# GULP energy per Si atom -5574.014111 kJ/mol
# Density = 1.944296 g / cm^3
# Si number density = 19.487310 Si / 1000 Ang^3
#
#
#
# Elastic Constant Matrix: (Units=GPa)
#
#
# Indices 1 2 3 4 5 6 
#
# 1 141.1654 5.4182 67.4102 0.0000 32.4550 0.0000
# 2 5.4182 60.9176 3.9287 0.0000 4.4800 0.0000
# 3 67.4102 3.9287 122.9353 0.0000 30.7151 0.0000
# 4 0.0000 0.0000 0.0000 12.5352 0.0000 -6.4482
# 5 32.4550 4.4800 30.7151 0.0000 18.9415 0.0000
# 6 0.0000 0.0000 0.0000 -6.4482 0.0000 4.2627
#
#
#
# Elastic Compliance Matrix: (Units=1/GPa)
#
#
# Indices 1 2 3 4 5 6 
#
# 1 0.012117 0.000321 -0.002435 0.000000 -0.016890 0.000000
# 2 0.000321 0.016757 0.000699 0.000000 -0.005648 0.000000
# 3 -0.002435 0.000699 0.014199 0.000000 -0.019018 0.000000
# 4 0.000000 0.000000 0.000000 0.359605 0.000000 0.543980
# 5 -0.016890 -0.005648 -0.019018 0.000000 0.113909 0.000000
# 6 0.000000 0.000000 0.000000 0.543980 0.000000 1.057479
#
#
# Mechanical properties :
#
#
# Convention : Reuss Voigt Hill
#
# Bulk Modulus (GPa) = 24.84746 53.17027 39.00886
# Shear Modulus (GPa) = 3.14404 23.69863 13.42133
#
# Velocity S-wave (km/s) = 1.27157 3.49105 2.62720
# Velocity P-wave (km/s) = 3.86447 6.60256 5.40961
#
# Compressibility (1/GPa) = 0.04024556
#
# Stress axis : x y z
#
# Youngs Moduli (GPa) = 82.52605 59.67551 70.42934
#
# Poissons Ratio (x) = -0.01918 0.17148
# Poissons Ratio (y) = -0.02652 -0.04926
# Poissons Ratio (z) = 0.20093 -0.04174
#
# Static dielectric constant tensor:
#      x y z
#    x 1.720770 0.000000 0.026740 
#    y 0.000000 1.744960 0.000000 
#    z 0.026740 0.000000 1.661680 
# 
# From -- ./inp_files/164090.got.cif
#   From: 2010.05.17/outbox.cif.g08.bks.cpg/sg12_83_cif.got.tgz:164090.got - 2010.06.03 13:09:07.
