data_PCOD9223467
_publ_section_title
;
Structure prediction by ZEFSAII (Michael W. Deem and Ramdas Pophale) SiO2 
 PCOD9223467
Probable space group: C 2/M
;
_chemical_formula_sum "Si O2"
_cell_formula_units_Z 32
_cell_length_a 24.000000
_cell_length_b 9.000000
_cell_length_c 30.000000
_cell_angle_alpha 90.000000
_cell_angle_beta 30.000000
_cell_angle_gamma 90.000000
_cell_volume 3240.000000
_symmetry_space_group_name_H-M "C 2/M"
_symmetry_group_IT_number 12
_symmetry_cell_setting 'monoclinic'
loop_
_space_group_symop_operation_xyz
x,y,z
-x,y,-z
-x,-y,-z
x,-y,z
1/2+x,1/2+y,z
1/2-x,1/2+y,-z
1/2-x,1/2-y,-z
1/2+x,1/2-y,z
loop_
_atom_site_type_symbol
_atom_site_label
_atom_site_fract_x
_atom_site_fract_y
_atom_site_fract_z
Si Si1 0.298206 0.174987 0.246700
Si Si2 0.428275 0.667750 0.847004
Si Si3 0.104438 0.168767 0.956130
Si Si4 0.673881 0.168416 0.256077
Si Si5 0.199536 0.832226 0.665636
Si Si6 0.444329 0.824246 0.925827
Si Si7 0.290096 0.830726 0.428669
Si Si8 0.556944 0.829560 0.251989
O O1 0.208792 0.243208 0.275320
O O2 0.269517 0.222895 0.316315
O O3 0.427657 0.229125 0.152413
O O4 0.300695 0.000000 0.238933
O O5 0.387329 0.500000 0.877790
O O6 0.564435 0.665945 0.754363
O O7 0.398829 0.757209 0.911647
O O8 0.396066 0.741986 0.822769
O O9 0.210940 0.163683 0.851268
O O10 0.077335 0.000000 0.989618
O O11 0.000000 0.225928 0.000000
O O12 0.124683 0.270029 0.984418
O O13 0.587639 0.231481 0.279504
O O14 0.640250 0.000000 0.291173
O O15 0.245810 0.767502 0.588122
O O16 0.234906 0.000000 0.650522
O O17 0.448176 0.000000 0.918916
O O18 0.250000 0.750000 0.500000
O O19 0.424469 0.834041 0.337552
O O20 0.250833 0.000000 0.452513
O O21 0.598999 0.000000 0.221667
#
# Coordination Sequence:
#
# PCOD9223467 Si02
#       8
#     8   8   8   8   8   8   8   8
#     4  10  19  30  47  73 102 133 169 210 251 293
#     4   9  17  30  50  72  96 127 166 210 253 297
#     4  10  19  31  48  70  97 129 170 216 256 294
#     4  10  20  34  51  71  99 136 171 206 251 300
#     4   9  17  30  50  76 103 131 165 205 247 292
#     4  10  19  30  47  70  98 129 167 214 259 299
#     4  10  19  33  55  82 108 132 161 199 244 293
#     4   9  19  35  53  74 102 133 166 202 244 298
#
# _framework density 9.8765429999999999
#
# number of rings (size 3 to 8) (size 9 to 14) (size 15 to 20)
#    0.000    2.375    1.250    1.875    0.000    5.750 
#    0.000    0.625    0.000    0.750    0.000    5.250 
#    0.000    0.000    0.000    0.000    0.000    0.000 
#
# Total GULP energy -178389.270841 kJ/mol
# GULP energy per Si atom -5574.664714 kJ/mol
# Density = 0.985406 g / cm^3
# Si number density = 9.876543 Si / 1000 Ang^3
#
#
#
# Elastic Constant Matrix: (Units=GPa)
#
#
# Indices 1 2 3 4 5 6 
#
# 1 90.0325 5.2862 -0.0985 -0.0067 8.1827 0.0100
# 2 5.2862 -8.3910 4.3958 -0.0041 -12.5573 0.0017
# 3 -0.0985 4.3958 8.5192 -0.0036 18.3151 0.0066
# 4 -0.0067 -0.0041 -0.0036 7.7024 0.0072 5.0587
# 5 8.1827 -12.5573 18.3151 0.0072 15.8798 -0.0121
# 6 0.0100 0.0017 0.0066 5.0587 -0.0121 27.4333
#
#
#
# Elastic Compliance Matrix: (Units=1/GPa)
#
#
# Indices 1 2 3 4 5 6 
#
# 1 0.010824 0.002746 -0.004075 0.000011 0.001295 -0.000005
# 2 0.002746 0.101149 0.149419 0.000305 -0.093763 -0.000141
# 3 -0.004075 0.149419 0.147541 0.000266 -0.049912 -0.000114
# 4 0.000011 0.000305 0.000266 0.147721 -0.000158 -0.027240
# 5 0.001295 -0.093763 -0.049912 -0.000158 0.045727 0.000067
# 6 -0.000005 -0.000141 -0.000114 -0.027240 0.000067 0.041475
#
#
# Mechanical properties :
#
#
# Convention : Reuss Voigt Hill
#
# Bulk Modulus (GPa) = 1.79955 12.14751 6.97353
# Shear Modulus (GPa) = 13.03819 15.57492 14.30655
#
# Velocity S-wave (km/s) = 2.57195 2.81104 2.69414
# Velocity P-wave (km/s) = 3.11976 4.08643 3.63537
#
# Compressibility (1/GPa) = 0.55569329
#
# Stress axis : x y z
#
# Youngs Moduli (GPa) = 92.38964 9.88644 6.77777
#
# Poissons Ratio (x) = -0.02715 0.02762
# Poissons Ratio (y) = -0.25374 -1.01273
# Poissons Ratio (z) = 0.37650 -1.47722
#
# Static dielectric constant tensor:
#      x y z
#    x 1.706080 0.000000 -0.020890 
#    y 0.000000 1.697670 0.000000 
#    z -0.020890 0.000000 1.709320 
# 
# From -- ./inp_files/281402.got.cif
#   From: 2010.05.17/outbox.ucp.g08.bks.cvg/sg12_141_cif.got.tgz:281402.got - 2010.06.11 11:47:21.
