data_PCOD9223254
_publ_section_title
;
Structure prediction by ZEFSAII (Michael W. Deem and Ramdas Pophale) SiO2 
 PCOD9223254
Probable space group: C 2/M
;
_chemical_formula_sum "Si O2"
_cell_formula_units_Z 32
_cell_length_a 24.000000
_cell_length_b 24.000000
_cell_length_c 12.000000
_cell_angle_alpha 90.000000
_cell_angle_beta 30.000000
_cell_angle_gamma 90.000000
_cell_volume 3456.000000
_symmetry_space_group_name_H-M "C 2/M"
_symmetry_group_IT_number 12
_symmetry_cell_setting 'monoclinic'
loop_
_space_group_symop_operation_xyz
x,y,z
-x,y,-z
-x,-y,-z
x,-y,z
1/2+x,1/2+y,z
1/2-x,1/2+y,-z
1/2-x,1/2-y,-z
1/2+x,1/2-y,z
loop_
_atom_site_type_symbol
_atom_site_label
_atom_site_fract_x
_atom_site_fract_y
_atom_site_fract_z
Si Si1 0.708103 0.201373 0.496627
Si Si2 0.097964 0.119329 0.916368
Si Si3 0.180781 0.340771 0.194892
Si Si4 0.810911 0.437048 0.636558
Si Si5 0.133338 0.323602 0.032640
Si Si6 0.140803 0.231661 0.390862
Si Si7 0.576471 0.693529 0.163508
Si Si8 0.464345 0.890229 0.178049
O O1 0.750000 0.250000 0.500000
O O2 0.813442 0.162163 0.290735
O O3 0.661426 0.229844 0.465026
O O4 0.614043 0.162974 0.713313
O O5 0.182685 0.072767 0.818128
O O6 0.051274 0.155188 0.100491
O O7 0.000000 0.103432 0.000000
O O8 0.161418 0.389265 0.319372
O O9 0.129950 0.349963 0.161930
O O10 0.138682 0.279409 0.301848
O O11 0.313878 0.330199 0.967825
O O12 0.824658 0.500000 0.653991
O O13 0.891636 0.426066 0.390977
O O14 0.092429 0.258834 0.102655
O O15 0.067906 0.363345 0.063580
O O16 0.260732 0.312536 0.783338
O O17 0.030589 0.196402 0.576916
O O18 0.500000 0.917426 0.000000
#
# Coordination Sequence:
#
# PCOD9223254 Si02
#       8
#     8   8   8   8   8   8   8   8
#     4  11  19  30  49  76 117 158 186 210 267 346
#     4  10  20  33  52  84 114 146 192 233 270 341
#     4  10  21  37  52  82 113 145 198 238 279 337
#     4  10  22  44  63  78 105 147 199 254 296 324
#     4  11  21  33  53  80 119 153 183 226 277 344
#     4  11  18  31  50  82 116 159 180 213 279 344
#     4  10  18  31  49  77 120 156 182 219 271 337
#     4  11  23  37  54  82 113 147 187 231 287 342
#
# _framework density 9.2592590000000001
#
# number of rings (size 3 to 8) (size 9 to 14) (size 15 to 20)
#    0.000    1.500    6.250    3.000    0.000    5.000 
#    0.000    1.250    0.000    0.000    0.000    7.875 
#    0.000    0.000    0.000    0.000    0.000    0.000 
#
# Total GULP energy -178405.115350 kJ/mol
# GULP energy per Si atom -5575.159855 kJ/mol
# Density = 0.923818 g / cm^3
# Si number density = 9.259259 Si / 1000 Ang^3
#
#
#
# Elastic Constant Matrix: (Units=GPa)
#
#
# Indices 1 2 3 4 5 6 
#
# 1 63.3498 16.2923 26.5616 0.0000 -8.3482 0.0000
# 2 16.2923 62.5696 25.7004 0.0000 -3.3737 0.0000
# 3 26.5616 25.7004 95.2683 0.0000 -17.3881 0.0001
# 4 0.0000 0.0000 0.0000 4.7392 0.0000 2.0300
# 5 -8.3482 -3.3737 -17.3881 0.0000 -6.4857 0.0000
# 6 0.0000 0.0000 0.0001 2.0300 0.0000 5.7490
#
#
#
# Elastic Compliance Matrix: (Units=1/GPa)
#
#
# Indices 1 2 3 4 5 6 
#
# 1 0.017898 -0.002774 -0.005495 0.000000 -0.006864 0.000000
# 2 -0.002774 0.018346 -0.003536 0.000000 0.003506 0.000000
# 3 -0.005495 -0.003536 0.009809 0.000000 -0.017386 0.000000
# 4 0.000000 0.000000 0.000000 0.248608 0.000000 -0.087783
# 5 -0.006864 0.003506 -0.017386 0.000000 -0.100561 0.000000
# 6 0.000000 0.000000 0.000000 -0.087783 0.000000 0.204939
#
#
# Mechanical properties :
#
#
# Convention : Reuss Voigt Hill
#
# Bulk Modulus (GPa) = 44.55375 39.81070 42.18223
# Shear Modulus (GPa) = 11.62444 10.97607 11.30025
#
# Velocity S-wave (km/s) = 2.50815 2.43720 2.47293
# Velocity P-wave (km/s) = 5.70079 5.42811 5.56612
#
# Compressibility (1/GPa) = 0.02244480
#
# Stress axis : x y z
#
# Youngs Moduli (GPa) = 55.87225 54.50838 101.94557
#
# Poissons Ratio (x) = 0.15118 0.56016
# Poissons Ratio (y) = 0.15497 0.36046
# Poissons Ratio (z) = 0.30700 0.19273
#
# Static dielectric constant tensor:
#      x y z
#    x 1.770230 0.000000 0.012490 
#    y 0.000000 1.587300 0.000000 
#    z 0.012490 0.000000 1.733440 
# 
# From -- ./inp_files/178404.got.cif
#   From: 2010.05.17/outbox.ucp.g08.bks.cvg/sg12_90_cif.got.tgz:178404.got - 2010.06.11 11:47:21.
