data_PCOD9223913
_publ_section_title
;
Structure prediction by ZEFSAII (Michael W. Deem and Ramdas Pophale) SiO2 
 PCOD9223913
Probable space group: C 2/M
;
_chemical_formula_sum "Si O2"
_cell_formula_units_Z 28
_cell_length_a 18.000000
_cell_length_b 18.000000
_cell_length_c 27.000000
_cell_angle_alpha 90.000000
_cell_angle_beta 160.000000
_cell_angle_gamma 90.000000
_cell_volume 2991.992214
_symmetry_space_group_name_H-M "C 2/M"
_symmetry_group_IT_number 12
_symmetry_cell_setting 'monoclinic'
loop_
_space_group_symop_operation_xyz
x,y,z
-x,y,-z
-x,-y,-z
x,-y,z
1/2+x,1/2+y,z
1/2-x,1/2+y,-z
1/2-x,1/2-y,-z
1/2+x,1/2-y,z
loop_
_atom_site_type_symbol
_atom_site_label
_atom_site_fract_x
_atom_site_fract_y
_atom_site_fract_z
Si Si1 0.758351 0.915429 0.658374
Si Si2 0.095079 0.814231 0.340807
Si Si3 0.578387 0.335674 0.924598
Si Si4 0.156643 0.684791 0.012543
Si Si5 0.282357 0.910662 0.745677
Si Si6 0.330013 0.657153 0.497944
Si Si7 0.001261 0.413682 0.777931
O O1 0.500000 0.913749 0.500000
O O2 0.825540 0.870001 0.651861
O O3 0.869584 0.881788 0.777288
O O4 0.835757 0.000000 0.701872
O O5 0.232486 0.737870 0.421721
O O6 0.138326 0.842787 0.423200
O O7 0.835421 0.805517 0.167572
O O8 0.697476 0.323517 0.945979
O O9 0.522663 0.259509 0.917192
O O10 0.767768 0.373156 0.075496
O O11 0.983407 0.618161 0.905573
O O12 0.360339 0.892051 0.738435
O O13 0.059682 0.868070 0.618517
O O14 0.252907 0.000000 0.731155
O O15 0.144373 0.602839 0.360833
O O16 0.045745 0.500000 0.811035
#
# Coordination Sequence:
#
# PCOD9223913 Si02
#       7
#     8   8   8   8   8   8   8
#     4  10  22  37  58  86 110 140 191 246 293 335
#     4  10  23  39  56  80 115 158 196 233 280 349
#     4   9  17  33  57  83 109 147 185 235 286 335
#     4   9  18  35  56  82 110 147 193 229 278 344
#     4  10  22  36  58  91 120 148 188 243 296 345
#     4  11  22  37  55  83 118 157 196 227 285 353
#     4  10  19  34  58  87 118 148 190 239 289 350
#
# _framework density 9.3583130000000008
#
# number of rings (size 3 to 8) (size 9 to 14) (size 15 to 20)
#    0.000    2.143    1.429    1.286    4.000    6.286 
#    0.000    0.714    0.000    0.857    0.000    3.000 
#    0.000    0.000    0.000    0.000    0.000    0.000 
#
# Total GULP energy -156094.184041 kJ/mol
# GULP energy per Si atom -5574.792287 kJ/mol
# Density = 0.933701 g / cm^3
# Si number density = 9.358313 Si / 1000 Ang^3
#
#
#
# Elastic Constant Matrix: (Units=GPa)
#
#
# Indices 1 2 3 4 5 6 
#
# 1 14.2594 16.9644 16.4859 -0.0556 -12.8053 -0.0182
# 2 16.9644 57.7110 31.9617 -0.0916 -0.4574 0.0160
# 3 16.4859 31.9617 125.7738 -0.1286 -20.9046 0.0014
# 4 -0.0556 -0.0916 -0.1286 44.1489 -0.0519 7.0738
# 5 -12.8053 -0.4574 -20.9046 -0.0519 25.8265 -0.0314
# 6 -0.0182 0.0160 0.0014 7.0738 -0.0314 17.7387
#
#
#
# Elastic Compliance Matrix: (Units=1/GPa)
#
#
# Indices 1 2 3 4 5 6 
#
# 1 0.338522 -0.104352 0.011250 0.000351 0.175106 0.000611
# 2 -0.104352 0.052771 -0.009448 -0.000082 -0.058453 -0.000225
# 3 0.011250 -0.009448 0.011296 0.000040 0.014554 0.000029
# 4 0.000351 -0.000082 0.000040 0.024197 0.000242 -0.009648
# 5 0.175106 -0.058453 0.014554 0.000242 0.136287 0.000376
# 6 0.000611 -0.000225 0.000029 -0.009648 0.000376 0.060223
#
#
# Mechanical properties :
#
#
# Convention : Reuss Voigt Hill
#
# Bulk Modulus (GPa) = 5.06355 36.50757 20.78556
# Shear Modulus (GPa) = 5.59143 26.36497 15.97820
#
# Velocity S-wave (km/s) = 1.73029 3.75726 2.92497
# Velocity P-wave (km/s) = 2.58904 6.19438 4.74729
#
# Compressibility (1/GPa) = 0.19749007
#
# Stress axis : x y z
#
# Youngs Moduli (GPa) = 2.95402 18.94967 88.52656
#
# Poissons Ratio (x) = 1.97744 -0.99595
# Poissons Ratio (y) = 0.30826 0.83637
# Poissons Ratio (z) = -0.03323 0.17903
#
# Static dielectric constant tensor:
#      x y z
#    x 1.628320 0.000000 -0.005040 
#    y 0.000000 1.685410 -0.000020 
#    z -0.005040 -0.000020 1.649960 
# 
# From -- ./inp_files/226535.got.cif
#   From: 2010.05.17/outbox.ucp.g08.bks.cvg/sg12_114_cif.got.tgz:226535.got - 2010.06.11 11:47:21.
