data_PCOD9223772
_publ_section_title
;
Structure prediction by ZEFSAII (Michael W. Deem and Ramdas Pophale) SiO2 
 PCOD9223772
Probable space group: C 2/M
;
_chemical_formula_sum "Si O2"
_cell_formula_units_Z 32
_cell_length_a 15.000000
_cell_length_b 9.000000
_cell_length_c 30.000000
_cell_angle_alpha 90.000000
_cell_angle_beta 50.000000
_cell_angle_gamma 90.000000
_cell_volume 3102.479995
_symmetry_space_group_name_H-M "C 2/M"
_symmetry_group_IT_number 12
_symmetry_cell_setting 'monoclinic'
loop_
_space_group_symop_operation_xyz
x,y,z
-x,y,-z
-x,-y,-z
x,-y,z
1/2+x,1/2+y,z
1/2-x,1/2+y,-z
1/2-x,1/2-y,-z
1/2+x,1/2-y,z
loop_
_atom_site_type_symbol
_atom_site_label
_atom_site_fract_x
_atom_site_fract_y
_atom_site_fract_z
Si Si1 0.973852 0.825067 0.599716
Si Si2 0.237973 0.675322 0.633267
Si Si3 0.493879 0.322402 0.307718
Si Si4 0.249908 0.321076 0.805507
Si Si5 0.328430 0.177052 0.513475
Si Si6 0.519716 0.678161 0.858520
Si Si7 0.283776 0.678269 0.894482
Si Si8 0.410393 0.323019 0.988594
O O1 0.835640 0.803684 0.639627
O O2 0.015443 0.792301 0.636324
O O3 0.042072 0.725828 0.542317
O O4 0.997750 0.000000 0.582780
O O5 0.227324 0.500000 0.628038
O O6 0.288849 0.754676 0.572931
O O7 0.112049 0.743322 0.682814
O O8 0.484670 0.500000 0.304367
O O9 0.622131 0.275538 0.251443
O O10 0.244755 0.500000 0.805109
O O11 0.143454 0.253654 0.812631
O O12 0.237483 0.273680 0.861199
O O13 0.250000 0.250000 0.500000
O O14 0.315377 0.000000 0.518182
O O15 0.534289 0.500000 0.854258
O O16 0.419413 0.717055 0.855692
O O17 0.466010 0.723782 0.923893
O O18 0.275443 0.500000 0.899821
O O19 0.208371 0.745442 0.958499
O O20 0.391581 0.500000 0.992279
O O21 0.500000 0.292063 0.000000
#
# Coordination Sequence:
#
# PCOD9223772 Si02
#       8
#     8   8   8   8   8   8   8   8
#     4  10  22  40  61  86 119 155 191 236 289 342
#     4  11  23  39  61  90 119 151 193 238 288 344
#     4  10  22  41  61  81 113 155 194 237 287 337
#     4  10  22  39  58  82 111 148 194 237 282 336
#     4  12  23  37  61  91 122 155 192 234 287 346
#     4  10  21  37  56  81 113 148 184 232 289 342
#     4  10  21  36  56  83 114 146 185 233 286 339
#     4  10  19  33  55  82 112 145 185 228 282 347
#
# _framework density 10.314329000000001
#
# number of rings (size 3 to 8) (size 9 to 14) (size 15 to 20)
#    0.000    1.625    2.500    2.250    0.000    5.250 
#    0.000    0.000    0.000    0.000    0.000    0.000 
#    0.000    0.000    0.000    0.000    0.000    0.000 
#
# Total GULP energy -178843.703972 kJ/mol
# GULP energy per Si atom -5588.865749 kJ/mol
# Density = 1.029085 g / cm^3
# Si number density = 10.314329 Si / 1000 Ang^3
#
#
#
# Elastic Constant Matrix: (Units=GPa)
#
#
# Indices 1 2 3 4 5 6 
#
# 1 89.0036 30.3565 5.6201 0.0000 -34.1582 0.0000
# 2 30.3565 28.7708 14.9486 0.0000 -15.2011 0.0000
# 3 5.6201 14.9486 50.7088 0.0000 -34.5923 0.0000
# 4 0.0000 0.0000 0.0000 26.7296 0.0000 -12.3527
# 5 -34.1582 -15.2011 -34.5923 0.0000 37.8727 0.0000
# 6 0.0000 0.0000 0.0000 -12.3527 0.0000 28.7967
#
#
#
# Elastic Compliance Matrix: (Units=1/GPa)
#
#
# Indices 1 2 3 4 5 6 
#
# 1 0.105054 -0.083961 0.145274 0.000000 0.193742 -0.000001
# 2 -0.083961 0.111330 -0.118568 0.000000 -0.139339 0.000000
# 3 0.145274 -0.118568 0.253351 -0.000001 0.314843 -0.000001
# 4 0.000000 0.000000 -0.000001 0.046662 -0.000001 0.020016
# 5 0.193742 -0.139339 0.314843 -0.000001 0.432790 -0.000001
# 6 -0.000001 0.000000 -0.000001 0.020016 -0.000001 0.043312
#
#
# Mechanical properties :
#
#
# Convention : Reuss Voigt Hill
#
# Bulk Modulus (GPa) = 2.81511 30.03707 16.42609
# Shear Modulus (GPa) = 4.08024 26.51700 15.29862
#
# Velocity S-wave (km/s) = 1.40792 3.58920 2.72622
# Velocity P-wave (km/s) = 2.00265 5.63639 4.22963
#
# Compressibility (1/GPa) = 0.35522650
#
# Stress axis : x y z
#
# Youngs Moduli (GPa) = 9.51893 8.98227 3.94709
#
# Poissons Ratio (x) = 0.75416 -0.57341
# Poissons Ratio (y) = 0.79922 0.46800
# Poissons Ratio (z) = -1.38285 1.06501
#
# Static dielectric constant tensor:
#      x y z
#    x 1.762110 0.000000 -0.018340 
#    y 0.000000 1.685560 0.000000 
#    z -0.018340 0.000000 1.730820 
# 
# From -- ./inp_files/375434.got.cif
#   From: 2010.05.17/outbox.ucp.g08.bks.cvg/sg12_188_cif.got.tgz:375434.got - 2010.06.11 11:47:21.
