data_PCOD9223534
_publ_section_title
;
Structure prediction by ZEFSAII (Michael W. Deem and Ramdas Pophale) SiO2 
 PCOD9223534
Probable space group: C 2/M
;
_chemical_formula_sum "Si O2"
_cell_formula_units_Z 28
_cell_length_a 30.000000
_cell_length_b 9.000000
_cell_length_c 18.000000
_cell_angle_alpha 90.000000
_cell_angle_beta 140.000000
_cell_angle_gamma 90.000000
_cell_volume 3123.947783
_symmetry_space_group_name_H-M "C 2/M"
_symmetry_group_IT_number 12
_symmetry_cell_setting 'monoclinic'
loop_
_space_group_symop_operation_xyz
x,y,z
-x,y,-z
-x,-y,-z
x,-y,z
1/2+x,1/2+y,z
1/2-x,1/2+y,-z
1/2-x,1/2-y,-z
1/2+x,1/2-y,z
loop_
_atom_site_type_symbol
_atom_site_label
_atom_site_fract_x
_atom_site_fract_y
_atom_site_fract_z
Si Si1 0.541540 0.322279 0.628701
Si Si2 0.684113 0.319963 0.738978
Si Si3 0.822511 0.821594 0.433416
Si Si4 0.704067 0.179392 0.006401
Si Si5 0.699149 0.823004 0.374074
Si Si6 0.582784 0.678524 0.306245
Si Si7 0.043195 0.677687 0.785362
O O1 0.500000 0.289851 0.500000
O O2 0.534550 0.500000 0.633200
O O3 0.621366 0.283500 0.713832
O O4 0.520062 0.235529 0.674566
O O5 0.684183 0.500000 0.733506
O O6 0.666852 0.260890 0.635206
O O7 0.757052 0.276273 0.867748
O O8 0.742577 0.797314 0.354655
O O9 0.873593 0.771004 0.564209
O O10 0.833103 0.000000 0.444856
O O11 0.623596 0.221400 0.899285
O O12 0.707630 0.000000 0.004464
O O13 0.750000 0.250000 0.000000
O O14 0.750000 0.750000 0.500000
O O15 0.625726 0.745636 0.292434
O O16 0.694116 0.000000 0.379509
O O17 0.582735 0.500000 0.303450
O O18 0.506915 0.744614 0.219557
O O19 0.037527 0.500000 0.782371
#
# Coordination Sequence:
#
# PCOD9223534 Si02
#       7
#     8   8   8   8   8   8   8
#     4  10  19  31  50  73  97 130 167 199 240 298
#     4   9  16  29  49  71  95 125 162 204 242 285
#     4   8  15  28  49  76 100 123 159 202 243 289
#     4  10  20  34  52  70  93 128 171 210 248 292
#     4   9  16  28  48  75 105 133 162 200 245 299
#     4  10  19  32  51  74 100 132 167 204 248 303
#     4  11  22  33  47  71 101 130 164 209 254 298
#
# _framework density 8.9630179999999999
#
# number of rings (size 3 to 8) (size 9 to 14) (size 15 to 20)
#    0.000    2.429    1.429    3.000    0.000    3.143 
#    0.000    0.000    0.000    6.857    0.000    6.000 
#    0.000    0.000    0.000    0.000    0.000    0.000 
#
# Total GULP energy -155995.482422 kJ/mol
# GULP energy per Si atom -5571.267229 kJ/mol
# Density = 0.894262 g / cm^3
# Si number density = 8.963018 Si / 1000 Ang^3
#
#
#
# Elastic Constant Matrix: (Units=GPa)
#
#
# Indices 1 2 3 4 5 6 
#
# 1 60.0213 24.2845 7.5838 0.0000 26.6126 0.0000
# 2 24.2845 36.7008 7.7670 0.0000 15.3880 0.0000
# 3 7.5838 7.7670 48.0766 0.0000 21.4600 0.0000
# 4 0.0000 0.0000 0.0000 14.7404 0.0000 5.2516
# 5 26.6126 15.3880 21.4600 0.0000 29.0088 0.0000
# 6 0.0000 0.0000 0.0000 5.2516 0.0000 26.3240
#
#
#
# Elastic Compliance Matrix: (Units=1/GPa)
#
#
# Indices 1 2 3 4 5 6 
#
# 1 0.035336 -0.011064 0.012039 0.000000 -0.035455 0.000000
# 2 -0.011064 0.039011 0.000223 0.000000 -0.010709 0.000000
# 3 0.012039 0.000223 0.035605 0.000000 -0.037503 0.000000
# 4 0.000000 0.000000 0.000000 0.073032 0.000000 -0.014570
# 5 -0.035455 -0.010709 -0.037503 0.000000 0.100423 0.000000
# 6 0.000000 0.000000 0.000000 -0.014570 0.000000 0.040895
#
#
# Mechanical properties :
#
#
# Convention : Reuss Voigt Hill
#
# Bulk Modulus (GPa) = 8.90080 24.89657 16.89868
# Shear Modulus (GPa) = 13.91383 21.02553 17.46968
#
# Velocity S-wave (km/s) = 2.78902 3.42848 3.12515
# Velocity P-wave (km/s) = 3.91760 5.43979 4.74020
#
# Compressibility (1/GPa) = 0.11234949
#
# Stress axis : x y z
#
# Youngs Moduli (GPa) = 28.29966 25.63379 28.08570
#
# Poissons Ratio (x) = 0.28361 -0.33813
# Poissons Ratio (y) = 0.31310 -0.00626
# Poissons Ratio (z) = -0.34071 -0.00572
#
# Static dielectric constant tensor:
#      x y z
#    x 1.682160 0.000000 0.022860 
#    y 0.000000 1.593650 0.000000 
#    z 0.022860 0.000000 1.632610 
# 
# From -- ./inp_files/287406.got.cif
#   From: 2010.05.17/outbox.ucp.g08.bks.cvg/sg12_144_cif.got.tgz:287406.got - 2010.06.11 11:47:21.
