data_PCOD9223699
_publ_section_title
;
Structure prediction by ZEFSAII (Michael W. Deem and Ramdas Pophale) SiO2 
 PCOD9223699
Probable space group: C 2/M
;
_chemical_formula_sum "Si O2"
_cell_formula_units_Z 24
_cell_length_a 21.000000
_cell_length_b 21.000000
_cell_length_c 18.000000
_cell_angle_alpha 90.000000
_cell_angle_beta 160.000000
_cell_angle_gamma 90.000000
_cell_volume 2714.955898
_symmetry_space_group_name_H-M "C 2/M"
_symmetry_group_IT_number 12
_symmetry_cell_setting 'monoclinic'
loop_
_space_group_symop_operation_xyz
x,y,z
-x,y,-z
-x,-y,-z
x,-y,z
1/2+x,1/2+y,z
1/2-x,1/2+y,-z
1/2-x,1/2-y,-z
1/2+x,1/2-y,z
loop_
_atom_site_type_symbol
_atom_site_label
_atom_site_fract_x
_atom_site_fract_y
_atom_site_fract_z
Si Si1 0.787506 0.429220 0.120429
Si Si2 0.359933 0.571712 0.695259
Si Si3 0.572403 0.789501 0.897608
Si Si4 0.854804 0.797082 0.773204
Si Si5 0.496431 0.929014 0.195365
Si Si6 0.058574 0.291109 0.702409
O O1 0.842912 0.500000 0.211703
O O2 0.876619 0.363326 0.247935
O O3 0.850329 0.430286 0.103584
O O4 0.565952 0.423964 0.886639
O O5 0.338124 0.500000 0.703173
O O6 0.343403 0.629002 0.735213
O O7 0.198631 0.578319 0.456617
O O8 0.432599 0.744387 0.789622
O O9 0.548162 0.863281 0.895672
O O10 0.535710 0.789077 0.767935
O O11 0.776938 0.758866 0.134001
O O12 0.640881 0.777286 0.552910
O O13 0.000000 0.790182 0.000000
O O14 0.490957 0.000000 0.153864
#
# Coordination Sequence:
#
# PCOD9223699 Si02
#       6
#     8   8   8   8   8   8
#     4   9  16  29  50  75 103 133 173 219 256 299
#     4  10  19  33  51  76 109 144 180 213 251 308
#     4  10  20  35  56  79 106 132 181 227 265 313
#     4  12  24  35  51  78 113 149 181 213 258 316
#     4   9  18  32  56  82 104 131 169 224 274 314
#     4  10  20  34  56  78 100 141 180 225 267 304
#
# _framework density 8.8399230000000006
#
# number of rings (size 3 to 8) (size 9 to 14) (size 15 to 20)
#    0.000    2.000    5.000    0.500    0.000    1.000 
#    0.000    0.000    0.000    2.500    0.000    1.167 
#    0.000    0.000    0.000    0.000    0.000    0.000 
#
# Total GULP energy -133748.964571 kJ/mol
# GULP energy per Si atom -5572.873524 kJ/mol
# Density = 0.881980 g / cm^3
# Si number density = 8.839923 Si / 1000 Ang^3
#
#
#
# Elastic Constant Matrix: (Units=GPa)
#
#
# Indices 1 2 3 4 5 6 
#
# 1 7.3402 8.5768 15.1924 0.0000 8.2952 0.0000
# 2 8.5768 140.6237 39.9184 0.0000 -3.8608 0.0000
# 3 15.1924 39.9184 114.5512 -0.0001 12.9211 -0.0001
# 4 0.0000 0.0000 -0.0001 17.3941 0.0000 3.5024
# 5 8.2952 -3.8608 12.9211 0.0000 20.3983 -0.0001
# 6 0.0000 0.0000 -0.0001 3.5024 -0.0001 13.5066
#
#
#
# Elastic Compliance Matrix: (Units=1/GPa)
#
#
# Indices 1 2 3 4 5 6 
#
# 1 0.366704 -0.018448 -0.026914 0.000000 -0.135568 0.000000
# 2 -0.018448 0.009057 -0.001884 0.000000 0.010409 0.000000
# 3 -0.026914 -0.001884 0.012666 0.000000 0.002565 0.000000
# 4 0.000000 0.000000 0.000000 0.060658 0.000000 -0.015729
# 5 -0.135568 0.010409 0.002565 0.000000 0.104499 0.000000
# 6 0.000000 0.000000 0.000000 -0.015729 0.000000 0.078117
#
#
# Mechanical properties :
#
#
# Convention : Reuss Voigt Hill
#
# Bulk Modulus (GPa) = 3.40210 43.32116 23.36163
# Shear Modulus (GPa) = 6.06670 23.51496 14.79083
#
# Velocity S-wave (km/s) = 1.85442 3.65093 2.89553
# Velocity P-wave (km/s) = 2.55218 6.50605 4.94178
#
# Compressibility (1/GPa) = 0.29393649
#
# Stress axis : x y z
#
# Youngs Moduli (GPa) = 2.72699 110.41439 78.94978
#
# Poissons Ratio (x) = 2.03688 2.12487
# Poissons Ratio (y) = 0.05031 0.14871
# Poissons Ratio (z) = 0.07339 0.20797
#
# Static dielectric constant tensor:
#      x y z
#    x 1.587270 0.000000 0.021820 
#    y 0.000000 1.659210 0.000000 
#    z 0.021820 0.000000 1.603530 
# 
# From -- ./inp_files/285924.got.cif
#   From: 2010.05.17/outbox.ucp.g08.bks.cvg/sg12_143_cif.got.tgz:285924.got - 2010.06.11 11:47:21.
