data_PCOD9223709
_publ_section_title
;
Structure prediction by ZEFSAII (Michael W. Deem and Ramdas Pophale) SiO2 
 PCOD9223709
Probable space group: C 2/M
;
_chemical_formula_sum "Si O2"
_cell_formula_units_Z 24
_cell_length_a 30.000000
_cell_length_b 9.000000
_cell_length_c 9.000000
_cell_angle_alpha 90.000000
_cell_angle_beta 90.000000
_cell_angle_gamma 90.000000
_cell_volume 2430.000000
_symmetry_space_group_name_H-M "C 2/M"
_symmetry_group_IT_number 12
_symmetry_cell_setting 'monoclinic'
loop_
_space_group_symop_operation_xyz
x,y,z
-x,y,-z
-x,-y,-z
x,-y,z
1/2+x,1/2+y,z
1/2-x,1/2+y,-z
1/2-x,1/2-y,-z
1/2+x,1/2-y,z
loop_
_atom_site_type_symbol
_atom_site_label
_atom_site_fract_x
_atom_site_fract_y
_atom_site_fract_z
Si Si1 0.619453 0.166136 0.842152
Si Si2 0.790052 0.326300 0.588764
Si Si3 0.143828 0.674073 0.180507
Si Si4 0.512630 0.827998 0.839692
Si Si5 0.630409 0.330305 0.568009
Si Si6 0.560547 0.325143 0.342848
O O1 0.565811 0.172839 0.838007
O O2 0.634488 0.300658 0.740470
O O3 0.631579 0.000000 0.785412
O O4 0.639336 0.181053 0.004827
O O5 0.780238 0.500000 0.590876
O O6 0.750000 0.250000 0.500000
O O7 0.807817 0.280344 0.753443
O O8 0.835191 0.284087 0.502562
O O9 0.137196 0.500000 0.223177
O O10 0.102272 0.767080 0.244496
O O11 0.484581 0.751797 0.709562
O O12 0.497549 0.000000 0.839642
O O13 0.500000 0.760258 0.000000
O O14 0.641128 0.500000 0.526155
O O15 0.580574 0.298448 0.507436
O O16 0.554774 0.500000 0.324008
#
# Coordination Sequence:
#
# PCOD9223709 Si02
#       6
#     8   8   8   8   8   8
#     4  10  20  35  55  79 107 142 183 225 269 314
#     4  10  20  37  63  87 108 137 174 218 266 324
#     4   9  18  35  57  79 106 141 180 219 265 320
#     4  10  19  33  53  76 106 143 187 231 264 310
#     4  10  22  38  54  78 113 145 177 220 270 320
#     4  10  20  33  51  76 107 144 184 225 266 313
#
# _framework density 9.8765429999999999
#
# number of rings (size 3 to 8) (size 9 to 14) (size 15 to 20)
#    0.000    2.167    1.667    1.500    0.000    5.000 
#    0.000    4.167    0.000    0.000    0.000    0.000 
#    0.000    0.000    0.000    0.000    0.000    0.000 
#
# Total GULP energy -133611.378554 kJ/mol
# GULP energy per Si atom -5567.140773 kJ/mol
# Density = 0.985406 g / cm^3
# Si number density = 9.876543 Si / 1000 Ang^3
#
#
#
# Elastic Constant Matrix: (Units=GPa)
#
#
# Indices 1 2 3 4 5 6 
#
# 1 72.8132 21.2518 36.6934 0.0000 51.9798 0.0000
# 2 21.2518 32.5563 42.3432 0.0000 24.6791 0.0000
# 3 36.6934 42.3432 83.5933 0.0000 36.5738 0.0000
# 4 0.0000 0.0000 0.0000 19.8277 0.0000 3.7825
# 5 51.9798 24.6791 36.5738 0.0000 38.2311 0.0000
# 6 0.0000 0.0000 0.0000 3.7825 0.0000 21.4211
#
#
#
# Elastic Compliance Matrix: (Units=1/GPa)
#
#
# Indices 1 2 3 4 5 6 
#
# 1 -0.143100 -0.110756 0.004317 0.000000 0.261927 0.000000
# 2 -0.110756 0.020607 -0.037641 0.000000 0.173293 0.000000
# 3 0.004317 -0.037641 0.036240 0.000000 -0.016241 0.000000
# 4 0.000000 0.000000 0.000000 0.052193 0.000000 -0.009216
# 5 0.261927 0.173293 -0.016241 0.000000 -0.426293 0.000000
# 6 0.000000 0.000000 0.000000 -0.009216 0.000000 0.048310
#
#
# Mechanical properties :
#
#
# Convention : Reuss Voigt Hill
#
# Bulk Modulus (GPa) = -2.67085 43.28217 20.30566
# Shear Modulus (GPa) = -20.10554 21.80761 0.85103
#
# Velocity S-wave (km/s) = -3.19383 3.32627 0.65709
# Velocity P-wave (km/s) = 3.86727 6.05898 3.29814
#
# Compressibility (1/GPa) = -0.37441235
#
# Stress axis : x y z
#
# Youngs Moduli (GPa) = -6.98812 48.52656 27.59388
#
# Poissons Ratio (x) = 5.37460 -0.11913
# Poissons Ratio (y) = -0.77398 1.03867
# Poissons Ratio (z) = 0.03017 1.82660
#
# Static dielectric constant tensor:
#      x y z
#    x 1.682760 0.000000 -0.000080 
#    y 0.000000 1.707430 0.000000 
#    z -0.000080 0.000000 1.798810 
# 
# From -- ./inp_files/108566.got.cif
#   From: 2010.05.17/outbox.ucp.g08.bks.cvg/sg12_55_cif.got.tgz:108566.got - 2010.06.11 11:47:21.
