data_PCOD9223827
_publ_section_title
;
Structure prediction by ZEFSAII (Michael W. Deem and Ramdas Pophale) SiO2 
 PCOD9223827
Probable space group: C 2/M
;
_chemical_formula_sum "Si O2"
_cell_formula_units_Z 24
_cell_length_a 18.000000
_cell_length_b 15.000000
_cell_length_c 18.000000
_cell_angle_alpha 90.000000
_cell_angle_beta 150.000000
_cell_angle_gamma 90.000000
_cell_volume 2430.000000
_symmetry_space_group_name_H-M "C 2/M"
_symmetry_group_IT_number 12
_symmetry_cell_setting 'monoclinic'
loop_
_space_group_symop_operation_xyz
x,y,z
-x,y,-z
-x,-y,-z
x,-y,z
1/2+x,1/2+y,z
1/2-x,1/2+y,-z
1/2-x,1/2-y,-z
1/2+x,1/2-y,z
loop_
_atom_site_type_symbol
_atom_site_label
_atom_site_fract_x
_atom_site_fract_y
_atom_site_fract_z
Si Si1 0.159838 0.217659 0.608075
Si Si2 0.891184 0.208029 0.703429
Si Si3 0.547008 0.393860 0.384036
Si Si4 0.446967 0.894655 0.135324
Si Si5 0.824457 0.106134 0.982349
Si Si6 0.765880 0.296374 0.858479
O O1 0.246921 0.285260 0.630373
O O2 0.122444 0.129666 0.527868
O O3 0.262737 0.196850 0.767270
O O4 0.000000 0.251107 0.500000
O O5 0.862635 0.157974 0.601433
O O6 0.950635 0.311035 0.748213
O O7 0.020391 0.145305 0.851347
O O8 0.531809 0.500000 0.358863
O O9 0.389018 0.341738 0.249020
O O10 0.302511 0.894650 0.064128
O O11 0.498435 0.000000 0.177006
O O12 0.390369 0.855136 0.007434
O O13 0.777077 0.190293 0.888142
O O14 0.838082 0.000000 0.969721
#
# Coordination Sequence:
#
# PCOD9223827 Si02
#       6
#     8   8   8   8   8   8
#     4  10  25  40  58  82 123 166 200 245 297 349
#     4  11  20  39  61  90 119 155 206 247 300 353
#     4  11  21  38  65  90 116 160 208 247 292 356
#     4  10  19  33  61  94 122 151 192 250 307 360
#     4  10  19  35  64  94 120 154 195 247 304 361
#     4  10  19  38  59  90 125 157 191 246 306 358
#
# _framework density 9.8765429999999999
#
# number of rings (size 3 to 8) (size 9 to 14) (size 15 to 20)
#    0.000    1.667    3.333    2.500    0.000    7.000 
#    0.000    3.333    0.000   11.500    0.000    0.000 
#    0.000    0.000    0.000    0.000    0.000    0.000 
#
# Total GULP energy -133813.613744 kJ/mol
# GULP energy per Si atom -5575.567239 kJ/mol
# Density = 0.985406 g / cm^3
# Si number density = 9.876543 Si / 1000 Ang^3
#
#
#
# Elastic Constant Matrix: (Units=GPa)
#
#
# Indices 1 2 3 4 5 6 
#
# 1 104.7809 43.4948 32.7384 0.0000 2.7987 0.0002
# 2 43.4948 201.1553 45.8627 -0.0006 -9.0306 -0.0001
# 3 32.7384 45.8627 73.0525 -0.0012 -15.9151 -0.0005
# 4 0.0000 -0.0006 -0.0012 27.6642 -0.0006 -2.9297
# 5 2.7987 -9.0306 -15.9151 -0.0006 41.6076 -0.0001
# 6 0.0002 -0.0001 -0.0005 -2.9297 -0.0001 13.9627
#
#
#
# Elastic Compliance Matrix: (Units=1/GPa)
#
#
# Indices 1 2 3 4 5 6 
#
# 1 0.011829 -0.001558 -0.004986 0.000000 -0.003041 0.000000
# 2 -0.001558 0.006008 -0.003018 0.000000 0.000254 0.000000
# 3 -0.004986 -0.003018 0.019362 0.000001 0.007086 0.000001
# 4 0.000000 0.000000 0.000001 0.036969 0.000001 0.007757
# 5 -0.003041 0.000254 0.007086 0.000001 0.027004 0.000001
# 6 0.000000 0.000000 0.000001 0.007757 0.000001 0.073247
#
#
# Mechanical properties :
#
#
# Convention : Reuss Voigt Hill
#
# Bulk Modulus (GPa) = 55.32379 69.24228 62.28303
# Shear Modulus (GPa) = 25.05410 33.77309 29.41359
#
# Velocity S-wave (km/s) = 3.56527 4.13941 3.86302
# Velocity P-wave (km/s) = 6.70945 7.61422 7.17611
#
# Compressibility (1/GPa) = 0.01807541
#
# Stress axis : x y z
#
# Youngs Moduli (GPa) = 84.53568 166.45542 51.64782
#
# Poissons Ratio (x) = 0.25926 0.25751
# Poissons Ratio (y) = 0.13167 0.15588
# Poissons Ratio (z) = 0.42149 0.50240
#
# Static dielectric constant tensor:
#      x y z
#    x 1.742300 0.000000 -0.015070 
#    y 0.000000 1.659360 0.000000 
#    z -0.015070 0.000000 1.773220 
# 
# From -- ./inp_files/278222.got.cif
#   From: 2010.05.17/outbox.ucp.g08.bks.cvg/sg12_140_cif.got.tgz:278222.got - 2010.06.11 11:47:21.
