data_PCOD9223847
_publ_section_title
;
Structure prediction by ZEFSAII (Michael W. Deem and Ramdas Pophale) SiO2 
 PCOD9223847
Probable space group: C 2/M
;
_chemical_formula_sum "Si O2"
_cell_formula_units_Z 28
_cell_length_a 21.000000
_cell_length_b 9.000000
_cell_length_c 30.000000
_cell_angle_alpha 90.000000
_cell_angle_beta 150.000000
_cell_angle_gamma 90.000000
_cell_volume 2835.000000
_symmetry_space_group_name_H-M "C 2/M"
_symmetry_group_IT_number 12
_symmetry_cell_setting 'monoclinic'
loop_
_space_group_symop_operation_xyz
x,y,z
-x,y,-z
-x,-y,-z
x,-y,z
1/2+x,1/2+y,z
1/2-x,1/2+y,-z
1/2-x,1/2-y,-z
1/2+x,1/2-y,z
loop_
_atom_site_type_symbol
_atom_site_label
_atom_site_fract_x
_atom_site_fract_y
_atom_site_fract_z
Si Si1 0.518429 0.679044 0.304629
Si Si2 0.444852 0.179638 0.014931
Si Si3 0.052288 0.180392 0.641692
Si Si4 0.504068 0.676916 0.139615
Si Si5 0.328515 0.680041 0.111036
Si Si6 0.284002 0.323586 0.440426
Si Si7 0.245911 0.822599 0.680712
O O1 0.528835 0.500000 0.312428
O O2 0.441156 0.725082 0.302460
O O3 0.437469 0.720401 0.212296
O O4 0.658670 0.745311 0.383506
O O5 0.523276 0.243725 0.103835
O O6 0.447570 0.000000 0.016607
O O7 0.500000 0.226608 0.000000
O O8 0.303065 0.228536 0.945112
O O9 0.911741 0.228501 0.541798
O O10 0.154336 0.225332 0.665994
O O11 0.056388 0.000000 0.643125
O O12 0.494877 0.500000 0.128390
O O13 0.382011 0.730003 0.095049
O O14 0.627649 0.724678 0.241714
O O15 0.320658 0.500000 0.103372
O O16 0.268980 0.500000 0.438933
O O17 0.306770 0.304429 0.401195
O O18 0.273947 0.000000 0.703260
#
# Coordination Sequence:
#
# PCOD9223847 Si02
#       7
#     8   8   8   8   8   8   8
#     4  10  19  34  56  79 110 149 185 221 272 331
#     4  10  22  39  63  89 111 139 182 227 267 324
#     4   9  19  33  55  81 109 147 187 233 278 319
#     4  11  22  38  58  81 115 148 180 222 275 331
#     4   9  19  36  57  82 111 145 183 223 267 322
#     4  10  19  34  54  82 113 142 185 235 279 321
#     4  10  20  35  57  81 109 146 191 232 271 322
#
# _framework density 9.8765429999999999
#
# number of rings (size 3 to 8) (size 9 to 14) (size 15 to 20)
#    0.000    2.143    1.429    1.714    2.000    2.000 
#    0.000    2.857    0.000    1.714    0.000    0.000 
#    0.000    0.000    0.000    0.000    0.000    0.000 
#
# Total GULP energy -156043.242364 kJ/mol
# GULP energy per Si atom -5572.972942 kJ/mol
# Density = 0.985406 g / cm^3
# Si number density = 9.876543 Si / 1000 Ang^3
#
#
#
# Elastic Constant Matrix: (Units=GPa)
#
#
# Indices 1 2 3 4 5 6 
#
# 1 138.3408 13.6827 0.5930 0.0000 -11.4563 0.0000
# 2 13.6827 0.9463 2.0161 0.0001 -2.9563 0.0000
# 3 0.5930 2.0161 27.8002 0.0001 -4.3094 0.0000
# 4 0.0000 0.0001 0.0001 20.8955 0.0000 4.2134
# 5 -11.4563 -2.9563 -4.3094 0.0000 31.2271 0.0000
# 6 0.0000 0.0000 0.0000 4.2134 0.0000 23.6809
#
#
#
# Elastic Compliance Matrix: (Units=1/GPa)
#
#
# Indices 1 2 3 4 5 6 
#
# 1 -0.006837 0.151458 -0.009201 -0.000001 0.010560 0.000000
# 2 0.151458 -1.604772 0.100361 0.000005 -0.082509 -0.000001
# 3 -0.009201 0.100361 0.030491 0.000000 0.010333 0.000000
# 4 -0.000001 0.000005 0.000000 0.049638 0.000000 -0.008832
# 5 0.010560 -0.082509 0.010333 0.000000 0.029513 0.000000
# 6 0.000000 -0.000001 0.000000 -0.008832 0.000000 0.043800
#
#
# Mechanical properties :
#
#
# Convention : Reuss Voigt Hill
#
# Bulk Modulus (GPa) = -0.91251 22.18567 10.63658
# Shear Modulus (GPa) = -2.16572 25.21372 11.52400
#
# Velocity S-wave (km/s) = -1.04823 3.57661 2.41799
# Velocity P-wave (km/s) = 1.38852 5.32091 3.63209
#
# Compressibility (1/GPa) = -1.09588335
#
# Stress axis : x y z
#
# Youngs Moduli (GPa) = -146.25269 -0.62314 32.79707
#
# Poissons Ratio (x) = 0.09438 0.30177
# Poissons Ratio (y) = 22.15108 -3.29156
# Poissons Ratio (z) = -1.34571 0.06254
#
# Static dielectric constant tensor:
#      x y z
#    x 1.686360 0.000000 -0.003600 
#    y 0.000000 1.664190 0.000000 
#    z -0.003600 0.000000 1.749110 
# 
# From -- ./inp_files/275044.got.cif
#   From: 2010.05.17/outbox.ucp.g08.bks.cvg/sg12_138_cif.got.tgz:275044.got - 2010.06.11 11:47:21.
