data_PCOD9223574
_publ_section_title
;
Structure prediction by ZEFSAII (Michael W. Deem and Ramdas Pophale) SiO2 
 PCOD9223574
Probable space group: C 2/M
;
_chemical_formula_sum "Si O2"
_cell_formula_units_Z 28
_cell_length_a 24.000000
_cell_length_b 9.000000
_cell_length_c 15.000000
_cell_angle_alpha 90.000000
_cell_angle_beta 70.000000
_cell_angle_gamma 90.000000
_cell_volume 3044.604091
_symmetry_space_group_name_H-M "C 2/M"
_symmetry_group_IT_number 12
_symmetry_cell_setting 'monoclinic'
loop_
_space_group_symop_operation_xyz
x,y,z
-x,y,-z
-x,-y,-z
x,-y,z
1/2+x,1/2+y,z
1/2-x,1/2+y,-z
1/2-x,1/2-y,-z
1/2+x,1/2-y,z
loop_
_atom_site_type_symbol
_atom_site_label
_atom_site_fract_x
_atom_site_fract_y
_atom_site_fract_z
Si Si1 0.532007 0.321740 0.779629
Si Si2 0.353384 0.821458 0.620857
Si Si3 0.369216 0.678237 0.135758
Si Si4 0.874453 0.678336 0.406143
Si Si5 0.183806 0.179628 0.031372
Si Si6 0.908314 0.320235 0.781286
Si Si7 0.724069 0.822867 0.678128
O O1 0.523991 0.500000 0.782041
O O2 0.566052 0.285017 0.855430
O O3 0.578222 0.267396 0.678683
O O4 0.469612 0.244396 0.788805
O O5 0.378327 0.784099 0.508640
O O6 0.393630 0.781434 0.685090
O O7 0.287933 0.750309 0.658090
O O8 0.346551 0.000000 0.627332
O O9 0.362727 0.500000 0.150639
O O10 0.320995 0.761526 0.222753
O O11 0.351663 0.710631 0.042580
O O12 0.884637 0.500000 0.390602
O O13 0.809767 0.709517 0.397356
O O14 0.144887 0.251268 0.131311
O O15 0.187909 0.000000 0.037814
O O16 0.250000 0.250000 0.000000
O O17 0.909206 0.500000 0.787297
O O18 0.729836 0.000000 0.682099
#
# Coordination Sequence:
#
# PCOD9223574 Si02
#       7
#     8   8   8   8   8   8   8
#     4  10  21  39  60  82 108 142 184 229 273 321
#     4  10  21  36  54  76 110 153 187 218 271 333
#     4   9  20  38  59  80 109 148 182 217 273 335
#     4   9  19  36  56  80 110 146 184 224 271 326
#     4  11  23  40  61  86 114 144 179 221 270 327
#     4  11  24  40  57  80 111 148 186 226 270 322
#     4  10  19  31  54  86 114 139 179 232 275 315
#
# _framework density 9.1965979999999998
#
# number of rings (size 3 to 8) (size 9 to 14) (size 15 to 20)
#    0.000    2.000    0.000    3.000    0.000    8.571 
#    0.000    5.714    0.000    0.000    0.000    0.000 
#    0.000    0.000    0.000    0.000    0.000    0.000 
#
# Total GULP energy -156230.845238 kJ/mol
# GULP energy per Si atom -5579.673044 kJ/mol
# Density = 0.917567 g / cm^3
# Si number density = 9.196598 Si / 1000 Ang^3
#
#
#
# Elastic Constant Matrix: (Units=GPa)
#
#
# Indices 1 2 3 4 5 6 
#
# 1 145.2815 43.3935 45.1645 0.0000 17.9378 0.0000
# 2 43.3935 52.5788 31.2705 0.0000 9.7693 0.0000
# 3 45.1645 31.2705 90.3382 0.0000 30.1805 0.0000
# 4 0.0000 0.0000 0.0000 30.0104 0.0000 -0.4207
# 5 17.9378 9.7693 30.1805 0.0000 38.1874 0.0000
# 6 0.0000 0.0000 0.0000 -0.4207 0.0000 42.3886
#
#
#
# Elastic Compliance Matrix: (Units=1/GPa)
#
#
# Indices 1 2 3 4 5 6 
#
# 1 0.009629 -0.006420 -0.002214 0.000000 -0.001131 0.000000
# 2 -0.006420 0.028239 -0.007010 0.000000 0.001332 0.000000
# 3 -0.002214 -0.007010 0.018556 0.000000 -0.011832 0.000000
# 4 0.000000 0.000000 0.000000 0.033326 0.000000 0.000331
# 5 -0.001131 0.001332 -0.011832 0.000000 0.035728 0.000000
# 6 0.000000 0.000000 0.000000 0.000331 0.000000 0.023595
#
#
# Mechanical properties :
#
#
# Convention : Reuss Voigt Hill
#
# Bulk Modulus (GPa) = 39.78402 58.65061 49.21732
# Shear Modulus (GPa) = 26.49166 33.34194 29.91680
#
# Velocity S-wave (km/s) = 3.79924 4.26224 4.03738
# Velocity P-wave (km/s) = 6.39706 7.49524 6.96782
#
# Compressibility (1/GPa) = 0.02513572
#
# Stress axis : x y z
#
# Youngs Moduli (GPa) = 103.85831 35.41187 53.89175
#
# Poissons Ratio (x) = 0.22733 0.11930
# Poissons Ratio (y) = 0.66674 0.37780
# Poissons Ratio (z) = 0.22992 0.24825
#
# Static dielectric constant tensor:
#      x y z
#    x 1.633530 0.000000 0.018950 
#    y 0.000000 1.613560 0.000000 
#    z 0.018950 0.000000 1.645550 
# 
# From -- ./inp_files/237465.got.cif
#   From: 2010.05.17/outbox.ucp.g08.bks.cvg/sg12_119_cif.got.tgz:237465.got - 2010.06.11 11:47:21.
