data_PCOD9223464
_publ_section_title
;
Structure prediction by ZEFSAII (Michael W. Deem and Ramdas Pophale) SiO2 
 PCOD9223464
Probable space group: C 2/M
;
_chemical_formula_sum "Si O2"
_cell_formula_units_Z 28
_cell_length_a 30.000000
_cell_length_b 9.000000
_cell_length_c 18.000000
_cell_angle_alpha 90.000000
_cell_angle_beta 40.000000
_cell_angle_gamma 90.000000
_cell_volume 3123.947783
_symmetry_space_group_name_H-M "C 2/M"
_symmetry_group_IT_number 12
_symmetry_cell_setting 'monoclinic'
loop_
_space_group_symop_operation_xyz
x,y,z
-x,y,-z
-x,-y,-z
x,-y,z
1/2+x,1/2+y,z
1/2-x,1/2+y,-z
1/2-x,1/2-y,-z
1/2+x,1/2-y,z
loop_
_atom_site_type_symbol
_atom_site_label
_atom_site_fract_x
_atom_site_fract_y
_atom_site_fract_z
Si Si1 0.176012 0.668235 0.534885
Si Si2 0.484352 0.833202 0.313178
Si Si3 0.476470 0.824698 0.894719
Si Si4 0.053402 0.175498 0.494860
Si Si5 0.346793 0.330031 0.129883
Si Si6 0.802211 0.680295 0.656176
Si Si7 0.121348 0.831908 0.737977
O O1 0.202509 0.500000 0.510524
O O2 0.203080 0.734261 0.422924
O O3 0.175064 0.754964 0.613207
O O4 0.093324 0.659587 0.621668
O O5 0.531025 0.793645 0.183543
O O6 0.481703 0.717329 0.382235
O O7 0.500435 0.000000 0.320042
O O8 0.546191 0.745317 0.833570
O O9 0.486527 0.000000 0.890841
O O10 0.408333 0.769928 0.022216
O O11 0.127404 0.257396 0.399476
O O12 0.000000 0.224332 0.500000
O O13 0.064826 0.000000 0.474201
O O14 0.356952 0.500000 0.091055
O O15 0.268639 0.280613 0.211734
O O16 0.352050 0.332666 0.212369
O O17 0.806482 0.500000 0.646669
O O18 0.111503 0.000000 0.724224
#
# Coordination Sequence:
#
# PCOD9223464 Si02
#       7
#     8   8   8   8   8   8   8
#     4   8  15  29  47  67  94 126 161 202 241 280
#     4   8  16  31  50  72  97 126 159 194 235 283
#     4  10  20  33  49  70  96 128 169 209 239 275
#     4  10  20  33  53  82 106 120 145 191 240 287
#     4  10  21  34  47  67  97 132 168 205 242 281
#     4   9  19  35  51  69  97 131 163 194 237 294
#     4  10  19  30  46  69  96 128 168 210 246 279
#
# _framework density 8.9630179999999999
#
# number of rings (size 3 to 8) (size 9 to 14) (size 15 to 20)
#    0.000    2.714    0.000    3.429    0.000   10.857 
#    0.000    0.000    0.000    0.857    0.000    0.000 
#    0.000    0.000    0.000    0.000    0.000    0.000 
#
# Total GULP energy -156026.581325 kJ/mol
# GULP energy per Si atom -5572.377904 kJ/mol
# Density = 0.894262 g / cm^3
# Si number density = 8.963018 Si / 1000 Ang^3
#
#
#
# Elastic Constant Matrix: (Units=GPa)
#
#
# Indices 1 2 3 4 5 6 
#
# 1 59.2774 30.1879 27.8747 -0.0140 -15.4501 0.0088
# 2 30.1879 35.5818 29.6774 -0.1465 -7.5544 0.0851
# 3 27.8747 29.6774 84.5985 -0.0849 -19.6551 0.0466
# 4 -0.0140 -0.1465 -0.0849 -186.0358 0.0201 127.5423
# 5 -15.4501 -7.5544 -19.6551 0.0201 13.6265 -0.0115
# 6 0.0088 0.0851 0.0466 127.5423 -0.0115 -53.7990
#
#
#
# Elastic Compliance Matrix: (Units=1/GPa)
#
#
# Indices 1 2 3 4 5 6 
#
# 1 0.038959 -0.030636 0.006358 0.000013 0.036359 -0.000013
# 2 -0.030636 0.063896 -0.018290 -0.000026 -0.025695 0.000024
# 3 0.006358 -0.018290 0.023254 0.000005 0.030611 -0.000002
# 4 0.000013 -0.000026 0.000005 0.008596 0.000012 0.020379
# 5 0.036359 -0.025695 0.030611 0.000012 0.144519 -0.000010
# 6 -0.000013 0.000024 -0.000002 0.020379 -0.000010 0.029725
#
#
# Mechanical properties :
#
#
# Convention : Reuss Voigt Hill
#
# Bulk Modulus (GPa) = 24.40737 39.43752 31.92244
# Shear Modulus (GPa) = 12.26263 -39.12714 -13.43226
#
# Velocity S-wave (km/s) = 2.61831 -4.67700 -2.74033
# Velocity P-wave (km/s) = 4.77345 2.66795 2.79892
#
# Compressibility (1/GPa) = 0.04097123
#
# Stress axis : x y z
#
# Youngs Moduli (GPa) = 25.66827 15.65038 43.00379
#
# Poissons Ratio (x) = 0.47947 -0.27342
# Poissons Ratio (y) = 0.78638 0.78655
# Poissons Ratio (z) = -0.16320 0.28625
#
# Static dielectric constant tensor:
#      x y z
#    x 1.616730 0.000000 0.006870 
#    y 0.000000 1.632350 0.000000 
#    z 0.006870 0.000000 1.641610 
# 
# From -- ./inp_files/295049.got.cif
#   From: 2010.05.17/outbox.ucp.g08.bks.cvg/sg12_148_cif.got.tgz:295049.got - 2010.06.11 11:47:21.
