data_PCOD9223037
_publ_section_title
;
Structure prediction by ZEFSAII (Michael W. Deem and Ramdas Pophale) SiO2 
 PCOD9223037
Probable space group: C 2/M
;
_chemical_formula_sum "Si O2"
_cell_formula_units_Z 40
_cell_length_a 8.306315
_cell_length_b 18.849914
_cell_length_c 11.943991
_cell_angle_alpha 90.000000
_cell_angle_beta 93.833958
_cell_angle_gamma 90.000000
_cell_volume 1865.925085
_symmetry_space_group_name_H-M "C 2/M"
_symmetry_group_IT_number 12
_symmetry_cell_setting 'monoclinic'
loop_
_space_group_symop_operation_xyz
x,y,z
-x,y,-z
-x,-y,-z
x,-y,z
1/2+x,1/2+y,z
1/2-x,1/2+y,-z
1/2-x,1/2-y,-z
1/2+x,1/2-y,z
loop_
_atom_site_type_symbol
_atom_site_label
_atom_site_fract_x
_atom_site_fract_y
_atom_site_fract_z
Si Si1 0.565222 0.157343 0.330437
Si Si2 0.434781 0.657344 0.169562
Si Si3 0.137256 0.584855 0.094757
Si Si4 0.250001 0.788372 0.250000
Si Si5 0.862747 0.084855 0.405242
O O1 0.586221 0.118468 0.211137
O O2 0.374545 0.167531 0.330957
O O3 0.644230 0.235524 0.322122
O O4 0.682040 0.114144 0.417829
O O5 0.317962 0.614145 0.082170
O O6 0.355774 0.735525 0.177877
O O7 0.625457 0.667531 0.169042
O O8 0.413782 0.618469 0.288862
O O9 0.142260 0.500000 0.102801
O O10 0.000000 0.605254 0.000000
O O11 0.000000 0.105253 0.500000
O O12 0.857746 0.000000 0.397195
#
# Coordination Sequence:
#
# PCOD9223037 Si02
#       5
#     8   8   8   8   8
#     4   9  16  31  47  66  90 115 142 182 219 257
#     4   9  16  31  47  66  90 115 142 182 219 257
#     4   9  17  30  47  65  87 118 150 177 213 259
#     4   8  16  30  48  66  90 114 144 178 220 264
#     4   9  17  30  47  65  87 118 150 177 213 259
#
# _framework density 21.437087999999999
#
# number of rings (size 3 to 8) (size 9 to 14) (size 15 to 20)
#    0.000    3.600    0.000    2.400    0.000    0.000 
#    0.000   38.000    0.000    4.800    0.000    0.000 
#    0.000    0.000    0.000    0.000    0.000    0.000 
#
# Total GULP energy -111431.066592 kJ/mol
# GULP energy per Si atom -5571.553330 kJ/mol
# Density = 2.138830 g / cm^3
# Si number density = 21.437088 Si / 1000 Ang^3
#
#
#
# Elastic Constant Matrix: (Units=GPa)
#
#
# Indices 1 2 3 4 5 6 
#
# 1 169.2511 56.8983 55.9068 0.0000 68.8890 0.0000
# 2 56.8983 74.9495 42.5251 0.0000 32.2082 0.0000
# 3 55.9068 42.5251 93.4431 0.0000 41.0000 0.0000
# 4 0.0000 0.0000 0.0000 14.7341 0.0000 27.5486
# 5 68.8890 32.2082 41.0000 0.0000 45.1854 0.0000
# 6 0.0000 0.0000 0.0000 27.5486 0.0000 28.6602
#
#
#
# Elastic Compliance Matrix: (Units=1/GPa)
#
#
# Indices 1 2 3 4 5 6 
#
# 1 0.016219 -0.003106 0.002638 0.000000 -0.024906 0.000000
# 2 -0.003106 0.021067 -0.005347 0.000000 -0.005430 0.000000
# 3 0.002638 -0.005347 0.019355 0.000000 -0.017773 0.000000
# 4 0.000000 0.000000 0.000000 -0.085135 0.000000 0.081833
# 5 -0.024906 -0.005430 -0.017773 0.000000 0.080100 0.000000
# 6 0.000000 0.000000 0.000000 0.081833 0.000000 -0.043768
#
#
# Mechanical properties :
#
#
# Convention : Reuss Voigt Hill
#
# Bulk Modulus (GPa) = 22.21679 72.03380 47.12529
# Shear Modulus (GPa) = 145.04655 29.87018 87.45837
#
# Velocity S-wave (km/s) = 8.23458 3.73686 6.39424
# Velocity P-wave (km/s) = 10.03979 7.23147 8.74905
#
# Compressibility (1/GPa) = 0.04501101
#
# Stress axis : x y z
#
# Youngs Moduli (GPa) = 61.65746 47.46673 51.66693
#
# Poissons Ratio (x) = 0.14745 -0.13631
# Poissons Ratio (y) = 0.19153 0.27625
# Poissons Ratio (z) = -0.16267 0.25379
#
# Static dielectric constant tensor:
#      x y z
#    x 1.896970 0.000000 -0.011210 
#    y 0.000000 1.757520 0.000000 
#    z -0.011210 0.000000 1.811960 
# 
# From -- ./inp_files/120304.got.cif
#   From: 2010.05.17/outbox.cif.g08.bks.cpg/sg12_61_cif.got.tgz:120304.got - 2010.06.03 13:09:07.
