data_PCOD9223070
_publ_section_title
;
Structure prediction by ZEFSAII (Michael W. Deem and Ramdas Pophale) SiO2 
 PCOD9223070
Probable space group: C 2/M
;
_chemical_formula_sum "Si O2"
_cell_formula_units_Z 48
_cell_length_a 10.918518
_cell_length_b 14.437354
_cell_length_c 14.623263
_cell_angle_alpha 90.000000
_cell_angle_beta 80.123246
_cell_angle_gamma 90.000000
_cell_volume 2270.966546
_symmetry_space_group_name_H-M "C 2/M"
_symmetry_group_IT_number 12
_symmetry_cell_setting 'monoclinic'
loop_
_space_group_symop_operation_xyz
x,y,z
-x,y,-z
-x,-y,-z
x,-y,z
1/2+x,1/2+y,z
1/2-x,1/2+y,-z
1/2-x,1/2-y,-z
1/2+x,1/2-y,z
loop_
_atom_site_type_symbol
_atom_site_label
_atom_site_fract_x
_atom_site_fract_y
_atom_site_fract_z
Si Si1 0.607767 0.112663 0.557350
Si Si2 0.327709 0.389236 0.262867
Si Si3 0.619304 0.612964 0.542785
Si Si4 0.605916 0.850671 0.045350
Si Si5 0.453724 0.110816 0.746783
Si Si6 0.874358 0.150751 0.052992
O O1 0.500000 0.141540 0.500000
O O2 0.746946 0.142484 0.514420
O O3 0.563104 0.138509 0.664590
O O4 0.608160 0.000000 0.554284
O O5 0.347015 0.500000 0.251152
O O6 0.387770 0.358688 0.350192
O O7 0.178747 0.374938 0.286429
O O8 0.374244 0.345634 0.162649
O O9 0.500000 0.642769 0.500000
O O10 0.620330 0.500000 0.542013
O O11 0.555095 0.839877 0.154717
O O12 0.742993 0.893073 0.039840
O O13 0.500000 0.899805 0.000000
O O14 0.625106 0.753134 0.991197
O O15 0.463431 0.000000 0.763582
O O16 0.000000 0.105481 0.000000
#
# Coordination Sequence:
#
# PCOD9223070 Si02
#       6
#     8   8   8   8   8   8
#     4   9  14  24  43  66  94 128 161 187 225 289
#     4   9  16  28  47  71  99 130 163 197 235 282
#     4   9  16  26  41  66 102 133 155 188 233 280
#     4   9  18  33  50  69  92 122 164 207 246 283
#     4   9  16  27  47  73  99 128 161 198 238 283
#     4   9  18  33  51  68  89 127 167 200 242 293
#
# _framework density 21.136375000000001
#
# number of rings (size 3 to 8) (size 9 to 14) (size 15 to 20)
#    0.000    3.000    1.667    0.000    0.000    0.667 
#    3.000    0.000    0.000    0.000    0.000    9.333 
#    0.000    0.000    0.000    0.000    0.000    0.667 
#
# Total GULP energy -133845.819052 kJ/mol
# GULP energy per Si atom -5576.909127 kJ/mol
# Density = 2.108827 g / cm^3
# Si number density = 21.136375 Si / 1000 Ang^3
#
#
#
# Elastic Constant Matrix: (Units=GPa)
#
#
# Indices 1 2 3 4 5 6 
#
# 1 188.0246 18.6688 104.8913 0.0000 3.6082 0.0000
# 2 18.6688 82.4939 33.8042 0.0000 -0.4479 0.0000
# 3 104.8913 33.8042 199.1876 0.0000 3.0211 0.0000
# 4 0.0000 0.0000 0.0000 24.8979 0.0000 1.1720
# 5 3.6082 -0.4479 3.0211 0.0000 40.5089 0.0000
# 6 0.0000 0.0000 0.0000 1.1720 0.0000 -11.2414
#
#
#
# Elastic Compliance Matrix: (Units=1/GPa)
#
#
# Indices 1 2 3 4 5 6 
#
# 1 0.007537 -0.000090 -0.003948 0.000000 -0.000378 0.000000
# 2 -0.000090 0.013033 -0.002169 0.000000 0.000314 0.000000
# 3 -0.003948 -0.002169 0.007471 0.000000 -0.000230 0.000000
# 4 0.000000 0.000000 0.000000 0.039968 0.000000 0.004167
# 5 -0.000378 0.000314 -0.000230 0.000000 0.024740 0.000000
# 6 0.000000 0.000000 0.000000 0.004167 0.000000 -0.088523
#
#
# Mechanical properties :
#
#
# Convention : Reuss Voigt Hill
#
# Bulk Modulus (GPa) = 63.99258 87.15941 75.57599
# Shear Modulus (GPa) = 228.83424 31.65587 130.24506
#
# Velocity S-wave (km/s) = 10.41636 3.87421 7.85844
# Velocity P-wave (km/s) = 13.22911 7.83191 10.87079
#
# Compressibility (1/GPa) = 0.01562681
#
# Stress axis : x y z
#
# Youngs Moduli (GPa) = 132.67776 76.72780 133.85068
#
# Poissons Ratio (x) = 0.00690 0.52844
# Poissons Ratio (y) = 0.01193 0.29036
# Poissons Ratio (z) = 0.52381 0.16644
#
# Static dielectric constant tensor:
#      x y z
#    x 1.801880 0.000000 -0.000900 
#    y 0.000000 1.841630 0.000000 
#    z -0.000900 0.000000 1.730800 
# 
# From -- ./inp_files/131045.got.cif
#   From: 2010.05.17/outbox.cif.g08.bks.cpg/sg12_66_cif.got.tgz:131045.got - 2010.06.03 13:09:07.
