data_PCOD9223434
_publ_section_title
;
Structure prediction by ZEFSAII (Michael W. Deem and Ramdas Pophale) SiO2 
 PCOD9223434
Probable space group: C 2/M
;
_chemical_formula_sum "Si O2"
_cell_formula_units_Z 28
_cell_length_a 15.000000
_cell_length_b 24.000000
_cell_length_c 9.000000
_cell_angle_alpha 90.000000
_cell_angle_beta 60.000000
_cell_angle_gamma 90.000000
_cell_volume 2805.922308
_symmetry_space_group_name_H-M "C 2/M"
_symmetry_group_IT_number 12
_symmetry_cell_setting 'monoclinic'
loop_
_space_group_symop_operation_xyz
x,y,z
-x,y,-z
-x,-y,-z
x,-y,z
1/2+x,1/2+y,z
1/2-x,1/2+y,-z
1/2-x,1/2-y,-z
1/2+x,1/2-y,z
loop_
_atom_site_type_symbol
_atom_site_label
_atom_site_fract_x
_atom_site_fract_y
_atom_site_fract_z
Si Si1 0.378225 0.936999 0.636866
Si Si2 0.424741 0.758343 0.303324
Si Si3 0.124076 0.666793 0.140581
Si Si4 0.718897 0.244319 0.304203
Si Si5 0.298651 0.433785 0.463111
Si Si6 0.500718 0.364465 0.320261
Si Si7 0.285475 0.368432 0.774331
O O1 0.500000 0.939335 0.500000
O O2 0.374634 0.887601 0.757615
O O3 0.297476 0.923939 0.569478
O O4 0.349962 0.000000 0.712325
O O5 0.513178 0.804381 0.204361
O O6 0.353492 0.778198 0.501910
O O7 0.339162 0.744808 0.248827
O O8 0.480667 0.699754 0.293641
O O9 0.191276 0.712045 0.177368
O O10 0.181347 0.646399 0.945999
O O11 0.686243 0.308660 0.320623
O O12 0.317646 0.500000 0.449838
O O13 0.405342 0.400825 0.336190
O O14 0.272362 0.411646 0.651028
O O15 0.500000 0.372332 0.500000
O O16 0.619866 0.381877 0.191707
#
# Coordination Sequence:
#
# PCOD9223434 Si02
#       7
#     8   8   8   8   8   8   8
#     4  10  23  44  67  91 121 167 224 264 306 382
#     4  11  21  36  63  87 124 172 216 257 310 377
#     4  12  24  39  63  95 132 171 203 265 340 376
#     4  11  22  37  59  91 125 168 217 259 303 384
#     4  10  22  43  70  94 122 169 222 268 314 377
#     4  10  18  37  60  87 125 160 210 259 307 381
#     4  11  24  39  58  95 135 158 208 264 325 389
#
# _framework density 9.9788940000000004
#
# number of rings (size 3 to 8) (size 9 to 14) (size 15 to 20)
#    0.000    1.286    4.286    2.571    4.000    3.714 
#    0.000    2.143    0.000    4.286    0.000    0.000 
#    0.000    0.000    0.000    0.000    0.000    0.000 
#
# Total GULP energy -156262.774238 kJ/mol
# GULP energy per Si atom -5580.813366 kJ/mol
# Density = 0.995618 g / cm^3
# Si number density = 9.978894 Si / 1000 Ang^3
#
#
#
# Elastic Constant Matrix: (Units=GPa)
#
#
# Indices 1 2 3 4 5 6 
#
# 1 152.9790 34.7447 29.8242 0.0000 -32.7808 0.0000
# 2 34.7447 105.1519 31.5968 0.0000 -16.1592 0.0000
# 3 29.8242 31.5968 59.8184 0.0000 -24.2484 0.0000
# 4 0.0000 0.0000 0.0000 17.2027 0.0000 -0.6718
# 5 -32.7808 -16.1592 -24.2484 0.0000 18.3250 0.0000
# 6 0.0000 0.0000 0.0000 -0.6718 0.0000 40.6375
#
#
#
# Elastic Compliance Matrix: (Units=1/GPa)
#
#
# Indices 1 2 3 4 5 6 
#
# 1 0.011578 -0.001439 0.006188 0.000000 0.027632 0.000000
# 2 -0.001439 0.011655 -0.004996 0.000000 0.001092 0.000000
# 3 0.006188 -0.004996 0.040924 0.000000 0.060817 0.000000
# 4 0.000000 0.000000 0.000000 0.058168 0.000000 0.000962
# 5 0.027632 0.001092 0.060817 0.000000 0.185439 0.000000
# 6 0.000000 0.000000 0.000000 0.000962 0.000000 0.024624
#
#
# Mechanical properties :
#
#
# Convention : Reuss Voigt Hill
#
# Bulk Modulus (GPa) = 15.70746 56.69787 36.20267
# Shear Modulus (GPa) = 14.12024 30.01860 22.06942
#
# Velocity S-wave (km/s) = 2.66278 3.88249 3.32897
# Velocity P-wave (km/s) = 4.16429 6.96913 5.74065
#
# Compressibility (1/GPa) = 0.06366402
#
# Stress axis : x y z
#
# Youngs Moduli (GPa) = 86.36937 85.80325 24.43541
#
# Poissons Ratio (x) = 0.12347 -0.15122
# Poissons Ratio (y) = 0.12428 0.12208
# Poissons Ratio (z) = -0.53449 0.42866
#
# Static dielectric constant tensor:
#      x y z
#    x 1.744460 0.000000 -0.024770 
#    y 0.000000 1.695930 0.000000 
#    z -0.024770 0.000000 1.787720 
# 
# From -- ./inp_files/65768.got.cif
#   From: 2010.05.17/outbox.ucp.g08.bks.cvg/sg12_33_cif.got.tgz:65768.got - 2010.06.11 11:47:21.
