data_PCOD9223581
_publ_section_title
;
Structure prediction by ZEFSAII (Michael W. Deem and Ramdas Pophale) SiO2 
 PCOD9223581
Probable space group: C 2/M
;
_chemical_formula_sum "Si O2"
_cell_formula_units_Z 32
_cell_length_a 27.000000
_cell_length_b 9.000000
_cell_length_c 21.000000
_cell_angle_alpha 90.000000
_cell_angle_beta 50.000000
_cell_angle_gamma 90.000000
_cell_volume 3909.124793
_symmetry_space_group_name_H-M "C 2/M"
_symmetry_group_IT_number 12
_symmetry_cell_setting 'monoclinic'
loop_
_space_group_symop_operation_xyz
x,y,z
-x,y,-z
-x,-y,-z
x,-y,z
1/2+x,1/2+y,z
1/2-x,1/2+y,-z
1/2-x,1/2-y,-z
1/2+x,1/2-y,z
loop_
_atom_site_type_symbol
_atom_site_label
_atom_site_fract_x
_atom_site_fract_y
_atom_site_fract_z
Si Si1 0.452151 0.329684 0.980082
Si Si2 0.603479 0.322825 0.668281
Si Si3 0.300511 0.178239 0.307738
Si Si4 0.338679 0.830876 0.911339
Si Si5 0.012818 0.330749 0.176388
Si Si6 0.701877 0.677884 0.488504
Si Si7 0.750335 0.826101 0.894524
Si Si8 0.680404 0.322740 0.844774
O O1 0.442820 0.500000 0.964946
O O2 0.482333 0.235309 0.898466
O O3 0.500000 0.332483 0.000000
O O4 0.384361 0.272985 0.064172
O O5 0.607908 0.500000 0.673222
O O6 0.648030 0.243403 0.684566
O O7 0.532495 0.266169 0.741471
O O8 0.631692 0.284519 0.574931
O O9 0.230130 0.218758 0.396204
O O10 0.313306 0.248535 0.228901
O O11 0.305984 0.000000 0.299852
O O12 0.414476 0.829523 0.858311
O O13 0.315300 0.719574 0.876783
O O14 0.317250 0.000000 0.913518
O O15 0.304132 0.792020 0.006703
O O16 0.988802 0.500000 0.194105
O O17 0.708206 0.500000 0.487370
O O18 0.750000 0.750000 0.500000
O O19 0.737918 0.729172 0.842828
O O20 0.747015 0.000000 0.882178
O O21 0.676992 0.500000 0.840681
#
# Coordination Sequence:
#
# PCOD9223581 Si02
#       8
#     8   8   8   8   8   8   8   8
#     4  10  21  34  46  63  93 132 168 198 230 276
#     4  10  19  32  49  71 100 131 164 199 240 288
#     4  10  19  32  50  72  98 129 166 203 241 283
#     4   9  19  34  50  70  95 122 158 204 248 286
#     4  11  21  33  49  71  97 127 162 200 241 285
#     4   8  16  30  48  69  94 125 160 201 241 281
#     4  10  19  33  52  71  93 124 162 203 244 287
#     4  11  21  32  48  71 100 131 162 199 243 288
#
# _framework density 8.1859760000000001
#
# number of rings (size 3 to 8) (size 9 to 14) (size 15 to 20)
#    0.000    2.125    1.250    2.625    0.000    4.250 
#    0.000    0.000    0.000    0.000    0.000    0.875 
#    0.000    7.000    0.000    0.000    0.000    0.000 
#
# Total GULP energy -178300.744757 kJ/mol
# GULP energy per Si atom -5571.898274 kJ/mol
# Density = 0.816734 g / cm^3
# Si number density = 8.185976 Si / 1000 Ang^3
#
#
#
# Elastic Constant Matrix: (Units=GPa)
#
#
# Indices 1 2 3 4 5 6 
#
# 1 22.5072 0.0290 -11.9575 0.0019 -7.5707 -0.0060
# 2 0.0290 25.7198 0.4272 0.0020 -7.5845 -0.0073
# 3 -11.9575 0.4272 6.2927 0.0021 -24.9244 -0.0123
# 4 0.0019 0.0020 0.0021 23.1411 -0.0004 -2.0660
# 5 -7.5707 -7.5845 -24.9244 -0.0004 5.3001 0.0011
# 6 -0.0060 -0.0073 -0.0123 -2.0660 0.0011 27.5057
#
#
#
# Elastic Compliance Matrix: (Units=1/GPa)
#
#
# Indices 1 2 3 4 5 6 
#
# 1 0.031873 -0.005265 -0.011994 -0.000001 -0.018409 0.000001
# 2 -0.005265 0.039239 -0.010209 -0.000002 0.000621 0.000005
# 3 -0.011994 -0.010209 -0.000629 0.000001 -0.034701 -0.000004
# 4 -0.000001 -0.000002 0.000001 0.043505 0.000003 0.003268
# 5 -0.018409 0.000621 -0.034701 0.000003 0.000081 -0.000019
# 6 0.000001 0.000005 -0.000004 0.003268 -0.000019 0.036602
#
#
# Mechanical properties :
#
#
# Convention : Reuss Voigt Hill
#
# Bulk Modulus (GPa) = 64.32475 3.50190 33.91333
# Shear Modulus (GPa) = 23.72039 15.59077 19.65558
#
# Velocity S-wave (km/s) = 3.81050 3.08926 3.46867
# Velocity P-wave (km/s) = 7.66386 3.85594 6.06643
#
# Compressibility (1/GPa) = 0.01554612
#
# Stress axis : x y z
#
# Youngs Moduli (GPa) = 31.37476 25.48467 -1588.74877
#
# Poissons Ratio (x) = 0.13419 -19.05502
# Poissons Ratio (y) = 0.16520 -16.21969
# Poissons Ratio (z) = 0.37630 0.26018
#
# Static dielectric constant tensor:
#      x y z
#    x 1.547710 0.000000 -0.032040 
#    y 0.000000 1.568170 0.000000 
#    z -0.032040 0.000000 1.572680 
# 
# From -- ./inp_files/326836.got.cif
#   From: 2010.05.17/outbox.ucp.g08.bks.cvg/sg12_164_cif.got.tgz:326836.got - 2010.06.11 11:47:21.
