data_PCOD9223931
_publ_section_title
;
Structure prediction by ZEFSAII (Michael W. Deem and Ramdas Pophale) SiO2 
 PCOD9223931
Probable space group: C 2/M
;
_chemical_formula_sum "Si O2"
_cell_formula_units_Z 28
_cell_length_a 24.000000
_cell_length_b 9.000000
_cell_length_c 15.000000
_cell_angle_alpha 90.000000
_cell_angle_beta 120.000000
_cell_angle_gamma 90.000000
_cell_volume 2805.922308
_symmetry_space_group_name_H-M "C 2/M"
_symmetry_group_IT_number 12
_symmetry_cell_setting 'monoclinic'
loop_
_space_group_symop_operation_xyz
x,y,z
-x,y,-z
-x,-y,-z
x,-y,z
1/2+x,1/2+y,z
1/2-x,1/2+y,-z
1/2-x,1/2-y,-z
1/2+x,1/2-y,z
loop_
_atom_site_type_symbol
_atom_site_label
_atom_site_fract_x
_atom_site_fract_y
_atom_site_fract_z
Si Si1 0.790229 0.668438 0.607393
Si Si2 0.936445 0.335466 0.707383
Si Si3 0.277854 0.677583 0.787063
Si Si4 0.008716 0.177401 0.907668
Si Si5 0.149611 0.819521 0.974320
Si Si6 0.530605 0.175702 0.619996
Si Si7 0.661016 0.322236 0.783019
O O1 0.766675 0.500000 0.602379
O O2 0.750000 0.750000 0.500000
O O3 0.862051 0.663625 0.627420
O O4 0.793966 0.748934 0.705806
O O5 0.954957 0.500000 0.755757
O O6 0.952030 0.221867 0.797643
O O7 0.976660 0.305402 0.651798
O O8 0.283661 0.500000 0.784793
O O9 0.206850 0.730649 0.755224
O O10 0.318394 0.728261 0.906996
O O11 0.075592 0.230000 0.919339
O O12 0.012549 0.000000 0.916347
O O13 0.000000 0.236607 0.000000
O O14 0.175031 0.774737 0.897249
O O15 0.152194 0.000000 0.976588
O O16 0.500000 0.212287 0.500000
O O17 0.589413 0.277754 0.697370
O O18 0.549699 0.000000 0.633566
O O19 0.670671 0.500000 0.784055
#
# Coordination Sequence:
#
# PCOD9223931 Si02
#       7
#     8   8   8   8   8   8   8
#     4  11  25  44  64  91 124 162 207 256 307 363
#     4  10  22  40  61  89 123 156 198 250 301 358
#     4  11  23  41  64  89 122 166 210 252 306 367
#     4  10  19  34  59  88 121 160 201 245 297 358
#     4   9  19  36  58  89 125 160 201 250 304 364
#     4  10  22  40  63  90 121 162 205 248 305 368
#     4  11  22  39  62  93 128 160 203 257 309 366
#
# _framework density 9.9788940000000004
#
# number of rings (size 3 to 8) (size 9 to 14) (size 15 to 20)
#    0.000    1.714    1.429    2.571    2.000    2.857 
#    0.000    3.571    0.000    0.000    0.000    0.000 
#    0.000    0.000    0.000    0.000    0.000    0.000 
#
# Total GULP energy -156205.221781 kJ/mol
# GULP energy per Si atom -5578.757921 kJ/mol
# Density = 0.995618 g / cm^3
# Si number density = 9.978894 Si / 1000 Ang^3
#
#
#
# Elastic Constant Matrix: (Units=GPa)
#
#
# Indices 1 2 3 4 5 6 
#
# 1 40.2495 6.8894 7.6273 0.0000 22.9928 0.0000
# 2 6.8894 38.7280 26.5423 0.0000 4.6118 0.0000
# 3 7.6273 26.5423 89.8872 0.0000 8.6709 0.0000
# 4 0.0000 0.0000 0.0000 32.0245 0.0000 -1.0404
# 5 22.9928 4.6118 8.6709 0.0000 5.1420 0.0000
# 6 0.0000 0.0000 0.0000 -1.0404 0.0000 24.0888
#
#
#
# Elastic Compliance Matrix: (Units=1/GPa)
#
#
# Indices 1 2 3 4 5 6 
#
# 1 -0.013048 -0.002603 -0.004750 0.000000 0.068688 0.000000
# 2 -0.002603 0.032911 -0.009283 0.000000 -0.002226 0.000000
# 3 -0.004750 -0.009283 0.013635 0.000000 0.006574 0.000000
# 4 0.000000 0.000000 0.000000 0.031270 0.000000 0.001351
# 5 0.068688 -0.002226 0.006574 0.000000 -0.121753 0.000000
# 6 0.000000 0.000000 0.000000 0.001351 0.000000 0.041571
#
#
# Mechanical properties :
#
#
# Convention : Reuss Voigt Hill
#
# Bulk Modulus (GPa) = 4397.49670 27.88697 2212.69183
# Shear Modulus (GPa) = 278.80681 20.77143 149.78912
#
# Velocity S-wave (km/s) = 11.83222 3.22959 8.67271
# Velocity P-wave (km/s) = 48.93722 5.28302 34.80489
#
# Compressibility (1/GPa) = 0.00022740
#
# Stress axis : x y z
#
# Youngs Moduli (GPa) = -76.64280 30.38498 73.34064
#
# Poissons Ratio (x) = 0.07908 0.34838
# Poissons Ratio (y) = -0.19948 0.68079
# Poissons Ratio (z) = -0.36407 0.28205
#
# Static dielectric constant tensor:
#      x y z
#    x 1.734060 0.000000 0.017690 
#    y 0.000000 1.717650 0.000000 
#    z 0.017690 0.000000 1.673160 
# 
# From -- ./inp_files/238918.got.cif
#   From: 2010.05.17/outbox.ucp.g08.bks.cvg/sg12_120_cif.got.tgz:238918.got - 2010.06.11 11:47:21.
