data_PCOD9223125
_publ_section_title
;
Structure prediction by ZEFSAII (Michael W. Deem and Ramdas Pophale) SiO2 
 PCOD9223125
Probable space group: C 2/M
;
_chemical_formula_sum "Si O2"
_cell_formula_units_Z 48
_cell_length_a 21.839358
_cell_length_b 18.235038
_cell_length_c 16.527384
_cell_angle_alpha 90.000000
_cell_angle_beta 160.905819
_cell_angle_gamma 90.000000
_cell_volume 2153.080732
_symmetry_space_group_name_H-M "C 2/M"
_symmetry_group_IT_number 12
_symmetry_cell_setting 'monoclinic'
loop_
_space_group_symop_operation_xyz
x,y,z
-x,y,-z
-x,-y,-z
x,-y,z
1/2+x,1/2+y,z
1/2-x,1/2+y,-z
1/2-x,1/2-y,-z
1/2+x,1/2-y,z
loop_
_atom_site_type_symbol
_atom_site_label
_atom_site_fract_x
_atom_site_fract_y
_atom_site_fract_z
Si Si1 0.387521 0.919084 0.578915
Si Si2 0.495266 0.419084 0.186659
Si Si3 0.089990 0.386197 0.990484
Si Si4 0.543808 0.233281 0.404232
Si Si5 0.177040 0.233281 0.037464
Si Si6 0.210999 0.113803 0.611492
O O1 0.193584 0.913429 0.387167
O O2 0.555048 0.912098 0.855006
O O3 0.392468 0.850408 0.525002
O O4 0.397241 0.000000 0.554026
O O5 0.416327 0.500000 0.073111
O O6 0.372599 0.350408 0.005133
O O7 0.544867 0.412098 0.344824
O O8 0.106230 0.297909 0.006021
O O9 0.900356 0.406518 0.800712
O O10 0.260420 0.411916 0.260420
O O11 0.433565 0.250000 0.183565
O O12 0.693354 0.297909 0.593145
O O13 0.394456 0.242065 0.288911
#
# Coordination Sequence:
#
# PCOD9223125 Si02
#       6
#     8   8   8   8   8   8
#     4   9  17  29  46  68  93 120 149 182 221 265
#     4   9  17  29  46  68  93 120 149 182 221 265
#     4   9  17  29  46  68  93 120 149 182 221 265
#     4   9  17  29  45  64  87 118 155 189 219 257
#     4   9  17  29  45  64  87 118 155 189 219 257
#     4   9  17  29  46  68  93 120 149 182 221 265
#
# _framework density 22.293637
#
# number of rings (size 3 to 8) (size 9 to 14) (size 15 to 20)
#    0.000    3.000    0.000    1.000    0.000    6.000 
#    0.000    3.333    0.000    1.000    0.000   16.333 
#    0.000    0.000    0.000    0.000    0.000    0.000 
#
# Total GULP energy -133748.583687 kJ/mol
# GULP energy per Si atom -5572.857654 kJ/mol
# Density = 2.224290 g / cm^3
# Si number density = 22.293637 Si / 1000 Ang^3
#
#
#
# Elastic Constant Matrix: (Units=GPa)
#
#
# Indices 1 2 3 4 5 6 
#
# 1 7.5040 -0.0344 22.2508 0.0001 -0.2682 0.0001
# 2 -0.0344 151.8984 -3.8553 0.0000 10.4365 0.0000
# 3 22.2508 -3.8553 10.9970 0.0002 -9.2758 0.0001
# 4 0.0001 0.0000 0.0002 -9.6875 0.0001 0.0976
# 5 -0.2682 10.4365 -9.2758 0.0001 17.2831 0.0001
# 6 0.0001 0.0000 0.0001 0.0976 0.0001 -9.6524
#
#
#
# Elastic Compliance Matrix: (Units=1/GPa)
#
#
# Indices 1 2 3 4 5 6 
#
# 1 -0.013519 -0.000586 0.049824 0.000001 0.026885 0.000001
# 2 -0.000586 0.006867 0.000159 0.000000 -0.004070 0.000000
# 3 0.049824 0.000159 -0.016904 0.000000 -0.008395 0.000000
# 4 0.000001 0.000000 0.000000 -0.103236 0.000001 -0.001044
# 5 0.026885 -0.004070 -0.008395 0.000001 0.056229 0.000001
# 6 0.000001 0.000000 0.000000 -0.001044 0.000001 -0.103611
#
#
# Mechanical properties :
#
#
# Convention : Reuss Voigt Hill
#
# Bulk Modulus (GPa) = 13.29082 23.01352 18.15217
# Shear Modulus (GPa) = -20.17029 9.72451 -5.22289
#
# Velocity S-wave (km/s) = -3.01118 2.09081 -1.53227
# Velocity P-wave (km/s) = 2.47284 4.02169 2.24266
#
# Compressibility (1/GPa) = 0.07523990
#
# Stress axis : x y z
#
# Youngs Moduli (GPa) = -73.97242 145.62584 -59.15780
#
# Poissons Ratio (x) = 0.08529 2.94750
# Poissons Ratio (y) = -0.04332 0.00941
# Poissons Ratio (z) = 3.68563 -0.02316
#
# Static dielectric constant tensor:
#      x y z
#    x 1.841450 0.000000 -0.045610 
#    y 0.000000 1.828170 0.000000 
#    z -0.045610 0.000000 1.858140 
# 
# From -- ./inp_files/61681.got.cif
#   From: 2010.05.17/outbox.cif.g08.bks.cpg/sg12_31_cif.got.tgz:61681.got - 2010.06.03 13:09:07.
