data_PCOD9223080
_publ_section_title
;
Structure prediction by ZEFSAII (Michael W. Deem and Ramdas Pophale) SiO2 
 PCOD9223080
Probable space group: C 2/M
;
_chemical_formula_sum "Si O2"
_cell_formula_units_Z 56
_cell_length_a 30.418317
_cell_length_b 7.458723
_cell_length_c 14.017974
_cell_angle_alpha 90.000000
_cell_angle_beta 77.968018
_cell_angle_gamma 90.000000
_cell_volume 3110.553718
_symmetry_space_group_name_H-M "C 2/M"
_symmetry_group_IT_number 12
_symmetry_cell_setting 'monoclinic'
loop_
_space_group_symop_operation_xyz
x,y,z
-x,y,-z
-x,-y,-z
x,-y,z
1/2+x,1/2+y,z
1/2-x,1/2+y,-z
1/2-x,1/2-y,-z
1/2+x,1/2-y,z
loop_
_atom_site_type_symbol
_atom_site_label
_atom_site_fract_x
_atom_site_fract_y
_atom_site_fract_z
Si Si1 0.700287 0.786961 0.407589
Si Si2 0.968745 0.716023 0.725319
Si Si3 0.021296 0.787729 0.893614
Si Si4 0.108888 0.208472 0.753306
Si Si5 0.108062 0.280561 0.368358
Si Si6 0.199136 0.783067 0.631719
Si Si7 0.942621 0.282860 0.417176
O O1 0.658822 0.717458 0.363756
O O2 0.750650 0.716302 0.367791
O O3 0.690100 0.760861 0.524661
O O4 0.702362 0.000000 0.390669
O O5 0.968400 0.500000 0.725006
O O6 0.919982 0.776924 0.711667
O O7 0.987202 0.769693 0.820155
O O8 0.006677 0.772678 0.631163
O O9 0.069934 0.712938 0.838721
O O10 0.028187 0.000000 0.905074
O O11 0.000000 0.713146 0.000000
O O12 0.158816 0.284969 0.716765
O O13 0.087287 0.217966 0.657582
O O14 0.114235 0.000000 0.777458
O O15 0.109261 0.500000 0.367491
O O16 0.078685 0.226182 0.473796
O O17 0.199339 0.000000 0.637234
O O18 0.941834 0.500000 0.416904
#
# Coordination Sequence:
#
# PCOD9223080 Si02
#       7
#     8   8   8   8   8   8   8
#     4   9  16  25  38  55  79 110 138 159 184 223
#     4   9  17  27  41  60  80 102 131 164 194 229
#     4   9  18  32  46  59  77 101 129 164 206 246
#     4   9  16  26  40  58  80 103 130 165 200 230
#     4   9  15  24  38  57  81 109 135 157 185 226
#     4   9  16  25  37  56  80 105 134 166 193 219
#     4   9  15  24  38  56  79 108 136 157 183 225
#
# _framework density 18.003223999999999
#
# number of rings (size 3 to 8) (size 9 to 14) (size 15 to 20)
#    0.000    3.000    1.429    0.429    0.000    2.000 
#    0.000    1.429    0.000    3.429    0.000    1.000 
#    0.000    0.000    0.000    0.000    0.000    0.000 
#
# Total GULP energy -155987.525547 kJ/mol
# GULP energy per Si atom -5570.983055 kJ/mol
# Density = 1.796225 g / cm^3
# Si number density = 18.003224 Si / 1000 Ang^3
#
#
#
# Elastic Constant Matrix: (Units=GPa)
#
#
# Indices 1 2 3 4 5 6 
#
# 1 166.6256 4.5212 65.1439 0.0000 -18.0397 0.0000
# 2 4.5212 51.3828 -1.2519 0.0000 -3.1961 0.0000
# 3 65.1439 -1.2519 85.0695 0.0000 -20.4134 0.0000
# 4 0.0000 0.0000 0.0000 9.5216 0.0000 4.1185
# 5 -18.0397 -3.1961 -20.4134 0.0000 17.6342 0.0000
# 6 0.0000 0.0000 0.0000 4.1185 0.0000 7.2204
#
#
#
# Elastic Compliance Matrix: (Units=1/GPa)
#
#
# Indices 1 2 3 4 5 6 
#
# 1 0.008634 -0.000825 -0.006286 0.000000 0.001406 0.000000
# 2 -0.000825 0.019918 0.002200 0.000000 0.005312 0.000000
# 3 -0.006286 0.002200 0.020982 0.000000 0.018257 0.000000
# 4 0.000000 0.000000 0.000000 0.139423 0.000000 -0.079527
# 5 0.001406 0.005312 0.018257 0.000000 0.080243 0.000000
# 6 0.000000 0.000000 0.000000 -0.079527 0.000000 0.183859
#
#
# Mechanical properties :
#
#
# Convention : Reuss Voigt Hill
#
# Bulk Modulus (GPa) = 25.18193 48.87826 37.03010
# Shear Modulus (GPa) = 10.50154 22.51955 16.51055
#
# Velocity S-wave (km/s) = 2.41781 3.54059 3.03163
# Velocity P-wave (km/s) = 4.67036 6.62745 5.73303
#
# Compressibility (1/GPa) = 0.03971101
#
# Stress axis : x y z
#
# Youngs Moduli (GPa) = 115.82439 50.20476 47.65899
#
# Poissons Ratio (x) = 0.04144 0.29960
# Poissons Ratio (y) = 0.09560 -0.10485
# Poissons Ratio (z) = 0.72811 -0.11045
#
# Static dielectric constant tensor:
#      x y z
#    x 1.675150 0.000000 -0.026980 
#    y 0.000000 1.681600 0.000000 
#    z -0.026980 0.000000 1.586510 
# 
# From -- ./inp_files/173877.got.cif
#   From: 2010.05.17/outbox.cif.g08.bks.cpg/sg12_87_cif.got.tgz:173877.got - 2010.06.03 13:09:07.
