data_PCOD9223672
_publ_section_title
;
Structure prediction by ZEFSAII (Michael W. Deem and Ramdas Pophale) SiO2 
 PCOD9223672
Probable space group: C 2/M
;
_chemical_formula_sum "Si O2"
_cell_formula_units_Z 32
_cell_length_a 30.000000
_cell_length_b 9.000000
_cell_length_c 24.000000
_cell_angle_alpha 90.000000
_cell_angle_beta 30.000000
_cell_angle_gamma 90.000000
_cell_volume 3240.000000
_symmetry_space_group_name_H-M "C 2/M"
_symmetry_group_IT_number 12
_symmetry_cell_setting 'monoclinic'
loop_
_space_group_symop_operation_xyz
x,y,z
-x,y,-z
-x,-y,-z
x,-y,z
1/2+x,1/2+y,z
1/2-x,1/2+y,-z
1/2-x,1/2-y,-z
1/2+x,1/2-y,z
loop_
_atom_site_type_symbol
_atom_site_label
_atom_site_fract_x
_atom_site_fract_y
_atom_site_fract_z
Si Si1 0.739585 0.678574 0.249181
Si Si2 0.633024 0.332870 0.255182
Si Si3 0.724419 0.679566 0.390439
Si Si4 0.901079 0.174959 0.010045
Si Si5 0.606346 0.323998 0.623693
Si Si6 0.562781 0.168818 0.234693
Si Si7 0.323011 0.836978 0.993475
Si Si8 0.901792 0.819470 0.238881
O O1 0.751064 0.500000 0.236086
O O2 0.669060 0.712567 0.276452
O O3 0.702284 0.721888 0.350349
O O4 0.834175 0.747546 0.126516
O O5 0.593610 0.500000 0.300576
O O6 0.575389 0.213689 0.284971
O O7 0.720052 0.342620 0.121151
O O8 0.723191 0.500000 0.393916
O O9 0.666977 0.733505 0.506391
O O10 0.822446 0.744343 0.291871
O O11 0.862955 0.211167 0.989704
O O12 0.004029 0.222797 0.891455
O O13 0.899223 0.000000 0.023220
O O14 0.621011 0.500000 0.610161
O O15 0.506362 0.284623 0.715291
O O16 0.613348 0.269591 0.680062
O O17 0.649149 0.177938 0.100733
O O18 0.529705 0.000000 0.265848
O O19 0.360136 0.000000 0.971294
O O20 0.897444 0.000000 0.242780
#
# Coordination Sequence:
#
# PCOD9223672 Si02
#       8
#     8   8   8   8   8   8   8   8
#     4   9  20  39  57  79 110 144 187 230 266 315
#     4   9  18  33  53  75 107 145 178 221 272 320
#     4  10  22  39  61  81 102 143 192 231 270 318
#     4  10  19  32  54  83 113 147 177 216 272 329
#     4  10  21  39  58  80 111 145 182 225 273 326
#     4  11  21  32  52  83 112 141 181 224 271 324
#     4   9  18  32  50  77 112 146 178 219 267 321
#     4  10  21  36  56  84 115 140 174 224 279 333
#
# _framework density 9.8765429999999999
#
# number of rings (size 3 to 8) (size 9 to 14) (size 15 to 20)
#    0.000    2.250    1.250    2.250    0.000    5.500 
#    0.000    3.125    0.000    3.750    0.000    0.000 
#    0.000    0.000    0.000    0.000    0.000    0.000 
#
# Total GULP energy -178164.011611 kJ/mol
# GULP energy per Si atom -5567.625363 kJ/mol
# Density = 0.985406 g / cm^3
# Si number density = 9.876543 Si / 1000 Ang^3
#
#
#
# Elastic Constant Matrix: (Units=GPa)
#
#
# Indices 1 2 3 4 5 6 
#
# 1 44.7310 -11.4107 -11.4442 0.0006 8.1833 -0.0035
# 2 -11.4107 -26.0875 -4.6075 -0.0007 -5.3301 -0.0001
# 3 -11.4442 -4.6075 2.4978 -0.0006 12.4114 -0.0037
# 4 0.0006 -0.0007 -0.0006 21.0779 -0.0001 1.0435
# 5 8.1833 -5.3301 12.4114 -0.0001 7.2415 -0.0012
# 6 -0.0035 -0.0001 -0.0037 1.0435 -0.0012 21.0551
#
#
#
# Elastic Compliance Matrix: (Units=1/GPa)
#
#
# Indices 1 2 3 4 5 6 
#
# 1 0.013399 -0.005342 -0.019465 -0.000001 0.014289 0.000000
# 2 -0.005342 -0.032450 -0.000579 -0.000001 -0.016856 -0.000002
# 3 -0.019465 -0.000579 -0.026996 0.000000 0.067840 -0.000004
# 4 -0.000001 -0.000001 0.000000 0.047560 0.000000 -0.002357
# 5 0.014289 -0.016856 0.067840 0.000000 -0.006735 0.000014
# 6 0.000000 -0.000002 -0.000004 -0.002357 0.000014 0.047611
#
#
# Mechanical properties :
#
#
# Convention : Reuss Voigt Hill
#
# Bulk Modulus (GPa) = -10.32849 -3.75372 -7.04110
# Shear Modulus (GPa) = 82.11622 13.11512 47.61567
#
# Velocity S-wave (km/s) = 6.45458 2.57952 4.91505
# Velocity P-wave (km/s) = 7.09286 2.63960 5.35145
#
# Compressibility (1/GPa) = -0.09681962
#
# Stress axis : x y z
#
# Youngs Moduli (GPa) = 74.63310 -30.81683 -37.04258
#
# Poissons Ratio (x) = -0.16463 -0.72105
# Poissons Ratio (y) = 0.39871 -0.02144
# Poissons Ratio (z) = 1.45277 -0.01783
#
# Static dielectric constant tensor:
#      x y z
#    x 1.733900 0.000000 -0.005260 
#    y 0.000000 1.691530 0.000000 
#    z -0.005260 0.000000 1.705670 
# 
# From -- ./inp_files/353261.got.cif
#   From: 2010.05.17/outbox.ucp.g08.bks.cvg/sg12_177_cif.got.tgz:353261.got - 2010.06.11 11:47:21.
