data_PCOD9223186
_publ_section_title
;
Structure prediction by ZEFSAII (Michael W. Deem and Ramdas Pophale) SiO2 
 PCOD9223186
Probable space group: C 2/M
;
_chemical_formula_sum "Si O2"
_cell_formula_units_Z 32
_cell_length_a 30.000000
_cell_length_b 9.000000
_cell_length_c 18.000000
_cell_angle_alpha 90.000000
_cell_angle_beta 40.000000
_cell_angle_gamma 90.000000
_cell_volume 3123.947783
_symmetry_space_group_name_H-M "C 2/M"
_symmetry_group_IT_number 12
_symmetry_cell_setting 'monoclinic'
loop_
_space_group_symop_operation_xyz
x,y,z
-x,y,-z
-x,-y,-z
x,-y,z
1/2+x,1/2+y,z
1/2-x,1/2+y,-z
1/2-x,1/2-y,-z
1/2+x,1/2-y,z
loop_
_atom_site_type_symbol
_atom_site_label
_atom_site_fract_x
_atom_site_fract_y
_atom_site_fract_z
Si Si1 0.909703 0.678319 0.515794
Si Si2 0.336416 0.180958 0.763825
Si Si3 0.408741 0.821915 0.231027
Si Si4 0.789508 0.827377 0.310801
Si Si5 0.555266 0.820804 0.262633
Si Si6 0.198459 0.825775 0.874711
Si Si7 0.055806 0.321460 0.093589
Si Si8 0.660534 0.676319 0.536554
O O1 0.897537 0.500000 0.519576
O O2 0.881062 0.717071 0.633300
O O3 0.873613 0.770557 0.496826
O O4 0.990972 0.706642 0.399323
O O5 0.375348 0.235681 0.787022
O O6 0.258192 0.232916 0.852593
O O7 0.334124 0.000000 0.768763
O O8 0.366242 0.735339 0.223279
O O9 0.489313 0.780989 0.130009
O O10 0.376095 0.765728 0.350497
O O11 0.401456 0.000000 0.233785
O O12 0.771530 0.815671 0.247064
O O13 0.739629 0.728256 0.424940
O O14 0.784360 0.000000 0.339244
O O15 0.544151 0.766674 0.193266
O O16 0.560076 0.000000 0.251276
O O17 0.185733 0.000000 0.905157
O O18 0.127592 0.739794 0.972940
O O19 0.058071 0.500000 0.092160
O O20 0.655125 0.500000 0.554728
#
# Coordination Sequence:
#
# PCOD9223186 Si02
#       8
#     8   8   8   8   8   8   8   8
#     4  10  17  33  59  87 118 151 191 237 286 345
#     4   9  17  32  58  89 116 149 192 236 286 344
#     4  11  23  41  62  87 117 152 192 237 288 344
#     4  11  23  41  62  87 117 152 192 237 288 344
#     4   9  17  32  58  89 116 149 192 236 286 344
#     4  10  22  39  59  83 115 153 196 244 286 336
#     4  10  22  39  59  83 115 153 196 244 286 336
#     4  12  23  36  59  90 121 155 188 231 289 348
#
# _framework density 10.243449
#
# number of rings (size 3 to 8) (size 9 to 14) (size 15 to 20)
#    0.000    1.750    2.500    2.625    0.000    4.500 
#    0.000    2.500    0.000    3.000    0.000    0.000 
#    0.000    0.000    0.000    0.000    0.000    0.000 
#
# Total GULP energy -178664.476779 kJ/mol
# GULP energy per Si atom -5583.264899 kJ/mol
# Density = 1.022013 g / cm^3
# Si number density = 10.243449 Si / 1000 Ang^3
#
#
#
# Elastic Constant Matrix: (Units=GPa)
#
#
# Indices 1 2 3 4 5 6 
#
# 1 92.3114 6.8166 -4.1077 0.0015 -25.6400 0.0000
# 2 6.8166 14.6465 -8.5355 0.0223 -6.8116 -0.0080
# 3 -4.1077 -8.5355 38.5276 0.0079 -25.0953 -0.0037
# 4 0.0015 0.0223 0.0079 25.3371 -0.0032 -2.4300
# 5 -25.6400 -6.8116 -25.0953 -0.0032 24.1895 0.0015
# 6 0.0000 -0.0080 -0.0037 -2.4300 0.0015 16.1713
#
#
#
# Elastic Compliance Matrix: (Units=1/GPa)
#
#
# Indices 1 2 3 4 5 6 
#
# 1 0.004719 -0.027063 -0.022200 0.000026 -0.025651 -0.000012
# 2 -0.027063 0.007227 -0.057498 0.000002 -0.086302 -0.000001
# 3 -0.022200 -0.057498 -0.046333 0.000053 -0.087790 -0.000023
# 4 0.000026 0.000002 0.000053 0.040045 0.000088 0.006017
# 5 -0.025651 -0.086302 -0.087790 0.000088 -0.101228 -0.000040
# 6 -0.000012 -0.000001 -0.000023 0.006017 -0.000040 0.062742
#
#
# Mechanical properties :
#
#
# Convention : Reuss Voigt Hill
#
# Bulk Modulus (GPa) = -4.03374 14.87023 5.41825
# Shear Modulus (GPa) = 50.99059 23.22706 37.10882
#
# Velocity S-wave (km/s) = 4.99434 3.37078 4.26061
# Velocity P-wave (km/s) = 5.59327 4.73536 5.18210
#
# Compressibility (1/GPa) = -0.24790895
#
# Stress axis : x y z
#
# Youngs Moduli (GPa) = 211.91520 138.36681 -21.58291
#
# Poissons Ratio (x) = 3.74463 -0.47915
# Poissons Ratio (y) = 5.73507 -1.24097
# Poissons Ratio (z) = 4.70457 7.95578
#
# Static dielectric constant tensor:
#      x y z
#    x 1.798460 0.000000 -0.029820 
#    y 0.000000 1.678920 0.000000 
#    z -0.029820 0.000000 1.715140 
# 
# From -- ./inp_files/295642.got.cif
#   From: 2010.05.17/outbox.ucp.g08.bks.cvg/sg12_148_cif.got.tgz:295642.got - 2010.06.11 11:47:21.
