data_PCOD9223245
_publ_section_title
;
Structure prediction by ZEFSAII (Michael W. Deem and Ramdas Pophale) SiO2 
 PCOD9223245
Probable space group: C 2/M
;
_chemical_formula_sum "Si O2"
_cell_formula_units_Z 28
_cell_length_a 12.000000
_cell_length_b 18.000000
_cell_length_c 18.000000
_cell_angle_alpha 90.000000
_cell_angle_beta 50.000000
_cell_angle_gamma 90.000000
_cell_volume 2978.380795
_symmetry_space_group_name_H-M "C 2/M"
_symmetry_group_IT_number 12
_symmetry_cell_setting 'monoclinic'
loop_
_space_group_symop_operation_xyz
x,y,z
-x,y,-z
-x,-y,-z
x,-y,z
1/2+x,1/2+y,z
1/2-x,1/2+y,-z
1/2-x,1/2-y,-z
1/2+x,1/2-y,z
loop_
_atom_site_type_symbol
_atom_site_label
_atom_site_fract_x
_atom_site_fract_y
_atom_site_fract_z
Si Si1 0.301916 0.151263 0.193618
Si Si2 0.003797 0.915206 0.376234
Si Si3 0.668519 0.189127 0.267230
Si Si4 0.886506 0.668024 0.872993
Si Si5 0.334798 0.345570 0.904995
Si Si6 0.127972 0.915124 0.732557
Si Si7 0.086235 0.237203 0.538925
O O1 0.172472 0.107933 0.291480
O O2 0.272767 0.239444 0.213840
O O3 0.461139 0.138770 0.159081
O O4 0.269726 0.135553 0.120478
O O5 0.922058 0.907853 0.331567
O O6 0.930664 0.851733 0.456011
O O7 0.991963 0.000000 0.406259
O O8 0.645196 0.148729 0.198760
O O9 0.741631 0.137448 0.297615
O O10 0.515785 0.225296 0.355385
O O11 0.881632 0.758771 0.877836
O O12 0.756053 0.643308 0.981907
O O13 0.481783 0.392414 0.838836
O O14 0.167240 0.000000 0.729561
O O15 0.250000 0.250000 0.500000
O O16 0.000000 0.262839 0.500000
#
# Coordination Sequence:
#
# PCOD9223245 Si02
#       7
#     8   8   8   8   8   8   8
#     4   9  17  31  55  77 110 145 184 235 270 325
#     4   9  20  37  60  83 109 148 184 226 286 346
#     4  10  21  34  55  79 111 143 190 226 285 342
#     4  10  18  30  53  78 112 145 187 242 271 320
#     4   9  18  30  49  83 108 146 196 229 276 318
#     4  10  19  37  57  78 116 156 190 227 277 339
#     4  11  24  39  65  91 115 145 187 244 294 349
#
# _framework density 9.4010809999999996
#
# number of rings (size 3 to 8) (size 9 to 14) (size 15 to 20)
#    0.000    2.286    1.429    2.143    4.000    0.857 
#    0.000    3.571    0.000    6.000    0.000    0.000 
#    0.000    0.000    0.000    0.000    0.000    0.000 
#
# Total GULP energy -155991.335886 kJ/mol
# GULP energy per Si atom -5571.119139 kJ/mol
# Density = 0.937968 g / cm^3
# Si number density = 9.401081 Si / 1000 Ang^3
#
#
#
# Elastic Constant Matrix: (Units=GPa)
#
#
# Indices 1 2 3 4 5 6 
#
# 1 106.4190 24.2907 24.6265 0.0001 -17.4766 -0.0001
# 2 24.2907 65.1849 7.4100 0.0001 -2.8498 0.0000
# 3 24.6265 7.4100 31.5256 0.0002 -1.8916 -0.0001
# 4 0.0001 0.0001 0.0002 14.5482 -0.0001 1.9426
# 5 -17.4766 -2.8498 -1.8916 -0.0001 19.8000 0.0001
# 6 -0.0001 0.0000 -0.0001 1.9426 0.0001 22.5647
#
#
#
# Elastic Compliance Matrix: (Units=1/GPa)
#
#
# Indices 1 2 3 4 5 6 
#
# 1 0.014318 -0.003752 -0.009632 0.000000 0.011177 0.000000
# 2 -0.003752 0.016819 -0.001082 0.000000 -0.000994 0.000000
# 3 -0.009632 -0.001082 0.039204 -0.000001 -0.004912 0.000000
# 4 0.000000 0.000000 -0.000001 0.069536 0.000000 -0.005986
# 5 0.011177 -0.000994 -0.004912 0.000000 0.059759 0.000000
# 6 0.000000 0.000000 0.000000 -0.005986 0.000000 0.044832
#
#
# Mechanical properties :
#
#
# Convention : Reuss Voigt Hill
#
# Bulk Modulus (GPa) = 24.14956 35.08711 29.61833
# Shear Modulus (GPa) = 17.40936 21.16941 19.28938
#
# Velocity S-wave (km/s) = 3.04620 3.35909 3.20646
# Velocity P-wave (km/s) = 5.02438 5.80916 5.43096
#
# Compressibility (1/GPa) = 0.04140863
#
# Stress axis : x y z
#
# Youngs Moduli (GPa) = 69.84339 59.45802 25.50767
#
# Poissons Ratio (x) = 0.22308 0.24569
# Poissons Ratio (y) = 0.26204 0.02760
# Poissons Ratio (z) = 0.67273 0.06434
#
# Static dielectric constant tensor:
#      x y z
#    x 1.662780 0.000000 0.034830 
#    y 0.000000 1.648720 0.000000 
#    z 0.034830 0.000000 1.684460 
# 
# From -- ./inp_files/264193.got.cif
#   From: 2010.05.17/outbox.ucp.g08.bks.cvg/sg12_133_cif.got.tgz:264193.got - 2010.06.11 11:47:21.
