data_PCOD9223673
_publ_section_title
;
Structure prediction by ZEFSAII (Michael W. Deem and Ramdas Pophale) SiO2 
 PCOD9223673
Probable space group: C 2/M
;
_chemical_formula_sum "Si O2"
_cell_formula_units_Z 32
_cell_length_a 18.000000
_cell_length_b 18.000000
_cell_length_c 21.000000
_cell_angle_alpha 90.000000
_cell_angle_beta 30.000000
_cell_angle_gamma 90.000000
_cell_volume 3402.000000
_symmetry_space_group_name_H-M "C 2/M"
_symmetry_group_IT_number 12
_symmetry_cell_setting 'monoclinic'
loop_
_space_group_symop_operation_xyz
x,y,z
-x,y,-z
-x,-y,-z
x,-y,z
1/2+x,1/2+y,z
1/2-x,1/2+y,-z
1/2-x,1/2-y,-z
1/2+x,1/2-y,z
loop_
_atom_site_type_symbol
_atom_site_label
_atom_site_fract_x
_atom_site_fract_y
_atom_site_fract_z
Si Si1 0.872544 0.910637 0.676728
Si Si2 0.837145 0.146819 0.951109
Si Si3 0.676845 0.913932 0.946814
Si Si4 0.879795 0.653122 0.218912
Si Si5 0.727159 0.202718 0.320785
Si Si6 0.943100 0.086110 0.111057
Si Si7 0.967471 0.281705 0.777109
Si Si8 0.029266 0.757067 0.581480
O O1 0.769517 0.894021 0.815147
O O2 0.767181 0.892941 0.693488
O O3 0.999959 0.846099 0.589690
O O4 0.912340 0.000000 0.647322
O O5 0.770720 0.102268 0.940724
O O6 0.944240 0.207197 0.836872
O O7 0.926899 0.098191 0.934260
O O8 0.699620 0.184227 0.092026
O O9 0.644061 0.000000 0.965117
O O10 0.520861 0.875364 0.075383
O O11 0.849922 0.735465 0.216442
O O12 0.926355 0.663377 0.259209
O O13 0.801589 0.125281 0.248766
O O14 0.667814 0.224290 0.436422
O O15 0.602150 0.218132 0.360815
O O16 0.909497 0.000000 0.126367
O O17 0.000000 0.116270 0.000000
O O18 0.018103 0.263421 0.666015
#
# Coordination Sequence:
#
# PCOD9223673 Si02
#       8
#     8   8   8   8   8   8   8   8
#     4  10  20  35  57  86 119 157 196 239 293 351
#     4  10  19  34  55  90 115 148 190 242 299 346
#     4  10  19  32  54  84 120 153 188 238 298 354
#     4  10  20  33  52  82 116 152 196 239 291 342
#     4  10  22  39  59  86 111 152 198 244 286 340
#     4  11  23  39  61  88 117 148 187 245 307 353
#     4  10  19  34  57  87 118 151 193 241 289 345
#     4  10  21  39  59  84 115 154 203 241 287 345
#
# _framework density 9.4062319999999993
#
# number of rings (size 3 to 8) (size 9 to 14) (size 15 to 20)
#    0.000    1.875    2.500    1.875    0.000    3.500 
#    0.000    6.875    0.000    5.250    0.000    0.000 
#    0.000    0.000    0.000    0.000    0.000    0.000 
#
# Total GULP energy -178203.264377 kJ/mol
# GULP energy per Si atom -5568.852012 kJ/mol
# Density = 0.938482 g / cm^3
# Si number density = 9.406232 Si / 1000 Ang^3
#
#
#
# Elastic Constant Matrix: (Units=GPa)
#
#
# Indices 1 2 3 4 5 6 
#
# 1 81.5058 15.9298 38.1436 -0.0006 24.2392 0.0009
# 2 15.9298 75.1383 49.9832 -0.0014 10.2141 0.0005
# 3 38.1436 49.9832 103.4883 -0.0036 28.3414 0.0021
# 4 -0.0006 -0.0014 -0.0036 23.7528 0.0011 7.0434
# 5 24.2392 10.2141 28.3414 0.0011 33.3146 -0.0006
# 6 0.0009 0.0005 0.0021 7.0434 -0.0006 21.6632
#
#
#
# Elastic Compliance Matrix: (Units=1/GPa)
#
#
# Indices 1 2 3 4 5 6 
#
# 1 0.016668 0.000204 -0.003786 0.000001 -0.008970 -0.000001
# 2 0.000204 0.019795 -0.010343 -0.000001 0.002581 0.000001
# 3 -0.003786 -0.010343 0.018814 0.000004 -0.010080 -0.000003
# 4 0.000001 -0.000001 0.000004 0.046592 -0.000005 -0.015149
# 5 -0.008970 0.002581 -0.010080 -0.000005 0.044327 0.000004
# 6 -0.000001 0.000001 -0.000003 -0.015149 0.000004 0.051086
#
#
# Mechanical properties :
#
#
# Convention : Reuss Voigt Hill
#
# Bulk Modulus (GPa) = 36.45864 52.02727 44.24296
# Shear Modulus (GPa) = 21.34248 26.15117 23.74682
#
# Velocity S-wave (km/s) = 3.37187 3.73245 3.55673
# Velocity P-wave (km/s) = 5.88060 6.80372 6.35893
#
# Compressibility (1/GPa) = 0.02742834
#
# Stress axis : x y z
#
# Youngs Moduli (GPa) = 59.99394 50.51846 53.15173
#
# Poissons Ratio (x) = -0.01029 0.20121
# Poissons Ratio (y) = -0.01222 0.54973
# Poissons Ratio (z) = 0.22711 0.52249
#
# Static dielectric constant tensor:
#      x y z
#    x 1.685750 0.000000 -0.047130 
#    y 0.000000 1.684270 0.000000 
#    z -0.047130 0.000000 1.722800 
# 
# From -- ./inp_files/317346.got.cif
#   From: 2010.05.17/outbox.ucp.g08.bks.cvg/sg12_159_cif.got.tgz:317346.got - 2010.06.11 11:47:21.
