data_PCOD9223215
_publ_section_title
;
Structure prediction by ZEFSAII (Michael W. Deem and Ramdas Pophale) SiO2 
 PCOD9223215
Probable space group: C 2/M
;
_chemical_formula_sum "Si O2"
_cell_formula_units_Z 28
_cell_length_a 18.000000
_cell_length_b 9.000000
_cell_length_c 30.000000
_cell_angle_alpha 90.000000
_cell_angle_beta 40.000000
_cell_angle_gamma 90.000000
_cell_volume 3123.947783
_symmetry_space_group_name_H-M "C 2/M"
_symmetry_group_IT_number 12
_symmetry_cell_setting 'monoclinic'
loop_
_space_group_symop_operation_xyz
x,y,z
-x,y,-z
-x,-y,-z
x,-y,z
1/2+x,1/2+y,z
1/2-x,1/2+y,-z
1/2-x,1/2-y,-z
1/2+x,1/2-y,z
loop_
_atom_site_type_symbol
_atom_site_label
_atom_site_fract_x
_atom_site_fract_y
_atom_site_fract_z
Si Si1 0.236187 0.178612 0.648530
Si Si2 0.958602 0.679328 0.069615
Si Si3 0.375316 0.320733 0.933462
Si Si4 0.692703 0.319557 0.211977
Si Si5 0.401002 0.319548 0.647494
Si Si6 0.598665 0.327209 0.493389
Si Si7 0.973347 0.180596 0.791261
O O1 0.311692 0.247375 0.653873
O O2 0.294092 0.235889 0.575846
O O3 0.103714 0.224737 0.718354
O O4 0.242933 0.000000 0.646409
O O5 0.968306 0.500000 0.070823
O O6 0.825823 0.722450 0.141533
O O7 0.040417 0.762001 0.066812
O O8 0.000000 0.711896 0.000000
O O9 0.366864 0.500000 0.937959
O O10 0.428503 0.274915 0.860847
O O11 0.250000 0.250000 0.000000
O O12 0.690985 0.500000 0.212794
O O13 0.637297 0.275038 0.285034
O O14 0.614029 0.268213 0.207030
O O15 0.394131 0.500000 0.647372
O O16 0.529593 0.279464 0.569898
O O17 0.500000 0.319302 0.500000
O O18 0.631947 0.500000 0.482624
O O19 0.972518 0.000000 0.791617
#
# Coordination Sequence:
#
# PCOD9223215 Si02
#       7
#     8   8   8   8   8   8   8
#     4  10  18  29  49  74  99 128 162 203 252 302
#     4  10  20  35  57  82 106 135 172 213 256 303
#     4  11  22  37  57  80 108 138 170 210 254 302
#     4   9  17  32  53  73  97 133 174 208 244 300
#     4   9  17  30  50  72  94 127 169 209 247 293
#     4   8  15  28  45  68  97 127 163 205 247 293
#     4   9  19  34  51  74 103 134 167 206 252 299
#
# _framework density 8.9630179999999999
#
# number of rings (size 3 to 8) (size 9 to 14) (size 15 to 20)
#    0.000    2.571    0.000    3.429    0.000    5.143 
#    0.000    2.857    0.000    5.143    0.000    0.000 
#    0.000    0.000    0.000    0.000    0.000    0.000 
#
# Total GULP energy -156101.929737 kJ/mol
# GULP energy per Si atom -5575.068919 kJ/mol
# Density = 0.894262 g / cm^3
# Si number density = 8.963018 Si / 1000 Ang^3
#
#
#
# Elastic Constant Matrix: (Units=GPa)
#
#
# Indices 1 2 3 4 5 6 
#
# 1 117.6055 33.2185 99.4907 0.0000 2.7593 0.0000
# 2 33.2185 32.3889 47.8686 0.0000 -1.4441 -0.0005
# 3 99.4907 47.8686 228.8589 0.0000 5.9823 0.0001
# 4 0.0000 0.0000 0.0000 26.9619 0.0000 -2.9411
# 5 2.7593 -1.4441 5.9823 0.0000 33.3004 0.0000
# 6 0.0000 -0.0005 0.0001 -2.9411 0.0000 20.0457
#
#
#
# Elastic Compliance Matrix: (Units=1/GPa)
#
#
# Indices 1 2 3 4 5 6 
#
# 1 0.014839 -0.008319 -0.004691 0.000000 -0.000748 0.000000
# 2 -0.008319 0.049795 -0.006906 0.000000 0.004089 0.000001
# 3 -0.004691 -0.006906 0.007888 0.000000 -0.001328 0.000000
# 4 0.000000 0.000000 0.000000 0.037693 0.000000 0.005530
# 5 -0.000748 0.004089 -0.001328 0.000000 0.030507 0.000000
# 6 0.000000 0.000001 0.000000 0.005530 0.000000 0.050697
#
#
# Mechanical properties :
#
#
# Convention : Reuss Voigt Hill
#
# Bulk Modulus (GPa) = 30.59003 82.22321 56.40662
# Shear Modulus (GPa) = 20.64846 29.27998 24.96422
#
# Velocity S-wave (km/s) = 3.39760 4.04589 3.73584
# Velocity P-wave (km/s) = 5.70028 8.23367 7.08119
#
# Compressibility (1/GPa) = 0.03269039
#
# Stress axis : x y z
#
# Youngs Moduli (GPa) = 67.38980 20.08218 126.77362
#
# Poissons Ratio (x) = 0.16706 0.59474
# Poissons Ratio (y) = 0.56061 0.87546
# Poissons Ratio (z) = 0.31615 0.13868
#
# Static dielectric constant tensor:
#      x y z
#    x 1.604080 0.000000 0.002380 
#    y 0.000000 1.601410 0.000000 
#    z 0.002380 0.000000 1.630040 
# 
# From -- ./inp_files/342276.got.cif
#   From: 2010.05.17/outbox.ucp.g08.bks.cvg/sg12_172_cif.got.tgz:342276.got - 2010.06.11 11:47:21.
