data_PCOD9223256
_publ_section_title
;
Structure prediction by ZEFSAII (Michael W. Deem and Ramdas Pophale) SiO2 
 PCOD9223256
Probable space group: C 2/M
;
_chemical_formula_sum "Si O2"
_cell_formula_units_Z 24
_cell_length_a 27.000000
_cell_length_b 9.000000
_cell_length_c 24.000000
_cell_angle_alpha 90.000000
_cell_angle_beta 150.000000
_cell_angle_gamma 90.000000
_cell_volume 2916.000000
_symmetry_space_group_name_H-M "C 2/M"
_symmetry_group_IT_number 12
_symmetry_cell_setting 'monoclinic'
loop_
_space_group_symop_operation_xyz
x,y,z
-x,y,-z
-x,-y,-z
x,-y,z
1/2+x,1/2+y,z
1/2-x,1/2+y,-z
1/2-x,1/2-y,-z
1/2+x,1/2-y,z
loop_
_atom_site_type_symbol
_atom_site_label
_atom_site_fract_x
_atom_site_fract_y
_atom_site_fract_z
Si Si1 0.648519 0.320726 0.663717
Si Si2 0.133668 0.320480 0.100693
Si Si3 0.347758 0.174908 0.667840
Si Si4 0.543222 0.677622 0.124084
Si Si5 0.455436 0.320639 0.545600
Si Si6 0.363678 0.174625 0.556139
O O1 0.647465 0.500000 0.659943
O O2 0.751937 0.277205 0.790434
O O3 0.556236 0.280179 0.612103
O O4 0.630048 0.273644 0.581855
O O5 0.122450 0.500000 0.087845
O O6 0.097229 0.258654 0.124868
O O7 0.067698 0.241103 0.989960
O O8 0.405842 0.269040 0.769893
O O9 0.389809 0.193934 0.646401
O O10 0.235360 0.232519 0.553718
O O11 0.349039 0.000000 0.683682
O O12 0.546164 0.500000 0.120508
O O13 0.451606 0.500000 0.549299
O O14 0.443896 0.237231 0.591952
O O15 0.344537 0.000000 0.528534
#
# Coordination Sequence:
#
# PCOD9223256 Si02
#       6
#     8   8   8   8   8   8
#     4   8  16  29  48  72  95 125 162 193 222 273
#     4  10  18  31  50  71  97 130 163 191 231 284
#     4  10  20  34  50  68  94 128 160 191 233 285
#     4  11  21  32  47  71  99 124 157 200 241 278
#     4   9  16  30  50  71  97 127 158 190 229 277
#     4  10  20  32  48  73  99 122 154 195 237 281
#
# _framework density 8.2304530000000007
#
# number of rings (size 3 to 8) (size 9 to 14) (size 15 to 20)
#    0.000    2.333    0.000    6.000    0.000    3.333 
#    0.000    4.167    0.000    1.000    0.000    0.000 
#    0.000    0.000    0.000    0.000    0.000    0.000 
#
# Total GULP energy -133760.403375 kJ/mol
# GULP energy per Si atom -5573.350141 kJ/mol
# Density = 0.821172 g / cm^3
# Si number density = 8.230453 Si / 1000 Ang^3
#
#
#
# Elastic Constant Matrix: (Units=GPa)
#
#
# Indices 1 2 3 4 5 6 
#
# 1 48.0769 17.5737 10.1448 0.0000 -10.6092 0.0000
# 2 17.5737 65.8103 21.6376 0.0000 -13.7651 0.0000
# 3 10.1448 21.6376 79.4870 0.0000 -9.4737 0.0000
# 4 0.0000 0.0000 0.0000 19.8093 0.0000 -7.7186
# 5 -10.6092 -13.7651 -9.4737 0.0000 15.4055 0.0000
# 6 0.0000 0.0000 0.0000 -7.7186 0.0000 20.4107
#
#
#
# Elastic Compliance Matrix: (Units=1/GPa)
#
#
# Indices 1 2 3 4 5 6 
#
# 1 0.025311 -0.003684 -0.000585 0.000000 0.013779 0.000000
# 2 -0.003684 0.020085 -0.003411 0.000000 0.013311 0.000000
# 3 -0.000585 -0.003411 0.014214 0.000000 0.005291 0.000000
# 4 0.000000 0.000000 0.000000 0.059205 0.000000 0.022389
# 5 0.013779 0.013311 0.005291 0.000000 0.089548 0.000000
# 6 0.000000 0.000000 0.000000 0.022389 0.000000 0.057461
#
#
# Mechanical properties :
#
#
# Convention : Reuss Voigt Hill
#
# Bulk Modulus (GPa) = 22.59919 32.45404 27.52661
# Shear Modulus (GPa) = 16.89563 20.72630 18.81096
#
# Velocity S-wave (km/s) = 3.20724 3.55226 3.38415
# Velocity P-wave (km/s) = 5.24156 6.04842 5.65939
#
# Compressibility (1/GPa) = 0.04424938
#
# Stress axis : x y z
#
# Youngs Moduli (GPa) = 39.50870 49.78918 70.35141
#
# Poissons Ratio (x) = 0.18345 0.04117
# Poissons Ratio (y) = 0.14557 0.23994
# Poissons Ratio (z) = 0.02312 0.16981
#
# Static dielectric constant tensor:
#      x y z
#    x 1.570850 0.000000 0.024160 
#    y 0.000000 1.544550 0.000000 
#    z 0.024160 0.000000 1.582620 
# 
# From -- ./inp_files/351149.got.cif
#   From: 2010.05.17/outbox.ucp.g08.bks.cvg/sg12_176_cif.got.tgz:351149.got - 2010.06.11 11:47:21.
