data_PCOD9223596
_publ_section_title
;
Structure prediction by ZEFSAII (Michael W. Deem and Ramdas Pophale) SiO2 
 PCOD9223596
Probable space group: C 2/M
;
_chemical_formula_sum "Si O2"
_cell_formula_units_Z 32
_cell_length_a 15.000000
_cell_length_b 9.000000
_cell_length_c 24.000000
_cell_angle_alpha 90.000000
_cell_angle_beta 90.000000
_cell_angle_gamma 90.000000
_cell_volume 3240.000000
_symmetry_space_group_name_H-M "C 2/M"
_symmetry_group_IT_number 12
_symmetry_cell_setting 'monoclinic'
loop_
_space_group_symop_operation_xyz
x,y,z
-x,y,-z
-x,-y,-z
x,-y,z
1/2+x,1/2+y,z
1/2-x,1/2+y,-z
1/2-x,1/2-y,-z
1/2+x,1/2-y,z
loop_
_atom_site_type_symbol
_atom_site_label
_atom_site_fract_x
_atom_site_fract_y
_atom_site_fract_z
Si Si1 0.348296 0.670594 0.105097
Si Si2 0.636476 0.168982 0.127804
Si Si3 0.312994 0.321103 0.637958
Si Si4 0.118707 0.820990 0.653390
Si Si5 0.026785 0.818853 0.437794
Si Si6 0.396558 0.333903 0.986660
Si Si7 0.861030 0.180925 0.223846
Si Si8 0.665085 0.677247 0.238099
O O1 0.380500 0.500000 0.097632
O O2 0.244323 0.667065 0.120992
O O3 0.393921 0.729419 0.162070
O O4 0.356682 0.738858 0.043330
O O5 0.607846 0.248194 0.071221
O O6 0.614580 0.250786 0.185771
O O7 0.604800 0.000000 0.129822
O O8 0.301808 0.500000 0.635522
O O9 0.215723 0.247096 0.639881
O O10 0.377116 0.273527 0.587289
O O11 0.360347 0.289278 0.697867
O O12 0.090556 0.786043 0.717579
O O13 0.047325 0.772956 0.607432
O O14 0.126245 0.000000 0.650715
O O15 0.000000 0.769270 0.500000
O O16 0.027695 0.000000 0.438614
O O17 0.356826 0.500000 0.979003
O O18 0.500000 0.347031 0.000000
O O19 0.765371 0.258369 0.233026
O O20 0.851381 0.000000 0.220731
O O21 0.664299 0.500000 0.231157
#
# Coordination Sequence:
#
# PCOD9223596 Si02
#       8
#     8   8   8   8   8   8   8   8
#     4   8  15  29  48  69  90 118 156 199 244 291
#     4  10  19  32  51  70  91 124 163 201 244 296
#     4   9  18  33  53  78 107 140 174 218 268 310
#     4   9  17  31  53  78 103 139 179 217 260 310
#     4   9  18  33  52  78 111 144 180 216 254 311
#     4  10  20  33  46  66  96 126 158 200 249 294
#     4   8  14  27  47  71  95 122 160 203 246 296
#     4   9  16  28  48  74  98 121 157 205 253 298
#
# _framework density 9.8765429999999999
#
# number of rings (size 3 to 8) (size 9 to 14) (size 15 to 20)
#    0.000    3.000    0.000    1.875    0.000    1.250 
#    2.250    3.125    0.000    0.750    0.000    0.000 
#    0.000    0.000    0.000    0.000    0.000    0.000 
#
# Total GULP energy -178162.689310 kJ/mol
# GULP energy per Si atom -5567.584041 kJ/mol
# Density = 0.985406 g / cm^3
# Si number density = 9.876543 Si / 1000 Ang^3
#
#
#
# Elastic Constant Matrix: (Units=GPa)
#
#
# Indices 1 2 3 4 5 6 
#
# 1 21.9772 -4.5599 -15.2635 0.0000 17.3416 0.0000
# 2 -4.5599 26.1158 14.6467 0.0000 7.8478 0.0000
# 3 -15.2635 14.6467 87.4040 0.0000 25.1911 0.0000
# 4 0.0000 0.0000 0.0000 16.6206 0.0000 -2.6874
# 5 17.3416 7.8478 25.1911 0.0000 26.5071 0.0000
# 6 0.0000 0.0000 0.0000 -2.6874 0.0000 9.4719
#
#
#
# Elastic Compliance Matrix: (Units=1/GPa)
#
#
# Indices 1 2 3 4 5 6 
#
# 1 -0.145666 -0.038660 -0.068483 0.000000 0.171827 0.000000
# 2 -0.038660 0.033259 -0.023105 0.000000 0.037404 0.000000
# 3 -0.068483 -0.023105 -0.015881 0.000000 0.066736 0.000000
# 4 0.000000 0.000000 0.000000 0.063059 0.000000 0.017891
# 5 0.171827 0.037404 0.066736 0.000000 -0.149184 0.000000
# 6 0.000000 0.000000 0.000000 0.017891 0.000000 0.110651
#
#
# Mechanical properties :
#
#
# Convention : Reuss Voigt Hill
#
# Bulk Modulus (GPa) = -2.57213 13.90483 5.66635
# Shear Modulus (GPa) = 184.23066 19.89818 102.06442
#
# Velocity S-wave (km/s) = 9.66795 3.17731 7.19599
# Velocity P-wave (km/s) = 11.10498 4.52935 8.48044
#
# Compressibility (1/GPa) = -0.38878333
#
# Stress axis : x y z
#
# Youngs Moduli (GPa) = -6.86502 30.06698 -62.97022
#
# Poissons Ratio (x) = 1.16240 -4.31236
# Poissons Ratio (y) = -0.26540 -1.45493
# Poissons Ratio (z) = -0.47013 0.69470
#
# Static dielectric constant tensor:
#      x y z
#    x 1.715900 0.000000 0.014520 
#    y 0.000000 1.681050 0.000000 
#    z 0.014520 0.000000 1.762100 
# 
# From -- ./inp_files/338854.got.cif
#   From: 2010.05.17/outbox.ucp.g08.bks.cvg/sg12_170_cif.got.tgz:338854.got - 2010.06.11 11:47:21.
