data_PCOD9223101
_publ_section_title
;
Structure prediction by ZEFSAII (Michael W. Deem and Ramdas Pophale) SiO2 
 PCOD9223101
Probable space group: C 2/M
;
_chemical_formula_sum "Si O2"
_cell_formula_units_Z 56
_cell_length_a 11.564303
_cell_length_b 18.507640
_cell_length_c 12.984433
_cell_angle_alpha 90.000000
_cell_angle_beta 59.141973
_cell_angle_gamma 90.000000
_cell_volume 2385.634385
_symmetry_space_group_name_H-M "C 2/M"
_symmetry_group_IT_number 12
_symmetry_cell_setting 'monoclinic'
loop_
_space_group_symop_operation_xyz
x,y,z
-x,y,-z
-x,-y,-z
x,-y,z
1/2+x,1/2+y,z
1/2-x,1/2+y,-z
1/2-x,1/2-y,-z
1/2+x,1/2-y,z
loop_
_atom_site_type_symbol
_atom_site_label
_atom_site_fract_x
_atom_site_fract_y
_atom_site_fract_z
Si Si1 0.271729 0.721705 0.313877
Si Si2 0.952638 0.586052 0.773167
Si Si3 0.374384 0.840723 0.126551
Si Si4 0.118143 0.318367 0.569435
Si Si5 0.923886 0.917533 0.215201
Si Si6 0.788590 0.913696 0.977602
Si Si7 0.886884 0.083388 0.470446
O O1 0.282081 0.778745 0.218058
O O2 0.142747 0.714496 0.445984
O O3 0.380989 0.754259 0.346701
O O4 0.312197 0.643079 0.257646
O O5 0.956795 0.500000 0.757584
O O6 0.059175 0.611139 0.813085
O O7 0.997061 0.628429 0.651269
O O8 0.808663 0.608447 0.885461
O O9 0.283800 0.887738 0.092610
O O10 0.500000 0.812187 0.000000
O O11 0.253766 0.366997 0.528759
O O12 0.949173 0.919017 0.327112
O O13 0.056448 0.891763 0.094957
O O14 0.887575 0.000000 0.200844
O O15 0.791220 0.000000 0.975880
O O16 0.000000 0.106996 0.500000
O O17 0.848150 0.000000 0.513847
#
# Coordination Sequence:
#
# PCOD9223101 Si02
#       7
#     8   8   8   8   8   8   8
#     4   9  18  31  46  64  94 132 166 201 234 288
#     4   9  16  26  44  69  97 126 157 189 233 292
#     4   9  17  29  45  68  96 132 164 195 235 284
#     4   9  17  29  43  63  94 134 164 196 231 283
#     4   9  18  31  46  67  97 126 157 200 246 287
#     4   9  17  29  47  75 104 128 155 191 241 298
#     4   9  17  26  41  68  98 128 157 190 239 294
#
# _framework density 23.473839000000002
#
# number of rings (size 3 to 8) (size 9 to 14) (size 15 to 20)
#    0.000    3.000    0.000    0.857    4.000    2.286 
#    0.000    6.429    0.000    0.429    0.000    0.000 
#    0.000    7.429    0.000    8.714    0.000    0.000 
#
# Total GULP energy -156469.800952 kJ/mol
# GULP energy per Si atom -5588.207177 kJ/mol
# Density = 2.342041 g / cm^3
# Si number density = 23.473839 Si / 1000 Ang^3
#
#
#
# Elastic Constant Matrix: (Units=GPa)
#
#
# Indices 1 2 3 4 5 6 
#
# 1 66.3920 20.2903 32.6275 0.0000 -0.5163 0.0000
# 2 20.2903 44.1854 25.3044 0.0000 -10.4725 0.0000
# 3 32.6275 25.3044 122.5696 0.0000 -17.6783 0.0000
# 4 0.0000 0.0000 0.0000 46.0494 0.0000 -4.3665
# 5 -0.5163 -10.4725 -17.6783 0.0000 37.2920 0.0000
# 6 0.0000 0.0000 0.0000 -4.3665 0.0000 2.9428
#
#
#
# Elastic Compliance Matrix: (Units=1/GPa)
#
#
# Indices 1 2 3 4 5 6 
#
# 1 0.019340 -0.007391 -0.004168 0.000000 -0.003784 0.000000
# 2 -0.007391 0.029405 -0.003142 0.000000 0.006666 0.000000
# 3 -0.004168 -0.003142 0.010499 0.000000 0.004037 0.000000
# 4 0.000000 0.000000 0.000000 0.025271 0.000000 0.037497
# 5 -0.003784 0.006666 0.004037 0.000000 0.030549 0.000000
# 6 0.000000 0.000000 0.000000 0.037497 0.000000 0.395448
#
#
# Mechanical properties :
#
#
# Convention : Reuss Voigt Hill
#
# Bulk Modulus (GPa) = 33.50924 43.28793 38.39858
# Shear Modulus (GPa) = 9.09322 27.58514 18.33918
#
# Velocity S-wave (km/s) = 1.97032 3.43176 2.79814
# Velocity P-wave (km/s) = 4.41388 5.84667 5.18005
#
# Compressibility (1/GPa) = 0.02984252
#
# Stress axis : x y z
#
# Youngs Moduli (GPa) = 51.70721 34.00791 95.24669
#
# Poissons Ratio (x) = 0.25134 0.39699
# Poissons Ratio (y) = 0.38215 0.29925
# Poissons Ratio (z) = 0.21552 0.10685
#
# Static dielectric constant tensor:
#      x y z
#    x 1.913490 0.000000 0.006460 
#    y 0.000000 1.851110 0.000000 
#    z 0.006460 0.000000 1.915020 
# 
# From -- ./inp_files/216313.got.cif
#   From: 2010.05.17/outbox.cif.g08.bks.cpg/sg12_109_cif.got.tgz:216313.got - 2010.06.03 13:09:07.
