data_PCOD9223940
_publ_section_title
;
Structure prediction by ZEFSAII (Michael W. Deem and Ramdas Pophale) SiO2 
 PCOD9223940
Probable space group: C 2/M
;
_chemical_formula_sum "Si O2"
_cell_formula_units_Z 32
_cell_length_a 24.000000
_cell_length_b 15.000000
_cell_length_c 18.000000
_cell_angle_alpha 90.000000
_cell_angle_beta 150.000000
_cell_angle_gamma 90.000000
_cell_volume 3240.000000
_symmetry_space_group_name_H-M "C 2/M"
_symmetry_group_IT_number 12
_symmetry_cell_setting 'monoclinic'
loop_
_space_group_symop_operation_xyz
x,y,z
-x,y,-z
-x,-y,-z
x,-y,z
1/2+x,1/2+y,z
1/2-x,1/2+y,-z
1/2-x,1/2-y,-z
1/2+x,1/2-y,z
loop_
_atom_site_type_symbol
_atom_site_label
_atom_site_fract_x
_atom_site_fract_y
_atom_site_fract_z
Si Si1 0.870807 0.604921 0.036444
Si Si2 0.882244 0.394357 0.319913
Si Si3 0.940497 0.098632 0.071160
Si Si4 0.188628 0.757438 0.150935
Si Si5 0.532789 0.208598 0.721597
Si Si6 0.147703 0.099638 0.875612
Si Si7 0.780153 0.753105 0.416653
Si Si8 0.187591 0.895077 0.418838
O O1 0.900424 0.500000 0.053697
O O2 0.832710 0.669116 0.924087
O O3 0.763830 0.600540 0.967045
O O4 0.960577 0.661075 0.189452
O O5 0.848606 0.500000 0.283981
O O6 0.793465 0.322550 0.250090
O O7 0.910277 0.359361 0.269838
O O8 0.000000 0.388678 0.500000
O O9 0.848346 0.102569 0.030385
O O10 0.055035 0.108009 0.249401
O O11 0.939529 0.000000 0.035568
O O12 0.915734 0.177210 0.985848
O O13 0.211052 0.732686 0.261947
O O14 0.590845 0.306064 0.789504
O O15 0.408714 0.229242 0.551407
O O16 0.096072 0.000000 0.799084
O O17 0.780756 0.840455 0.470346
O O18 0.736449 0.665987 0.409746
O O19 0.220044 0.000000 0.456893
#
# Coordination Sequence:
#
# PCOD9223940 Si02
#       8
#     8   8   8   8   8   8   8   8
#     4  11  23  36  57  89 124 164 203 236 281 349
#     4  11  23  36  55  88 127 163 197 241 297 349
#     4  10  20  37  63  87 113 152 197 248 296 339
#     4  12  22  39  59  88 126 153 195 246 293 354
#     4  12  20  40  60  84 125 165 202 240 286 351
#     4  10  19  34  61  90 115 155 206 242 279 335
#     4  11  25  39  64  90 113 154 193 242 309 357
#     4  10  23  45  65  86 112 146 199 251 298 359
#
# _framework density 9.8765429999999999
#
# number of rings (size 3 to 8) (size 9 to 14) (size 15 to 20)
#    0.000    1.125    5.000    1.875    0.000    4.000 
#    0.000    1.250    0.000    2.250    0.000    5.250 
#    0.000    0.000    0.000    0.000    0.000    0.000 
#
# Total GULP energy -178551.212288 kJ/mol
# GULP energy per Si atom -5579.725384 kJ/mol
# Density = 0.985406 g / cm^3
# Si number density = 9.876543 Si / 1000 Ang^3
#
#
#
# Elastic Constant Matrix: (Units=GPa)
#
#
# Indices 1 2 3 4 5 6 
#
# 1 40.1910 25.9206 25.5849 0.0000 -26.9666 0.0000
# 2 25.9206 174.4441 54.7738 0.0000 -27.2142 0.0000
# 3 25.5849 54.7738 73.1357 0.0000 -42.5822 0.0000
# 4 0.0000 0.0000 0.0000 32.9119 0.0000 -1.9451
# 5 -26.9666 -27.2142 -42.5822 0.0000 33.1211 0.0000
# 6 0.0000 0.0000 0.0000 -1.9451 0.0000 19.0976
#
#
#
# Elastic Compliance Matrix: (Units=1/GPa)
#
#
# Indices 1 2 3 4 5 6 
#
# 1 0.080996 -0.008383 0.049032 0.000000 0.122095 0.000000
# 2 -0.008383 0.008513 -0.013301 0.000000 -0.016931 0.000000
# 3 0.049032 -0.013301 0.092910 0.000000 0.148442 0.000000
# 4 0.000000 0.000000 0.000000 0.030568 0.000000 0.003113
# 5 0.122095 -0.016931 0.148442 0.000000 0.306533 0.000000
# 6 0.000000 0.000000 0.000000 0.003113 0.000000 0.052680
#
#
# Mechanical properties :
#
#
# Convention : Reuss Voigt Hill
#
# Bulk Modulus (GPa) = 4.21737 55.59217 29.90477
# Shear Modulus (GPa) = 8.38163 29.12555 18.75359
#
# Velocity S-wave (km/s) = 2.06214 3.84406 3.08458
# Velocity P-wave (km/s) = 2.79456 6.92149 5.27810
#
# Compressibility (1/GPa) = 0.23711480
#
# Stress axis : x y z
#
# Youngs Moduli (GPa) = 12.34633 117.46455 10.76308
#
# Poissons Ratio (x) = 0.98474 -0.52773
# Poissons Ratio (y) = 0.10350 0.14316
# Poissons Ratio (z) = -0.60536 1.56238
#
# Static dielectric constant tensor:
#      x y z
#    x 1.726580 0.000000 0.032860 
#    y 0.000000 1.691440 0.000000 
#    z 0.032860 0.000000 1.754640 
# 
# From -- ./inp_files/290144.got.cif
#   From: 2010.05.17/outbox.ucp.g08.bks.cvg/sg12_146_cif.got.tgz:290144.got - 2010.06.11 11:47:21.
