data_PCOD9223359
_publ_section_title
;
Structure prediction by ZEFSAII (Michael W. Deem and Ramdas Pophale) SiO2 
 PCOD9223359
Probable space group: C 2/M
;
_chemical_formula_sum "Si O2"
_cell_formula_units_Z 28
_cell_length_a 18.000000
_cell_length_b 9.000000
_cell_length_c 27.000000
_cell_angle_alpha 90.000000
_cell_angle_beta 40.000000
_cell_angle_gamma 90.000000
_cell_volume 2811.553005
_symmetry_space_group_name_H-M "C 2/M"
_symmetry_group_IT_number 12
_symmetry_cell_setting 'monoclinic'
loop_
_space_group_symop_operation_xyz
x,y,z
-x,y,-z
-x,-y,-z
x,-y,z
1/2+x,1/2+y,z
1/2-x,1/2+y,-z
1/2-x,1/2-y,-z
1/2+x,1/2-y,z
loop_
_atom_site_type_symbol
_atom_site_label
_atom_site_fract_x
_atom_site_fract_y
_atom_site_fract_z
Si Si1 0.330834 0.671575 0.822292
Si Si2 0.382656 0.669639 0.091999
Si Si3 0.609287 0.828214 0.808214
Si Si4 0.656302 0.831499 0.082344
Si Si5 0.654420 0.679911 0.511609
Si Si6 0.000686 0.678353 0.667318
Si Si7 0.189527 0.321028 0.656313
O O1 0.361407 0.500000 0.804228
O O2 0.195503 0.703587 0.892305
O O3 0.368442 0.746140 0.854083
O O4 0.382047 0.757388 0.748858
O O5 0.337191 0.500000 0.110811
O O6 0.378784 0.716422 0.151779
O O7 0.500000 0.670854 0.000000
O O8 0.470618 0.839747 0.875718
O O9 0.662679 0.776157 0.727177
O O10 0.652035 0.000000 0.795749
O O11 0.697270 0.000000 0.071278
O O12 0.750000 0.750000 0.000000
O O13 0.655054 0.500000 0.514847
O O14 0.750000 0.750000 0.500000
O O15 0.539717 0.746528 0.595728
O O16 0.694390 0.719843 0.434843
O O17 0.001581 0.500000 0.662044
O O18 0.088670 0.718980 0.668068
O O19 0.188566 0.500000 0.659347
#
# Coordination Sequence:
#
# PCOD9223359 Si02
#       7
#     8   8   8   8   8   8   8
#     4  12  24  38  59  85 113 149 193 237 285 345
#     4  11  25  43  60  80 110 149 192 239 290 343
#     4  10  20  37  59  82 111 149 188 230 282 340
#     4  11  22  37  58  84 116 148 184 234 289 340
#     4   9  16  27  47  78 114 151 188 227 277 337
#     4  10  18  33  54  80 116 152 186 231 286 336
#     4   8  15  30  52  79 113 149 182 224 280 334
#
# _framework density 9.9589090000000002
#
# number of rings (size 3 to 8) (size 9 to 14) (size 15 to 20)
#    0.000    1.857    1.429    4.714    0.000    4.571 
#    0.000    1.429    0.000    0.857    0.000    6.000 
#    0.000    0.000    0.000    0.000    0.000    0.000 
#
# Total GULP energy -155928.262952 kJ/mol
# GULP energy per Si atom -5568.866534 kJ/mol
# Density = 0.993624 g / cm^3
# Si number density = 9.958909 Si / 1000 Ang^3
#
#
#
# Elastic Constant Matrix: (Units=GPa)
#
#
# Indices 1 2 3 4 5 6 
#
# 1 27.1753 12.0112 2.2357 0.0000 11.3490 0.0002
# 2 12.0112 98.3120 40.0691 0.0000 7.6106 0.0005
# 3 2.2357 40.0691 133.3793 0.0000 19.6608 0.0000
# 4 0.0000 0.0000 0.0000 34.2697 0.0000 2.5221
# 5 11.3490 7.6106 19.6608 0.0000 26.7411 0.0000
# 6 0.0002 0.0005 0.0000 2.5221 0.0000 16.0041
#
#
#
# Elastic Compliance Matrix: (Units=1/GPa)
#
#
# Indices 1 2 3 4 5 6 
#
# 1 0.048187 -0.005902 0.004186 0.000000 -0.021848 0.000000
# 2 -0.005902 0.012330 -0.003877 0.000000 0.001846 0.000000
# 3 0.004186 -0.003877 0.009748 0.000000 -0.007840 0.000000
# 4 0.000000 0.000000 0.000000 0.029523 0.000000 -0.004652
# 5 -0.021848 0.001846 -0.007840 0.000000 0.051907 0.000000
# 6 0.000000 0.000000 0.000000 -0.004652 0.000000 0.063217
#
#
# Mechanical properties :
#
#
# Convention : Reuss Voigt Hill
#
# Bulk Modulus (GPa) = 16.92685 40.83317 28.88001
# Shear Modulus (GPa) = 20.34252 29.03967 24.69110
#
# Velocity S-wave (km/s) = 3.19928 3.82249 3.52468
# Velocity P-wave (km/s) = 4.70787 6.32670 5.57634
#
# Compressibility (1/GPa) = 0.05907772
#
# Stress axis : x y z
#
# Youngs Moduli (GPa) = 20.75263 81.10205 102.58834
#
# Poissons Ratio (x) = 0.47866 -0.42942
# Poissons Ratio (y) = 0.12248 0.39777
# Poissons Ratio (z) = -0.08687 0.31446
#
# Static dielectric constant tensor:
#      x y z
#    x 1.814200 0.000000 -0.051200 
#    y 0.000000 1.681490 0.000000 
#    z -0.051200 0.000000 1.754330 
# 
# From -- ./inp_files/362997.got.cif
#   From: 2010.05.17/outbox.ucp.g08.bks.cvg/sg12_182_cif.got.tgz:362997.got - 2010.06.11 11:47:21.
