data_PCOD9223678
_publ_section_title
;
Structure prediction by ZEFSAII (Michael W. Deem and Ramdas Pophale) SiO2 
 PCOD9223678
Probable space group: C 2/M
;
_chemical_formula_sum "Si O2"
_cell_formula_units_Z 32
_cell_length_a 15.000000
_cell_length_b 9.000000
_cell_length_c 30.000000
_cell_angle_alpha 90.000000
_cell_angle_beta 120.000000
_cell_angle_gamma 90.000000
_cell_volume 3507.402885
_symmetry_space_group_name_H-M "C 2/M"
_symmetry_group_IT_number 12
_symmetry_cell_setting 'monoclinic'
loop_
_space_group_symop_operation_xyz
x,y,z
-x,y,-z
-x,-y,-z
x,-y,z
1/2+x,1/2+y,z
1/2-x,1/2+y,-z
1/2-x,1/2-y,-z
1/2+x,1/2-y,z
loop_
_atom_site_type_symbol
_atom_site_label
_atom_site_fract_x
_atom_site_fract_y
_atom_site_fract_z
Si Si1 0.930110 0.323312 0.836601
Si Si2 0.662816 0.179962 0.560190
Si Si3 0.779658 0.177249 0.943349
Si Si4 0.412474 0.675573 0.056433
Si Si5 0.619813 0.819478 0.363159
Si Si6 0.258754 0.176524 0.170860
Si Si7 0.998048 0.320086 0.243181
Si Si8 0.548824 0.820246 0.443422
O O1 0.944097 0.500000 0.840834
O O2 0.814920 0.273927 0.817436
O O3 0.998087 0.256716 0.893978
O O4 0.960179 0.268432 0.794589
O O5 0.765107 0.255175 0.604561
O O6 0.563300 0.219539 0.565311
O O7 0.632704 0.226707 0.501850
O O8 0.673833 0.000000 0.563406
O O9 0.690663 0.276013 0.943111
O O10 0.773171 0.201668 0.888895
O O11 0.758362 0.000000 0.945195
O O12 0.883818 0.209855 0.997470
O O13 0.431521 0.500000 0.063894
O O14 0.558259 0.770563 0.302996
O O15 0.567990 0.772264 0.397429
O O16 0.623160 0.000000 0.363375
O O17 0.376812 0.214156 0.210893
O O18 0.244292 0.000000 0.175384
O O19 0.006225 0.500000 0.245253
O O20 0.552561 0.000000 0.444375
#
# Coordination Sequence:
#
# PCOD9223678 Si02
#       8
#     8   8   8   8   8   8   8   8
#     4  11  22  38  56  77 106 141 176 222 274 316
#     4   9  17  32  52  78 109 140 168 212 264 309
#     4   9  18  34  56  80 110 140 169 213 270 318
#     4  10  19  32  55  84 108 137 175 214 260 324
#     4  10  19  33  54  78 101 138 182 217 254 312
#     4  10  20  38  59  78 102 140 180 216 264 325
#     4   9  20  38  56  72 103 143 178 216 267 314
#     4   8  16  31  52  76 108 142 173 205 258 320
#
# _framework density 9.1235599999999994
#
# number of rings (size 3 to 8) (size 9 to 14) (size 15 to 20)
#    0.000    2.500    1.250    1.875    0.000    2.500 
#    0.000    7.500    0.000    0.000    0.000    0.000 
#    0.000    0.000    0.000    0.000    0.000    0.000 
#
# Total GULP energy -178347.289761 kJ/mol
# GULP energy per Si atom -5573.352805 kJ/mol
# Density = 0.910279 g / cm^3
# Si number density = 9.123560 Si / 1000 Ang^3
#
#
#
# Elastic Constant Matrix: (Units=GPa)
#
#
# Indices 1 2 3 4 5 6 
#
# 1 72.2510 17.9871 67.8571 0.0000 17.2264 0.0000
# 2 17.9871 19.1577 30.7515 0.0000 4.1225 0.0000
# 3 67.8571 30.7515 181.5949 0.0000 16.3948 0.0000
# 4 0.0000 0.0000 0.0000 26.6671 0.0000 8.9437
# 5 17.2264 4.1225 16.3948 0.0000 4.1918 0.0000
# 6 0.0000 0.0000 0.0000 8.9437 0.0000 26.0594
#
#
#
# Elastic Compliance Matrix: (Units=1/GPa)
#
#
# Indices 1 2 3 4 5 6 
#
# 1 0.723123 -0.053644 0.003717 0.000000 -2.933505 0.000000
# 2 -0.053644 0.079270 -0.009651 0.000000 0.180240 0.000000
# 3 0.003717 -0.009651 0.009699 0.000000 -0.043718 0.000000
# 4 0.000000 0.000000 0.000000 0.042377 0.000000 -0.014544
# 5 -2.933505 0.180240 -0.043718 0.000000 12.287745 0.000000
# 6 0.000000 0.000000 0.000000 -0.014544 0.000000 0.043365
#
#
# Mechanical properties :
#
#
# Convention : Reuss Voigt Hill
#
# Bulk Modulus (GPa) = 1.44313 56.24389 28.84351
# Shear Modulus (GPa) = 0.36939 21.81085 11.09012
#
# Velocity S-wave (km/s) = 0.45042 3.46107 2.46798
# Velocity P-wave (km/s) = 1.03107 6.84561 4.89517
#
# Compressibility (1/GPa) = 0.69293615
#
# Stress axis : x y z
#
# Youngs Moduli (GPa) = 1.38289 12.61504 103.10147
#
# Poissons Ratio (x) = 0.67672 -0.38320
# Poissons Ratio (y) = 0.07418 0.99502
# Poissons Ratio (z) = -0.00514 0.12175
#
# Static dielectric constant tensor:
#      x y z
#    x 1.646980 0.000000 -0.006620 
#    y 0.000000 1.609110 0.000000 
#    z -0.006620 0.000000 1.630790 
# 
# From -- ./inp_files/375090.got.cif
#   From: 2010.05.17/outbox.ucp.g08.bks.cvg/sg12_188_cif.got.tgz:375090.got - 2010.06.11 11:47:21.
