data_PCOD9223377
_publ_section_title
;
Structure prediction by ZEFSAII (Michael W. Deem and Ramdas Pophale) SiO2 
 PCOD9223377
Probable space group: C 2/M
;
_chemical_formula_sum "Si O2"
_cell_formula_units_Z 32
_cell_length_a 15.000000
_cell_length_b 9.000000
_cell_length_c 30.000000
_cell_angle_alpha 90.000000
_cell_angle_beta 130.000000
_cell_angle_gamma 90.000000
_cell_volume 3102.479995
_symmetry_space_group_name_H-M "C 2/M"
_symmetry_group_IT_number 12
_symmetry_cell_setting 'monoclinic'
loop_
_space_group_symop_operation_xyz
x,y,z
-x,y,-z
-x,-y,-z
x,-y,z
1/2+x,1/2+y,z
1/2-x,1/2+y,-z
1/2-x,1/2-y,-z
1/2+x,1/2-y,z
loop_
_atom_site_type_symbol
_atom_site_label
_atom_site_fract_x
_atom_site_fract_y
_atom_site_fract_z
Si Si1 0.171278 0.174965 0.362432
Si Si2 0.281755 0.321256 0.263965
Si Si3 0.455887 0.319477 0.240065
Si Si4 0.874590 0.821137 0.941538
Si Si5 0.854992 0.177914 0.111952
Si Si6 0.881642 0.178996 0.392502
Si Si7 0.370678 0.325370 0.549810
Si Si8 0.090263 0.821926 0.147045
O O1 0.292829 0.259138 0.399959
O O2 0.110699 0.189579 0.390956
O O3 0.083533 0.232391 0.296190
O O4 0.192403 0.000000 0.362072
O O5 0.273162 0.500000 0.261353
O O6 0.369846 0.277705 0.252554
O O7 0.330014 0.275507 0.327556
O O8 0.160746 0.250732 0.209912
O O9 0.461035 0.500000 0.240823
O O10 0.407811 0.272152 0.176873
O O11 0.767657 0.754917 0.934092
O O12 0.864477 0.772561 0.886610
O O13 0.869752 0.000000 0.941078
O O14 0.000000 0.775217 0.000000
O O15 0.953944 0.212005 0.107852
O O16 0.839566 0.000000 0.108752
O O17 0.014372 0.232335 0.437840
O O18 0.883296 0.000000 0.394539
O O19 0.360055 0.500000 0.536721
O O20 0.250000 0.250000 0.500000
O O21 0.102952 0.000000 0.154490
#
# Coordination Sequence:
#
# PCOD9223377 Si02
#       8
#     8   8   8   8   8   8   8   8
#     4  10  20  37  60  83 110 147 185 221 268 328
#     4  10  18  33  58  83 110 144 178 215 269 332
#     4   9  16  31  56  81 107 139 173 215 268 322
#     4  10  22  39  55  75 109 147 181 225 277 320
#     4  10  20  35  57  82 107 139 180 223 267 322
#     4  10  21  37  57  83 113 143 177 223 275 324
#     4  10  22  40  59  79 109 148 188 229 273 320
#     4  10  21  36  55  82 112 141 179 226 272 320
#
# _framework density 10.314329000000001
#
# number of rings (size 3 to 8) (size 9 to 14) (size 15 to 20)
#    0.000    2.125    2.500    0.750    0.000    4.250 
#    0.000    3.750    0.000    0.000    0.000    0.000 
#    0.000    0.000    0.000    0.000    0.000    0.000 
#
# Total GULP energy -178635.929773 kJ/mol
# GULP energy per Si atom -5582.372805 kJ/mol
# Density = 1.029085 g / cm^3
# Si number density = 10.314329 Si / 1000 Ang^3
#
#
#
# Elastic Constant Matrix: (Units=GPa)
#
#
# Indices 1 2 3 4 5 6 
#
# 1 85.1511 18.6990 0.6191 0.0000 37.7743 0.0000
# 2 18.6990 0.1798 12.1047 0.0000 10.0500 0.0000
# 3 0.6191 12.1047 49.7945 0.0000 33.1541 0.0000
# 4 0.0000 0.0000 0.0000 25.0610 0.0000 5.8569
# 5 37.7743 10.0500 33.1541 0.0000 36.3093 0.0000
# 6 0.0000 0.0000 0.0000 5.8569 0.0000 25.0334
#
#
#
# Elastic Compliance Matrix: (Units=1/GPa)
#
#
# Indices 1 2 3 4 5 6 
#
# 1 0.022000 0.096389 0.023716 0.000000 -0.071223 0.000000
# 2 0.096389 0.093484 0.153231 0.000000 -0.266070 0.000000
# 3 0.023716 0.153231 0.069395 0.000000 -0.130451 0.000000
# 4 0.000000 0.000000 0.000000 0.042211 0.000000 -0.009876
# 5 -0.071223 -0.266070 -0.130451 0.000000 0.294398 0.000000
# 6 0.000000 0.000000 0.000000 -0.009876 0.000000 0.042257
#
#
# Mechanical properties :
#
#
# Convention : Reuss Voigt Hill
#
# Bulk Modulus (GPa) = 1.36696 21.99676 11.68186
# Shear Modulus (GPa) = 19.16270 24.19425 21.67848
#
# Velocity S-wave (km/s) = 3.05115 3.42840 3.24526
# Velocity P-wave (km/s) = 3.61618 5.13403 4.44044
#
# Compressibility (1/GPa) = 0.73155271
#
# Stress axis : x y z
#
# Youngs Moduli (GPa) = 45.45450 10.69698 14.41022
#
# Poissons Ratio (x) = -1.03108 -0.34176
# Poissons Ratio (y) = -4.38134 -2.20809
# Poissons Ratio (z) = -1.07802 -1.63910
#
# Static dielectric constant tensor:
#      x y z
#    x 1.754420 0.000000 0.006520 
#    y 0.000000 1.682020 0.000000 
#    z 0.006520 0.000000 1.749860 
# 
# From -- ./inp_files/359784.got.cif
#   From: 2010.05.17/outbox.ucp.g08.bks.cvg/sg12_180_cif.got.tgz:359784.got - 2010.06.11 11:47:21.
