data_PCOD9223839
_publ_section_title
;
Structure prediction by ZEFSAII (Michael W. Deem and Ramdas Pophale) SiO2 
 PCOD9223839
Probable space group: C 2/M
;
_chemical_formula_sum "Si O2"
_cell_formula_units_Z 28
_cell_length_a 15.000000
_cell_length_b 9.000000
_cell_length_c 30.000000
_cell_angle_alpha 90.000000
_cell_angle_beta 130.000000
_cell_angle_gamma 90.000000
_cell_volume 3102.479995
_symmetry_space_group_name_H-M "C 2/M"
_symmetry_group_IT_number 12
_symmetry_cell_setting 'monoclinic'
loop_
_space_group_symop_operation_xyz
x,y,z
-x,y,-z
-x,-y,-z
x,-y,z
1/2+x,1/2+y,z
1/2-x,1/2+y,-z
1/2-x,1/2-y,-z
1/2+x,1/2-y,z
loop_
_atom_site_type_symbol
_atom_site_label
_atom_site_fract_x
_atom_site_fract_y
_atom_site_fract_z
Si Si1 0.395554 0.680355 0.862152
Si Si2 0.324093 0.317795 0.153305
Si Si3 0.328591 0.178971 0.358918
Si Si4 0.911288 0.821922 0.761159
Si Si5 0.565112 0.676578 0.421154
Si Si6 0.852313 0.681512 0.063092
Si Si7 0.307061 0.177292 0.455086
O O1 0.399271 0.500000 0.870428
O O2 0.284076 0.750648 0.852617
O O3 0.389137 0.707537 0.806584
O O4 0.521412 0.756141 0.913242
O O5 0.314984 0.500000 0.148739
O O6 0.457473 0.277436 0.211680
O O7 0.326105 0.247657 0.104146
O O8 0.202745 0.233985 0.301380
O O9 0.441342 0.248530 0.371670
O O10 0.337626 0.213073 0.414316
O O11 0.332610 0.000000 0.355122
O O12 0.911478 0.000000 0.756047
O O13 0.550378 0.500000 0.418230
O O14 0.614976 0.736974 0.484145
O O15 0.670871 0.709738 0.421063
O O16 0.852472 0.500000 0.063366
O O17 0.750000 0.750000 0.000000
O O18 0.323999 0.000000 0.467472
#
# Coordination Sequence:
#
# PCOD9223839 Si02
#       7
#     8   8   8   8   8   8   8
#     4  10  20  37  58  82 112 147 184 223 270 322
#     4  10  20  37  59  83 111 147 186 224 269 319
#     4  10  19  34  54  74  99 136 175 211 259 317
#     4   8  18  35  54  76 105 138 176 221 264 313
#     4  10  20  33  49  73 102 129 165 217 267 313
#     4  11  22  38  59  86 117 148 183 226 271 317
#     4   9  19  34  51  70  97 134 171 206 257 324
#
# _framework density 9.0250380000000003
#
# number of rings (size 3 to 8) (size 9 to 14) (size 15 to 20)
#    0.000    2.286    0.000    3.857    0.000    4.571 
#    0.000    8.571    0.000    0.000    0.000    0.000 
#    0.000    0.000    0.000    0.000    0.000    0.000 
#
# Total GULP energy -156099.125862 kJ/mol
# GULP energy per Si atom -5574.968781 kJ/mol
# Density = 0.900450 g / cm^3
# Si number density = 9.025038 Si / 1000 Ang^3
#
#
#
# Elastic Constant Matrix: (Units=GPa)
#
#
# Indices 1 2 3 4 5 6 
#
# 1 144.8130 43.8916 27.6839 0.0000 33.5786 0.0000
# 2 43.8916 77.5885 16.8184 0.0000 10.4053 0.0000
# 3 27.6839 16.8184 37.7221 0.0000 27.8322 0.0000
# 4 0.0000 0.0000 0.0000 22.8154 0.0000 7.9260
# 5 33.5786 10.4053 27.8322 0.0000 30.3547 0.0000
# 6 0.0000 0.0000 0.0000 7.9260 0.0000 38.1134
#
#
#
# Elastic Compliance Matrix: (Units=1/GPa)
#
#
# Indices 1 2 3 4 5 6 
#
# 1 0.011104 -0.005455 0.006078 0.000000 -0.015986 0.000000
# 2 -0.005455 0.017031 -0.011545 0.000000 0.010782 0.000000
# 3 0.006078 -0.011545 0.090381 0.000000 -0.085636 0.000000
# 4 0.000000 0.000000 0.000000 0.047243 0.000000 -0.009825
# 5 -0.015986 0.010782 -0.085636 0.000000 0.125452 0.000000
# 6 0.000000 0.000000 0.000000 -0.009825 0.000000 0.028281
#
#
# Mechanical properties :
#
#
# Convention : Reuss Voigt Hill
#
# Bulk Modulus (GPa) = 10.34430 48.54572 29.44501
# Shear Modulus (GPa) = 13.38478 29.70534 21.54506
#
# Velocity S-wave (km/s) = 2.72607 4.06115 3.45864
# Velocity P-wave (km/s) = 3.95625 6.99600 5.68313
#
# Compressibility (1/GPa) = 0.09667158
#
# Stress axis : x y z
#
# Youngs Moduli (GPa) = 90.06081 58.71667 11.06429
#
# Poissons Ratio (x) = 0.32029 -0.06725
# Poissons Ratio (y) = 0.49127 0.12774
# Poissons Ratio (z) = -0.54739 0.67789
#
# Static dielectric constant tensor:
#      x y z
#    x 1.614230 0.000000 0.016450 
#    y 0.000000 1.608270 0.000000 
#    z 0.016450 0.000000 1.644960 
# 
# From -- ./inp_files/337873.got.cif
#   From: 2010.05.17/outbox.ucp.g08.bks.cvg/sg12_169_cif.got.tgz:337873.got - 2010.06.11 11:47:21.
