data_PCOD9223244
_publ_section_title
;
Structure prediction by ZEFSAII (Michael W. Deem and Ramdas Pophale) SiO2 
 PCOD9223244
Probable space group: C 2/M
;
_chemical_formula_sum "Si O2"
_cell_formula_units_Z 32
_cell_length_a 9.000000
_cell_length_b 18.000000
_cell_length_c 30.000000
_cell_angle_alpha 90.000000
_cell_angle_beta 40.000000
_cell_angle_gamma 90.000000
_cell_volume 3123.947783
_symmetry_space_group_name_H-M "C 2/M"
_symmetry_group_IT_number 12
_symmetry_cell_setting 'monoclinic'
loop_
_space_group_symop_operation_xyz
x,y,z
-x,y,-z
-x,-y,-z
x,-y,z
1/2+x,1/2+y,z
1/2-x,1/2+y,-z
1/2-x,1/2-y,-z
1/2+x,1/2-y,z
loop_
_atom_site_type_symbol
_atom_site_label
_atom_site_fract_x
_atom_site_fract_y
_atom_site_fract_z
Si Si1 0.137852 0.584956 0.715884
Si Si2 0.461799 0.807184 0.460177
Si Si3 0.606844 0.912002 0.352821
Si Si4 0.376273 0.359252 0.747222
Si Si5 0.864562 0.909446 0.987236
Si Si6 0.906535 0.089603 0.153956
Si Si7 0.897600 0.709583 0.334641
Si Si8 0.834742 0.590383 0.117781
O O1 0.168187 0.500000 0.692972
O O2 0.252215 0.594442 0.737207
O O3 0.242113 0.654491 0.665785
O O4 0.864093 0.603998 0.777787
O O5 0.500000 0.839189 0.500000
O O6 0.250000 0.750000 0.500000
O O7 0.466415 0.877819 0.426520
O O8 0.695017 0.758298 0.402173
O O9 0.531817 0.850734 0.333525
O O10 0.879161 0.898710 0.298077
O O11 0.566748 0.000000 0.352953
O O12 0.432256 0.273057 0.723520
O O13 0.204704 0.367558 0.827460
O O14 0.013486 0.881776 0.911909
O O15 0.870886 0.000000 0.986240
O O16 0.594217 0.891459 0.042441
O O17 0.000000 0.884424 0.000000
O O18 0.109763 0.112508 0.140750
O O19 0.918605 0.000000 0.151345
O O20 0.826253 0.500000 0.125239
#
# Coordination Sequence:
#
# PCOD9223244 Si02
#       8
#     8   8   8   8   8   8   8   8
#     4  11  22  37  59  88 119 153 201 257 299 349
#     4  11  23  44  68  92 126 166 201 241 297 364
#     4  11  23  41  65  94 124 159 205 253 295 348
#     4  11  22  37  58  88 122 159 199 249 309 358
#     4   9  16  27  46  75 112 155 201 252 308 362
#     4   9  18  31  49  77 115 156 199 251 310 362
#     4  11  24  42  65  87 122 164 200 239 300 369
#     4  10  18  30  51  79 115 156 203 256 303 361
#
# _framework density 10.243449
#
# number of rings (size 3 to 8) (size 9 to 14) (size 15 to 20)
#    0.000    1.625    1.250    4.875    1.750    4.750 
#    0.000    1.875    0.000    0.750    0.000    1.750 
#    0.000    0.000    0.000    0.000    0.000    0.500 
#
# Total GULP energy -178183.855219 kJ/mol
# GULP energy per Si atom -5568.245476 kJ/mol
# Density = 1.022013 g / cm^3
# Si number density = 10.243449 Si / 1000 Ang^3
#
#
#
# Elastic Constant Matrix: (Units=GPa)
#
#
# Indices 1 2 3 4 5 6 
#
# 1 71.6845 2.7627 -3.8589 -0.0007 5.0629 0.0036
# 2 2.7627 97.6050 7.5922 0.0018 9.8480 -0.0003
# 3 -3.8589 7.5922 32.0598 0.0044 8.6586 -0.0065
# 4 -0.0007 0.0018 0.0044 8.8405 0.0010 -0.9601
# 5 5.0629 9.8480 8.6586 0.0010 32.1180 -0.0023
# 6 0.0036 -0.0003 -0.0065 -0.9601 -0.0023 34.5473
#
#
#
# Elastic Compliance Matrix: (Units=1/GPa)
#
#
# Indices 1 2 3 4 5 6 
#
# 1 0.014302 -0.000317 0.002566 0.000000 -0.002849 -0.000001
# 2 -0.000317 0.010672 -0.001828 -0.000001 -0.002729 0.000000
# 3 0.002566 -0.001828 0.034396 -0.000015 -0.009116 0.000005
# 4 0.000000 -0.000001 -0.000015 0.113458 0.000001 0.003153
# 5 -0.002849 -0.002729 -0.009116 0.000001 0.034879 0.000001
# 6 -0.000001 0.000000 0.000005 0.003153 0.000001 0.029033
#
#
# Mechanical properties :
#
#
# Convention : Reuss Voigt Hill
#
# Bulk Modulus (GPa) = 16.60841 23.81572 20.21206
# Shear Modulus (GPa) = 19.53364 28.09138 23.81251
#
# Velocity S-wave (km/s) = 3.09118 3.70697 3.41299
# Velocity P-wave (km/s) = 4.56782 5.47469 5.04169
#
# Compressibility (1/GPa) = 0.06021047
#
# Stress axis : x y z
#
# Youngs Moduli (GPa) = 69.92241 93.70362 29.07350
#
# Poissons Ratio (x) = 0.02970 -0.07460
# Poissons Ratio (y) = 0.02216 0.05315
# Poissons Ratio (z) = -0.17941 0.17131
#
# Static dielectric constant tensor:
#      x y z
#    x 2.155200 -0.000300 0.131200 
#    y -0.000300 1.751180 0.000020 
#    z 0.131200 0.000020 1.822870 
# 
# From -- ./inp_files/372925.got.cif
#   From: 2010.05.17/outbox.ucp.g08.bks.cvg/sg12_187_cif.got.tgz:372925.got - 2010.06.11 11:47:21.
