data_PCOD9223503
_publ_section_title
;
Structure prediction by ZEFSAII (Michael W. Deem and Ramdas Pophale) SiO2 
 PCOD9223503
Probable space group: C 2/M
;
_chemical_formula_sum "Si O2"
_cell_formula_units_Z 32
_cell_length_a 30.000000
_cell_length_b 9.000000
_cell_length_c 15.000000
_cell_angle_alpha 90.000000
_cell_angle_beta 120.000000
_cell_angle_gamma 90.000000
_cell_volume 3507.402885
_symmetry_space_group_name_H-M "C 2/M"
_symmetry_group_IT_number 12
_symmetry_cell_setting 'monoclinic'
loop_
_space_group_symop_operation_xyz
x,y,z
-x,y,-z
-x,-y,-z
x,-y,z
1/2+x,1/2+y,z
1/2-x,1/2+y,-z
1/2-x,1/2-y,-z
1/2+x,1/2-y,z
loop_
_atom_site_type_symbol
_atom_site_label
_atom_site_fract_x
_atom_site_fract_y
_atom_site_fract_z
Si Si1 0.537177 0.825541 0.808127
Si Si2 0.936204 0.319658 0.778150
Si Si3 0.184305 0.822905 0.081705
Si Si4 0.291821 0.676409 0.239986
Si Si5 0.820074 0.672090 0.636974
Si Si6 0.864380 0.822021 0.155888
Si Si7 0.277362 0.168681 0.394748
Si Si8 0.414172 0.825397 0.947884
O O1 0.479462 0.764360 0.754217
O O2 0.578585 0.741038 0.791739
O O3 0.538087 0.000000 0.786479
O O4 0.556019 0.810670 0.929731
O O5 0.938890 0.500000 0.774784
O O6 0.878301 0.275384 0.700220
O O7 0.945054 0.281972 0.890524
O O8 0.237435 0.747922 0.160307
O O9 0.137980 0.767191 0.097308
O O10 0.188748 0.000000 0.089213
O O11 0.166683 0.776784 0.964262
O O12 0.287344 0.500000 0.230323
O O13 0.333658 0.728952 0.211079
O O14 0.305255 0.727601 0.352312
O O15 0.816912 0.500000 0.665035
O O16 0.780421 0.771641 0.651261
O O17 0.802413 0.674251 0.516873
O O18 0.866557 0.000000 0.157094
O O19 0.277328 0.000000 0.362409
O O20 0.400959 0.000000 0.925530
#
# Coordination Sequence:
#
# PCOD9223503 Si02
#       8
#     8   8   8   8   8   8   8   8
#     4   9  17  29  47  70  95 125 161 197 229 269
#     4   9  16  28  48  71  94 124 161 194 227 274
#     4  10  19  31  47  70  99 125 155 196 236 278
#     4  11  21  33  50  69  92 126 163 195 236 288
#     4   9  18  33  52  73 100 130 156 189 236 287
#     4   9  20  35  48  66  95 128 159 195 238 282
#     4  10  20  33  50  74 100 124 156 197 238 281
#     4   9  16  27  45  70 100 130 157 186 226 279
#
# _framework density 9.1235599999999994
#
# number of rings (size 3 to 8) (size 9 to 14) (size 15 to 20)
#    0.000    2.500    0.000    2.625    0.000    4.500 
#    0.000    1.250    0.000    3.750    0.000    5.250 
#    0.000    0.000    0.000    0.000    0.000    0.000 
#
# Total GULP energy -178375.838476 kJ/mol
# GULP energy per Si atom -5574.244952 kJ/mol
# Density = 0.910279 g / cm^3
# Si number density = 9.123560 Si / 1000 Ang^3
#
#
#
# Elastic Constant Matrix: (Units=GPa)
#
#
# Indices 1 2 3 4 5 6 
#
# 1 105.1876 30.5306 27.8621 0.0000 -13.0797 0.0000
# 2 30.5306 23.6439 10.3544 0.0000 1.7562 0.0000
# 3 27.8621 10.3544 25.1389 0.0000 2.2369 0.0000
# 4 0.0000 0.0000 0.0000 15.0309 0.0000 -3.8823
# 5 -13.0797 1.7562 2.2369 0.0000 11.9928 0.0000
# 6 0.0000 0.0000 0.0000 -3.8823 0.0000 19.5456
#
#
#
# Elastic Compliance Matrix: (Units=1/GPa)
#
#
# Indices 1 2 3 4 5 6 
#
# 1 0.030532 -0.031853 -0.024504 0.000000 0.042534 0.000000
# 2 -0.031853 0.084991 0.004571 0.000000 -0.048038 0.000000
# 3 -0.024504 0.004571 0.068631 0.000000 -0.040196 0.000000
# 4 0.000000 0.000000 0.000000 0.070127 0.000000 0.013929
# 5 0.042534 -0.048038 -0.040196 0.000000 0.144304 0.000000
# 6 0.000000 0.000000 0.000000 0.013929 0.000000 0.053929
#
#
# Mechanical properties :
#
#
# Convention : Reuss Voigt Hill
#
# Bulk Modulus (GPa) = 12.40962 32.38495 22.39729
# Shear Modulus (GPa) = 8.57712 14.99541 11.78626
#
# Velocity S-wave (km/s) = 2.17042 2.86981 2.54426
# Velocity P-wave (km/s) = 3.61892 5.36354 4.57516
#
# Compressibility (1/GPa) = 0.08058265
#
# Stress axis : x y z
#
# Youngs Moduli (GPa) = 32.75291 11.76597 14.57062
#
# Poissons Ratio (x) = 0.37478 0.35704
# Poissons Ratio (y) = 1.04327 -0.06661
# Poissons Ratio (z) = 0.80258 -0.05378
#
# Static dielectric constant tensor:
#      x y z
#    x 1.634510 0.000000 -0.006690 
#    y 0.000000 1.616090 0.000000 
#    z -0.006690 0.000000 1.659930 
# 
# From -- ./inp_files/249224.got.cif
#   From: 2010.05.17/outbox.ucp.g08.bks.cvg/sg12_125_cif.got.tgz:249224.got - 2010.06.11 11:47:21.
