data_PCOD9223761
_publ_section_title
;
Structure prediction by ZEFSAII (Michael W. Deem and Ramdas Pophale) SiO2 
 PCOD9223761
Probable space group: C 2/M
;
_chemical_formula_sum "Si O2"
_cell_formula_units_Z 32
_cell_length_a 21.000000
_cell_length_b 15.000000
_cell_length_c 30.000000
_cell_angle_alpha 90.000000
_cell_angle_beta 20.000000
_cell_angle_gamma 90.000000
_cell_volume 3232.090354
_symmetry_space_group_name_H-M "C 2/M"
_symmetry_group_IT_number 12
_symmetry_cell_setting 'monoclinic'
loop_
_space_group_symop_operation_xyz
x,y,z
-x,y,-z
-x,-y,-z
x,-y,z
1/2+x,1/2+y,z
1/2-x,1/2+y,-z
1/2-x,1/2-y,-z
1/2+x,1/2-y,z
loop_
_atom_site_type_symbol
_atom_site_label
_atom_site_fract_x
_atom_site_fract_y
_atom_site_fract_z
Si Si1 0.656720 0.101299 0.799203
Si Si2 0.128586 0.713479 0.960267
Si Si3 0.442849 0.393937 0.428531
Si Si4 0.239374 0.651374 0.381000
Si Si5 0.020665 0.099577 0.039890
Si Si6 0.786835 0.844620 0.622166
Si Si7 0.840040 0.599450 0.663902
Si Si8 0.992430 0.894754 0.298362
O O1 0.849692 0.137835 0.693836
O O2 0.682279 0.101416 0.729101
O O3 0.628229 0.000000 0.833702
O O4 0.489393 0.161894 0.925076
O O5 0.320846 0.662956 0.826707
O O6 0.153674 0.816031 0.958674
O O7 0.000000 0.711734 0.000000
O O8 0.458954 0.500000 0.418578
O O9 0.301441 0.373002 0.561273
O O10 0.395344 0.368016 0.409248
O O11 0.298121 0.747044 0.324166
O O12 0.230752 0.596449 0.340719
O O13 0.366794 0.619428 0.337390
O O14 0.026577 0.658257 0.539512
O O15 0.825839 0.122850 0.193156
O O16 0.075000 0.000000 0.020024
O O17 0.000000 0.093334 0.000000
O O18 0.000000 0.842516 0.500000
O O19 0.904594 0.500000 0.634043
O O20 0.038568 0.000000 0.270538
#
# Coordination Sequence:
#
# PCOD9223761 Si02
#       8
#     8   8   8   8   8   8   8   8
#     4  10  19  33  56  85 115 154 198 237 283 344
#     4  11  21  35  61  85 118 153 195 242 295 346
#     4   9  19  34  53  80 116 152 189 238 290 344
#     4  11  21  35  59  87 117 150 195 247 298 347
#     4   9  20  37  60  88 116 150 197 245 293 351
#     4  10  19  33  55  80 112 150 195 239 289 345
#     4  10  19  36  60  84 110 148 194 245 299 350
#     4  11  23  38  56  87 124 157 197 245 296 347
#
# _framework density 9.9007129999999997
#
# number of rings (size 3 to 8) (size 9 to 14) (size 15 to 20)
#    0.000    1.875    2.500    3.000    1.750    2.500 
#    0.000    2.500    0.000    4.500    0.000    0.000 
#    0.000    0.000    0.000    0.000    0.000    0.000 
#
# Total GULP energy -178298.494217 kJ/mol
# GULP energy per Si atom -5571.827944 kJ/mol
# Density = 0.987818 g / cm^3
# Si number density = 9.900713 Si / 1000 Ang^3
#
#
#
# Elastic Constant Matrix: (Units=GPa)
#
#
# Indices 1 2 3 4 5 6 
#
# 1 75.6338 24.9221 42.5213 -0.0029 9.0587 0.0027
# 2 24.9221 96.5311 25.8917 -0.0190 3.2126 0.0036
# 3 42.5213 25.8917 60.0311 -0.0521 20.6739 -0.0103
# 4 -0.0029 -0.0190 -0.0521 29.6445 0.0070 2.1539
# 5 9.0587 3.2126 20.6739 0.0070 27.5625 -0.0092
# 6 0.0027 0.0036 -0.0103 2.1539 -0.0092 31.8809
#
#
#
# Elastic Compliance Matrix: (Units=1/GPa)
#
#
# Indices 1 2 3 4 5 6 
#
# 1 0.022890 -0.001373 -0.017643 -0.000031 0.005871 -0.000004
# 2 -0.001373 0.012019 -0.005238 -0.000002 0.002979 -0.000002
# 3 -0.017643 -0.005238 0.039379 0.000069 -0.023128 0.000003
# 4 -0.000031 -0.000002 0.000069 0.033900 -0.000051 -0.002290
# 5 0.005871 0.002979 -0.023128 -0.000051 0.051352 0.000010
# 6 -0.000004 -0.000002 0.000003 -0.002290 0.000010 0.031521
#
#
# Mechanical properties :
#
#
# Convention : Reuss Voigt Hill
#
# Bulk Modulus (GPa) = 38.78731 46.54068 42.66399
# Shear Modulus (GPa) = 20.14814 27.07498 23.61156
#
# Velocity S-wave (km/s) = 3.19330 3.70175 3.45689
# Velocity P-wave (km/s) = 5.76428 6.46725 6.12586
#
# Compressibility (1/GPa) = 0.02578163
#
# Stress axis : x y z
#
# Youngs Moduli (GPa) = 43.68789 83.19851 25.39429
#
# Poissons Ratio (x) = 0.11421 0.44803
# Poissons Ratio (y) = 0.05997 0.13300
# Poissons Ratio (z) = 0.77078 0.43575
#
# Static dielectric constant tensor:
#      x y z
#    x 1.706400 0.000000 0.029480 
#    y 0.000000 1.744120 0.000050 
#    z 0.029480 0.000050 1.690370 
# 
# From -- ./inp_files/290150.got.cif
#   From: 2010.05.17/outbox.ucp.g08.bks.cvg/sg12_146_cif.got.tgz:290150.got - 2010.06.11 11:47:21.
