data_PCOD9223886
_publ_section_title
;
Structure prediction by ZEFSAII (Michael W. Deem and Ramdas Pophale) SiO2 
 PCOD9223886
Probable space group: C 2/M
;
_chemical_formula_sum "Si O2"
_cell_formula_units_Z 24
_cell_length_a 15.000000
_cell_length_b 9.000000
_cell_length_c 18.000000
_cell_angle_alpha 90.000000
_cell_angle_beta 90.000000
_cell_angle_gamma 90.000000
_cell_volume 2430.000000
_symmetry_space_group_name_H-M "C 2/M"
_symmetry_group_IT_number 12
_symmetry_cell_setting 'monoclinic'
loop_
_space_group_symop_operation_xyz
x,y,z
-x,y,-z
-x,-y,-z
x,-y,z
1/2+x,1/2+y,z
1/2-x,1/2+y,-z
1/2-x,1/2-y,-z
1/2+x,1/2-y,z
loop_
_atom_site_type_symbol
_atom_site_label
_atom_site_fract_x
_atom_site_fract_y
_atom_site_fract_z
Si Si1 0.082307 0.678188 0.314110
Si Si2 0.973018 0.322420 0.854513
Si Si3 0.153764 0.824656 0.813742
Si Si4 0.281149 0.680893 0.346819
Si Si5 0.051046 0.820749 0.573132
Si Si6 0.803973 0.675449 0.934406
O O1 0.074300 0.500000 0.324974
O O2 0.070764 0.705727 0.226476
O O3 0.178657 0.728433 0.344722
O O4 0.005815 0.762723 0.357880
O O5 0.980875 0.500000 0.862688
O O6 0.903059 0.267190 0.916182
O O7 0.070574 0.253371 0.852540
O O8 0.173159 0.769799 0.730478
O O9 0.243222 0.806685 0.861254
O O10 0.133991 0.000000 0.809296
O O11 0.278975 0.500000 0.344987
O O12 0.346434 0.726629 0.413620
O O13 0.000000 0.766101 0.500000
O O14 0.050068 0.000000 0.572129
O O15 0.811034 0.500000 0.949670
O O16 0.750000 0.750000 0.000000
#
# Coordination Sequence:
#
# PCOD9223886 Si02
#       6
#     8   8   8   8   8   8
#     4  10  19  34  57  80 104 141 184 222 266 321
#     4  10  20  35  56  82 108 137 179 228 271 314
#     4  10  19  35  59  81 104 143 187 218 259 326
#     4   9  17  33  56  78 105 143 179 216 266 319
#     4  10  21  36  54  80 113 144 177 222 273 320
#     4  10  22  39  57  80 112 145 179 220 271 325
#
# _framework density 9.8765429999999999
#
# number of rings (size 3 to 8) (size 9 to 14) (size 15 to 20)
#    0.000    2.167    3.333    0.000    0.000    3.000 
#    0.000    5.000    0.000    0.000    0.000    0.000 
#    0.000    0.000    0.000    0.000    0.000    0.000 
#
# Total GULP energy -133866.359568 kJ/mol
# GULP energy per Si atom -5577.764982 kJ/mol
# Density = 0.985406 g / cm^3
# Si number density = 9.876543 Si / 1000 Ang^3
#
#
#
# Elastic Constant Matrix: (Units=GPa)
#
#
# Indices 1 2 3 4 5 6 
#
# 1 39.2833 10.1737 -36.7586 0.0000 -59.5761 0.0000
# 2 10.1737 -7.4786 1.7378 0.0000 14.3916 0.0000
# 3 -36.7586 1.7378 6.8750 0.0000 -5.7756 0.0000
# 4 0.0000 0.0000 0.0000 20.1183 0.0000 -3.9647
# 5 -59.5761 14.3916 -5.7756 0.0000 -80.8334 0.0000
# 6 0.0000 0.0000 0.0000 -3.9647 0.0000 24.6074
#
#
#
# Elastic Compliance Matrix: (Units=1/GPa)
#
#
# Indices 1 2 3 4 5 6 
#
# 1 -0.016594 -0.009091 -0.073120 0.000000 0.015836 0.000000
# 2 -0.009091 -0.205565 -0.020529 0.000000 -0.028432 0.000000
# 3 -0.073120 -0.020529 -0.186886 0.000000 0.063589 0.000000
# 4 0.000000 0.000000 0.000000 0.051336 0.000000 0.008271
# 5 0.015836 -0.028432 0.063589 0.000000 -0.033648 0.000000
# 6 0.000000 0.000000 0.000000 0.008271 0.000000 0.041971
#
#
# Mechanical properties :
#
#
# Convention : Reuss Voigt Hill
#
# Bulk Modulus (GPa) = -1.62728 -1.22383 -1.42555
# Shear Modulus (GPa) = -14.33701 -2.98642 -8.66172
#
# Velocity S-wave (km/s) = -2.69701 -1.23092 -2.09631
# Velocity P-wave (km/s) = 3.24409 1.62515 2.56566
#
# Compressibility (1/GPa) = -0.61452205
#
# Stress axis : x y z
#
# Youngs Moduli (GPa) = -60.26382 -4.86465 -5.35087
#
# Poissons Ratio (x) = -0.04422 -0.39125
# Poissons Ratio (y) = -0.54784 -0.10985
# Poissons Ratio (z) = -4.40649 -0.09986
#
# Static dielectric constant tensor:
#      x y z
#    x 1.598740 0.000000 -0.030520 
#    y 0.000000 1.652960 0.000000 
#    z -0.030520 0.000000 1.687840 
# 
# From -- ./inp_files/212625.got.cif
#   From: 2010.05.17/outbox.ucp.g08.bks.cvg/sg12_107_cif.got.tgz:212625.got - 2010.06.11 11:47:21.
