data_PCOD9223753
_publ_section_title
;
Structure prediction by ZEFSAII (Michael W. Deem and Ramdas Pophale) SiO2 
 PCOD9223753
Probable space group: C 2/M
;
_chemical_formula_sum "Si O2"
_cell_formula_units_Z 28
_cell_length_a 18.000000
_cell_length_b 9.000000
_cell_length_c 24.000000
_cell_angle_alpha 90.000000
_cell_angle_beta 50.000000
_cell_angle_gamma 90.000000
_cell_volume 2978.380795
_symmetry_space_group_name_H-M "C 2/M"
_symmetry_group_IT_number 12
_symmetry_cell_setting 'monoclinic'
loop_
_space_group_symop_operation_xyz
x,y,z
-x,y,-z
-x,-y,-z
x,-y,z
1/2+x,1/2+y,z
1/2-x,1/2+y,-z
1/2-x,1/2-y,-z
1/2+x,1/2-y,z
loop_
_atom_site_type_symbol
_atom_site_label
_atom_site_fract_x
_atom_site_fract_y
_atom_site_fract_z
Si Si1 0.306464 0.319575 0.525775
Si Si2 0.195425 0.821244 0.232242
Si Si3 0.510818 0.321233 0.625986
Si Si4 0.597752 0.177481 0.809570
Si Si5 0.642343 0.321330 0.671098
Si Si6 0.904960 0.177708 0.938046
Si Si7 0.778295 0.322202 0.900851
O O1 0.299301 0.500000 0.529468
O O2 0.250000 0.250000 0.500000
O O3 0.418818 0.276296 0.459351
O O4 0.246793 0.252447 0.606257
O O5 0.296755 0.793999 0.214565
O O6 0.200311 0.741693 0.170255
O O7 0.099995 0.770437 0.312889
O O8 0.186850 0.000000 0.227842
O O9 0.506754 0.500000 0.624124
O O10 0.569724 0.286238 0.654571
O O11 0.599323 0.254393 0.748288
O O12 0.509988 0.245956 0.887908
O O13 0.584637 0.000000 0.810585
O O14 0.651350 0.500000 0.669897
O O15 0.848534 0.243479 0.911635
O O16 0.915488 0.000000 0.927664
O O17 0.832237 0.207479 0.024897
O O18 0.793035 0.500000 0.895544
#
# Coordination Sequence:
#
# PCOD9223753 Si02
#       7
#     8   8   8   8   8   8   8
#     4   9  16  29  51  78 106 135 174 223 271 323
#     4  10  21  37  55  77 109 146 182 222 270 320
#     4   8  16  32  54  77 100 134 177 217 264 319
#     4  11  23  36  53  79 109 143 184 225 266 320
#     4  10  19  33  55  79 105 139 179 225 277 327
#     4  10  21  38  59  81 109 142 175 219 272 322
#     4  10  21  37  59  85 108 136 179 224 266 318
#
# _framework density 9.4010809999999996
#
# number of rings (size 3 to 8) (size 9 to 14) (size 15 to 20)
#    0.000    2.286    0.000    3.857    0.000    4.571 
#    0.000    7.143    0.000    4.286    0.000    0.000 
#    0.000    0.000    0.000    0.000    0.000    0.000 
#
# Total GULP energy -156216.582129 kJ/mol
# GULP energy per Si atom -5579.163647 kJ/mol
# Density = 0.937968 g / cm^3
# Si number density = 9.401081 Si / 1000 Ang^3
#
#
#
# Elastic Constant Matrix: (Units=GPa)
#
#
# Indices 1 2 3 4 5 6 
#
# 1 41.5734 20.3627 25.5636 0.0000 -35.2720 0.0001
# 2 20.3627 62.5517 22.2993 0.0000 -18.0237 0.0002
# 3 25.5636 22.2993 92.1216 0.0000 -46.2811 0.0000
# 4 0.0000 0.0000 0.0000 39.8267 0.0000 -3.5814
# 5 -35.2720 -18.0237 -46.2811 0.0000 37.1043 0.0000
# 6 0.0001 0.0002 0.0000 -3.5814 0.0000 18.7930
#
#
#
# Elastic Compliance Matrix: (Units=1/GPa)
#
#
# Indices 1 2 3 4 5 6 
#
# 1 -0.495851 0.028864 -0.265576 0.000000 -0.788602 0.000003
# 2 0.028864 0.016909 0.015558 0.000000 0.055058 0.000000
# 3 -0.265576 0.015558 -0.113166 0.000000 -0.386057 0.000001
# 4 0.000000 0.000000 0.000000 0.025547 0.000000 0.004868
# 5 -0.788602 0.055058 -0.386057 0.000000 -1.177501 0.000004
# 6 0.000003 0.000000 0.000001 0.004868 0.000004 0.054139
#
#
# Mechanical properties :
#
#
# Convention : Reuss Voigt Hill
#
# Bulk Modulus (GPa) = -0.96673 36.96644 17.99986
# Shear Modulus (GPa) = -3.13987 27.67954 12.26983
#
# Velocity S-wave (km/s) = -1.29367 3.84102 2.55733
# Velocity P-wave (km/s) = 1.65732 6.27492 4.27948
#
# Compressibility (1/GPa) = -1.03441567
#
# Stress axis : x y z
#
# Youngs Moduli (GPa) = -2.01673 59.14134 -8.83659
#
# Poissons Ratio (x) = -1.70707 -2.34678
# Poissons Ratio (y) = 0.05821 0.13748
# Poissons Ratio (z) = -0.53560 -0.92012
#
# Static dielectric constant tensor:
#      x y z
#    x 1.648820 0.000000 -0.027750 
#    y 0.000000 1.625660 0.000000 
#    z -0.027750 0.000000 1.675310 
# 
# From -- ./inp_files/342233.got.cif
#   From: 2010.05.17/outbox.ucp.g08.bks.cvg/sg12_172_cif.got.tgz:342233.got - 2010.06.11 11:47:21.
