data_PCOD9223959
_publ_section_title
;
Structure prediction by ZEFSAII (Michael W. Deem and Ramdas Pophale) SiO2 
 PCOD9223959
Probable space group: C 2/M
;
_chemical_formula_sum "Si O2"
_cell_formula_units_Z 32
_cell_length_a 15.000000
_cell_length_b 9.000000
_cell_length_c 30.000000
_cell_angle_alpha 90.000000
_cell_angle_beta 130.000000
_cell_angle_gamma 90.000000
_cell_volume 3102.479995
_symmetry_space_group_name_H-M "C 2/M"
_symmetry_group_IT_number 12
_symmetry_cell_setting 'monoclinic'
loop_
_space_group_symop_operation_xyz
x,y,z
-x,y,-z
-x,-y,-z
x,-y,z
1/2+x,1/2+y,z
1/2-x,1/2+y,-z
1/2-x,1/2-y,-z
1/2+x,1/2-y,z
loop_
_atom_site_type_symbol
_atom_site_label
_atom_site_fract_x
_atom_site_fract_y
_atom_site_fract_z
Si Si1 0.359191 0.833739 0.582788
Si Si2 0.229397 0.179077 0.218227
Si Si3 0.021458 0.173952 0.694353
Si Si4 0.831714 0.829673 0.119934
Si Si5 0.881321 0.820936 0.912209
Si Si6 0.555360 0.680299 0.238336
Si Si7 0.626914 0.830462 0.520163
Si Si8 0.627697 0.669550 0.965889
O O1 0.454840 0.716976 0.628809
O O2 0.369223 0.837519 0.532475
O O3 0.234518 0.780959 0.562055
O O4 0.385897 0.000000 0.607639
O O5 0.358315 0.240276 0.263457
O O6 0.172388 0.223159 0.152831
O O7 0.151426 0.233429 0.234693
O O8 0.231467 0.000000 0.219655
O O9 0.933761 0.215572 0.706509
O O10 0.045631 0.000000 0.705679
O O11 0.711638 0.739630 0.082246
O O12 0.903138 0.834783 0.096757
O O13 0.925786 0.765762 0.184028
O O14 0.800824 0.000000 0.120971
O O15 0.015291 0.768316 0.955073
O O16 0.886405 0.000000 0.916353
O O17 0.551663 0.500000 0.232430
O O18 0.500000 0.790325 0.500000
O O19 0.652178 0.000000 0.544535
O O20 0.646924 0.500000 0.986691
O O21 0.750000 0.750000 0.000000
#
# Coordination Sequence:
#
# PCOD9223959 Si02
#       8
#     8   8   8   8   8   8   8   8
#     4  10  21  37  57  84 117 149 184 233 282 324
#     4  10  19  35  57  79 105 142 185 225 272 326
#     4  11  22  36  55  82 116 149 185 228 274 328
#     4  10  19  36  59  80 105 141 184 222 267 330
#     4  10  20  35  57  82 107 138 176 226 279 326
#     4   9  18  34  56  78 104 144 185 220 266 327
#     4   9  19  38  63  85 109 148 195 232 274 331
#     4  10  22  39  58  80 110 144 181 227 278 332
#
# _framework density 10.314329000000001
#
# number of rings (size 3 to 8) (size 9 to 14) (size 15 to 20)
#    0.000    2.125    2.500    0.750    0.000    3.250 
#    0.000    9.375    0.000    0.000    0.000    0.000 
#    0.000    0.000    0.000    0.000    0.000    0.000 
#
# Total GULP energy -178306.383536 kJ/mol
# GULP energy per Si atom -5572.074486 kJ/mol
# Density = 1.029085 g / cm^3
# Si number density = 10.314329 Si / 1000 Ang^3
#
#
#
# Elastic Constant Matrix: (Units=GPa)
#
#
# Indices 1 2 3 4 5 6 
#
# 1 156.1586 27.4927 17.3675 0.0000 17.9786 0.0000
# 2 27.4927 12.2963 7.2240 0.0000 2.3310 0.0000
# 3 17.3675 7.2240 38.7810 0.0000 6.4957 0.0000
# 4 0.0000 0.0000 0.0000 19.6242 0.0000 6.6641
# 5 17.9786 2.3310 6.4957 0.0000 18.4112 0.0000
# 6 0.0000 0.0000 0.0000 6.6641 0.0000 32.0793
#
#
#
# Elastic Compliance Matrix: (Units=1/GPa)
#
#
# Indices 1 2 3 4 5 6 
#
# 1 0.011704 -0.025050 0.000859 0.000000 -0.008560 0.000000
# 2 -0.025050 0.145543 -0.017965 0.000000 0.012373 0.000000
# 3 0.000859 -0.017965 0.030298 0.000000 -0.009253 0.000000
# 4 0.000000 0.000000 0.000000 0.054825 0.000000 -0.011389
# 5 -0.008560 0.012373 -0.009253 0.000000 0.064372 0.000000
# 6 0.000000 0.000000 0.000000 -0.011389 0.000000 0.033539
#
#
# Mechanical properties :
#
#
# Convention : Reuss Voigt Hill
#
# Bulk Modulus (GPa) = 9.68702 34.60047 22.14374
# Shear Modulus (GPa) = 10.89314 24.36639 17.62977
#
# Velocity S-wave (km/s) = 2.30045 3.44057 2.92657
# Velocity P-wave (km/s) = 3.42960 5.70901 4.70930
#
# Compressibility (1/GPa) = 0.10323094
#
# Stress axis : x y z
#
# Youngs Moduli (GPa) = 85.44050 6.87083 33.00582
#
# Poissons Ratio (x) = 0.17212 -0.02834
# Poissons Ratio (y) = 2.14030 0.59296
# Poissons Ratio (z) = -0.07336 0.12344
#
# Static dielectric constant tensor:
#      x y z
#    x 1.708630 0.000000 -0.043940 
#    y 0.000000 1.718390 0.000000 
#    z -0.043940 0.000000 1.860920 
# 
# From -- ./inp_files/375520.got.cif
#   From: 2010.05.17/outbox.ucp.g08.bks.cvg/sg12_188_cif.got.tgz:375520.got - 2010.06.11 11:47:21.
