data_PCOD9223542
_publ_section_title
;
Structure prediction by ZEFSAII (Michael W. Deem and Ramdas Pophale) SiO2 
 PCOD9223542
Probable space group: C 2/M
;
_chemical_formula_sum "Si O2"
_cell_formula_units_Z 30
_cell_length_a 21.000000
_cell_length_b 15.000000
_cell_length_c 15.000000
_cell_angle_alpha 90.000000
_cell_angle_beta 130.000000
_cell_angle_gamma 90.000000
_cell_volume 3619.559994
_symmetry_space_group_name_H-M "C 2/M"
_symmetry_group_IT_number 12
_symmetry_cell_setting 'monoclinic'
loop_
_space_group_symop_operation_xyz
x,y,z
-x,y,-z
-x,-y,-z
x,-y,z
1/2+x,1/2+y,z
1/2-x,1/2+y,-z
1/2-x,1/2-y,-z
1/2+x,1/2-y,z
loop_
_atom_site_type_symbol
_atom_site_label
_atom_site_fract_x
_atom_site_fract_y
_atom_site_fract_z
Si Si1 0.309506 0.896959 0.308215
Si Si2 0.500000 0.742230 0.000000
Si Si3 0.159632 0.397051 0.364214
Si Si4 0.375995 0.605119 0.788185
Si Si5 0.013237 0.603074 0.881016
Si Si6 0.353314 0.604247 0.553156
Si Si7 0.588395 0.784566 0.461382
Si Si8 0.934696 0.397821 0.275899
O O1 0.212443 0.884365 0.241130
O O2 0.361119 0.825161 0.410907
O O3 0.343871 0.889487 0.238196
O O4 0.328379 0.000000 0.353968
O O5 0.560368 0.676216 0.110989
O O6 0.459731 0.814740 0.032415
O O7 0.152378 0.500000 0.389913
O O8 0.087427 0.388337 0.224727
O O9 0.257259 0.383381 0.434766
O O10 0.133935 0.328419 0.416992
O O11 0.401585 0.500000 0.821507
O O12 0.361224 0.619365 0.668033
O O13 0.029188 0.500000 0.925252
O O14 0.055239 0.612414 0.821240
O O15 0.375137 0.500000 0.557356
O O16 0.406462 0.678750 0.549233
O O17 0.496815 0.827091 0.376406
O O18 0.963049 0.500000 0.321117
#
# Coordination Sequence:
#
# PCOD9223542 Si02
#       8
#     8   4   8   8   8   8   8   8
#     4  10  19  31  50  75 103 130 163 205 254 300
#     4  12  22  34  52  74 100 134 172 210 246 292
#     4   9  16  28  47  75 104 127 153 199 257 309
#     4  10  21  35  50  73 102 135 169 208 248 294
#     4   9  19  33  52  75 102 130 162 205 258 305
#     4  10  20  32  48  74 107 135 167 205 250 300
#     4  11  17  25  49  76 105 132 160 193 251 306
#     4   9  18  32  50  76 103 128 159 206 257 303
#
# _framework density 8.2882999999999996
#
# number of rings (size 3 to 8) (size 9 to 14) (size 15 to 20)
#    0.000    2.133    1.333    4.800    1.867    1.067 
#    0.000    0.667    0.000    1.600    0.000    0.000 
#    0.000    0.000    0.000    0.000    0.000    0.000 
#
# Total GULP energy -167099.377531 kJ/mol
# GULP energy per Si atom -5569.979251 kJ/mol
# Density = 0.826944 g / cm^3
# Si number density = 8.288300 Si / 1000 Ang^3
#
#
#
# Elastic Constant Matrix: (Units=GPa)
#
#
# Indices 1 2 3 4 5 6 
#
# 1 57.0385 35.8999 13.8165 0.0000 -2.4971 0.0000
# 2 35.8999 103.9916 26.4149 0.0000 -5.1616 0.0000
# 3 13.8165 26.4149 35.8435 0.0000 -7.4427 0.0000
# 4 0.0000 0.0000 0.0000 29.4505 0.0000 -5.9478
# 5 -2.4971 -5.1616 -7.4427 0.0000 11.2681 0.0000
# 6 0.0000 0.0000 0.0000 -5.9478 0.0000 18.7726
#
#
#
# Elastic Compliance Matrix: (Units=1/GPa)
#
#
# Indices 1 2 3 4 5 6 
#
# 1 0.022789 -0.006932 -0.003810 0.000000 -0.000641 0.000000
# 2 -0.006932 0.013941 -0.007643 0.000000 -0.000198 0.000000
# 3 -0.003810 -0.007643 0.039517 0.000000 0.021756 0.000000
# 4 0.000000 0.000000 0.000000 0.036276 0.000000 0.011494
# 5 -0.000641 -0.000198 0.021756 0.000000 0.102883 0.000000
# 6 0.000000 0.000000 0.000000 0.011494 0.000000 0.056911
#
#
# Mechanical properties :
#
#
# Convention : Reuss Voigt Hill
#
# Bulk Modulus (GPa) = 25.32949 38.79291 32.06120
# Shear Modulus (GPa) = 15.51612 19.94773 17.73192
#
# Velocity S-wave (km/s) = 3.06277 3.47272 3.27417
# Velocity P-wave (km/s) = 5.27455 6.28751 5.80317
#
# Compressibility (1/GPa) = 0.03947968
#
# Stress axis : x y z
#
# Youngs Moduli (GPa) = 43.88004 71.73312 25.30533
#
# Poissons Ratio (x) = 0.49722 0.09640
# Poissons Ratio (y) = 0.30416 0.19340
# Poissons Ratio (z) = 0.16716 0.54824
#
# Static dielectric constant tensor:
#      x y z
#    x 1.572660 0.000000 -0.009220 
#    y 0.000000 1.575290 0.000000 
#    z -0.009220 0.000000 1.572090 
# 
# From -- ./inp_files/233466.got.cif
#   From: 2010.05.17/outbox.ucp.g08.bks.cvg/sg12_117_cif.got.tgz:233466.got - 2010.06.11 11:47:21.
