data_PCOD9223152
_publ_section_title
;
Structure prediction by ZEFSAII (Michael W. Deem and Ramdas Pophale) SiO2 
 PCOD9223152
Probable space group: C 2/M
;
_chemical_formula_sum "Si O2"
_cell_formula_units_Z 48
_cell_length_a 10.558984
_cell_length_b 31.391289
_cell_length_c 10.083389
_cell_angle_alpha 90.000000
_cell_angle_beta 43.836894
_cell_angle_gamma 90.000000
_cell_volume 2314.862359
_symmetry_space_group_name_H-M "C 2/M"
_symmetry_group_IT_number 12
_symmetry_cell_setting 'monoclinic'
loop_
_space_group_symop_operation_xyz
x,y,z
-x,y,-z
-x,-y,-z
x,-y,z
1/2+x,1/2+y,z
1/2-x,1/2+y,-z
1/2-x,1/2-y,-z
1/2+x,1/2-y,z
loop_
_atom_site_type_symbol
_atom_site_label
_atom_site_fract_x
_atom_site_fract_y
_atom_site_fract_z
Si Si1 0.474236 0.954438 0.862898
Si Si2 0.609873 0.778181 0.189357
Si Si3 0.362329 0.280164 0.231006
Si Si4 0.205500 0.127041 0.646502
Si Si5 0.114749 0.626459 0.212735
Si Si6 0.109538 0.951836 0.554096
O O1 0.367836 0.913329 0.896024
O O2 0.675677 0.953405 0.646155
O O3 0.388348 0.000000 0.891253
O O4 0.500000 0.953161 0.000000
O O5 0.419044 0.758535 0.283881
O O6 0.670379 0.775745 0.297546
O O7 0.635098 0.827425 0.132703
O O8 0.750000 0.750000 0.000000
O O9 0.372118 0.324985 0.301443
O O10 0.500000 0.282453 0.000000
O O11 0.407773 0.127309 0.427559
O O12 0.245600 0.120660 0.771802
O O13 0.093846 0.088331 0.664909
O O14 0.000000 0.944597 0.500000
O O15 0.060301 0.000000 0.639374
#
# Coordination Sequence:
#
# PCOD9223152 Si02
#       6
#     8   8   8   8   8   8
#     4   9  18  33  53  78 105 134 172 217 261 310
#     4   9  18  33  50  71 101 136 170 211 258 304
#     4   9  18  34  51  73 102 134 171 216 259 311
#     4   9  18  34  52  75 102 133 171 214 260 306
#     4   9  18  33  54  75 103 135 171 216 256 307
#     4   9  18  35  54  75 106 139 171 213 263 317
#
# _framework density 20.735575999999998
#
# number of rings (size 3 to 8) (size 9 to 14) (size 15 to 20)
#    0.000    3.000    0.000    0.000    0.000    3.333 
#   15.000    3.333    0.000    0.500    0.000    0.000 
#    0.000    0.000    0.000    0.000    0.000    0.000 
#
# Total GULP energy -133779.704017 kJ/mol
# GULP energy per Si atom -5574.154334 kJ/mol
# Density = 2.068838 g / cm^3
# Si number density = 20.735576 Si / 1000 Ang^3
#
#
#
# Elastic Constant Matrix: (Units=GPa)
#
#
# Indices 1 2 3 4 5 6 
#
# 1 77.2261 97.5038 2.0876 0.0000 11.1457 0.0000
# 2 97.5038 240.1366 21.4211 0.0000 33.1467 0.0000
# 3 2.0876 21.4211 44.2059 0.0000 -3.9092 0.0000
# 4 0.0000 0.0000 0.0000 -0.7931 0.0000 9.3580
# 5 11.1457 33.1467 -3.9092 0.0000 16.7607 0.0000
# 6 0.0000 0.0000 0.0000 9.3580 0.0000 -8.4184
#
#
#
# Elastic Compliance Matrix: (Units=1/GPa)
#
#
# Indices 1 2 3 4 5 6 
#
# 1 0.028116 -0.013119 0.005790 0.000000 0.008599 0.000000
# 2 -0.013119 0.012575 -0.007047 0.000000 -0.017789 0.000000
# 3 0.005790 -0.007047 0.027216 0.000000 0.016434 0.000000
# 4 0.000000 0.000000 0.000000 0.104065 0.000000 0.115680
# 5 0.008599 -0.017789 0.016434 0.000000 0.092958 0.000000
# 6 0.000000 0.000000 0.000000 0.115680 0.000000 0.009804
#
#
# Mechanical properties :
#
#
# Convention : Reuss Voigt Hill
#
# Bulk Modulus (GPa) = 25.54021 67.06595 46.30308
# Shear Modulus (GPa) = 15.79585 17.54691 16.67138
#
# Velocity S-wave (km/s) = 2.76302 2.91215 2.83856
# Velocity P-wave (km/s) = 4.74583 6.61219 5.75517
#
# Compressibility (1/GPa) = 0.03915395
#
# Stress axis : x y z
#
# Youngs Moduli (GPa) = 35.56748 79.52091 36.74279
#
# Poissons Ratio (x) = 1.04326 -0.21274
# Poissons Ratio (y) = 0.46662 0.25893
# Poissons Ratio (z) = -0.20594 0.56040
#
# Static dielectric constant tensor:
#      x y z
#    x 1.782830 0.000000 -0.087660 
#    y 0.000000 1.753130 0.000000 
#    z -0.087660 0.000000 1.816470 
# 
# From -- ./inp_files/52462.got.cif
#   From: 2010.05.17/outbox.cif.g08.bks.cpg/sg12_27_cif.got.tgz:52462.got - 2010.06.03 13:09:07.
