data_PCOD9223226
_publ_section_title
;
Structure prediction by ZEFSAII (Michael W. Deem and Ramdas Pophale) SiO2 
 PCOD9223226
Probable space group: C 2/M
;
_chemical_formula_sum "Si O2"
_cell_formula_units_Z 32
_cell_length_a 24.000000
_cell_length_b 9.000000
_cell_length_c 30.000000
_cell_angle_alpha 90.000000
_cell_angle_beta 30.000000
_cell_angle_gamma 90.000000
_cell_volume 3240.000000
_symmetry_space_group_name_H-M "C 2/M"
_symmetry_group_IT_number 12
_symmetry_cell_setting 'monoclinic'
loop_
_space_group_symop_operation_xyz
x,y,z
-x,y,-z
-x,-y,-z
x,-y,z
1/2+x,1/2+y,z
1/2-x,1/2+y,-z
1/2-x,1/2-y,-z
1/2+x,1/2-y,z
loop_
_atom_site_type_symbol
_atom_site_label
_atom_site_fract_x
_atom_site_fract_y
_atom_site_fract_z
Si Si1 0.731358 0.822572 0.774172
Si Si2 0.097753 0.173420 0.617204
Si Si3 0.519512 0.177056 0.149863
Si Si4 0.614053 0.326230 0.171569
Si Si5 0.233596 0.174609 0.863925
Si Si6 0.313729 0.822566 0.525970
Si Si7 0.507116 0.674671 0.066957
Si Si8 0.252789 0.177035 0.337280
O O1 0.774620 0.744567 0.788963
O O2 0.601470 0.775526 0.864044
O O3 0.776203 0.777540 0.693815
O O4 0.742714 0.000000 0.769966
O O5 0.199119 0.221391 0.579493
O O6 0.096132 0.262483 0.571975
O O7 0.989143 0.185851 0.722573
O O8 0.116269 0.000000 0.593256
O O9 0.584935 0.235590 0.147432
O O10 0.552938 0.270353 0.083082
O O11 0.386337 0.203834 0.249544
O O12 0.534424 0.000000 0.132790
O O13 0.631129 0.500000 0.149177
O O14 0.713521 0.257523 0.130825
O O15 0.259833 0.000000 0.846664
O O16 0.100955 0.190005 0.964209
O O17 0.309474 0.755002 0.578469
O O18 0.318416 0.000000 0.525882
O O19 0.475364 0.500000 0.091102
O O20 0.235259 0.000000 0.352654
#
# Coordination Sequence:
#
# PCOD9223226 Si02
#       8
#     8   8   8   8   8   8   8   8
#     4  10  21  37  58  83 107 138 180 226 273 316
#     4   9  19  33  49  76 110 142 175 212 260 315
#     4  10  20  34  54  80 109 142 179 220 270 321
#     4  11  22  37  56  77 108 147 182 220 265 321
#     4  11  24  39  55  78 106 143 184 223 270 321
#     4  10  18  29  51  81 109 139 175 213 259 312
#     4  10  21  37  57  80 108 139 177 226 274 319
#     4   9  18  32  52  79 110 139 170 216 268 315
#
# _framework density 9.8765429999999999
#
# number of rings (size 3 to 8) (size 9 to 14) (size 15 to 20)
#    0.000    2.000    1.250    3.375    0.000    8.000 
#    0.000    0.000    0.000    0.750    0.000    5.250 
#    0.000    0.000    0.000    0.000    0.000    0.000 
#
# Total GULP energy -178623.742366 kJ/mol
# GULP energy per Si atom -5581.991949 kJ/mol
# Density = 0.985406 g / cm^3
# Si number density = 9.876543 Si / 1000 Ang^3
#
#
#
# Elastic Constant Matrix: (Units=GPa)
#
#
# Indices 1 2 3 4 5 6 
#
# 1 45.4762 -8.0320 2.8754 0.0025 19.5029 -0.0049
# 2 -8.0320 36.9033 11.7425 0.0043 10.9313 -0.0123
# 3 2.8754 11.7425 20.7694 -0.0001 21.7961 -0.0010
# 4 0.0025 0.0043 -0.0001 24.5947 0.0005 10.5971
# 5 19.5029 10.9313 21.7961 0.0005 35.7403 -0.0001
# 6 -0.0049 -0.0123 -0.0010 10.5971 -0.0001 32.5453
#
#
#
# Elastic Compliance Matrix: (Units=1/GPa)
#
#
# Indices 1 2 3 4 5 6 
#
# 1 0.045667 0.011942 0.046973 -0.000013 -0.057218 0.000017
# 2 0.011942 0.036330 -0.010261 -0.000016 -0.011371 0.000020
# 3 0.046973 -0.010261 0.197360 -0.000004 -0.142853 0.000010
# 4 -0.000013 -0.000016 -0.000004 0.047294 0.000013 -0.015400
# 5 -0.057218 -0.011371 -0.142853 0.000013 0.149799 -0.000021
# 6 0.000017 0.000020 0.000010 -0.015400 -0.000021 0.035741
#
#
# Mechanical properties :
#
#
# Convention : Reuss Voigt Hill
#
# Bulk Modulus (GPa) = 2.65488 12.92453 7.78970
# Shear Modulus (GPa) = 9.25174 25.01358 17.13266
#
# Velocity S-wave (km/s) = 2.16653 3.56239 2.94826
# Velocity P-wave (km/s) = 2.75780 4.84542 3.94230
#
# Compressibility (1/GPa) = 0.37666461
#
# Stress axis : x y z
#
# Youngs Moduli (GPa) = 21.89750 27.52539 5.06689
#
# Poissons Ratio (x) = -0.32870 -0.23800
# Poissons Ratio (y) = -0.26150 0.05199
# Poissons Ratio (z) = -1.02858 0.28243
#
# Static dielectric constant tensor:
#      x y z
#    x 1.729950 0.000000 -0.024980 
#    y 0.000000 1.658390 0.000000 
#    z -0.024980 0.000000 1.717490 
# 
# From -- ./inp_files/238579.got.cif
#   From: 2010.05.17/outbox.ucp.g08.bks.cvg/sg12_120_cif.got.tgz:238579.got - 2010.06.11 11:47:21.
