data_PCOD9223571
_publ_section_title
;
Structure prediction by ZEFSAII (Michael W. Deem and Ramdas Pophale) SiO2 
 PCOD9223571
Probable space group: C 2/M
;
_chemical_formula_sum "Si O2"
_cell_formula_units_Z 32
_cell_length_a 24.000000
_cell_length_b 9.000000
_cell_length_c 30.000000
_cell_angle_alpha 90.000000
_cell_angle_beta 30.000000
_cell_angle_gamma 90.000000
_cell_volume 3240.000000
_symmetry_space_group_name_H-M "C 2/M"
_symmetry_group_IT_number 12
_symmetry_cell_setting 'monoclinic'
loop_
_space_group_symop_operation_xyz
x,y,z
-x,y,-z
-x,-y,-z
x,-y,z
1/2+x,1/2+y,z
1/2-x,1/2+y,-z
1/2-x,1/2-y,-z
1/2+x,1/2-y,z
loop_
_atom_site_type_symbol
_atom_site_label
_atom_site_fract_x
_atom_site_fract_y
_atom_site_fract_z
Si Si1 0.344274 0.176487 0.217711
Si Si2 0.499586 0.321254 0.257456
Si Si3 0.720595 0.677093 0.160643
Si Si4 0.941919 0.169368 0.966309
Si Si5 0.196319 0.675664 0.651310
Si Si6 0.136916 0.835079 0.079885
Si Si7 0.842043 0.324627 0.705138
Si Si8 0.063312 0.677484 0.501685
O O1 0.444266 0.235456 0.116317
O O2 0.357579 0.198463 0.261776
O O3 0.235324 0.272126 0.281740
O O4 0.329181 0.000000 0.220789
O O5 0.484275 0.500000 0.270274
O O6 0.601082 0.281993 0.220545
O O7 0.378194 0.247794 0.336570
O O8 0.554537 0.270963 0.172869
O O9 0.734730 0.500000 0.146068
O O10 0.702665 0.728333 0.223257
O O11 0.832905 0.755960 0.064207
O O12 0.911758 0.158050 0.935183
O O13 0.959886 0.000000 0.970818
O O14 0.320532 0.743016 0.568757
O O15 0.297228 0.000000 0.360409
O O16 0.162552 0.000000 0.078722
O O17 0.250000 0.750000 0.000000
O O18 0.827011 0.500000 0.723800
O O19 0.970916 0.298036 0.604052
O O20 0.083355 0.500000 0.483745
O O21 0.000000 0.725447 0.500000
#
# Coordination Sequence:
#
# PCOD9223571 Si02
#       8
#     8   8   8   8   8   8   8   8
#     4  11  23  38  59  91 127 160 196 248 307 358
#     4  10  21  38  59  85 122 165 204 244 299 359
#     4  11  24  42  62  86 122 167 208 249 297 355
#     4  11  22  36  58  88 122 162 206 251 296 353
#     4  11  23  36  60  97 129 155 193 252 308 357
#     4  10  19  31  52  82 115 153 199 249 294 344
#     4  11  24  43  66  90 118 157 203 248 299 367
#     4  10  21  40  67  94 121 154 194 245 307 370
#
# _framework density 9.8765429999999999
#
# number of rings (size 3 to 8) (size 9 to 14) (size 15 to 20)
#    0.000    1.375    3.750    1.875    0.000    4.750 
#    0.000    3.125    0.000    0.000    0.000    0.000 
#    0.000    0.000    0.000    0.000    0.000    0.000 
#
# Total GULP energy -178370.755365 kJ/mol
# GULP energy per Si atom -5574.086105 kJ/mol
# Density = 0.985406 g / cm^3
# Si number density = 9.876543 Si / 1000 Ang^3
#
#
#
# Elastic Constant Matrix: (Units=GPa)
#
#
# Indices 1 2 3 4 5 6 
#
# 1 27.2081 12.4584 10.2255 -0.0004 -13.0650 0.0002
# 2 12.4584 42.2863 28.1421 -0.0027 -15.4083 0.0041
# 3 10.2255 28.1421 64.4462 0.0028 -28.1338 0.0002
# 4 -0.0004 -0.0027 0.0028 32.5094 0.0012 -7.1675
# 5 -13.0650 -15.4083 -28.1338 0.0012 37.0135 -0.0010
# 6 0.0002 0.0041 0.0002 -7.1675 -0.0010 25.0200
#
#
#
# Elastic Compliance Matrix: (Units=1/GPa)
#
#
# Indices 1 2 3 4 5 6 
#
# 1 0.047658 -0.011120 0.003916 -0.000001 0.015170 0.000002
# 2 -0.011120 0.036375 -0.013803 0.000003 0.000726 -0.000005
# 3 0.003916 -0.013803 0.028462 -0.000004 0.017270 0.000002
# 4 -0.000001 0.000003 -0.000004 0.032834 -0.000003 0.009406
# 5 0.015170 0.000726 0.017270 -0.000003 0.045801 0.000001
# 6 0.000002 -0.000005 0.000002 0.009406 0.000001 0.042663
#
#
# Mechanical properties :
#
#
# Convention : Reuss Voigt Hill
#
# Bulk Modulus (GPa) = 14.18788 26.17697 20.18242
# Shear Modulus (GPa) = 16.70570 24.44957 20.57764
#
# Velocity S-wave (km/s) = 2.91129 3.52200 3.23111
# Velocity P-wave (km/s) = 4.30105 5.46078 4.91524
#
# Compressibility (1/GPa) = 0.07048271
#
# Stress axis : x y z
#
# Youngs Moduli (GPa) = 20.98283 27.49153 35.13459
#
# Poissons Ratio (x) = 0.30570 -0.13760
# Poissons Ratio (y) = 0.23332 0.48495
# Poissons Ratio (z) = -0.08218 0.37946
#
# Static dielectric constant tensor:
#      x y z
#    x 1.740590 0.000000 0.067220 
#    y 0.000000 1.718150 0.000010 
#    z 0.067220 0.000010 1.973960 
# 
# From -- ./inp_files/382218.got.cif
#   From: 2010.05.17/outbox.ucp.g08.bks.cvg/sg12_192_cif.got.tgz:382218.got - 2010.06.11 11:47:21.
