data_PCOD9223010
_publ_section_title
;
Structure prediction by ZEFSAII (Michael W. Deem and Ramdas Pophale) SiO2 
 PCOD9223010
Probable space group: C 2/M
;
_chemical_formula_sum "Si O2"
_cell_formula_units_Z 48
_cell_length_a 15.791077
_cell_length_b 7.538859
_cell_length_c 14.903971
_cell_angle_alpha 90.000000
_cell_angle_beta 77.274875
_cell_angle_gamma 90.000000
_cell_volume 1730.689102
_symmetry_space_group_name_H-M "C 2/M"
_symmetry_group_IT_number 12
_symmetry_cell_setting 'monoclinic'
loop_
_space_group_symop_operation_xyz
x,y,z
-x,y,-z
-x,-y,-z
x,-y,z
1/2+x,1/2+y,z
1/2-x,1/2+y,-z
1/2-x,1/2-y,-z
1/2+x,1/2-y,z
loop_
_atom_site_type_symbol
_atom_site_label
_atom_site_fract_x
_atom_site_fract_y
_atom_site_fract_z
Si Si1 0.947693 0.712887 0.686724
Si Si2 0.321719 0.294862 0.350666
Si Si3 0.866864 0.209694 0.526513
Si Si4 0.260887 0.788110 0.802934
Si Si5 0.639799 0.787058 0.977785
Si Si6 0.495074 0.783668 0.143375
O O1 0.949597 0.500000 0.684930
O O2 0.939931 0.769747 0.585629
O O3 0.855241 0.774042 0.750728
O O4 0.012481 0.772392 0.751117
O O5 0.345142 0.500000 0.334428
O O6 0.221856 0.290627 0.412691
O O7 0.375895 0.217281 0.422510
O O8 0.306102 0.211197 0.256081
O O9 0.852716 0.000000 0.520170
O O10 0.232193 0.759348 0.912090
O O11 0.262346 0.000000 0.791503
O O12 0.576550 0.724485 0.910823
O O13 0.638848 0.000000 0.982199
O O14 0.587065 0.727045 0.077542
O O15 0.494377 0.000000 0.142879
#
# Coordination Sequence:
#
# PCOD9223010 Si02
#       6
#     8   8   8   8   8   8
#     4   9  17  30  46  64  90 121 146 174 220 268
#     4   8  15  27  41  59  89 124 147 169 213 266
#     4   9  15  24  41  65  89 113 147 185 213 247
#     4   9  17  28  43  66  93 117 140 172 220 269
#     4   9  17  31  50  67  83 111 152 188 215 254
#     4   8  16  32  50  64  83 116 152 181 216 263
#
# _framework density 27.734617
#
# number of rings (size 3 to 8) (size 9 to 14) (size 15 to 20)
#    0.000    3.333    0.000    2.500    0.000    4.000 
#    0.000    3.333    0.000    1.000    0.000    7.000 
#    0.000    0.000    0.000    0.000    0.000    0.000 
#
# Total GULP energy -134089.631254 kJ/mol
# GULP energy per Si atom -5587.067969 kJ/mol
# Density = 2.767149 g / cm^3
# Si number density = 27.734617 Si / 1000 Ang^3
#
#
#
# Elastic Constant Matrix: (Units=GPa)
#
#
# Indices 1 2 3 4 5 6 
#
# 1 52.1387 7.4245 -11.0357 0.0000 0.3691 0.0000
# 2 7.4245 94.5959 6.2415 0.0000 -0.8439 0.0000
# 3 -11.0357 6.2415 219.2607 0.0000 -5.7937 0.0000
# 4 0.0000 0.0000 0.0000 25.1205 0.0000 -4.9621
# 5 0.3691 -0.8439 -5.7937 0.0000 55.6042 0.0000
# 6 0.0000 0.0000 0.0000 -4.9621 0.0000 11.9756
#
#
#
# Elastic Compliance Matrix: (Units=1/GPa)
#
#
# Indices 1 2 3 4 5 6 
#
# 1 0.019628 -0.001609 0.001032 0.000000 -0.000047 0.000000
# 2 -0.001609 0.010724 -0.000383 0.000000 0.000134 0.000000
# 3 0.001032 -0.000383 0.004636 0.000000 0.000470 0.000000
# 4 0.000000 0.000000 0.000000 0.043357 0.000000 0.017965
# 5 -0.000047 0.000134 0.000470 0.000000 0.018036 0.000000
# 6 0.000000 0.000000 0.000000 0.017965 0.000000 0.090947
#
#
# Mechanical properties :
#
#
# Convention : Reuss Voigt Hill
#
# Bulk Modulus (GPa) = 30.23977 41.25066 35.74522
# Shear Modulus (GPa) = 24.96647 42.76439 33.86543
#
# Velocity S-wave (km/s) = 3.00357 3.93098 3.49815
# Velocity P-wave (km/s) = 4.79119 5.95895 5.40669
#
# Compressibility (1/GPa) = 0.03306903
#
# Stress axis : x y z
#
# Youngs Moduli (GPa) = 50.94862 93.24863 215.69994
#
# Poissons Ratio (x) = 0.15004 -0.22270
# Poissons Ratio (y) = 0.08198 0.08255
# Poissons Ratio (z) = -0.05260 0.03569
#
# Static dielectric constant tensor:
#      x y z
#    x 2.365560 0.000000 0.038150 
#    y 0.000000 2.008930 0.000000 
#    z 0.038150 0.000000 2.185790 
# 
# From -- ./inp_files/229314.got.cif
#   From: 2010.05.17/outbox.cif.g08.bks.cpg/sg12_115_cif.got.tgz:229314.got - 2010.06.03 13:09:07.
