data_PCOD9223550
_publ_section_title
;
Structure prediction by ZEFSAII (Michael W. Deem and Ramdas Pophale) SiO2 
 PCOD9223550
Probable space group: C 2/M
;
_chemical_formula_sum "Si O2"
_cell_formula_units_Z 32
_cell_length_a 27.000000
_cell_length_b 18.000000
_cell_length_c 21.000000
_cell_angle_alpha 90.000000
_cell_angle_beta 20.000000
_cell_angle_gamma 90.000000
_cell_volume 3490.657583
_symmetry_space_group_name_H-M "C 2/M"
_symmetry_group_IT_number 12
_symmetry_cell_setting 'monoclinic'
loop_
_space_group_symop_operation_xyz
x,y,z
-x,y,-z
-x,-y,-z
x,-y,z
1/2+x,1/2+y,z
1/2-x,1/2+y,-z
1/2-x,1/2-y,-z
1/2+x,1/2-y,z
loop_
_atom_site_type_symbol
_atom_site_label
_atom_site_fract_x
_atom_site_fract_y
_atom_site_fract_z
Si Si1 0.424100 0.689473 0.737133
Si Si2 0.863028 0.841208 0.204031
Si Si3 0.127096 0.732498 0.393610
Si Si4 0.908203 0.688487 0.859554
Si Si5 0.567905 0.769654 0.037228
Si Si6 0.807386 0.412433 0.477898
Si Si7 0.135697 0.087132 0.558222
Si Si8 0.443970 0.082615 0.138904
O O1 0.531605 0.706679 0.547945
O O2 0.409677 0.768372 0.791010
O O3 0.505640 0.633848 0.686500
O O4 0.258145 0.663300 0.926043
O O5 0.726441 0.813754 0.325376
O O6 0.790963 0.894168 0.342556
O O7 0.950892 0.775164 0.135599
O O8 0.000000 0.875172 0.000000
O O9 0.000000 0.698599 0.500000
O O10 0.264867 0.759834 0.185502
O O11 0.943628 0.746077 0.874096
O O12 0.039223 0.629699 0.701702
O O13 0.524250 0.855125 0.081504
O O14 0.832133 0.500000 0.441780
O O15 0.711257 0.387801 0.532959
O O16 0.272176 0.094324 0.345780
O O17 0.097332 0.000000 0.610885
O O18 0.469757 0.000000 0.133667
O O19 0.500000 0.087091 0.000000
#
# Coordination Sequence:
#
# PCOD9223550 Si02
#       8
#     8   8   8   8   8   8   8   8
#     4  11  22  38  56  84 117 153 195 230 294 342
#     4  10  22  38  62  88 113 152 188 248 298 348
#     4  11  21  36  57  86 121 152 193 243 282 343
#     4  11  23  35  59  86 113 153 188 244 287 346
#     4  11  20  35  58  88 112 148 195 236 291 342
#     4  11  23  40  61  88 116 151 197 243 297 348
#     4  10  21  36  57  82 113 151 191 239 283 337
#     4  10  19  31  50  77 111 150 188 226 271 329
#
# _framework density 9.1673270000000002
#
# number of rings (size 3 to 8) (size 9 to 14) (size 15 to 20)
#    0.000    1.375    3.750    3.375    0.000    1.750 
#    0.000    0.000    0.000    1.125    0.000    0.000 
#    0.000    0.000    0.000    0.000    0.000    0.000 
#
# Total GULP energy -178200.008069 kJ/mol
# GULP energy per Si atom -5568.750252 kJ/mol
# Density = 0.914646 g / cm^3
# Si number density = 9.167327 Si / 1000 Ang^3
#
#
#
# Elastic Constant Matrix: (Units=GPa)
#
#
# Indices 1 2 3 4 5 6 
#
# 1 87.2792 16.4453 43.0717 -0.0003 -14.8369 0.0001
# 2 16.4453 22.6609 17.0922 0.0000 -0.6368 0.0000
# 3 43.0717 17.0922 101.9370 -0.0020 -4.2775 0.0013
# 4 -0.0003 0.0000 -0.0020 22.9578 0.0004 -2.2716
# 5 -14.8369 -0.6368 -4.2775 0.0004 43.8859 -0.0001
# 6 0.0001 0.0000 0.0013 -2.2716 -0.0001 23.4540
#
#
#
# Elastic Compliance Matrix: (Units=1/GPa)
#
#
# Indices 1 2 3 4 5 6 
#
# 1 0.016427 -0.007674 -0.005448 0.000000 0.004911 0.000000
# 2 -0.007674 0.054103 -0.005929 -0.000001 -0.002387 0.000000
# 3 -0.005448 -0.005929 0.013079 0.000001 -0.000653 -0.000001
# 4 0.000000 -0.000001 0.000001 0.043980 0.000000 0.004260
# 5 0.004911 -0.002387 -0.000653 0.000000 0.024348 0.000000
# 6 0.000000 0.000000 -0.000001 0.004260 0.000000 0.043049
#
#
# Mechanical properties :
#
#
# Convention : Reuss Voigt Hill
#
# Bulk Modulus (GPa) = 21.97513 40.56616 31.27065
# Shear Modulus (GPa) = 20.14038 27.07739 23.60889
#
# Velocity S-wave (km/s) = 3.31794 3.84714 3.59230
# Velocity P-wave (km/s) = 5.16623 6.47359 5.85650
#
# Compressibility (1/GPa) = 0.04550598
#
# Stress axis : x y z
#
# Youngs Moduli (GPa) = 60.87587 18.48324 76.45980
#
# Poissons Ratio (x) = 0.14184 0.41656
# Poissons Ratio (y) = 0.46715 0.45336
# Poissons Ratio (z) = 0.33166 0.10959
#
# Static dielectric constant tensor:
#      x y z
#    x 1.708070 0.000000 0.042570 
#    y 0.000000 1.626390 0.000000 
#    z 0.042570 0.000000 1.631280 
# 
# From -- ./inp_files/328600.got.cif
#   From: 2010.05.17/outbox.ucp.g08.bks.cvg/sg12_165_cif.got.tgz:328600.got - 2010.06.11 11:47:21.
