data_PCOD9223665
_publ_section_title
;
Structure prediction by ZEFSAII (Michael W. Deem and Ramdas Pophale) SiO2 
 PCOD9223665
Probable space group: C 2/M
;
_chemical_formula_sum "Si O2"
_cell_formula_units_Z 32
_cell_length_a 21.000000
_cell_length_b 9.000000
_cell_length_c 18.000000
_cell_angle_alpha 90.000000
_cell_angle_beta 90.000000
_cell_angle_gamma 90.000000
_cell_volume 3402.000000
_symmetry_space_group_name_H-M "C 2/M"
_symmetry_group_IT_number 12
_symmetry_cell_setting 'monoclinic'
loop_
_space_group_symop_operation_xyz
x,y,z
-x,y,-z
-x,-y,-z
x,-y,z
1/2+x,1/2+y,z
1/2-x,1/2+y,-z
1/2-x,1/2-y,-z
1/2+x,1/2-y,z
loop_
_atom_site_type_symbol
_atom_site_label
_atom_site_fract_x
_atom_site_fract_y
_atom_site_fract_z
Si Si1 0.636488 0.835002 0.835963
Si Si2 0.560238 0.322597 0.548071
Si Si3 0.934226 0.326109 0.026082
Si Si4 0.310903 0.672271 0.963053
Si Si5 0.188375 0.824927 0.464051
Si Si6 0.128794 0.332463 0.662442
Si Si7 0.737355 0.165717 0.163084
Si Si8 0.238973 0.332063 0.338086
O O1 0.575050 0.816089 0.885929
O O2 0.621009 0.834632 0.750202
O O3 0.689422 0.711558 0.850692
O O4 0.663805 0.000000 0.854970
O O5 0.500000 0.282110 0.500000
O O6 0.560070 0.500000 0.560194
O O7 0.623601 0.280168 0.503306
O O8 0.567462 0.235897 0.624188
O O9 0.931666 0.500000 0.004639
O O10 0.874303 0.244779 0.992855
O O11 0.000000 0.260640 0.000000
O O12 0.308980 0.500000 0.977181
O O13 0.304965 0.713105 0.876877
O O14 0.250000 0.750000 0.000000
O O15 0.250000 0.750000 0.500000
O O16 0.189800 0.771868 0.379638
O O17 0.194434 0.000000 0.469046
O O18 0.142050 0.500000 0.636397
O O19 0.190081 0.229638 0.648197
O O20 0.728648 0.168541 0.250716
O O21 0.724114 0.000000 0.134916
O O22 0.234548 0.500000 0.366144
#
# Coordination Sequence:
#
# PCOD9223665 Si02
#       8
#     8   8   8   8   8   8   8   8
#     4   9  18  33  54  81 111 144 183 228 278 335
#     4  10  22  39  56  77 109 149 187 225 275 333
#     4  10  21  38  59  83 115 154 191 230 282 340
#     4  12  23  36  57  84 114 147 188 236 284 335
#     4  11  21  34  56  82 110 143 182 228 277 328
#     4  10  19  32  54  82 109 141 184 231 278 329
#     4  10  20  34  55  83 112 146 185 231 284 334
#     4  10  20  34  54  82 114 145 183 229 281 336
#
# _framework density 9.4062319999999993
#
# number of rings (size 3 to 8) (size 9 to 14) (size 15 to 20)
#    0.000    1.750    2.500    2.625    0.000    3.000 
#    0.000    1.250    0.000    4.500    0.000    0.000 
#    0.000    0.000    0.000    0.000    0.000    0.000 
#
# Total GULP energy -178328.271442 kJ/mol
# GULP energy per Si atom -5572.758483 kJ/mol
# Density = 0.938482 g / cm^3
# Si number density = 9.406232 Si / 1000 Ang^3
#
#
#
# Elastic Constant Matrix: (Units=GPa)
#
#
# Indices 1 2 3 4 5 6 
#
# 1 91.5748 46.3010 38.0165 0.0000 0.0043 0.0000
# 2 46.3010 33.8078 18.5287 0.0000 0.7628 0.0000
# 3 38.0165 18.5287 53.8622 0.0000 -1.7564 0.0000
# 4 0.0000 0.0000 0.0000 21.1462 0.0000 4.5651
# 5 0.0043 0.7628 -1.7564 0.0000 18.6768 0.0000
# 6 0.0000 0.0000 0.0000 4.5651 0.0000 17.7331
#
#
#
# Elastic Compliance Matrix: (Units=1/GPa)
#
#
# Indices 1 2 3 4 5 6 
#
# 1 0.040818 -0.049477 -0.011760 0.000000 0.000905 0.000000
# 2 -0.049477 0.096559 0.001582 0.000000 -0.003784 0.000000
# 3 -0.011760 0.001582 0.026401 0.000000 0.002421 0.000000
# 4 0.000000 0.000000 0.000000 0.050073 0.000000 -0.012890
# 5 0.000905 -0.003784 0.002421 0.000000 0.053924 0.000000
# 6 0.000000 0.000000 0.000000 -0.012890 0.000000 0.059710
#
#
# Mechanical properties :
#
#
# Convention : Reuss Voigt Hill
#
# Bulk Modulus (GPa) = 22.48874 42.77081 32.62977
# Shear Modulus (GPa) = 10.83145 16.60445 13.71795
#
# Velocity S-wave (km/s) = 2.40210 2.97413 2.70329
# Velocity P-wave (km/s) = 4.43549 5.88036 5.20827
#
# Compressibility (1/GPa) = 0.04446670
#
# Stress axis : x y z
#
# Youngs Moduli (GPa) = 24.49880 10.35640 37.87727
#
# Poissons Ratio (x) = 0.51241 0.44544
# Poissons Ratio (y) = 1.21214 -0.05992
# Poissons Ratio (z) = 0.28811 -0.01638
#
# Static dielectric constant tensor:
#      x y z
#    x 1.614830 0.000000 -0.010160 
#    y 0.000000 1.661120 0.000000 
#    z -0.010160 0.000000 1.791630 
# 
# From -- ./inp_files/281413.got.cif
#   From: 2010.05.17/outbox.ucp.g08.bks.cvg/sg12_141_cif.got.tgz:281413.got - 2010.06.11 11:47:21.
