data_PCOD9223207
_publ_section_title
;
Structure prediction by ZEFSAII (Michael W. Deem and Ramdas Pophale) SiO2 
 PCOD9223207
Probable space group: C 2/M
;
_chemical_formula_sum "Si O2"
_cell_formula_units_Z 24
_cell_length_a 24.000000
_cell_length_b 9.000000
_cell_length_c 21.000000
_cell_angle_alpha 90.000000
_cell_angle_beta 40.000000
_cell_angle_gamma 90.000000
_cell_volume 2915.684598
_symmetry_space_group_name_H-M "C 2/M"
_symmetry_group_IT_number 12
_symmetry_cell_setting 'monoclinic'
loop_
_space_group_symop_operation_xyz
x,y,z
-x,y,-z
-x,-y,-z
x,-y,z
1/2+x,1/2+y,z
1/2-x,1/2+y,-z
1/2-x,1/2-y,-z
1/2+x,1/2-y,z
loop_
_atom_site_type_symbol
_atom_site_label
_atom_site_fract_x
_atom_site_fract_y
_atom_site_fract_z
Si Si1 0.919562 0.677957 0.117308
Si Si2 0.237441 0.677451 0.276484
Si Si3 0.268884 0.677907 0.582068
Si Si4 0.085161 0.821595 0.741781
Si Si5 0.952200 0.177936 0.361720
Si Si6 0.049903 0.676374 0.391862
O O1 0.905870 0.500000 0.133069
O O2 0.830168 0.757538 0.173738
O O3 0.938323 0.742265 0.171516
O O4 0.000000 0.706840 0.000000
O O5 0.246038 0.500000 0.281774
O O6 0.214754 0.767389 0.360397
O O7 0.153153 0.698594 0.306832
O O8 0.254306 0.500000 0.592264
O O9 0.182554 0.767500 0.640548
O O10 0.353323 0.716304 0.467547
O O11 0.030864 0.780105 0.726480
O O12 0.083780 0.000000 0.751044
O O13 0.012458 0.248829 0.361979
O O14 0.958593 0.000000 0.360152
O O15 0.033349 0.500000 0.402753
O O16 0.000000 0.729168 0.500000
#
# Coordination Sequence:
#
# PCOD9223207 Si02
#       6
#     8   8   8   8   8   8
#     4  10  21  37  57  79 100 125 162 211 264 310
#     4  10  19  32  51  76 103 133 171 210 248 293
#     4  10  18  29  46  70 101 137 172 204 245 293
#     4  10  20  33  49  73 102 131 168 209 253 302
#     4  10  21  32  46  71 103 140 174 205 244 293
#     4  10  20  33  49  72 104 141 177 208 241 288
#
# _framework density 8.2313430000000007
#
# number of rings (size 3 to 8) (size 9 to 14) (size 15 to 20)
#    0.000    2.000    1.667    4.500    0.000    5.000 
#    0.000    0.000    0.000    1.000    0.000    0.000 
#    0.000    0.000    0.000    0.000    0.000    0.000 
#
# Total GULP energy -133791.620783 kJ/mol
# GULP energy per Si atom -5574.650866 kJ/mol
# Density = 0.821261 g / cm^3
# Si number density = 8.231343 Si / 1000 Ang^3
#
#
#
# Elastic Constant Matrix: (Units=GPa)
#
#
# Indices 1 2 3 4 5 6 
#
# 1 105.0535 18.5179 52.0059 0.0001 15.1240 -0.0001
# 2 18.5179 34.5165 36.6157 -0.0005 3.1896 0.0002
# 3 52.0059 36.6157 98.5207 0.0000 -1.7593 0.0001
# 4 0.0001 -0.0005 0.0000 23.1903 0.0001 -4.6216
# 5 15.1240 3.1896 -1.7593 0.0001 5.9010 0.0000
# 6 -0.0001 0.0002 0.0001 -4.6216 0.0000 25.0481
#
#
#
# Elastic Compliance Matrix: (Units=1/GPa)
#
#
# Indices 1 2 3 4 5 6 
#
# 1 0.037412 0.023031 -0.030404 0.000001 -0.117398 0.000000
# 2 0.023031 0.068551 -0.039561 0.000002 -0.107874 0.000000
# 3 -0.030404 -0.039561 0.042904 -0.000001 0.112099 0.000000
# 4 0.000001 0.000002 -0.000001 0.044768 -0.000004 0.008260
# 5 -0.117398 -0.107874 0.112099 -0.000004 0.562076 0.000000
# 6 0.000000 0.000000 0.000000 0.008260 0.000000 0.041447
#
#
# Mechanical properties :
#
#
# Convention : Reuss Voigt Hill
#
# Bulk Modulus (GPa) = 18.18230 50.26329 34.22279
# Shear Modulus (GPa) = 5.49837 19.55797 12.52817
#
# Velocity S-wave (km/s) = 1.82952 3.45050 2.76162
# Velocity P-wave (km/s) = 3.94099 6.81708 5.56794
#
# Compressibility (1/GPa) = 0.05499855
#
# Stress axis : x y z
#
# Youngs Moduli (GPa) = 26.72944 14.58765 23.30766
#
# Poissons Ratio (x) = -0.33597 0.70866
# Poissons Ratio (y) = -0.61560 0.92207
# Poissons Ratio (z) = 0.81269 0.57710
#
# Static dielectric constant tensor:
#      x y z
#    x 1.586940 0.000000 0.003850 
#    y 0.000000 1.546270 0.000000 
#    z 0.003850 0.000000 1.538630 
# 
# From -- ./inp_files/323518.got.cif
#   From: 2010.05.17/outbox.ucp.g08.bks.cvg/sg12_162_cif.got.tgz:323518.got - 2010.06.11 11:47:21.
