data_PCOD9223850
_publ_section_title
;
Structure prediction by ZEFSAII (Michael W. Deem and Ramdas Pophale) SiO2 
 PCOD9223850
Probable space group: C 2/M
;
_chemical_formula_sum "Si O2"
_cell_formula_units_Z 20
_cell_length_a 21.000000
_cell_length_b 12.000000
_cell_length_c 18.000000
_cell_angle_alpha 90.000000
_cell_angle_beta 150.000000
_cell_angle_gamma 90.000000
_cell_volume 2268.000000
_symmetry_space_group_name_H-M "C 2/M"
_symmetry_group_IT_number 12
_symmetry_cell_setting 'monoclinic'
loop_
_space_group_symop_operation_xyz
x,y,z
-x,y,-z
-x,-y,-z
x,-y,z
1/2+x,1/2+y,z
1/2-x,1/2+y,-z
1/2-x,1/2-y,-z
1/2+x,1/2-y,z
loop_
_atom_site_type_symbol
_atom_site_label
_atom_site_fract_x
_atom_site_fract_y
_atom_site_fract_z
Si Si1 0.299277 0.000000 0.243910
Si Si2 0.626435 0.775897 0.426043
Si Si3 0.084596 0.500000 0.473038
Si Si4 0.012369 0.629755 0.845455
Si Si5 0.636330 0.278585 0.095540
Si Si6 0.239938 0.126908 0.655947
O O1 0.210397 0.890324 0.145967
O O2 0.429754 0.000000 0.326522
O O3 0.352590 0.000000 0.382238
O O4 0.750000 0.750000 0.500000
O O5 0.510552 0.798051 0.252220
O O6 0.631794 0.678936 0.493216
O O7 0.632945 0.891713 0.477542
O O8 0.049749 0.500000 0.869379
O O9 0.873040 0.623675 0.744137
O O10 0.101497 0.696606 0.992259
O O11 0.727147 0.209649 0.243435
O O12 0.500000 0.302892 0.000000
O O13 0.211669 0.000000 0.650129
#
# Coordination Sequence:
#
# PCOD9223850 Si02
#       6
#     4   8   4   8   8   8
#     4  11  23  38  58  84 119 158 193 233 294 351
#     4  10  19  34  58  84 110 146 192 243 283 343
#     4  11  22  40  62  82 115 156 195 233 293 359
#     4   9  17  30  52  81 111 146 183 236 295 335
#     4  10  19  34  54  85 114 149 195 241 279 340
#     4   9  17  30  51  82 114 141 185 241 286 331
#
# _framework density 8.8183419999999995
#
# number of rings (size 3 to 8) (size 9 to 14) (size 15 to 20)
#    0.000    2.200    3.000    0.900    1.400    2.400 
#    1.800    1.000    0.000    3.600    0.000    0.000 
#    0.000    0.000    0.000    0.000    0.000    0.000 
#
# Total GULP energy -111411.507142 kJ/mol
# GULP energy per Si atom -5570.575357 kJ/mol
# Density = 0.879827 g / cm^3
# Si number density = 8.818342 Si / 1000 Ang^3
#
#
#
# Elastic Constant Matrix: (Units=GPa)
#
#
# Indices 1 2 3 4 5 6 
#
# 1 44.6414 35.7415 25.8284 0.0000 -6.3028 0.0000
# 2 35.7415 150.8481 55.7088 0.0000 -3.2775 0.0000
# 3 25.8284 55.7088 93.9717 0.0000 -23.3381 0.0000
# 4 0.0000 0.0000 0.0000 32.3486 0.0000 -9.8190
# 5 -6.3028 -3.2775 -23.3381 0.0000 29.2475 0.0000
# 6 0.0000 0.0000 0.0000 -9.8190 0.0000 18.4678
#
#
#
# Elastic Compliance Matrix: (Units=1/GPa)
#
#
# Indices 1 2 3 4 5 6 
#
# 1 0.029526 -0.005322 -0.004400 0.000000 0.002255 0.000000
# 2 -0.005322 0.009803 -0.005439 0.000000 -0.004388 0.000000
# 3 -0.004400 -0.005439 0.018319 0.000000 0.013060 0.000000
# 4 0.000000 0.000000 0.000000 0.036862 0.000000 0.019599
# 5 0.002255 -0.004388 0.013060 0.000000 0.044606 0.000000
# 6 0.000000 0.000000 0.000000 0.019599 0.000000 0.064569
#
#
# Mechanical properties :
#
#
# Convention : Reuss Voigt Hill
#
# Bulk Modulus (GPa) = 36.59512 58.22432 47.40972
# Shear Modulus (GPa) = 20.56640 27.49162 24.02901
#
# Velocity S-wave (km/s) = 3.41855 3.95242 3.69514
# Velocity P-wave (km/s) = 6.03129 7.34259 6.71901
#
# Compressibility (1/GPa) = 0.02732605
#
# Stress axis : x y z
#
# Youngs Moduli (GPa) = 33.86871 102.00638 54.58936
#
# Poissons Ratio (x) = 0.54285 0.24021
# Poissons Ratio (y) = 0.18024 0.29690
# Poissons Ratio (z) = 0.14903 0.55479
#
# Static dielectric constant tensor:
#      x y z
#    x 1.614520 0.000000 -0.036820 
#    y 0.000000 1.589580 0.000000 
#    z -0.036820 0.000000 1.598950 
# 
# From -- ./inp_files/283421.got.cif
#   From: 2010.05.17/outbox.ucp.g08.bks.cvg/sg12_142_cif.got.tgz:283421.got - 2010.06.11 11:47:21.
