data_PCOD9223393
_publ_section_title
;
Structure prediction by ZEFSAII (Michael W. Deem and Ramdas Pophale) SiO2 
 PCOD9223393
Probable space group: C 2/M
;
_chemical_formula_sum "Si O2"
_cell_formula_units_Z 32
_cell_length_a 30.000000
_cell_length_b 18.000000
_cell_length_c 9.000000
_cell_angle_alpha 90.000000
_cell_angle_beta 140.000000
_cell_angle_gamma 90.000000
_cell_volume 3123.947783
_symmetry_space_group_name_H-M "C 2/M"
_symmetry_group_IT_number 12
_symmetry_cell_setting 'monoclinic'
loop_
_space_group_symop_operation_xyz
x,y,z
-x,y,-z
-x,-y,-z
x,-y,z
1/2+x,1/2+y,z
1/2-x,1/2+y,-z
1/2-x,1/2-y,-z
1/2+x,1/2-y,z
loop_
_atom_site_type_symbol
_atom_site_label
_atom_site_fract_x
_atom_site_fract_y
_atom_site_fract_z
Si Si1 0.108218 0.669336 0.035609
Si Si2 0.442163 0.663957 0.123157
Si Si3 0.378114 0.584076 0.709989
Si Si4 0.688317 0.588268 0.044305
Si Si5 0.163612 0.334568 0.516938
Si Si6 0.975152 0.586536 0.763609
Si Si7 0.081474 0.915861 0.528124
Si Si8 0.259259 0.302367 0.377289
O O1 0.137333 0.657470 0.278390
O O2 0.181172 0.674331 0.130341
O O3 0.071261 0.748899 0.921570
O O4 0.044285 0.612293 0.850336
O O5 0.372847 0.627335 0.017267
O O6 0.515284 0.638062 0.378478
O O7 0.436035 0.629851 0.944336
O O8 0.374125 0.500000 0.756845
O O9 0.400027 0.582118 0.596232
O O10 0.304736 0.626279 0.534550
O O11 0.690050 0.500000 0.074571
O O12 0.653824 0.602026 0.794885
O O13 0.765619 0.619491 0.269101
O O14 0.095117 0.363255 0.431058
O O15 0.191984 0.249508 0.603170
O O16 0.958585 0.500000 0.692099
O O17 0.000000 0.592302 0.000000
O O18 0.060953 0.000000 0.523382
O O19 0.250000 0.250000 0.500000
#
# Coordination Sequence:
#
# PCOD9223393 Si02
#       8
#     8   8   8   8   8   8   8   8
#     4  10  20  33  56  84 119 149 192 250 304 344
#     4  12  20  35  61  86 118 161 200 244 295 359
#     4  11  22  36  59  88 116 158 202 244 304 365
#     4  11  22  38  60  86 121 162 199 246 303 364
#     4  10  18  34  58  81 113 152 192 248 303 352
#     4   9  19  32  51  82 114 150 197 247 303 357
#     4  10  24  39  54  86 127 159 197 245 298 364
#     4  10  18  35  53  84 117 149 190 247 302 353
#
# _framework density 10.243449
#
# number of rings (size 3 to 8) (size 9 to 14) (size 15 to 20)
#    0.000    1.625    3.750    3.000    1.750    4.000 
#    0.000    2.500    0.000    0.000    0.000    0.000 
#    0.000    6.000    0.000    0.000    0.000    0.000 
#
# Total GULP energy -178348.331576 kJ/mol
# GULP energy per Si atom -5573.385362 kJ/mol
# Density = 1.022013 g / cm^3
# Si number density = 10.243449 Si / 1000 Ang^3
#
#
#
# Elastic Constant Matrix: (Units=GPa)
#
#
# Indices 1 2 3 4 5 6 
#
# 1 40.0361 -3.8199 -3.5958 0.0000 28.1893 0.0000
# 2 -3.8199 63.6883 -3.8920 0.0000 21.0902 0.0000
# 3 -3.5958 -3.8920 40.5742 0.0000 34.2387 0.0000
# 4 0.0000 0.0000 0.0000 27.6693 0.0000 0.5302
# 5 28.1893 21.0902 34.2387 0.0000 48.5533 0.0000
# 6 0.0000 0.0000 0.0000 0.5302 0.0000 -9.6263
#
#
#
# Elastic Compliance Matrix: (Units=1/GPa)
#
#
# Indices 1 2 3 4 5 6 
#
# 1 -0.015288 -0.019805 -0.044462 0.000000 0.048833 0.000000
# 2 -0.019805 0.004559 -0.023090 0.000000 0.025800 0.000000
# 3 -0.044462 -0.023090 -0.029031 0.000000 0.056316 0.000000
# 4 0.000000 0.000000 0.000000 0.036103 0.000000 0.001989
# 5 0.048833 0.025800 0.056316 0.000000 -0.058675 0.000000
# 6 0.000000 0.000000 0.000000 0.001989 0.000000 -0.103772
#
#
# Mechanical properties :
#
#
# Convention : Reuss Voigt Hill
#
# Bulk Modulus (GPa) = -4.66257 13.52036 4.42890
# Shear Modulus (GPa) = -79.51286 23.69301 -27.90992
#
# Velocity S-wave (km/s) = -6.23665 3.40442 -3.69498
# Velocity P-wave (km/s) = 7.35812 4.69758 4.00466
#
# Compressibility (1/GPa) = -0.21447415
#
# Stress axis : x y z
#
# Youngs Moduli (GPa) = -65.40957 219.35482 -34.44560
#
# Poissons Ratio (x) = 4.34429 -1.53153
# Poissons Ratio (y) = -1.29543 -0.79534
# Poissons Ratio (z) = -2.90825 5.06484
#
# Static dielectric constant tensor:
#      x y z
#    x 1.800710 0.000000 -0.048080 
#    y 0.000000 1.743680 0.000000 
#    z -0.048080 0.000000 1.760460 
# 
# From -- ./inp_files/112880.got.cif
#   From: 2010.05.17/outbox.ucp.g08.bks.cvg/sg12_57_cif.got.tgz:112880.got - 2010.06.11 11:47:21.
