data_PCOD9223137
_publ_section_title
;
Structure prediction by ZEFSAII (Michael W. Deem and Ramdas Pophale) SiO2 
 PCOD9223137
Probable space group: C 2/M
;
_chemical_formula_sum "Si O2"
_cell_formula_units_Z 40
_cell_length_a 11.082545
_cell_length_b 19.743321
_cell_length_c 7.068336
_cell_angle_alpha 90.000000
_cell_angle_beta 100.272196
_cell_angle_gamma 90.000000
_cell_volume 1521.806726
_symmetry_space_group_name_H-M "C 2/M"
_symmetry_group_IT_number 12
_symmetry_cell_setting 'monoclinic'
loop_
_space_group_symop_operation_xyz
x,y,z
-x,y,-z
-x,-y,-z
x,-y,z
1/2+x,1/2+y,z
1/2-x,1/2+y,-z
1/2-x,1/2-y,-z
1/2+x,1/2-y,z
loop_
_atom_site_type_symbol
_atom_site_label
_atom_site_fract_x
_atom_site_fract_y
_atom_site_fract_z
Si Si1 0.533233 0.421183 0.789253
Si Si2 0.403592 0.212877 0.741265
Si Si3 0.194384 0.576102 0.222652
Si Si4 0.230647 0.075949 0.329498
Si Si5 0.164652 0.708426 0.728552
O O1 0.542778 0.500000 0.730421
O O2 0.670225 0.396467 0.796914
O O3 0.406581 0.395229 0.662879
O O4 0.500000 0.417751 0.000000
O O5 0.398519 0.137300 0.823064
O O6 0.292097 0.254204 0.798716
O O7 0.543477 0.237147 0.794064
O O8 0.368129 0.211587 0.506365
O O9 0.170908 0.500000 0.140045
O O10 0.204175 0.568985 0.452516
O O11 0.306025 0.129051 0.227570
O O12 0.216995 0.000000 0.243616
#
# Coordination Sequence:
#
# PCOD9223137 Si02
#       5
#     8   8   8   8   8
#     4   9  17  29  47  73 103 133 164 199 246 300
#     4   9  18  30  46  72 103 133 164 202 249 297
#     4   9  17  29  48  74 101 128 164 208 248 287
#     4   9  17  29  48  74 101 128 164 208 248 287
#     4   9  18  30  46  72 103 133 164 202 249 297
#
# _framework density 26.284545999999999
#
# number of rings (size 3 to 8) (size 9 to 14) (size 15 to 20)
#    0.000    3.000    0.000    0.600    2.800    3.200 
#    0.000    4.000    0.000    2.400    0.000    5.600 
#    0.000    0.000    0.000    0.000    0.000    0.000 
#
# Total GULP energy -111781.506007 kJ/mol
# GULP energy per Si atom -5589.075300 kJ/mol
# Density = 2.622472 g / cm^3
# Si number density = 26.284546 Si / 1000 Ang^3
#
#
#
# Elastic Constant Matrix: (Units=GPa)
#
#
# Indices 1 2 3 4 5 6 
#
# 1 196.4242 77.7714 20.6052 0.0000 -9.4316 0.0000
# 2 77.7714 103.8107 8.3303 0.0000 -4.4777 0.0000
# 3 20.6052 8.3303 79.0917 0.0000 3.3882 0.0000
# 4 0.0000 0.0000 0.0000 -1.7303 0.0000 -4.8694
# 5 -9.4316 -4.4777 3.3882 0.0000 37.7219 0.0000
# 6 0.0000 0.0000 0.0000 -4.8694 0.0000 40.1543
#
#
#
# Elastic Compliance Matrix: (Units=1/GPa)
#
#
# Indices 1 2 3 4 5 6 
#
# 1 0.007446 -0.005405 -0.001428 0.000000 0.001348 0.000000
# 2 -0.005405 0.013698 -0.000046 0.000000 0.000279 0.000000
# 3 -0.001428 -0.000046 0.013086 0.000000 -0.001538 0.000000
# 4 0.000000 0.000000 0.000000 -0.430880 0.000000 -0.052251
# 5 0.001348 0.000279 -0.001538 0.000000 0.027018 0.000000
# 6 0.000000 0.000000 0.000000 -0.052251 0.000000 0.018568
#
#
# Mechanical properties :
#
#
# Convention : Reuss Voigt Hill
#
# Bulk Modulus (GPa) = 48.85139 65.86003 57.35571
# Shear Modulus (GPa) = -15.12951 33.40382 9.13715
#
# Velocity S-wave (km/s) = -2.40178 3.56877 1.86649
# Velocity P-wave (km/s) = 3.30674 6.48787 5.14913
#
# Compressibility (1/GPa) = 0.02047024
#
# Stress axis : x y z
#
# Youngs Moduli (GPa) = 134.30470 73.00245 76.41505
#
# Poissons Ratio (x) = 0.39460 0.10914
# Poissons Ratio (y) = 0.72596 0.00355
# Poissons Ratio (z) = 0.19182 0.00339
#
# Static dielectric constant tensor:
#      x y z
#    x 2.044420 0.000000 -0.008650 
#    y 0.000000 2.083950 0.000000 
#    z -0.008650 0.000000 2.076530 
# 
# From -- ./inp_files/39313.got.cif
#   From: 2010.05.17/outbox.cif.g08.bks.cpg/sg12_20_cif.got.tgz:39313.got - 2010.06.03 13:09:07.
