data_PCOD9223508
_publ_section_title
;
Structure prediction by ZEFSAII (Michael W. Deem and Ramdas Pophale) SiO2 
 PCOD9223508
Probable space group: C 2/M
;
_chemical_formula_sum "Si O2"
_cell_formula_units_Z 20
_cell_length_a 30.000000
_cell_length_b 12.000000
_cell_length_c 18.000000
_cell_angle_alpha 90.000000
_cell_angle_beta 20.000000
_cell_angle_gamma 90.000000
_cell_volume 2216.290529
_symmetry_space_group_name_H-M "C 2/M"
_symmetry_group_IT_number 12
_symmetry_cell_setting 'monoclinic'
loop_
_space_group_symop_operation_xyz
x,y,z
-x,y,-z
-x,-y,-z
x,-y,z
1/2+x,1/2+y,z
1/2-x,1/2+y,-z
1/2-x,1/2-y,-z
1/2+x,1/2-y,z
loop_
_atom_site_type_symbol
_atom_site_label
_atom_site_fract_x
_atom_site_fract_y
_atom_site_fract_z
Si Si1 0.524850 0.126883 0.694549
Si Si2 0.581942 0.375259 0.770983
Si Si3 0.417011 0.131513 0.559496
Si Si4 0.238079 0.714864 0.630010
Si Si5 0.338749 0.757552 0.093421
O O1 0.501027 0.142671 0.644638
O O2 0.646871 0.199146 0.529704
O O3 0.560508 0.000000 0.651324
O O4 0.403307 0.162899 0.932821
O O5 0.574422 0.500000 0.812009
O O6 0.693646 0.370141 0.532539
O O7 0.629337 0.284435 0.756343
O O8 0.445308 0.335773 0.950121
O O9 0.500000 0.169480 0.500000
O O10 0.286337 0.198896 0.746262
O O11 0.386084 0.000000 0.618072
O O12 0.190348 0.676263 0.784890
#
# Coordination Sequence:
#
# PCOD9223508 Si02
#       5
#     8   8   8   8   8
#     4   9  18  32  49  69  94 124 154 185 227 277
#     4  10  19  31  48  69  94 124 157 191 226 268
#     4   9  18  33  51  70  93 120 151 190 234 276
#     4   9  19  32  45  68  98 124 153 189 228 270
#     4  10  19  31  49  71  93 120 156 193 228 270
#
# _framework density 9.0240880000000008
#
# number of rings (size 3 to 8) (size 9 to 14) (size 15 to 20)
#    0.000    2.600    0.000    1.800    0.000    4.800 
#    0.000    0.000    0.000    7.800    0.000    0.000 
#    0.000    0.000    0.000    0.000    0.000    0.000 
#
# Total GULP energy -111421.118736 kJ/mol
# GULP energy per Si atom -5571.055937 kJ/mol
# Density = 0.900355 g / cm^3
# Si number density = 9.024088 Si / 1000 Ang^3
#
#
#
# Elastic Constant Matrix: (Units=GPa)
#
#
# Indices 1 2 3 4 5 6 
#
# 1 85.0609 16.8054 25.2073 0.0000 -7.8774 0.0000
# 2 16.8054 23.9898 -1.2908 0.0000 11.4174 0.0000
# 3 25.2073 -1.2908 52.9590 0.0000 16.6540 0.0000
# 4 0.0000 0.0000 0.0000 -16.9254 0.0000 34.6461
# 5 -7.8774 11.4174 16.6540 0.0000 27.6255 0.0000
# 6 0.0000 0.0000 0.0000 34.6461 0.0000 -44.6948
#
#
#
# Elastic Compliance Matrix: (Units=1/GPa)
#
#
# Indices 1 2 3 4 5 6 
#
# 1 0.040936 -0.059543 -0.039912 0.000000 0.060342 0.000000
# 2 -0.059543 0.143058 0.068804 0.000000 -0.117582 0.000000
# 3 -0.039912 0.068804 0.064260 0.000000 -0.078556 0.000000
# 4 0.000000 0.000000 0.000000 0.100692 0.000000 0.078053
# 5 0.060342 -0.117582 -0.078556 0.000000 0.149359 0.000000
# 6 0.000000 0.000000 0.000000 0.078053 0.000000 0.038131
#
#
# Mechanical properties :
#
#
# Convention : Reuss Voigt Hill
#
# Bulk Modulus (GPa) = 5.34893 27.05040 16.19967
# Shear Modulus (GPa) = 7.57513 1.28690 4.43101
#
# Velocity S-wave (km/s) = 2.05092 0.84533 1.56858
# Velocity P-wave (km/s) = 2.92891 3.99665 3.50369
#
# Compressibility (1/GPa) = 0.18695337
#
# Stress axis : x y z
#
# Youngs Moduli (GPa) = 24.42836 6.99016 15.56171
#
# Poissons Ratio (x) = 0.41621 0.62110
# Poissons Ratio (y) = 1.45453 -1.07071
# Poissons Ratio (z) = 0.97498 -0.48095
#
# Static dielectric constant tensor:
#      x y z
#    x 1.622980 0.000000 0.060060 
#    y 0.000000 1.586070 0.000000 
#    z 0.060060 0.000000 1.659710 
# 
# From -- ./inp_files/129218.got.cif
#   From: 2010.05.17/outbox.ucp.g08.bks.cvg/sg12_65_cif.got.tgz:129218.got - 2010.06.11 11:47:21.
