data_PCOD9223867
_publ_section_title
;
Structure prediction by ZEFSAII (Michael W. Deem and Ramdas Pophale) SiO2 
 PCOD9223867
Probable space group: C 2/M
;
_chemical_formula_sum "Si O2"
_cell_formula_units_Z 28
_cell_length_a 12.000000
_cell_length_b 21.000000
_cell_length_c 12.000000
_cell_angle_alpha 90.000000
_cell_angle_beta 70.000000
_cell_angle_gamma 90.000000
_cell_volume 2841.630485
_symmetry_space_group_name_H-M "C 2/M"
_symmetry_group_IT_number 12
_symmetry_cell_setting 'monoclinic'
loop_
_space_group_symop_operation_xyz
x,y,z
-x,y,-z
-x,-y,-z
x,-y,z
1/2+x,1/2+y,z
1/2-x,1/2+y,-z
1/2-x,1/2-y,-z
1/2+x,1/2-y,z
loop_
_atom_site_type_symbol
_atom_site_label
_atom_site_fract_x
_atom_site_fract_y
_atom_site_fract_z
Si Si1 0.033100 0.732512 0.298406
Si Si2 0.368172 0.687830 0.069086
Si Si3 0.231021 0.362224 0.313354
Si Si4 0.659117 0.000000 0.342604
Si Si5 0.163404 0.809632 0.515245
Si Si6 0.174627 0.365671 0.709532
Si Si7 0.740951 0.315499 0.107097
Si Si8 0.381378 0.000000 0.386192
O O1 0.115519 0.683050 0.340042
O O2 0.124403 0.774298 0.190351
O O3 0.961197 0.782385 0.399888
O O4 0.932695 0.685751 0.276880
O O5 0.329301 0.670623 0.204500
O O6 0.342452 0.762233 0.062453
O O7 0.500000 0.670035 0.000000
O O8 0.286338 0.656346 0.003680
O O9 0.208831 0.433526 0.282152
O O10 0.283993 0.361237 0.417638
O O11 0.520966 0.000000 0.362410
O O12 0.674938 0.000000 0.471160
O O13 0.250000 0.750000 0.500000
O O14 0.202777 0.837355 0.384158
O O15 0.207945 0.366763 0.826793
O O16 0.147711 0.434445 0.667742
#
# Coordination Sequence:
#
# PCOD9223867 Si02
#       8
#     8   8   8   4   8   8   8   4
#     4  10  19  34  55  86 120 145 189 237 295 349
#     4  10  20  38  60  87 113 151 196 240 297 340
#     4  11  21  36  58  85 112 151 202 238 279 344
#     4  11  22  40  60  82 115 164 201 234 277 339
#     4  10  20  30  52  85 118 144 181 240 294 340
#     4  11  21  35  54  88 120 153 190 232 292 349
#     4  10  21  35  58  87 120 154 181 241 297 353
#     4  11  22  38  61  79 123 163 191 237 276 348
#
# _framework density 9.8534980000000001
#
# number of rings (size 3 to 8) (size 9 to 14) (size 15 to 20)
#    0.000    1.571    2.857    5.143    0.000    5.143 
#    0.000    1.071    0.000    5.143    0.000    0.000 
#    0.000    0.000    0.000    0.000    0.000    0.000 
#
# Total GULP energy -155978.363573 kJ/mol
# GULP energy per Si atom -5570.655842 kJ/mol
# Density = 0.983107 g / cm^3
# Si number density = 9.853498 Si / 1000 Ang^3
#
#
#
# Elastic Constant Matrix: (Units=GPa)
#
#
# Indices 1 2 3 4 5 6 
#
# 1 44.8592 17.0565 12.3033 0.0000 -4.9972 0.0000
# 2 17.0565 70.0845 -6.9898 0.0000 3.1130 0.0000
# 3 12.3033 -6.9898 35.0819 0.0000 13.3852 0.0000
# 4 0.0000 0.0000 0.0000 16.0210 0.0000 9.9109
# 5 -4.9972 3.1130 13.3852 0.0000 28.9837 0.0000
# 6 0.0000 0.0000 0.0000 9.9109 0.0000 23.5243
#
#
#
# Elastic Compliance Matrix: (Units=1/GPa)
#
#
# Indices 1 2 3 4 5 6 
#
# 1 0.033883 -0.011004 -0.020339 0.000000 0.016416 0.000000
# 2 -0.011004 0.018434 0.010938 0.000000 -0.008929 0.000000
# 3 -0.020339 0.010938 0.048074 0.000000 -0.026883 0.000000
# 4 0.000000 0.000000 0.000000 0.084420 0.000000 -0.035567
# 5 0.016416 -0.008929 -0.026883 0.000000 0.050706 0.000000
# 6 0.000000 0.000000 0.000000 -0.035567 0.000000 0.057494
#
#
# Mechanical properties :
#
#
# Convention : Reuss Voigt Hill
#
# Bulk Modulus (GPa) = 16.78338 21.64062 19.21200
# Shear Modulus (GPa) = 14.13710 22.21617 18.17664
#
# Velocity S-wave (km/s) = 2.68127 3.36121 3.04031
# Velocity P-wave (km/s) = 4.25683 5.10575 4.70049
#
# Compressibility (1/GPa) = 0.05958275
#
# Stress axis : x y z
#
# Youngs Moduli (GPa) = 29.51360 54.24769 20.80140
#
# Poissons Ratio (x) = 0.59692 0.42307
# Poissons Ratio (y) = 0.32476 -0.22753
# Poissons Ratio (z) = 0.60026 -0.59338
#
# Static dielectric constant tensor:
#      x y z
#    x 1.739560 0.000000 0.052240 
#    y 0.000000 1.680670 0.000000 
#    z 0.052240 0.000000 1.829260 
# 
# From -- ./inp_files/133909.got.cif
#   From: 2010.05.17/outbox.ucp.g08.bks.cvg/sg12_67_cif.got.tgz:133909.got - 2010.06.11 11:47:21.
