data_PCOD9223092
_publ_section_title
;
Structure prediction by ZEFSAII (Michael W. Deem and Ramdas Pophale) SiO2 
 PCOD9223092
Probable space group: C 2/M
;
_chemical_formula_sum "Si O2"
_cell_formula_units_Z 56
_cell_length_a 31.371668
_cell_length_b 14.009297
_cell_length_c 9.286022
_cell_angle_alpha 90.000000
_cell_angle_beta 107.217522
_cell_angle_gamma 90.000000
_cell_volume 3898.274945
_symmetry_space_group_name_H-M "C 2/M"
_symmetry_group_IT_number 12
_symmetry_cell_setting 'monoclinic'
loop_
_space_group_symop_operation_xyz
x,y,z
-x,y,-z
-x,-y,-z
x,-y,z
1/2+x,1/2+y,z
1/2-x,1/2+y,-z
1/2-x,1/2-y,-z
1/2+x,1/2-y,z
loop_
_atom_site_type_symbol
_atom_site_label
_atom_site_fract_x
_atom_site_fract_y
_atom_site_fract_z
Si Si1 0.732804 0.107741 0.060340
Si Si2 0.089715 0.113342 0.261520
Si Si3 0.316094 0.700627 0.989101
Si Si4 0.589715 0.613342 0.917911
Si Si5 0.500000 0.383925 0.334235
Si Si6 0.183907 0.799374 0.356914
Si Si7 0.732803 0.892259 0.405267
O O1 0.696920 0.190006 0.989170
O O2 0.739870 0.111579 0.239870
O O3 0.719449 0.000000 0.008804
O O4 0.778586 0.136346 0.027474
O O5 0.134332 0.169228 0.349938
O O6 0.045199 0.145473 0.298737
O O7 0.096561 0.000000 0.295576
O O8 0.083295 0.124426 0.083295
O O9 0.312715 0.688197 0.812716
O O10 0.365669 0.669228 0.081275
O O11 0.596561 0.500000 0.897545
O O12 0.545199 0.645473 0.791660
O O13 0.500000 0.353736 0.500000
O O14 0.500000 0.500000 0.330687
O O15 0.221414 0.863655 0.470300
O O16 0.196921 0.690006 0.404671
O O17 0.719449 0.000000 0.430093
#
# Coordination Sequence:
#
# PCOD9223092 Si02
#       7
#     8   8   8   8   8   8   8
#     4   9  17  28  41  59  84 110 135 167 203 234
#     4   9  16  26  40  57  78 104 132 161 193 232
#     4   9  17  28  42  60  81 108 140 167 195 236
#     4   9  16  26  40  57  78 104 132 161 193 232
#     4   9  17  27  39  57  80 103 126 156 197 241
#     4   9  17  28  42  60  81 108 140 167 195 236
#     4   9  17  28  41  59  84 110 135 167 203 234
#
# _framework density 14.365328
#
# number of rings (size 3 to 8) (size 9 to 14) (size 15 to 20)
#    0.000    3.000    0.000    1.286    0.000    4.571 
#    0.000    2.857    0.000    0.000    0.000    1.000 
#    0.000    8.000    0.000    0.000    0.000    0.000 
#
# Total GULP energy -155918.245996 kJ/mol
# GULP energy per Si atom -5568.508786 kJ/mol
# Density = 1.433263 g / cm^3
# Si number density = 14.365328 Si / 1000 Ang^3
#
#
#
# Elastic Constant Matrix: (Units=GPa)
#
#
# Indices 1 2 3 4 5 6 
#
# 1 142.9307 55.0656 49.6097 0.0000 17.0618 0.0000
# 2 55.0656 77.2397 32.9687 0.0000 8.4704 0.0000
# 3 49.6097 32.9687 41.5800 0.0000 21.7897 0.0000
# 4 0.0000 0.0000 0.0000 14.4695 0.0000 2.1752
# 5 17.0618 8.4704 21.7897 0.0000 22.5938 0.0000
# 6 0.0000 0.0000 0.0000 2.1752 0.0000 20.1440
#
#
#
# Elastic Compliance Matrix: (Units=1/GPa)
#
#
# Indices 1 2 3 4 5 6 
#
# 1 0.013354 -0.002627 -0.018360 0.000000 0.008607 0.000000
# 2 -0.002627 0.023163 -0.023695 0.000000 0.016152 0.000000
# 3 -0.018360 -0.023695 0.106796 0.000000 -0.080248 0.000000
# 4 0.000000 0.000000 0.000000 0.070251 0.000000 -0.007586
# 5 0.008607 0.016152 -0.080248 0.000000 0.109096 0.000000
# 6 0.000000 0.000000 0.000000 -0.007586 0.000000 0.050462
#
#
# Mechanical properties :
#
#
# Convention : Reuss Voigt Hill
#
# Bulk Modulus (GPa) = 18.53651 59.67094 39.10373
# Shear Modulus (GPa) = 10.40650 19.71522 15.06086
#
# Velocity S-wave (km/s) = 2.69442 3.70863 3.24144
# Velocity P-wave (km/s) = 4.75516 7.74383 6.42567
#
# Compressibility (1/GPa) = 0.05394758
#
# Stress axis : x y z
#
# Youngs Moduli (GPa) = 74.88604 43.17319 9.36361
#
# Poissons Ratio (x) = 0.11343 0.17191
# Poissons Ratio (y) = 0.19675 0.22187
# Poissons Ratio (z) = 1.37489 1.02301
#
# Static dielectric constant tensor:
#      x y z
#    x 1.455610 0.000000 -0.007820 
#    y 0.000000 1.473920 0.000000 
#    z -0.007820 0.000000 1.476000 
# 
# From -- ./inp_files/110804.got.cif
#   From: 2010.05.17/outbox.cif.g08.bks.cpg/sg12_56_cif.got.tgz:110804.got - 2010.06.03 13:09:07.
