data_PCOD9223134
_publ_section_title
;
Structure prediction by ZEFSAII (Michael W. Deem and Ramdas Pophale) SiO2 
 PCOD9223134
Probable space group: C 2/M
;
_chemical_formula_sum "Si O2"
_cell_formula_units_Z 56
_cell_length_a 12.636222
_cell_length_b 22.081963
_cell_length_c 13.609073
_cell_angle_alpha 90.000000
_cell_angle_beta 43.732488
_cell_angle_gamma 90.000000
_cell_volume 2625.095755
_symmetry_space_group_name_H-M "C 2/M"
_symmetry_group_IT_number 12
_symmetry_cell_setting 'monoclinic'
loop_
_space_group_symop_operation_xyz
x,y,z
-x,y,-z
-x,-y,-z
x,-y,z
1/2+x,1/2+y,z
1/2-x,1/2+y,-z
1/2-x,1/2-y,-z
1/2+x,1/2-y,z
loop_
_atom_site_type_symbol
_atom_site_label
_atom_site_fract_x
_atom_site_fract_y
_atom_site_fract_z
Si Si1 0.113334 0.327458 0.291128
Si Si2 0.750240 0.928048 0.924855
Si Si3 0.598650 0.341911 0.022751
Si Si4 0.907153 0.790805 0.469815
Si Si5 0.032494 0.572124 0.744660
Si Si6 0.671259 0.699003 0.684564
Si Si7 0.173140 0.929421 0.344388
O O1 0.202871 0.336960 0.334848
O O2 0.004546 0.269555 0.375139
O O3 0.031342 0.385957 0.300267
O O4 0.249986 0.312700 0.123526
O O5 0.855565 0.892589 0.930717
O O6 0.790229 0.904008 0.788865
O O7 0.781139 0.000000 0.906991
O O8 0.578889 0.920139 0.084756
O O9 0.483233 0.295686 0.150656
O O10 0.500000 0.369800 0.000000
O O11 0.748439 0.763691 0.614985
O O12 0.874327 0.826202 0.391772
O O13 0.000000 0.816694 0.500000
O O14 0.029149 0.500000 0.721940
O O15 0.202170 0.593373 0.661287
O O16 0.000000 0.930802 0.500000
O O17 0.217554 0.000000 0.303969
#
# Coordination Sequence:
#
# PCOD9223134 Si02
#       7
#     8   8   8   8   8   8   8
#     4   9  18  33  54  79 106 137 176 219 262 315
#     4   9  17  30  48  71 103 145 184 216 257 311
#     4   9  18  32  50  74 105 137 173 220 266 308
#     4   9  18  34  56  76  99 135 177 218 271 331
#     4   9  17  31  52  76 108 147 179 212 262 322
#     4   9  18  34  53  74 103 135 172 220 270 315
#     4   9  17  29  46  71 103 137 175 220 263 302
#
# _framework density 21.332553999999998
#
# number of rings (size 3 to 8) (size 9 to 14) (size 15 to 20)
#    0.000    3.000    0.000    0.429    0.000    3.714 
#    0.000    7.143    0.000    7.286    0.000    0.000 
#    0.000    1.714    0.000    0.000    0.000    0.000 
#
# Total GULP energy -156108.707030 kJ/mol
# GULP energy per Si atom -5575.310965 kJ/mol
# Density = 2.128400 g / cm^3
# Si number density = 21.332554 Si / 1000 Ang^3
#
#
#
# Elastic Constant Matrix: (Units=GPa)
#
#
# Indices 1 2 3 4 5 6 
#
# 1 153.5962 25.7989 69.8296 0.0000 15.0514 0.0000
# 2 25.7989 51.3903 34.1844 0.0000 4.1810 0.0000
# 3 69.8296 34.1844 97.5452 0.0000 9.0018 0.0000
# 4 0.0000 0.0000 0.0000 -2.5129 0.0000 36.7966
# 5 15.0514 4.1810 9.0018 0.0000 41.9148 0.0000
# 6 0.0000 0.0000 0.0000 36.7966 0.0000 -5.6967
#
#
#
# Elastic Compliance Matrix: (Units=1/GPa)
#
#
# Indices 1 2 3 4 5 6 
#
# 1 0.009826 -0.000278 -0.006747 0.000000 -0.002052 0.000000
# 2 -0.000278 0.025398 -0.008649 0.000000 -0.000576 0.000000
# 3 -0.006747 -0.008649 0.018170 0.000000 -0.000617 0.000000
# 4 0.000000 0.000000 0.000000 0.004252 0.000000 0.027467
# 5 -0.002052 -0.000576 -0.000617 0.000000 0.024785 0.000000
# 6 0.000000 0.000000 0.000000 0.027467 0.000000 0.001876
#
#
# Mechanical properties :
#
#
# Convention : Reuss Voigt Hill
#
# Bulk Modulus (GPa) = 45.35918 62.46195 53.91057
# Shear Modulus (GPa) = 40.64947 18.25564 29.45255
#
# Velocity S-wave (km/s) = 4.36995 2.92852 3.71973
# Velocity P-wave (km/s) = 6.83894 6.38582 6.61626
#
# Compressibility (1/GPa) = 0.02204625
#
# Stress axis : x y z
#
# Youngs Moduli (GPa) = 101.77280 39.37274 55.03644
#
# Poissons Ratio (x) = 0.01093 0.37135
# Poissons Ratio (y) = 0.02824 0.47600
# Poissons Ratio (z) = 0.68670 0.34053
#
# Static dielectric constant tensor:
#      x y z
#    x 1.830520 0.000000 0.012570 
#    y 0.000000 1.756640 0.000000 
#    z 0.012570 0.000000 1.819440 
# 
# From -- ./inp_files/136936.got.cif
#   From: 2010.05.17/outbox.cif.g08.bks.cpg/sg12_69_cif.got.tgz:136936.got - 2010.06.03 13:09:07.
