data_PCOD9223527
_publ_section_title
;
Structure prediction by ZEFSAII (Michael W. Deem and Ramdas Pophale) SiO2 
 PCOD9223527
Probable space group: C 2/M
;
_chemical_formula_sum "Si O2"
_cell_formula_units_Z 32
_cell_length_a 24.000000
_cell_length_b 9.000000
_cell_length_c 30.000000
_cell_angle_alpha 90.000000
_cell_angle_beta 30.000000
_cell_angle_gamma 90.000000
_cell_volume 3240.000000
_symmetry_space_group_name_H-M "C 2/M"
_symmetry_group_IT_number 12
_symmetry_cell_setting 'monoclinic'
loop_
_space_group_symop_operation_xyz
x,y,z
-x,y,-z
-x,-y,-z
x,-y,z
1/2+x,1/2+y,z
1/2-x,1/2+y,-z
1/2-x,1/2-y,-z
1/2+x,1/2-y,z
loop_
_atom_site_type_symbol
_atom_site_label
_atom_site_fract_x
_atom_site_fract_y
_atom_site_fract_z
Si Si1 0.194952 0.164988 0.303640
Si Si2 0.286830 0.830715 0.081668
Si Si3 0.066210 0.170949 0.764337
Si Si4 0.664529 0.666986 0.863070
Si Si5 0.484508 0.335007 0.916447
Si Si6 0.778798 0.832659 0.607269
Si Si7 0.487903 0.836342 0.454494
Si Si8 0.664706 0.175574 0.093925
O O1 0.257771 0.288237 0.232021
O O2 0.211627 0.170943 0.345256
O O3 0.066542 0.203682 0.384672
O O4 0.227556 0.000000 0.266212
O O5 0.314398 0.782930 0.112578
O O6 0.203752 0.715205 0.116656
O O7 0.250533 0.000000 0.103089
O O8 0.399633 0.800039 0.975633
O O9 0.156131 0.279825 0.681705
O O10 0.067451 0.176099 0.817576
O O11 0.947315 0.234112 0.835122
O O12 0.082415 0.000000 0.740201
O O13 0.685571 0.500000 0.864557
O O14 0.545146 0.669006 0.921739
O O15 0.430537 0.500000 0.949035
O O16 0.863407 0.711033 0.530596
O O17 0.803945 0.000000 0.575769
O O18 0.500000 0.842151 0.500000
O O19 0.517789 0.000000 0.416913
O O20 0.655703 0.000000 0.092813
O O21 0.750000 0.250000 0.000000
#
# Coordination Sequence:
#
# PCOD9223527 Si02
#       8
#     8   8   8   8   8   8   8   8
#     4  10  19  31  49  75 108 142 178 218 265 318
#     4  12  25  39  56  78 105 140 182 227 271 318
#     4  11  21  35  56  81 108 141 179 222 269 320
#     4  11  22  37  55  77 108 145 183 221 265 320
#     4  10  21  36  55  77 107 143 180 220 267 319
#     4  10  19  31  49  76 110 142 177 220 266 317
#     4   9  17  29  47  71 103 142 180 215 261 319
#     4  12  24  40  59  79 103 137 179 226 274 320
#
# _framework density 9.8765429999999999
#
# number of rings (size 3 to 8) (size 9 to 14) (size 15 to 20)
#    0.000    1.375    2.500    4.500    0.000    5.500 
#    0.000    0.000    0.000    0.000    0.000    0.875 
#    0.000    0.000    0.000    0.000    0.000    0.000 
#
# Total GULP energy -178297.787590 kJ/mol
# GULP energy per Si atom -5571.805862 kJ/mol
# Density = 0.985406 g / cm^3
# Si number density = 9.876543 Si / 1000 Ang^3
#
#
#
# Elastic Constant Matrix: (Units=GPa)
#
#
# Indices 1 2 3 4 5 6 
#
# 1 39.4221 8.8625 0.3484 -0.0025 -6.2601 0.0128
# 2 8.8625 64.0685 -1.9945 -0.0042 2.7814 0.0095
# 3 0.3484 -1.9945 22.3391 -0.0010 -20.7319 0.0017
# 4 -0.0025 -0.0042 -0.0010 21.5552 0.0000 0.4563
# 5 -6.2601 2.7814 -20.7319 0.0000 16.6853 -0.0050
# 6 0.0128 0.0095 0.0017 0.4563 -0.0050 21.8509
#
#
#
# Elastic Compliance Matrix: (Units=1/GPa)
#
#
# Indices 1 2 3 4 5 6 
#
# 1 0.019046 -0.001996 -0.042220 0.000000 -0.044981 -0.000017
# 2 -0.001996 0.015778 0.011076 0.000003 0.010384 -0.000004
# 3 -0.042220 0.011076 -0.195899 -0.000012 -0.261095 -0.000024
# 4 0.000000 0.000003 -0.000012 0.046413 -0.000015 -0.000969
# 5 -0.044981 0.010384 -0.261095 -0.000015 -0.283091 -0.000022
# 6 -0.000017 -0.000004 -0.000024 -0.000969 -0.000022 0.045785
#
#
# Mechanical properties :
#
#
# Convention : Reuss Voigt Hill
#
# Bulk Modulus (GPa) = -4.39843 15.58471 5.59314
# Shear Modulus (GPa) = -13.83227 19.92585 3.04679
#
# Velocity S-wave (km/s) = -2.64911 3.17952 1.24330
# Velocity P-wave (km/s) = 3.40420 4.62450 2.21331
#
# Compressibility (1/GPa) = -0.22735378
#
# Stress axis : x y z
#
# Youngs Moduli (GPa) = 52.50560 63.37756 -5.10467
#
# Poissons Ratio (x) = 0.12651 -0.21552
# Poissons Ratio (y) = 0.10481 0.05654
# Poissons Ratio (z) = 2.21677 -0.70200
#
# Static dielectric constant tensor:
#      x y z
#    x 1.665880 -0.000010 0.081620 
#    y -0.000010 1.655210 0.000010 
#    z 0.081620 0.000010 1.608870 
# 
# From -- ./inp_files/382297.got.cif
#   From: 2010.05.17/outbox.ucp.g08.bks.cvg/sg12_192_cif.got.tgz:382297.got - 2010.06.11 11:47:21.
