data_PCOD9223843
_publ_section_title
;
Structure prediction by ZEFSAII (Michael W. Deem and Ramdas Pophale) SiO2 
 PCOD9223843
Probable space group: C 2/M
;
_chemical_formula_sum "Si O2"
_cell_formula_units_Z 32
_cell_length_a 30.000000
_cell_length_b 9.000000
_cell_length_c 15.000000
_cell_angle_alpha 90.000000
_cell_angle_beta 50.000000
_cell_angle_gamma 90.000000
_cell_volume 3102.479995
_symmetry_space_group_name_H-M "C 2/M"
_symmetry_group_IT_number 12
_symmetry_cell_setting 'monoclinic'
loop_
_space_group_symop_operation_xyz
x,y,z
-x,y,-z
-x,-y,-z
x,-y,z
1/2+x,1/2+y,z
1/2-x,1/2+y,-z
1/2-x,1/2-y,-z
1/2+x,1/2-y,z
loop_
_atom_site_type_symbol
_atom_site_label
_atom_site_fract_x
_atom_site_fract_y
_atom_site_fract_z
Si Si1 0.112127 0.175155 0.196396
Si Si2 0.409904 0.819947 0.368876
Si Si3 0.174445 0.672713 0.769173
Si Si4 0.289734 0.825914 0.578249
Si Si5 0.816441 0.672452 0.754315
Si Si6 0.549097 0.181722 0.869245
Si Si7 0.300258 0.826022 0.052931
Si Si8 0.501535 0.178339 0.601643
O O1 0.136112 0.222085 0.262830
O O2 0.047134 0.235781 0.280729
O O3 0.116345 0.000000 0.176847
O O4 0.150699 0.263355 0.074992
O O5 0.343686 0.765041 0.451989
O O6 0.450617 0.772985 0.234623
O O7 0.438136 0.786813 0.427571
O O8 0.406286 0.000000 0.368523
O O9 0.175676 0.500000 0.743383
O O10 0.228254 0.747753 0.651329
O O11 0.111773 0.731702 0.823469
O O12 0.180977 0.683338 0.867622
O O13 0.307937 0.811758 0.659533
O O14 0.282578 0.000000 0.568781
O O15 0.830224 0.500000 0.755080
O O16 0.756718 0.723336 0.878474
O O17 0.546615 0.000000 0.874525
O O18 0.500000 0.235434 0.000000
O O19 0.287459 0.000000 0.050043
O O20 0.500000 0.218383 0.500000
O O21 0.491552 0.000000 0.620580
#
# Coordination Sequence:
#
# PCOD9223843 Si02
#       8
#     8   8   8   8   8   8   8   8
#     4  12  24  35  51  77 110 147 187 231 282 340
#     4   9  18  33  56  83 111 145 189 233 279 333
#     4   9  19  34  55  84 112 143 185 231 278 330
#     4   9  18  34  57  83 111 145 182 226 279 337
#     4  10  19  34  54  77 109 147 187 230 281 334
#     4   9  18  32  54  84 115 145 184 235 280 326
#     4  10  20  34  53  78 109 144 186 233 281 332
#     4  10  21  38  59  82 108 143 189 236 281 332
#
# _framework density 10.314329000000001
#
# number of rings (size 3 to 8) (size 9 to 14) (size 15 to 20)
#    0.000    2.250    0.000    3.000    1.750    3.750 
#    0.000    0.625    0.000    1.125    0.000    0.000 
#    0.000    0.000    0.000    0.000    0.000    0.000 
#
# Total GULP energy -178591.774574 kJ/mol
# GULP energy per Si atom -5580.992955 kJ/mol
# Density = 1.029085 g / cm^3
# Si number density = 10.314329 Si / 1000 Ang^3
#
#
#
# Elastic Constant Matrix: (Units=GPa)
#
#
# Indices 1 2 3 4 5 6 
#
# 1 86.5612 12.8913 44.5707 0.0000 -13.9973 -0.0001
# 2 12.8913 28.9104 22.6524 0.0000 -4.2484 -0.0001
# 3 44.5707 22.6524 132.3042 0.0000 -20.1650 0.0000
# 4 0.0000 0.0000 0.0000 17.5044 0.0000 -12.7124
# 5 -13.9973 -4.2484 -20.1650 0.0000 25.0206 0.0000
# 6 -0.0001 -0.0001 0.0000 -12.7124 0.0000 6.9389
#
#
#
# Elastic Compliance Matrix: (Units=1/GPa)
#
#
# Indices 1 2 3 4 5 6 
#
# 1 0.014667 -0.002932 -0.003721 0.000000 0.004708 0.000000
# 2 -0.002932 0.040581 -0.005883 -0.000002 0.000509 -0.000002
# 3 -0.003721 -0.005883 0.010659 0.000000 0.005510 0.000001
# 4 0.000000 -0.000002 0.000000 -0.172846 0.000000 -0.316664
# 5 0.004708 0.000509 0.005510 0.000000 0.047128 0.000000
# 6 0.000000 -0.000002 0.000001 -0.316664 0.000000 -0.436030
#
#
# Mechanical properties :
#
#
# Convention : Reuss Voigt Hill
#
# Bulk Modulus (GPa) = 24.48922 45.33384 34.91153
# Shear Modulus (GPa) = -10.93715 21.07020 5.06653
#
# Velocity S-wave (km/s) = -2.30509 3.19941 1.56888
# Velocity P-wave (km/s) = 2.19378 5.97262 4.49916
#
# Compressibility (1/GPa) = 0.04083430
#
# Stress axis : x y z
#
# Youngs Moduli (GPa) = 68.18206 24.64191 93.81811
#
# Poissons Ratio (x) = 0.07226 0.34912
# Poissons Ratio (y) = 0.19993 0.55190
# Poissons Ratio (z) = 0.25372 0.14496
#
# Static dielectric constant tensor:
#      x y z
#    x 1.805810 0.000000 0.002640 
#    y 0.000000 1.685950 0.000000 
#    z 0.002640 0.000000 1.742370 
# 
# From -- ./inp_files/249694.got.cif
#   From: 2010.05.17/outbox.ucp.g08.bks.cvg/sg12_125_cif.got.tgz:249694.got - 2010.06.11 11:47:21.
