data_PCOD9223025
_publ_section_title
;
Structure prediction by ZEFSAII (Michael W. Deem and Ramdas Pophale) SiO2 
 PCOD9223025
Probable space group: C 2/M
;
_chemical_formula_sum "Si O2"
_cell_formula_units_Z 48
_cell_length_a 14.651594
_cell_length_b 7.536165
_cell_length_c 23.318965
_cell_angle_alpha 90.000000
_cell_angle_beta 71.672624
_cell_angle_gamma 90.000000
_cell_volume 2444.200032
_symmetry_space_group_name_H-M "C 2/M"
_symmetry_group_IT_number 12
_symmetry_cell_setting 'monoclinic'
loop_
_space_group_symop_operation_xyz
x,y,z
-x,y,-z
-x,-y,-z
x,-y,z
1/2+x,1/2+y,z
1/2-x,1/2+y,-z
1/2-x,1/2-y,-z
1/2+x,1/2-y,z
loop_
_atom_site_type_symbol
_atom_site_label
_atom_site_fract_x
_atom_site_fract_y
_atom_site_fract_z
Si Si1 0.897697 0.287652 0.998996
Si Si2 0.465720 0.782861 0.568903
Si Si3 0.132597 0.282737 0.234521
Si Si4 0.439991 0.211871 0.332907
Si Si5 0.201313 0.286649 0.097181
Si Si6 0.273195 0.788133 0.667271
O O1 0.907047 0.500000 0.991234
O O2 0.811832 0.253996 0.060627
O O3 0.861229 0.218947 0.944455
O O4 0.000000 0.217442 0.000000
O O5 0.500000 0.721490 0.500000
O O6 0.534393 0.725575 0.607884
O O7 0.358129 0.725609 0.608079
O O8 0.466521 0.000000 0.567309
O O9 0.133764 0.500000 0.232826
O O10 0.166630 0.220448 0.165683
O O11 0.201241 0.225409 0.273514
O O12 0.024977 0.225873 0.273718
O O13 0.333406 0.250072 0.332820
O O14 0.449659 0.000000 0.332920
O O15 0.192202 0.500000 0.099535
O O16 0.282950 0.000000 0.667278
#
# Coordination Sequence:
#
# PCOD9223025 Si02
#       6
#     8   8   8   8   8   8
#     4   9  18  31  46  67  93 116 141 180 227 265
#     4   8  15  29  47  65  89 123 154 177 213 269
#     4   8  16  31  47  63  87 121 152 176 214 269
#     4   9  17  30  48  68  90 117 150 184 219 263
#     4   9  17  31  49  65  86 118 152 181 212 261
#     4   9  17  30  47  66  89 116 149 187 221 257
#
# _framework density 19.638327
#
# number of rings (size 3 to 8) (size 9 to 14) (size 15 to 20)
#    0.000    3.333    0.000    2.000    0.000    2.333 
#    0.000    6.667    0.000    1.000    0.000    0.000 
#    0.000    0.000    0.000    0.000    0.000    0.000 
#
# Total GULP energy -133789.597122 kJ/mol
# GULP energy per Si atom -5574.566547 kJ/mol
# Density = 1.959363 g / cm^3
# Si number density = 19.638327 Si / 1000 Ang^3
#
#
#
# Elastic Constant Matrix: (Units=GPa)
#
#
# Indices 1 2 3 4 5 6 
#
# 1 206.2223 1.6320 130.1135 0.0000 -12.5309 0.0000
# 2 1.6320 44.2165 4.5527 0.0000 2.0400 0.0000
# 3 130.1135 4.5527 222.7506 0.0000 5.5566 0.0000
# 4 0.0000 0.0000 0.0000 7.9365 0.0000 -3.8889
# 5 -12.5309 2.0400 5.5566 0.0000 10.1267 0.0000
# 6 0.0000 0.0000 0.0000 -3.8889 0.0000 18.1599
#
#
#
# Elastic Compliance Matrix: (Units=1/GPa)
#
#
# Indices 1 2 3 4 5 6 
#
# 1 0.009505 -0.000438 -0.005920 0.000000 0.015098 0.000000
# 2 -0.000438 0.022876 -0.000084 0.000000 -0.005104 0.000000
# 3 -0.005920 -0.000084 0.008244 0.000000 -0.011832 0.000000
# 4 0.000000 0.000000 0.000000 0.140772 0.000000 0.030146
# 5 0.015098 -0.005104 -0.011832 0.000000 0.124952 0.000000
# 6 0.000000 0.000000 0.000000 0.030146 0.000000 0.061522
#
#
# Mechanical properties :
#
#
# Convention : Reuss Voigt Hill
#
# Bulk Modulus (GPa) = 36.04745 82.86507 59.45626
# Shear Modulus (GPa) = 12.82041 29.70402 21.26221
#
# Velocity S-wave (km/s) = 2.55782 3.89338 3.29399
# Velocity P-wave (km/s) = 5.20757 7.90559 6.69392
#
# Compressibility (1/GPa) = 0.02774122
#
# Stress axis : x y z
#
# Youngs Moduli (GPa) = 105.20736 43.71328 121.29916
#
# Poissons Ratio (x) = 0.01914 0.71806
# Poissons Ratio (y) = 0.04607 0.01025
# Poissons Ratio (z) = 0.62280 0.00369
#
# Static dielectric constant tensor:
#      x y z
#    x 1.680260 0.000000 0.010670 
#    y 0.000000 1.742020 0.000000 
#    z 0.010670 0.000000 1.672980 
# 
# From -- ./inp_files/303833.got.cif
#   From: 2010.05.17/outbox.cif.g08.bks.cpg/sg12_152_cif.got.tgz:303833.got - 2010.06.03 13:09:07.
