data_PCOD9223071
_publ_section_title
;
Structure prediction by ZEFSAII (Michael W. Deem and Ramdas Pophale) SiO2 
 PCOD9223071
Probable space group: C 2/M
;
_chemical_formula_sum "Si O2"
_cell_formula_units_Z 40
_cell_length_a 10.987685
_cell_length_b 29.515184
_cell_length_c 7.230863
_cell_angle_alpha 90.000000
_cell_angle_beta 137.162006
_cell_angle_gamma 90.000000
_cell_volume 1594.426732
_symmetry_space_group_name_H-M "C 2/M"
_symmetry_group_IT_number 12
_symmetry_cell_setting 'monoclinic'
loop_
_space_group_symop_operation_xyz
x,y,z
-x,y,-z
-x,-y,-z
x,-y,z
1/2+x,1/2+y,z
1/2-x,1/2+y,-z
1/2-x,1/2-y,-z
1/2+x,1/2-y,z
loop_
_atom_site_type_symbol
_atom_site_label
_atom_site_fract_x
_atom_site_fract_y
_atom_site_fract_z
Si Si1 0.362451 0.381865 0.104343
Si Si2 0.938124 0.551051 0.212331
Si Si3 0.498397 0.714003 0.222663
Si Si4 0.086968 0.308759 0.292268
Si Si5 0.251624 0.398356 0.558105
O O1 0.367111 0.326941 0.133897
O O2 0.571637 0.392562 0.369259
O O3 0.208458 0.412674 0.019098
O O4 0.326123 0.396293 0.849846
O O5 0.873999 0.500000 0.114978
O O6 0.000000 0.555514 0.500000
O O7 0.133756 0.560926 0.348834
O O8 0.703971 0.704198 0.505712
O O9 0.478666 0.766416 0.259165
O O10 0.500000 0.713539 0.000000
O O11 0.110853 0.356541 0.414879
O O12 0.000000 0.317255 0.000000
#
# Coordination Sequence:
#
# PCOD9223071 Si02
#       5
#     8   8   8   8   8
#     4   9  15  28  47  66  92 125 151 186 235 278
#     4   9  18  29  45  70  93 115 153 201 238 273
#     4   9  14  26  44  67  94 124 157 186 226 271
#     4   9  16  24  44  71  94 123 158 188 219 274
#     4   9  16  29  45  66  94 124 150 188 235 272
#
# _framework density 25.087385000000001
#
# number of rings (size 3 to 8) (size 9 to 14) (size 15 to 20)
#    0.000    3.000    4.000    0.000    0.000    0.800 
#    0.000    5.000    0.000    5.400    0.000    5.600 
#    0.000    0.000    0.000    0.000    0.000    0.000 
#
# Total GULP energy -111399.822384 kJ/mol
# GULP energy per Si atom -5569.991119 kJ/mol
# Density = 2.503029 g / cm^3
# Si number density = 25.087385 Si / 1000 Ang^3
#
#
#
# Elastic Constant Matrix: (Units=GPa)
#
#
# Indices 1 2 3 4 5 6 
#
# 1 60.5668 17.8675 31.4934 0.0000 1.8875 0.0000
# 2 17.8675 123.1101 64.3978 0.0000 44.8504 0.0000
# 3 31.4934 64.3978 154.3255 0.0000 13.2702 0.0000
# 4 0.0000 0.0000 0.0000 60.2665 0.0000 9.1012
# 5 1.8875 44.8504 13.2702 0.0000 35.5634 0.0000
# 6 0.0000 0.0000 0.0000 9.1012 0.0000 18.7745
#
#
#
# Elastic Compliance Matrix: (Units=1/GPa)
#
#
# Indices 1 2 3 4 5 6 
#
# 1 0.018693 -0.002062 -0.003195 0.000000 0.002800 0.000000
# 2 -0.002062 0.019706 -0.005863 0.000000 -0.022555 0.000000
# 3 -0.003195 -0.005863 0.009224 0.000000 0.004121 0.000000
# 4 0.000000 0.000000 0.000000 0.017904 0.000000 -0.008679
# 5 0.002800 -0.022555 0.004121 0.000000 0.054877 0.000000
# 6 0.000000 0.000000 0.000000 -0.008679 0.000000 0.057471
#
#
# Mechanical properties :
#
#
# Convention : Reuss Voigt Hill
#
# Bulk Modulus (GPa) = 39.39615 62.83553 51.11584
# Shear Modulus (GPa) = 23.97221 37.87045 30.92133
#
# Velocity S-wave (km/s) = 3.09455 3.88950 3.51457
# Velocity P-wave (km/s) = 5.33910 6.72844 6.07363
#
# Compressibility (1/GPa) = 0.02538319
#
# Stress axis : x y z
#
# Youngs Moduli (GPa) = 53.49573 50.74669 108.41438
#
# Poissons Ratio (x) = 0.10464 0.34640
# Poissons Ratio (y) = 0.11030 0.63560
# Poissons Ratio (z) = 0.17093 0.29751
#
# Static dielectric constant tensor:
#      x y z
#    x 2.379770 0.000000 -0.047560 
#    y 0.000000 2.053920 0.000000 
#    z -0.047560 0.000000 1.954920 
# 
# From -- ./inp_files/53513.got.cif
#   From: 2010.05.17/outbox.cif.g08.bks.cpg/sg12_27_cif.got.tgz:53513.got - 2010.06.03 13:09:07.
