data_PCOD9223579
_publ_section_title
;
Structure prediction by ZEFSAII (Michael W. Deem and Ramdas Pophale) SiO2 
 PCOD9223579
Probable space group: C 2/M
;
_chemical_formula_sum "Si O2"
_cell_formula_units_Z 32
_cell_length_a 30.000000
_cell_length_b 9.000000
_cell_length_c 15.000000
_cell_angle_alpha 90.000000
_cell_angle_beta 120.000000
_cell_angle_gamma 90.000000
_cell_volume 3507.402885
_symmetry_space_group_name_H-M "C 2/M"
_symmetry_group_IT_number 12
_symmetry_cell_setting 'monoclinic'
loop_
_space_group_symop_operation_xyz
x,y,z
-x,y,-z
-x,-y,-z
x,-y,z
1/2+x,1/2+y,z
1/2-x,1/2+y,-z
1/2-x,1/2-y,-z
1/2+x,1/2-y,z
loop_
_atom_site_type_symbol
_atom_site_label
_atom_site_fract_x
_atom_site_fract_y
_atom_site_fract_z
Si Si1 0.882860 0.180220 0.795144
Si Si2 0.740756 0.678364 0.893543
Si Si3 0.630566 0.681002 0.701687
Si Si4 0.841522 0.820413 0.939858
Si Si5 0.804510 0.178209 0.569041
Si Si6 0.031179 0.181883 0.253628
Si Si7 0.606868 0.680314 0.481216
Si Si8 0.081818 0.819235 0.831063
O O1 0.876699 0.220511 0.891073
O O2 0.832987 0.225796 0.688254
O O3 0.932782 0.231973 0.791411
O O4 0.884228 0.000000 0.793326
O O5 0.740905 0.500000 0.902776
O O6 0.687153 0.722840 0.793547
O O7 0.787642 0.737649 0.881393
O O8 0.750000 0.750000 0.000000
O O9 0.630579 0.500000 0.697931
O O10 0.614328 0.736383 0.588495
O O11 0.591389 0.727000 0.739622
O O12 0.833870 0.000000 0.932832
O O13 0.871043 0.776018 0.059129
O O14 0.750000 0.250000 0.500000
O O15 0.843311 0.217030 0.527932
O O16 0.799729 0.000000 0.566059
O O17 0.057942 0.227364 0.373405
O O18 0.972944 0.232709 0.188701
O O19 0.031272 0.000000 0.252814
O O20 0.604152 0.500000 0.482551
O O21 0.081396 0.000000 0.832350
#
# Coordination Sequence:
#
# PCOD9223579 Si02
#       8
#     8   8   8   8   8   8   8   8
#     4   8  16  29  44  65  96 128 157 193 238 284
#     4  11  21  34  51  70  99 131 161 197 238 283
#     4   9  17  28  42  65  95 124 153 192 237 281
#     4  10  19  32  48  70 101 130 157 196 239 280
#     4   9  17  29  44  64  90 122 159 195 231 279
#     4   8  14  26  43  66  95 126 157 193 240 287
#     4   8  15  27  42  62  93 125 151 188 240 285
#     4   9  16  26  43  67  94 122 159 199 235 281
#
# _framework density 9.1235599999999994
#
# number of rings (size 3 to 8) (size 9 to 14) (size 15 to 20)
#    0.000    3.000    1.250    1.875    1.750    1.000 
#    0.000    5.000    0.000    0.000    0.000    5.250 
#    0.000    1.000    0.000    0.000    0.000    0.000 
#
# Total GULP energy -178172.201180 kJ/mol
# GULP energy per Si atom -5567.881287 kJ/mol
# Density = 0.910279 g / cm^3
# Si number density = 9.123560 Si / 1000 Ang^3
#
#
#
# Elastic Constant Matrix: (Units=GPa)
#
#
# Indices 1 2 3 4 5 6 
#
# 1 62.2678 6.2398 15.5332 0.0000 7.6732 0.0000
# 2 6.2398 2.8184 1.0491 0.0000 -0.1545 0.0000
# 3 15.5332 1.0491 13.6200 0.0000 -24.5656 0.0000
# 4 0.0000 0.0000 0.0000 12.0266 0.0000 4.5144
# 5 7.6732 -0.1545 -24.5656 0.0000 29.0095 0.0000
# 6 0.0000 0.0000 0.0000 4.5144 0.0000 11.0103
#
#
#
# Elastic Compliance Matrix: (Units=1/GPa)
#
#
# Indices 1 2 3 4 5 6 
#
# 1 0.010039 -0.031116 0.026813 0.000000 0.019885 0.000000
# 2 -0.031116 0.437166 -0.039550 0.000000 -0.022933 0.000000
# 3 0.026813 -0.039550 -0.062039 0.000000 -0.059839 0.000000
# 4 0.000000 0.000000 0.000000 0.098274 0.000000 -0.040294
# 5 0.019885 -0.022933 -0.059839 0.000000 -0.021582 0.000000
# 6 0.000000 0.000000 0.000000 -0.040294 0.000000 0.107345
#
#
# Mechanical properties :
#
#
# Convention : Reuss Voigt Hill
#
# Bulk Modulus (GPa) = 3.36180 13.81671 8.58925
# Shear Modulus (GPa) = 6.61322 14.13489 10.37406
#
# Velocity S-wave (km/s) = 1.90581 2.78625 2.38698
# Velocity P-wave (km/s) = 2.58635 4.23549 3.50917
#
# Compressibility (1/GPa) = 0.29745994
#
# Stress axis : x y z
#
# Youngs Moduli (GPa) = 99.61527 2.28746 -16.11882
#
# Poissons Ratio (x) = 0.07118 0.43220
# Poissons Ratio (y) = 3.09964 -0.63750
# Poissons Ratio (z) = -2.67101 0.09047
#
# Static dielectric constant tensor:
#      x y z
#    x 1.648280 0.000000 -0.020000 
#    y 0.000000 1.614030 0.000000 
#    z -0.020000 0.000000 1.626150 
# 
# From -- ./inp_files/249211.got.cif
#   From: 2010.05.17/outbox.ucp.g08.bks.cvg/sg12_125_cif.got.tgz:249211.got - 2010.06.11 11:47:21.
