data_PCOD9223962
_publ_section_title
;
Structure prediction by ZEFSAII (Michael W. Deem and Ramdas Pophale) SiO2 
 PCOD9223962
Probable space group: C 2/M
;
_chemical_formula_sum "Si O2"
_cell_formula_units_Z 24
_cell_length_a 30.000000
_cell_length_b 9.000000
_cell_length_c 9.000000
_cell_angle_alpha 90.000000
_cell_angle_beta 90.000000
_cell_angle_gamma 90.000000
_cell_volume 2430.000000
_symmetry_space_group_name_H-M "C 2/M"
_symmetry_group_IT_number 12
_symmetry_cell_setting 'monoclinic'
loop_
_space_group_symop_operation_xyz
x,y,z
-x,y,-z
-x,-y,-z
x,-y,z
1/2+x,1/2+y,z
1/2-x,1/2+y,-z
1/2-x,1/2-y,-z
1/2+x,1/2-y,z
loop_
_atom_site_type_symbol
_atom_site_label
_atom_site_fract_x
_atom_site_fract_y
_atom_site_fract_z
Si Si1 0.376341 0.331870 0.417609
Si Si2 0.435300 0.174063 0.646142
Si Si3 0.111199 0.324675 0.861184
Si Si4 0.655977 0.826033 0.159281
Si Si5 0.785828 0.831232 0.606818
Si Si6 0.985072 0.172346 0.171701
O O1 0.384037 0.500000 0.362667
O O2 0.419627 0.271354 0.505585
O O3 0.364464 0.215192 0.290396
O O4 0.333074 0.337272 0.520935
O O5 0.390949 0.182428 0.749615
O O6 0.478471 0.239638 0.729535
O O7 0.442392 0.000000 0.608600
O O8 0.104034 0.500000 0.882917
O O9 0.063568 0.246334 0.836474
O O10 0.140623 0.267375 0.998568
O O11 0.697335 0.747725 0.241523
O O12 0.667212 0.000000 0.147530
O O13 0.750000 0.750000 0.500000
O O14 0.770608 0.000000 0.634749
O O15 0.983653 0.000000 0.219783
O O16 0.000000 0.175321 0.000000
#
# Coordination Sequence:
#
# PCOD9223962 Si02
#       6
#     8   8   8   8   8   8
#     4  10  22  39  57  83 116 147 182 230 284 334
#     4  10  19  35  57  80 109 149 193 236 277 326
#     4  11  22  37  57  83 114 151 189 231 280 329
#     4   9  19  35  57  83 112 144 184 229 276 329
#     4  10  21  38  63  88 112 142 181 225 274 335
#     4  11  22  34  53  81 114 151 192 236 277 325
#
# _framework density 9.8765429999999999
#
# number of rings (size 3 to 8) (size 9 to 14) (size 15 to 20)
#    0.000    1.833    1.667    2.500    0.000    5.333 
#    0.000    4.167    0.000    0.000    0.000    0.000 
#    0.000    0.000    0.000    0.000    0.000    0.000 
#
# Total GULP energy -133854.211580 kJ/mol
# GULP energy per Si atom -5577.258816 kJ/mol
# Density = 0.985406 g / cm^3
# Si number density = 9.876543 Si / 1000 Ang^3
#
#
#
# Elastic Constant Matrix: (Units=GPa)
#
#
# Indices 1 2 3 4 5 6 
#
# 1 73.0722 47.8606 29.7750 0.0000 52.0861 0.0000
# 2 47.8606 109.9814 26.2680 0.0000 36.8815 0.0000
# 3 29.7750 26.2680 77.2870 0.0000 41.0506 0.0000
# 4 0.0000 0.0000 0.0000 29.0660 0.0000 9.4265
# 5 52.0861 36.8815 41.0506 0.0000 51.1698 0.0000
# 6 0.0000 0.0000 0.0000 9.4265 0.0000 35.2207
#
#
#
# Elastic Compliance Matrix: (Units=1/GPa)
#
#
# Indices 1 2 3 4 5 6 
#
# 1 0.063557 -0.007200 0.016672 0.000000 -0.072880 0.000000
# 2 -0.007200 0.012842 -0.000988 0.000000 -0.001134 0.000000
# 3 0.016672 -0.000988 0.026986 0.000000 -0.037907 0.000000
# 4 0.000000 0.000000 0.000000 0.037675 0.000000 -0.010083
# 5 -0.072880 -0.001134 -0.037907 0.000000 0.124956 0.000000
# 6 0.000000 0.000000 0.000000 -0.010083 0.000000 0.031091
#
#
# Mechanical properties :
#
#
# Convention : Reuss Voigt Hill
#
# Bulk Modulus (GPa) = 8.30903 52.01643 30.16273
# Shear Modulus (GPa) = 15.61244 33.52043 24.56644
#
# Velocity S-wave (km/s) = 2.81442 4.12390 3.53040
# Velocity P-wave (km/s) = 3.84407 7.00471 5.64990
#
# Compressibility (1/GPa) = 0.12035099
#
# Stress axis : x y z
#
# Youngs Moduli (GPa) = 15.73400 77.86869 37.05602
#
# Poissons Ratio (x) = 0.56066 -0.61778
# Poissons Ratio (y) = 0.11329 0.03663
# Poissons Ratio (z) = -0.26231 0.07697
#
# Static dielectric constant tensor:
#      x y z
#    x 1.670540 0.000000 -0.058200 
#    y 0.000000 1.686940 0.000000 
#    z -0.058200 0.000000 1.766570 
# 
# From -- ./inp_files/108647.got.cif
#   From: 2010.05.17/outbox.ucp.g08.bks.cvg/sg12_55_cif.got.tgz:108647.got - 2010.06.11 11:47:21.
