data_PCOD9223732
_publ_section_title
;
Structure prediction by ZEFSAII (Michael W. Deem and Ramdas Pophale) SiO2 
 PCOD9223732
Probable space group: C 2/M
;
_chemical_formula_sum "Si O2"
_cell_formula_units_Z 32
_cell_length_a 30.000000
_cell_length_b 9.000000
_cell_length_c 15.000000
_cell_angle_alpha 90.000000
_cell_angle_beta 120.000000
_cell_angle_gamma 90.000000
_cell_volume 3507.402885
_symmetry_space_group_name_H-M "C 2/M"
_symmetry_group_IT_number 12
_symmetry_cell_setting 'monoclinic'
loop_
_space_group_symop_operation_xyz
x,y,z
-x,y,-z
-x,-y,-z
x,-y,z
1/2+x,1/2+y,z
1/2-x,1/2+y,-z
1/2-x,1/2-y,-z
1/2+x,1/2-y,z
loop_
_atom_site_type_symbol
_atom_site_label
_atom_site_fract_x
_atom_site_fract_y
_atom_site_fract_z
Si Si1 0.661490 0.676487 0.158165
Si Si2 0.696939 0.179618 0.911804
Si Si3 0.883878 0.824599 0.695710
Si Si4 0.646988 0.179664 0.517380
Si Si5 0.103099 0.321121 0.944857
Si Si6 0.490484 0.820530 0.771761
Si Si7 0.222438 0.319566 0.742668
Si Si8 0.965835 0.679868 0.545790
O O1 0.658781 0.500000 0.136413
O O2 0.649430 0.698064 0.249435
O O3 0.718792 0.730943 0.192851
O O4 0.620804 0.760519 0.057119
O O5 0.647106 0.227031 0.918318
O O6 0.692796 0.219640 0.803422
O O7 0.701069 0.000000 0.922266
O O8 0.750000 0.250000 0.000000
O O9 0.857411 0.749247 0.584181
O O10 0.940285 0.753093 0.764324
O O11 0.889494 0.000000 0.685543
O O12 0.694139 0.230594 0.625119
O O13 0.594005 0.220937 0.514894
O O14 0.648084 0.000000 0.510062
O O15 0.102973 0.500000 0.944087
O O16 0.045453 0.272561 0.864047
O O17 0.487715 0.781051 0.664367
O O18 0.486032 0.000000 0.774692
O O19 0.223568 0.500000 0.739697
O O20 0.967072 0.500000 0.542079
O O21 0.000000 0.740008 0.500000
#
# Coordination Sequence:
#
# PCOD9223732 Si02
#       8
#     8   8   8   8   8   8   8   8
#     4  10  21  37  55  75 103 142 181 217 263 317
#     4  10  19  33  54  79 110 143 173 213 260 310
#     4  10  21  37  55  75 103 138 178 222 266 315
#     4   9  18  33  54  78 103 136 174 214 263 312
#     4  10  21  34  53  83 110 135 175 222 263 306
#     4   9  19  35  53  77 107 136 172 218 267 311
#     4   9  18  33  54  79 106 138 176 212 254 314
#     4   8  14  25  46  74  99 125 162 206 249 299
#
# _framework density 9.1235599999999994
#
# number of rings (size 3 to 8) (size 9 to 14) (size 15 to 20)
#    0.000    2.625    1.250    1.125    1.750    2.500 
#    0.000    3.750    0.000    6.000    0.000    0.000 
#    0.000    0.000    0.000    0.000    0.000    0.000 
#
# Total GULP energy -178366.914473 kJ/mol
# GULP energy per Si atom -5573.966077 kJ/mol
# Density = 0.910279 g / cm^3
# Si number density = 9.123560 Si / 1000 Ang^3
#
#
#
# Elastic Constant Matrix: (Units=GPa)
#
#
# Indices 1 2 3 4 5 6 
#
# 1 -6.5328 7.7274 10.8251 0.0000 -11.5900 0.0000
# 2 7.7274 6.3943 11.7019 0.0000 -6.2878 0.0000
# 3 10.8251 11.7019 69.7157 0.0000 19.1768 0.0000
# 4 0.0000 0.0000 0.0000 16.7815 0.0000 0.6095
# 5 -11.5900 -6.2878 19.1768 0.0000 19.6825 0.0000
# 6 0.0000 0.0000 0.0000 0.6095 0.0000 20.2603
#
#
#
# Elastic Compliance Matrix: (Units=1/GPa)
#
#
# Indices 1 2 3 4 5 6 
#
# 1 -0.064490 0.129554 -0.017310 0.000000 0.020279 0.000000
# 2 0.129554 -0.802923 0.224357 0.000000 -0.398809 0.000000
# 3 -0.017310 0.224357 -0.051282 0.000000 0.111445 0.000000
# 4 0.000000 0.000000 0.000000 0.059654 0.000000 -0.001795
# 5 0.020279 -0.398809 0.111445 0.000000 -0.173239 0.000000
# 6 0.000000 0.000000 0.000000 -0.001795 0.000000 0.049412
#
#
# Mechanical properties :
#
#
# Convention : Reuss Voigt Hill
#
# Bulk Modulus (GPa) = -4.07342 14.45403 5.19030
# Shear Modulus (GPa) = -2.87703 13.96638 5.54467
#
# Velocity S-wave (km/s) = -1.25703 2.76959 1.74507
# Velocity P-wave (km/s) = 2.08424 4.26216 2.62887
#
# Compressibility (1/GPa) = -0.24549396
#
# Stress axis : x y z
#
# Youngs Moduli (GPa) = -15.50630 -1.24545 -19.49991
#
# Poissons Ratio (x) = 0.16135 -0.33755
# Poissons Ratio (y) = 2.00891 4.37494
# Poissons Ratio (z) = -0.26842 0.27942
#
# Static dielectric constant tensor:
#      x y z
#    x 1.626540 0.000000 -0.003790 
#    y 0.000000 1.615190 0.000000 
#    z -0.003790 0.000000 1.618450 
# 
# From -- ./inp_files/249200.got.cif
#   From: 2010.05.17/outbox.ucp.g08.bks.cvg/sg12_125_cif.got.tgz:249200.got - 2010.06.11 11:47:21.
