data_PCOD9223114
_publ_section_title
;
Structure prediction by ZEFSAII (Michael W. Deem and Ramdas Pophale) SiO2 
 PCOD9223114
Probable space group: C 2/M
;
_chemical_formula_sum "Si O2"
_cell_formula_units_Z 40
_cell_length_a 9.405816
_cell_length_b 26.643304
_cell_length_c 16.409577
_cell_angle_alpha 90.000000
_cell_angle_beta 157.101305
_cell_angle_gamma 90.000000
_cell_volume 1600.097656
_symmetry_space_group_name_H-M "C 2/M"
_symmetry_group_IT_number 12
_symmetry_cell_setting 'monoclinic'
loop_
_space_group_symop_operation_xyz
x,y,z
-x,y,-z
-x,-y,-z
x,-y,z
1/2+x,1/2+y,z
1/2-x,1/2+y,-z
1/2-x,1/2-y,-z
1/2+x,1/2-y,z
loop_
_atom_site_type_symbol
_atom_site_label
_atom_site_fract_x
_atom_site_fract_y
_atom_site_fract_z
Si Si1 0.062194 0.500000 0.339236
Si Si2 0.705207 0.500000 0.974381
Si Si3 0.550254 0.286731 0.832703
Si Si4 0.677436 0.104745 0.458009
Si Si5 0.881802 0.699197 0.249055
Si Si6 0.576310 0.604051 0.840795
O O1 0.725340 0.500000 0.226688
O O2 0.263935 0.552194 0.461060
O O3 0.908296 0.500000 0.167346
O O4 0.778508 0.551879 0.965301
O O5 0.178116 0.295778 0.685340
O O6 0.530149 0.253747 0.741244
O O7 0.749181 0.340651 0.940171
O O8 0.750000 0.250000 0.000000
O O9 0.668134 0.153556 0.395125
O O10 0.916652 0.106778 0.665572
O O11 0.258720 0.102674 0.271232
O O12 0.500000 0.684479 0.000000
#
# Coordination Sequence:
#
# PCOD9223114 Si02
#       6
#     4   4   8   8   8   8
#     4   9  17  23  41  67  90 124 150 194 233 287
#     4   9  17  25  43  63  92 120 158 187 239 283
#     4   9  18  30  48  68  95 126 158 192 233 275
#     4   9  17  27  43  64  96 121 156 189 239 279
#     4   9  18  30  47  68  94 127 157 195 229 280
#     4   9  17  29  42  65  93 126 151 194 236 282
#
# _framework density 24.998473000000001
#
# number of rings (size 3 to 8) (size 9 to 14) (size 15 to 20)
#    0.000    3.000    0.000    0.600   11.200    3.200 
#    0.000    0.000    0.000    0.000    0.000    7.700 
#    0.000    3.200    0.000    0.000    0.000    0.000 
#
# Total GULP energy -111554.281155 kJ/mol
# GULP energy per Si atom -5577.714058 kJ/mol
# Density = 2.494158 g / cm^3
# Si number density = 24.998473 Si / 1000 Ang^3
#
#
#
# Elastic Constant Matrix: (Units=GPa)
#
#
# Indices 1 2 3 4 5 6 
#
# 1 87.7847 27.6547 -12.6357 0.0048 -2.6375 0.0079
# 2 27.6547 274.7742 16.3582 0.0021 -16.5425 0.0016
# 3 -12.6357 16.3582 -22.4747 -0.0289 13.4274 -0.0195
# 4 0.0048 0.0021 -0.0289 28.2190 -0.0037 -32.2937
# 5 -2.6375 -16.5425 13.4274 -0.0037 11.9612 0.0007
# 6 0.0079 0.0016 -0.0195 -32.2937 0.0007 13.1959
#
#
#
# Elastic Compliance Matrix: (Units=1/GPa)
#
#
# Indices 1 2 3 4 5 6 
#
# 1 0.011248 -0.000594 -0.003450 0.000010 0.005533 0.000013
# 2 -0.000594 0.003548 0.003453 -0.000005 0.000899 -0.000008
# 3 -0.003450 0.003453 -0.022531 0.000032 0.029308 0.000044
# 4 0.000010 -0.000005 0.000032 -0.019681 -0.000044 -0.048163
# 5 0.005533 0.000899 0.029308 -0.000044 0.053167 -0.000069
# 6 0.000013 -0.000008 0.000044 -0.048163 -0.000069 -0.042086
#
#
# Mechanical properties :
#
#
# Convention : Reuss Voigt Hill
#
# Bulk Modulus (GPa) = -112.14134 44.75984 -33.69075
# Shear Modulus (GPa) = -275.83798 31.25570 -122.29114
#
# Velocity S-wave (km/s) = -10.51577 3.53980 -7.00183
# Velocity P-wave (km/s) = 13.87078 5.88649 8.88110
#
# Compressibility (1/GPa) = -0.00891732
#
# Stress axis : x y z
#
# Youngs Moduli (GPa) = 88.90408 281.87670 -44.38269
#
# Poissons Ratio (x) = 0.16731 -0.15314
# Poissons Ratio (y) = 0.05277 0.15326
# Poissons Ratio (z) = 0.30676 -0.97335
#
# Static dielectric constant tensor:
#      x y z
#    x 2.231800 0.000000 0.170830 
#    y 0.000000 2.121740 0.000010 
#    z 0.170830 0.000010 2.021440 
# 
# From -- ./inp_files/49909.got.cif
#   From: 2010.05.17/outbox.cif.g08.bks.cpg/sg12_25_cif.got.tgz:49909.got - 2010.06.03 13:09:07.
