data_PCOD9223307
_publ_section_title
;
Structure prediction by ZEFSAII (Michael W. Deem and Ramdas Pophale) SiO2 
 PCOD9223307
Probable space group: C 2/M
;
_chemical_formula_sum "Si O2"
_cell_formula_units_Z 32
_cell_length_a 24.000000
_cell_length_b 9.000000
_cell_length_c 18.000000
_cell_angle_alpha 90.000000
_cell_angle_beta 80.000000
_cell_angle_gamma 90.000000
_cell_volume 3828.932544
_symmetry_space_group_name_H-M "C 2/M"
_symmetry_group_IT_number 12
_symmetry_cell_setting 'monoclinic'
loop_
_space_group_symop_operation_xyz
x,y,z
-x,y,-z
-x,-y,-z
x,-y,z
1/2+x,1/2+y,z
1/2-x,1/2+y,-z
1/2-x,1/2-y,-z
1/2+x,1/2-y,z
loop_
_atom_site_type_symbol
_atom_site_label
_atom_site_fract_x
_atom_site_fract_y
_atom_site_fract_z
Si Si1 0.462811 0.678687 0.345603
Si Si2 0.770745 0.679373 0.071879
Si Si3 0.924534 0.828548 0.903961
Si Si4 0.048178 0.171835 0.814242
Si Si5 0.093646 0.820856 0.346321
Si Si6 0.932373 0.671381 0.498732
Si Si7 0.900742 0.324286 0.056849
Si Si8 0.332273 0.680927 0.808907
O O1 0.461006 0.500000 0.350286
O O2 0.439609 0.725447 0.271257
O O3 0.529630 0.719183 0.335290
O O4 0.428390 0.747417 0.421165
O O5 0.767670 0.500000 0.066288
O O6 0.835388 0.723332 0.068039
O O7 0.730260 0.723316 0.150096
O O8 0.750000 0.750000 0.000000
O O9 0.873436 0.768726 0.866080
O O10 0.980651 0.825964 0.841806
O O11 0.912231 0.000000 0.925643
O O12 0.931958 0.742845 0.978454
O O13 0.074253 0.267575 0.872665
O O14 0.066087 0.000000 0.817926
O O15 0.099234 0.751136 0.426381
O O16 0.140052 0.770476 0.275203
O O17 0.095674 0.000000 0.350887
O O18 0.916147 0.500000 0.497906
O O19 0.000000 0.678681 0.500000
O O20 0.903646 0.500000 0.051935
O O21 0.335061 0.500000 0.806817
#
# Coordination Sequence:
#
# PCOD9223307 Si02
#       8
#     8   8   8   8   8   8   8   8
#     4   9  16  28  46  68  91 118 156 193 225 269
#     4  10  20  34  51  69  91 122 161 201 241 284
#     4  10  18  32  52  70  90 123 165 201 235 276
#     4  10  20  33  50  71  93 124 166 202 232 275
#     4   9  15  27  47  69  91 117 153 195 232 268
#     4   9  17  27  40  64  98 130 151 173 221 285
#     4  11  23  34  45  68  98 128 160 195 241 290
#     4   9  16  29  51  72  90 118 158 202 239 270
#
# _framework density 8.3574210000000004
#
# number of rings (size 3 to 8) (size 9 to 14) (size 15 to 20)
#    0.000    2.375    2.500    1.125    0.000    4.500 
#    0.000    1.250    0.000    0.000    0.000    0.875 
#    0.000    0.000    0.000    0.000    0.000    0.000 
#
# Total GULP energy -178285.951349 kJ/mol
# GULP energy per Si atom -5571.435980 kJ/mol
# Density = 0.833840 g / cm^3
# Si number density = 8.357421 Si / 1000 Ang^3
#
#
#
# Elastic Constant Matrix: (Units=GPa)
#
#
# Indices 1 2 3 4 5 6 
#
# 1 8.6703 5.5247 7.0504 0.0000 -1.7664 0.0000
# 2 5.5247 9.0742 30.3217 0.0000 1.5466 0.0000
# 3 7.0504 30.3217 146.1300 0.0000 -6.1544 0.0000
# 4 0.0000 0.0000 0.0000 -2.8891 0.0000 -0.7943
# 5 -1.7664 1.5466 -6.1544 0.0000 17.7602 0.0000
# 6 0.0000 0.0000 0.0000 -0.7943 0.0000 11.8825
#
#
#
# Elastic Compliance Matrix: (Units=1/GPa)
#
#
# Indices 1 2 3 4 5 6 
#
# 1 3.775524 -6.975096 1.325908 0.000000 1.442413 0.000000
# 2 -6.975096 13.315907 -2.541645 0.000000 -2.734127 0.000000
# 3 1.325908 -2.541645 0.492319 0.000000 0.523820 0.000000
# 4 0.000000 0.000000 0.000000 -0.339883 0.000000 -0.022721
# 5 1.442413 -2.734127 0.523820 0.000000 0.619391 0.000000
# 6 0.000000 0.000000 0.000000 -0.022721 0.000000 0.082639
#
#
# Mechanical properties :
#
#
# Convention : Reuss Voigt Hill
#
# Bulk Modulus (GPa) = 0.83189 27.74089 14.28639
# Shear Modulus (GPa) = 0.14397 13.41589 6.77993
#
# Velocity S-wave (km/s) = 0.29381 2.83615 2.01619
# Velocity P-wave (km/s) = 0.78350 5.23045 3.73975
#
# Compressibility (1/GPa) = 1.20208498
#
# Stress axis : x y z
#
# Youngs Moduli (GPa) = 0.26486 0.07510 2.03120
#
# Poissons Ratio (x) = 0.52382 -2.69319
# Poissons Ratio (y) = 1.84745 5.16260
# Poissons Ratio (z) = -0.35119 0.19087
#
# Static dielectric constant tensor:
#      x y z
#    x 1.560850 0.000000 0.001520 
#    y 0.000000 1.554680 0.000000 
#    z 0.001520 0.000000 1.560220 
# 
# From -- ./inp_files/281300.got.cif
#   From: 2010.05.17/outbox.ucp.g08.bks.cvg/sg12_141_cif.got.tgz:281300.got - 2010.06.11 11:47:21.
