data_PCOD9223404
_publ_section_title
;
Structure prediction by ZEFSAII (Michael W. Deem and Ramdas Pophale) SiO2 
 PCOD9223404
Probable space group: C 2/M
;
_chemical_formula_sum "Si O2"
_cell_formula_units_Z 28
_cell_length_a 15.000000
_cell_length_b 9.000000
_cell_length_c 24.000000
_cell_angle_alpha 90.000000
_cell_angle_beta 60.000000
_cell_angle_gamma 90.000000
_cell_volume 2805.922308
_symmetry_space_group_name_H-M "C 2/M"
_symmetry_group_IT_number 12
_symmetry_cell_setting 'monoclinic'
loop_
_space_group_symop_operation_xyz
x,y,z
-x,y,-z
-x,-y,-z
x,-y,z
1/2+x,1/2+y,z
1/2-x,1/2+y,-z
1/2-x,1/2-y,-z
1/2+x,1/2-y,z
loop_
_atom_site_type_symbol
_atom_site_label
_atom_site_fract_x
_atom_site_fract_y
_atom_site_fract_z
Si Si1 0.168809 0.824678 0.292851
Si Si2 0.038441 0.172848 0.924082
Si Si3 0.741322 0.675505 0.146495
Si Si4 0.840702 0.323319 0.935109
Si Si5 0.114288 0.173694 0.490087
Si Si6 0.542188 0.823503 0.619038
Si Si7 0.797101 0.320234 0.348952
O O1 0.186870 0.804454 0.222584
O O2 0.268383 0.773003 0.296221
O O3 0.070099 0.744014 0.347689
O O4 0.154584 0.000000 0.308172
O O5 0.141900 0.267411 0.886545
O O6 0.947925 0.249326 0.918016
O O7 0.054669 0.000000 0.903481
O O8 0.000000 0.174829 0.000000
O O9 0.738994 0.500000 0.132131
O O10 0.685742 0.777527 0.119052
O O11 0.841967 0.500000 0.942953
O O12 0.750000 0.250000 0.000000
O O13 0.111749 0.271577 0.545932
O O14 0.201501 0.218481 0.419015
O O15 0.000000 0.186342 0.500000
O O16 0.130627 0.000000 0.498935
O O17 0.598174 0.765529 0.657113
O O18 0.535303 0.000000 0.621089
O O19 0.803890 0.500000 0.347338
#
# Coordination Sequence:
#
# PCOD9223404 Si02
#       7
#     8   8   8   8   8   8   8
#     4  10  22  43  63  82 116 163 206 238 288 366
#     4  11  23  40  65  95 127 161 199 250 307 366
#     4  11  24  41  65  94 124 162 208 257 309 369
#     4  12  24  40  65  94 127 162 202 251 305 365
#     4  10  18  34  61  83 110 157 202 242 299 365
#     4  11  22  35  57  89 122 151 194 256 306 347
#     4   9  19  37  59  83 115 156 199 242 296 358
#
# _framework density 9.9788940000000004
#
# number of rings (size 3 to 8) (size 9 to 14) (size 15 to 20)
#    0.000    1.429    2.857    3.000    0.000    3.143 
#    0.000    3.571    0.000    0.000    0.000    0.000 
#    0.000    0.000    0.000    0.000    0.000    0.000 
#
# Total GULP energy -156345.646969 kJ/mol
# GULP energy per Si atom -5583.773106 kJ/mol
# Density = 0.995618 g / cm^3
# Si number density = 9.978894 Si / 1000 Ang^3
#
#
#
# Elastic Constant Matrix: (Units=GPa)
#
#
# Indices 1 2 3 4 5 6 
#
# 1 89.5282 1.3781 4.8013 0.0000 18.4001 0.0000
# 2 1.3781 34.4256 24.7494 0.0000 11.3752 0.0000
# 3 4.8013 24.7494 14.3722 0.0000 7.5029 0.0000
# 4 0.0000 0.0000 0.0000 -3.6136 0.0000 31.2211
# 5 18.4001 11.3752 7.5029 0.0000 19.4334 0.0000
# 6 0.0000 0.0000 0.0000 31.2211 0.0000 -8.1826
#
#
#
# Elastic Compliance Matrix: (Units=1/GPa)
#
#
# Indices 1 2 3 4 5 6 
#
# 1 0.013330 -0.008475 0.017710 0.000000 -0.014498 0.000000
# 2 -0.008475 -0.114409 0.201262 0.000000 -0.002711 0.000000
# 3 0.017710 0.201262 -0.266345 0.000000 -0.031744 0.000000
# 4 0.000000 0.000000 0.000000 0.008657 0.000000 0.033032
# 5 -0.014498 -0.002711 -0.031744 0.000000 0.079028 0.000000
# 6 0.000000 0.000000 0.000000 0.033032 0.000000 0.003823
#
#
# Mechanical properties :
#
#
# Convention : Reuss Voigt Hill
#
# Bulk Modulus (GPa) = 18.66734 22.24261 20.45497
# Shear Modulus (GPa) = -7.36320 8.68725 0.66202
#
# Velocity S-wave (km/s) = -1.92286 2.08860 0.57657
# Velocity P-wave (km/s) = 2.10805 4.12133 3.27332
#
# Compressibility (1/GPa) = 0.05356949
#
# Stress axis : x y z
#
# Youngs Moduli (GPa) = 75.01856 -8.74060 -3.75453
#
# Poissons Ratio (x) = -0.07408 0.06649
# Poissons Ratio (y) = 0.63578 0.75564
# Poissons Ratio (z) = -1.32855 1.75915
#
# Static dielectric constant tensor:
#      x y z
#    x 1.839210 0.000000 0.079290 
#    y 0.000000 1.662970 0.000000 
#    z 0.079290 0.000000 1.687930 
# 
# From -- ./inp_files/338537.got.cif
#   From: 2010.05.17/outbox.ucp.g08.bks.cvg/sg12_170_cif.got.tgz:338537.got - 2010.06.11 11:47:21.
