data_PCOD9223608
_publ_section_title
;
Structure prediction by ZEFSAII (Michael W. Deem and Ramdas Pophale) SiO2 
 PCOD9223608
Probable space group: C 2/M
;
_chemical_formula_sum "Si O2"
_cell_formula_units_Z 28
_cell_length_a 21.000000
_cell_length_b 9.000000
_cell_length_c 30.000000
_cell_angle_alpha 90.000000
_cell_angle_beta 150.000000
_cell_angle_gamma 90.000000
_cell_volume 2835.000000
_symmetry_space_group_name_H-M "C 2/M"
_symmetry_group_IT_number 12
_symmetry_cell_setting 'monoclinic'
loop_
_space_group_symop_operation_xyz
x,y,z
-x,y,-z
-x,-y,-z
x,-y,z
1/2+x,1/2+y,z
1/2-x,1/2+y,-z
1/2-x,1/2-y,-z
1/2+x,1/2-y,z
loop_
_atom_site_type_symbol
_atom_site_label
_atom_site_fract_x
_atom_site_fract_y
_atom_site_fract_z
Si Si1 0.464604 0.180208 0.728231
Si Si2 0.018917 0.325676 0.910749
Si Si3 0.194540 0.322710 0.148532
Si Si4 0.751856 0.322162 0.088121
Si Si5 0.795301 0.678514 0.704224
Si Si6 0.888036 0.321209 0.583397
Si Si7 0.381474 0.821439 0.335003
O O1 0.601724 0.225171 0.830932
O O2 0.345329 0.228330 0.686173
O O3 0.454168 0.224237 0.670285
O O4 0.462587 0.000000 0.728349
O O5 0.049723 0.500000 0.925756
O O6 0.942435 0.302210 0.910828
O O7 0.915947 0.291332 0.810083
O O8 0.148173 0.233967 0.990090
O O9 0.216061 0.500000 0.158421
O O10 0.212039 0.246863 0.111614
O O11 0.292780 0.248800 0.242720
O O12 0.748575 0.500000 0.088865
O O13 0.774706 0.500000 0.692198
O O14 0.673523 0.757434 0.652180
O O15 0.877534 0.500000 0.577518
O O16 0.750000 0.250000 0.500000
O O17 0.976083 0.281022 0.594532
O O18 0.369841 0.000000 0.327556
#
# Coordination Sequence:
#
# PCOD9223608 Si02
#       7
#     8   8   8   8   8   8   8
#     4   9  19  38  58  79 110 148 184 225 277 327
#     4   9  19  32  46  73 108 144 187 233 272 314
#     4  10  19  32  51  75 108 147 188 230 272 325
#     4  11  20  31  50  76 108 147 189 232 278 319
#     4   9  19  37  59  78 108 153 192 222 264 327
#     4  10  21  39  62  87 113 140 175 224 276 331
#     4  10  19  35  58  84 114 143 177 227 279 323
#
# _framework density 9.8765429999999999
#
# number of rings (size 3 to 8) (size 9 to 14) (size 15 to 20)
#    0.000    2.286    1.429    2.571    0.000    6.286 
#    0.000    2.857    0.000    4.286    0.000    0.000 
#    0.000    0.000    0.000    0.000    0.000    0.000 
#
# Total GULP energy -156245.840408 kJ/mol
# GULP energy per Si atom -5580.208586 kJ/mol
# Density = 0.985406 g / cm^3
# Si number density = 9.876543 Si / 1000 Ang^3
#
#
#
# Elastic Constant Matrix: (Units=GPa)
#
#
# Indices 1 2 3 4 5 6 
#
# 1 109.3037 26.6494 12.4594 0.0000 25.1817 0.0000
# 2 26.6494 35.0734 18.4108 0.0000 17.7983 0.0001
# 3 12.4594 18.4108 38.7956 0.0002 31.5459 0.0000
# 4 0.0000 0.0000 0.0002 27.5774 0.0000 7.1725
# 5 25.1817 17.7983 31.5459 0.0000 26.0429 0.0000
# 6 0.0000 0.0001 0.0000 7.1725 0.0000 23.6059
#
#
#
# Elastic Compliance Matrix: (Units=1/GPa)
#
#
# Indices 1 2 3 4 5 6 
#
# 1 -0.000564 -0.008349 -0.062446 0.000000 0.081892 0.000000
# 2 -0.008349 0.044917 -0.015812 0.000000 -0.003471 0.000000
# 3 -0.062446 -0.015812 -0.302289 0.000002 0.437351 0.000000
# 4 0.000000 0.000000 0.000002 0.039373 -0.000003 -0.011963
# 5 0.081892 -0.003471 0.437351 -0.000003 -0.568178 0.000000
# 6 0.000000 0.000000 0.000000 -0.011963 0.000000 0.045997
#
#
# Mechanical properties :
#
#
# Convention : Reuss Voigt Hill
#
# Bulk Modulus (GPa) = -2.31938 33.13465 15.40763
# Shear Modulus (GPa) = -7.02991 23.82212 8.39610
#
# Velocity S-wave (km/s) = -1.88855 3.47651 2.06392
# Velocity P-wave (km/s) = 2.43562 5.73809 3.67379
#
# Compressibility (1/GPa) = -0.43114983
#
# Stress axis : x y z
#
# Youngs Moduli (GPa) = -1772.94139 22.26337 -3.30810
#
# Poissons Ratio (x) = 0.18588 -0.20658
# Poissons Ratio (y) = -14.80261 -0.05231
# Poissons Ratio (z) = -110.71246 0.35203
#
# Static dielectric constant tensor:
#      x y z
#    x 1.724180 0.000000 0.000120 
#    y 0.000000 1.658210 0.000000 
#    z 0.000120 0.000000 1.704850 
# 
# From -- ./inp_files/281699.got.cif
#   From: 2010.05.17/outbox.ucp.g08.bks.cvg/sg12_141_cif.got.tgz:281699.got - 2010.06.11 11:47:21.
