data_PCOD9223153
_publ_section_title
;
Structure prediction by ZEFSAII (Michael W. Deem and Ramdas Pophale) SiO2 
 PCOD9223153
Probable space group: C 2/M
;
_chemical_formula_sum "Si O2"
_cell_formula_units_Z 40
_cell_length_a 13.748216
_cell_length_b 10.294518
_cell_length_c 14.756781
_cell_angle_alpha 90.000000
_cell_angle_beta 114.386182
_cell_angle_gamma 90.000000
_cell_volume 1902.212526
_symmetry_space_group_name_H-M "C 2/M"
_symmetry_group_IT_number 12
_symmetry_cell_setting 'monoclinic'
loop_
_space_group_symop_operation_xyz
x,y,z
-x,y,-z
-x,-y,-z
x,-y,z
1/2+x,1/2+y,z
1/2-x,1/2+y,-z
1/2-x,1/2-y,-z
1/2+x,1/2-y,z
loop_
_atom_site_type_symbol
_atom_site_label
_atom_site_fract_x
_atom_site_fract_y
_atom_site_fract_z
Si Si1 0.605857 0.229867 0.499929
Si Si2 0.531297 0.645663 0.299022
Si Si3 0.804053 0.646072 0.647243
Si Si4 0.874841 0.850317 0.958933
Si Si5 0.199708 0.851645 0.859743
O O1 0.500000 0.167388 0.500000
O O2 0.562513 0.343929 0.416888
O O3 0.689211 0.285478 0.603846
O O4 0.667995 0.142723 0.450482
O O5 0.551201 0.500000 0.272502
O O6 0.605290 0.755819 0.282030
O O7 0.407461 0.675468 0.237549
O O8 0.805217 0.500000 0.682768
O O9 0.794189 0.750062 0.880922
O O10 0.862247 0.000000 0.922857
O O11 0.840310 0.845962 0.051305
O O12 0.000000 0.816384 0.000000
O O13 0.234394 0.000000 0.856578
#
# Coordination Sequence:
#
# PCOD9223153 Si02
#       5
#     8   8   8   8   8
#     4   9  19  33  52  70  98 135 167 202 245 289
#     4   9  18  33  51  71 101 134 163 200 247 292
#     4   9  19  33  50  72  97 128 170 208 242 285
#     4   9  18  34  55  76  99 128 162 199 247 298
#     4   9  18  34  53  73 101 132 161 199 246 293
#
# _framework density 21.028144000000001
#
# number of rings (size 3 to 8) (size 9 to 14) (size 15 to 20)
#    1.200    1.800    0.000    0.600    0.000    3.200 
#    3.600    0.000    0.000    0.000    0.000    0.000 
#    0.000    0.000    0.000    0.000    0.000    0.000 
#
# Total GULP energy -111416.747909 kJ/mol
# GULP energy per Si atom -5570.837395 kJ/mol
# Density = 2.098028 g / cm^3
# Si number density = 21.028144 Si / 1000 Ang^3
#
#
#
# Elastic Constant Matrix: (Units=GPa)
#
#
# Indices 1 2 3 4 5 6 
#
# 1 102.0009 49.2053 32.1295 0.0000 17.5854 0.0000
# 2 49.2053 133.9085 68.2886 0.0000 46.3502 0.0000
# 3 32.1295 68.2886 79.7558 0.0000 37.2653 0.0000
# 4 0.0000 0.0000 0.0000 22.9248 0.0000 17.5520
# 5 17.5854 46.3502 37.2653 0.0000 47.7528 0.0000
# 6 0.0000 0.0000 0.0000 17.5520 0.0000 -0.0734
#
#
#
# Elastic Compliance Matrix: (Units=1/GPa)
#
#
# Indices 1 2 3 4 5 6 
#
# 1 0.012088 -0.003609 -0.002103 0.000000 0.000693 0.000000
# 2 -0.003609 0.015663 -0.008616 0.000000 -0.007150 0.000000
# 3 -0.002103 -0.008616 0.025959 0.000000 -0.011120 0.000000
# 4 0.000000 0.000000 0.000000 0.000237 0.000000 0.056664
# 5 0.000693 -0.007150 -0.011120 0.000000 0.036304 0.000000
# 6 0.000000 0.000000 0.000000 0.056664 0.000000 -0.074009
#
#
# Mechanical properties :
#
#
# Convention : Reuss Voigt Hill
#
# Bulk Modulus (GPa) = 39.91632 68.32355 54.11994
# Shear Modulus (GPa) = 93.90075 25.19029 59.54552
#
# Velocity S-wave (km/s) = 6.68967 3.46487 5.32715
# Velocity P-wave (km/s) = 8.87088 6.96915 7.97689
#
# Compressibility (1/GPa) = 0.02505241
#
# Stress axis : x y z
#
# Youngs Moduli (GPa) = 82.72760 63.84638 38.52282
#
# Poissons Ratio (x) = 0.23042 0.08102
# Poissons Ratio (y) = 0.29856 0.33192
# Poissons Ratio (z) = 0.17399 0.55011
#
# Static dielectric constant tensor:
#      x y z
#    x 1.793480 0.000000 -0.054760 
#    y 0.000000 1.728320 0.000000 
#    z -0.054760 0.000000 1.767330 
# 
# From -- ./inp_files/268047.got.cif
#   From: 2010.05.17/outbox.cif.g08.bks.cpg/sg12_135_cif.got.tgz:268047.got - 2010.06.03 13:09:07.
