data_PCOD9223396
_publ_section_title
;
Structure prediction by ZEFSAII (Michael W. Deem and Ramdas Pophale) SiO2 
 PCOD9223396
Probable space group: C 2/M
;
_chemical_formula_sum "Si O2"
_cell_formula_units_Z 28
_cell_length_a 21.000000
_cell_length_b 24.000000
_cell_length_c 18.000000
_cell_angle_alpha 90.000000
_cell_angle_beta 160.000000
_cell_angle_gamma 90.000000
_cell_volume 3102.806740
_symmetry_space_group_name_H-M "C 2/M"
_symmetry_group_IT_number 12
_symmetry_cell_setting 'monoclinic'
loop_
_space_group_symop_operation_xyz
x,y,z
-x,y,-z
-x,-y,-z
x,-y,z
1/2+x,1/2+y,z
1/2-x,1/2+y,-z
1/2-x,1/2-y,-z
1/2+x,1/2-y,z
loop_
_atom_site_type_symbol
_atom_site_label
_atom_site_fract_x
_atom_site_fract_y
_atom_site_fract_z
Si Si1 0.909819 0.342543 0.187262
Si Si2 0.981715 0.774957 0.901201
Si Si3 0.328112 0.935274 0.586010
Si Si4 0.079156 0.228892 0.435584
Si Si5 0.996518 0.144088 0.212644
Si Si6 0.588596 0.063054 0.015638
Si Si7 0.251473 0.678822 0.152962
O O1 0.058433 0.391562 0.340488
O O2 0.983376 0.288211 0.310925
O O3 0.721333 0.366241 0.015291
O O4 0.847280 0.322180 0.036818
O O5 0.790961 0.740997 0.685069
O O6 0.982696 0.821716 0.839956
O O7 0.000000 0.803848 0.000000
O O8 0.143583 0.728717 0.074542
O O9 0.120747 0.910577 0.358555
O O10 0.335810 0.000000 0.571874
O O11 0.428454 0.931646 0.776831
O O12 0.064522 0.188308 0.349075
O O13 0.962702 0.197416 0.371098
O O14 0.721831 0.116598 0.151465
O O15 0.669809 0.000000 0.095599
O O16 0.500000 0.066096 0.000000
#
# Coordination Sequence:
#
# PCOD9223396 Si02
#       7
#     8   8   8   8   8   8   8
#     4  10  18  34  59  79 106 143 183 230 272 324
#     4  12  23  33  52  84 115 142 173 224 286 340
#     4  10  21  35  57  85 108 145 192 230 267 319
#     4  11  19  35  58  79 106 147 182 224 282 326
#     4  11  20  36  58  81 108 143 183 227 277 328
#     4   9  18  34  55  79 116 158 188 223 269 316
#     4  10  19  33  53  84 109 140 194 225 265 322
#
# _framework density 9.0240880000000008
#
# number of rings (size 3 to 8) (size 9 to 14) (size 15 to 20)
#    0.000    1.571    4.286    3.429    0.000    1.143 
#    0.000    3.571    0.000    3.857    0.000   44.000 
#    0.000    0.000    0.000    0.000    0.000    0.000 
#
# Total GULP energy -156227.911341 kJ/mol
# GULP energy per Si atom -5579.568262 kJ/mol
# Density = 0.900355 g / cm^3
# Si number density = 9.024088 Si / 1000 Ang^3
#
#
#
# Elastic Constant Matrix: (Units=GPa)
#
#
# Indices 1 2 3 4 5 6 
#
# 1 76.3361 35.3539 27.1342 0.0000 -0.0183 -0.0001
# 2 35.3539 79.3537 -37.5879 0.0000 -5.2392 0.0000
# 3 27.1342 -37.5879 -38.7434 0.0000 -0.4775 -0.0002
# 4 0.0000 0.0000 0.0000 4.5237 0.0000 7.6548
# 5 -0.0183 -5.2392 -0.4775 0.0000 13.3564 -0.0001
# 6 -0.0001 0.0000 -0.0002 7.6548 -0.0001 18.9079
#
#
#
# Elastic Compliance Matrix: (Units=1/GPa)
#
#
# Indices 1 2 3 4 5 6 
#
# 1 0.010567 -0.000824 0.008201 0.000000 -0.000016 0.000000
# 2 -0.000824 0.008828 -0.009180 0.000001 0.003133 0.000000
# 3 0.008201 -0.009180 -0.011112 0.000000 -0.003987 0.000000
# 4 0.000000 0.000001 0.000000 0.701880 0.000000 -0.284153
# 5 -0.000016 0.003133 -0.003987 0.000000 0.075957 0.000000
# 6 0.000000 0.000000 0.000000 -0.284153 0.000000 0.167926
#
#
# Mechanical properties :
#
#
# Convention : Reuss Voigt Hill
#
# Bulk Modulus (GPa) = 213.93877 18.52744 116.23311
# Shear Modulus (GPa) = 5.21261 13.49401 9.35331
#
# Velocity S-wave (km/s) = 1.70130 2.73731 2.27896
# Velocity P-wave (km/s) = 11.07494 4.50315 8.45377
#
# Compressibility (1/GPa) = 0.00467423
#
# Stress axis : x y z
#
# Youngs Moduli (GPa) = 94.63591 113.28206 -89.99317
#
# Poissons Ratio (x) = 0.09339 0.73799
# Poissons Ratio (y) = 0.07802 -0.82616
# Poissons Ratio (z) = -0.77607 1.03995
#
# Static dielectric constant tensor:
#      x y z
#    x 1.696340 0.000000 0.012780 
#    y 0.000000 1.600150 0.000000 
#    z 0.012780 0.000000 1.627840 
# 
# From -- ./inp_files/218649.got.cif
#   From: 2010.05.17/outbox.ucp.g08.bks.cvg/sg12_110_cif.got.tgz:218649.got - 2010.06.11 11:47:21.
