data_PCOD9223415
_publ_section_title
;
Structure prediction by ZEFSAII (Michael W. Deem and Ramdas Pophale) SiO2 
 PCOD9223415
Probable space group: C 2/M
;
_chemical_formula_sum "Si O2"
_cell_formula_units_Z 24
_cell_length_a 15.000000
_cell_length_b 9.000000
_cell_length_c 18.000000
_cell_angle_alpha 90.000000
_cell_angle_beta 90.000000
_cell_angle_gamma 90.000000
_cell_volume 2430.000000
_symmetry_space_group_name_H-M "C 2/M"
_symmetry_group_IT_number 12
_symmetry_cell_setting 'monoclinic'
loop_
_space_group_symop_operation_xyz
x,y,z
-x,y,-z
-x,-y,-z
x,-y,z
1/2+x,1/2+y,z
1/2-x,1/2+y,-z
1/2-x,1/2-y,-z
1/2+x,1/2-y,z
loop_
_atom_site_type_symbol
_atom_site_label
_atom_site_fract_x
_atom_site_fract_y
_atom_site_fract_z
Si Si1 0.991587 0.824766 0.613737
Si Si2 0.164558 0.823598 0.824861
Si Si3 0.845061 0.174436 0.484263
Si Si4 0.005970 0.675581 0.759540
Si Si5 0.353731 0.180730 0.865952
Si Si6 0.396471 0.174626 0.024481
O O1 0.913509 0.812665 0.553218
O O2 0.088426 0.774530 0.582087
O O3 0.964445 0.726117 0.682937
O O4 0.999299 0.000000 0.632826
O O5 0.101876 0.749023 0.765142
O O6 0.266982 0.776007 0.820512
O O7 0.128160 0.769439 0.904497
O O8 0.159628 0.000000 0.819716
O O9 0.750000 0.250000 0.500000
O O10 0.827702 0.000000 0.471890
O O11 0.013318 0.500000 0.766041
O O12 0.943345 0.731407 0.826361
O O13 0.357472 0.000000 0.868572
O O14 0.345424 0.228239 0.950962
O O15 0.378046 0.000000 0.040118
O O16 0.500000 0.182750 0.000000
#
# Coordination Sequence:
#
# PCOD9223415 Si02
#       6
#     8   8   8   8   8   8
#     4   9  20  39  58  83 117 151 180 223 276 320
#     4  11  22  36  55  81 110 141 184 235 282 332
#     4   9  19  37  62  87 117 149 183 222 269 322
#     4  11  22  39  58  79 110 150 188 224 272 333
#     4   9  20  37  55  76 107 146 183 225 282 333
#     4  10  18  35  59  77 104 144 184 231 281 333
#
# _framework density 9.8765429999999999
#
# number of rings (size 3 to 8) (size 9 to 14) (size 15 to 20)
#    0.000    2.167    1.667    2.500    0.000    3.000 
#    0.000   10.833    0.000    0.000    0.000    0.000 
#    0.000    0.000    0.000    0.000    0.000    0.000 
#
# Total GULP energy -133781.067812 kJ/mol
# GULP energy per Si atom -5574.211159 kJ/mol
# Density = 0.985406 g / cm^3
# Si number density = 9.876543 Si / 1000 Ang^3
#
#
#
# Elastic Constant Matrix: (Units=GPa)
#
#
# Indices 1 2 3 4 5 6 
#
# 1 92.0148 27.0316 6.7474 0.0000 -2.5000 0.0000
# 2 27.0316 30.8435 12.5088 0.0000 3.5868 0.0000
# 3 6.7474 12.5088 43.6519 0.0000 1.1836 0.0000
# 4 0.0000 0.0000 0.0000 25.5082 0.0000 1.5505
# 5 -2.5000 3.5868 1.1836 0.0000 11.3674 0.0000
# 6 0.0000 0.0000 0.0000 1.5505 0.0000 23.3999
#
#
#
# Elastic Compliance Matrix: (Units=1/GPa)
#
#
# Indices 1 2 3 4 5 6 
#
# 1 0.015403 -0.015132 0.001739 0.000000 0.007981 0.000000
# 2 -0.015132 0.052849 -0.012297 0.000000 -0.018723 0.000000
# 3 0.001739 -0.012297 0.026122 0.000000 0.001543 0.000000
# 4 0.000000 0.000000 0.000000 0.039362 0.000000 -0.002608
# 5 0.007981 -0.018723 0.001543 0.000000 0.095473 0.000000
# 6 0.000000 0.000000 0.000000 -0.002608 0.000000 0.042908
#
#
# Mechanical properties :
#
#
# Convention : Reuss Voigt Hill
#
# Bulk Modulus (GPa) = 23.26045 28.78730 26.02387
# Shear Modulus (GPa) = 14.80043 20.06994 17.43518
#
# Velocity S-wave (km/s) = 2.74025 3.19100 2.97418
# Velocity P-wave (km/s) = 4.67045 5.30866 4.99975
#
# Compressibility (1/GPa) = 0.04299143
#
# Stress axis : x y z
#
# Youngs Moduli (GPa) = 64.92388 18.92200 38.28223
#
# Poissons Ratio (x) = 0.28634 -0.06658
# Poissons Ratio (y) = 0.98246 0.47077
# Poissons Ratio (z) = -0.11291 0.23269
#
# Static dielectric constant tensor:
#      x y z
#    x 1.737910 0.000000 0.169100 
#    y 0.000000 1.659180 0.000000 
#    z 0.169100 0.000000 2.304600 
# 
# From -- ./inp_files/267618.got.cif
#   From: 2010.05.17/outbox.ucp.g08.bks.cvg/sg12_134_cif.got.tgz:267618.got - 2010.06.11 11:47:21.
