data_PCOD9223068
_publ_section_title
;
Structure prediction by ZEFSAII (Michael W. Deem and Ramdas Pophale) SiO2 
 PCOD9223068
Probable space group: C 2/M
;
_chemical_formula_sum "Si O2"
_cell_formula_units_Z 40
_cell_length_a 9.403790
_cell_length_b 29.067886
_cell_length_c 7.272818
_cell_angle_alpha 90.000000
_cell_angle_beta 125.088707
_cell_angle_gamma 90.000000
_cell_volume 1626.717064
_symmetry_space_group_name_H-M "C 2/M"
_symmetry_group_IT_number 12
_symmetry_cell_setting 'monoclinic'
loop_
_space_group_symop_operation_xyz
x,y,z
-x,y,-z
-x,-y,-z
x,-y,z
1/2+x,1/2+y,z
1/2-x,1/2+y,-z
1/2-x,1/2-y,-z
1/2+x,1/2-y,z
loop_
_atom_site_type_symbol
_atom_site_label
_atom_site_fract_x
_atom_site_fract_y
_atom_site_fract_z
Si Si1 0.108433 0.788375 0.334065
Si Si2 0.748858 0.612597 0.481364
Si Si3 0.630943 0.116584 0.861520
Si Si4 0.439948 0.552421 0.171604
Si Si5 0.636374 0.788856 0.764670
O O1 0.250000 0.750000 0.500000
O O2 0.155569 0.838075 0.452451
O O3 0.172019 0.792333 0.173004
O O4 0.929129 0.762373 0.241395
O O5 0.804772 0.613924 0.305511
O O6 0.605561 0.573547 0.397402
O O7 0.929293 0.602900 0.718703
O O8 0.626358 0.170937 0.906260
O O9 0.773919 0.085796 0.067358
O O10 0.400653 0.500000 0.192118
O O11 0.500000 0.552623 0.000000
O O12 0.500000 0.803543 0.500000
#
# Coordination Sequence:
#
# PCOD9223068 Si02
#       5
#     8   8   8   8   8
#     4   9  14  24  42  64  88 120 146 174 215 260
#     4   9  15  26  41  57  83 115 142 173 221 258
#     4   9  14  26  41  56  82 116 143 171 217 264
#     4   9  18  27  38  59  83 110 147 183 216 261
#     4   9  14  24  42  63  88 121 146 172 217 259
#
# _framework density 24.589404999999999
#
# number of rings (size 3 to 8) (size 9 to 14) (size 15 to 20)
#    0.000    3.000    6.000    0.000    0.000    0.800 
#    0.000    5.000    0.000    0.000    0.000    0.000 
#    0.000   10.400    0.000    0.200    0.000    0.000 
#
# Total GULP energy -111595.477053 kJ/mol
# GULP energy per Si atom -5579.773853 kJ/mol
# Density = 2.453344 g / cm^3
# Si number density = 24.589405 Si / 1000 Ang^3
#
#
#
# Elastic Constant Matrix: (Units=GPa)
#
#
# Indices 1 2 3 4 5 6 
#
# 1 98.8588 27.8231 34.0031 0.0000 33.1607 0.0000
# 2 27.8231 148.0790 80.4437 0.0000 43.0066 0.0000
# 3 34.0031 80.4437 128.7615 0.0000 53.4274 0.0000
# 4 0.0000 0.0000 0.0000 33.3468 0.0000 2.1771
# 5 33.1607 43.0066 53.4274 0.0000 48.0255 0.0000
# 6 0.0000 0.0000 0.0000 2.1771 0.0000 -37.5390
#
#
#
# Elastic Compliance Matrix: (Units=1/GPa)
#
#
# Indices 1 2 3 4 5 6 
#
# 1 0.013186 0.000072 0.000515 0.000000 -0.009742 0.000000
# 2 0.000072 0.010612 -0.004987 0.000000 -0.004004 0.000000
# 3 0.000515 -0.004987 0.016792 0.000000 -0.014570 0.000000
# 4 0.000000 0.000000 0.000000 0.029875 0.000000 0.001733
# 5 -0.009742 -0.004004 -0.014570 0.000000 0.047344 0.000000
# 6 0.000000 0.000000 0.000000 0.001733 0.000000 -0.026538
#
#
# Mechanical properties :
#
#
# Convention : Reuss Voigt Hill
#
# Bulk Modulus (GPa) = 31.45681 73.35989 52.40835
# Shear Modulus (GPa) = 45.18091 24.32862 34.75476
#
# Velocity S-wave (km/s) = 4.29116 3.14888 3.76361
# Velocity P-wave (km/s) = 6.11332 6.56653 6.34397
#
# Compressibility (1/GPa) = 0.03178962
#
# Stress axis : x y z
#
# Youngs Moduli (GPa) = 75.83886 94.23340 59.55351
#
# Poissons Ratio (x) = -0.00678 -0.03069
# Poissons Ratio (y) = -0.00546 0.29701
# Poissons Ratio (z) = -0.03909 0.46997
#
# Static dielectric constant tensor:
#      x y z
#    x 2.195650 0.000000 -0.124960 
#    y 0.000000 1.949360 0.000000 
#    z -0.124960 0.000000 2.084000 
# 
# From -- ./inp_files/136801.got.cif
#   From: 2010.05.17/outbox.cif.g08.bks.cpg/sg12_69_cif.got.tgz:136801.got - 2010.06.03 13:09:07.
