data_PCOD9223379
_publ_section_title
;
Structure prediction by ZEFSAII (Michael W. Deem and Ramdas Pophale) SiO2 
 PCOD9223379
Probable space group: C 2/M
;
_chemical_formula_sum "Si O2"
_cell_formula_units_Z 32
_cell_length_a 15.000000
_cell_length_b 21.000000
_cell_length_c 30.000000
_cell_angle_alpha 90.000000
_cell_angle_beta 160.000000
_cell_angle_gamma 90.000000
_cell_volume 3232.090354
_symmetry_space_group_name_H-M "C 2/M"
_symmetry_group_IT_number 12
_symmetry_cell_setting 'monoclinic'
loop_
_space_group_symop_operation_xyz
x,y,z
-x,y,-z
-x,-y,-z
x,-y,z
1/2+x,1/2+y,z
1/2-x,1/2+y,-z
1/2-x,1/2-y,-z
1/2+x,1/2-y,z
loop_
_atom_site_type_symbol
_atom_site_label
_atom_site_fract_x
_atom_site_fract_y
_atom_site_fract_z
Si Si1 0.448776 0.872270 0.371662
Si Si2 0.163434 0.740849 0.224209
Si Si3 0.180240 0.575143 0.391517
Si Si4 0.232557 0.619515 0.320481
Si Si5 0.520236 0.930915 0.877055
Si Si6 0.663311 0.175259 0.999128
Si Si7 0.943404 0.076437 0.188565
Si Si8 0.048704 0.925478 0.342786
O O1 0.371255 0.798390 0.325532
O O2 0.499651 0.905655 0.347993
O O3 0.718717 0.883543 0.526372
O O4 0.204907 0.903909 0.283726
O O5 0.231409 0.685308 0.291675
O O6 0.094974 0.711732 0.142296
O O7 0.888134 0.772730 0.109069
O O8 0.155620 0.500000 0.369534
O O9 0.147486 0.618418 0.331950
O O10 0.479492 0.589239 0.546192
O O11 0.038058 0.574553 0.202020
O O12 0.708581 0.874339 0.979831
O O13 0.235786 0.920803 0.767150
O O14 0.617990 0.000000 0.936093
O O15 0.712803 0.124186 0.062620
O O16 0.003209 0.087735 0.269037
O O17 0.887792 0.000000 0.157747
O O18 0.129447 0.000000 0.385637
#
# Coordination Sequence:
#
# PCOD9223379 Si02
#       8
#     8   8   8   8   8   8   8   8
#     4  11  21  37  59  87 123 159 189 240 304 372
#     4   9  21  40  58  79 115 159 200 239 288 356
#     4  11  21  36  61  91 120 149 192 247 304 356
#     4  10  20  37  56  85 117 154 191 240 294 356
#     4  10  18  33  59  85 113 148 192 248 302 347
#     4   9  19  38  58  79 110 153 203 245 286 341
#     4  10  20  35  57  85 117 155 197 244 299 353
#     4  10  20  34  54  88 122 150 189 239 302 362
#
# _framework density 9.9007129999999997
#
# number of rings (size 3 to 8) (size 9 to 14) (size 15 to 20)
#    0.000    2.000    1.250    3.375    0.000    2.000 
#    9.000    3.125    0.000   18.000    0.000   28.875 
#    0.000    0.000    0.000    0.000    0.000    0.000 
#
# Total GULP energy -178338.562565 kJ/mol
# GULP energy per Si atom -5573.080080 kJ/mol
# Density = 0.987818 g / cm^3
# Si number density = 9.900713 Si / 1000 Ang^3
#
#
#
# Elastic Constant Matrix: (Units=GPa)
#
#
# Indices 1 2 3 4 5 6 
#
# 1 96.3915 13.2819 18.0309 0.0009 -16.7981 -0.0009
# 2 13.2819 130.4267 31.2687 -0.0063 -15.3461 -0.0018
# 3 18.0309 31.2687 50.4561 0.0175 -31.9629 0.0061
# 4 0.0009 -0.0063 0.0175 45.0867 0.0131 -9.8973
# 5 -16.7981 -15.3461 -31.9629 0.0131 27.6303 -0.0004
# 6 -0.0009 -0.0018 0.0061 -9.8973 -0.0004 21.1342
#
#
#
# Elastic Compliance Matrix: (Units=1/GPa)
#
#
# Indices 1 2 3 4 5 6 
#
# 1 0.011659 -0.000576 0.001790 -0.000004 0.008839 -0.000002
# 2 -0.000576 0.009258 -0.009342 0.000008 -0.006015 0.000007
# 3 0.001790 -0.009342 0.083730 -0.000073 0.092760 -0.000057
# 4 -0.000004 0.000008 -0.000073 0.024721 -0.000094 0.011577
# 5 0.008839 -0.006015 0.092760 -0.000094 0.145530 -0.000068
# 6 -0.000002 0.000007 -0.000057 0.011577 -0.000068 0.052738
#
#
# Mechanical properties :
#
#
# Convention : Reuss Voigt Hill
#
# Bulk Modulus (GPa) = 11.31342 44.71526 28.01434
# Shear Modulus (GPa) = 13.39202 33.08309 23.23755
#
# Velocity S-wave (km/s) = 2.60343 4.09191 3.42940
# Velocity P-wave (km/s) = 3.84226 6.70491 5.46437
#
# Compressibility (1/GPa) = 0.08839057
#
# Stress axis : x y z
#
# Youngs Moduli (GPa) = 85.76846 108.01841 11.94310
#
# Poissons Ratio (x) = 0.06227 -0.02138
# Poissons Ratio (y) = 0.04944 0.11157
# Poissons Ratio (z) = -0.15351 1.00908
#
# Static dielectric constant tensor:
#      x y z
#    x 1.705240 0.000000 -0.024620 
#    y 0.000000 1.724200 -0.000010 
#    z -0.024620 -0.000010 1.729230 
# 
# From -- ./inp_files/377133.got.cif
#   From: 2010.05.17/outbox.ucp.g08.bks.cvg/sg12_189_cif.got.tgz:377133.got - 2010.06.11 11:47:21.
