data_PCOD9223314
_publ_section_title
;
Structure prediction by ZEFSAII (Michael W. Deem and Ramdas Pophale) SiO2 
 PCOD9223314
Probable space group: C 2/M
;
_chemical_formula_sum "Si O2"
_cell_formula_units_Z 24
_cell_length_a 21.000000
_cell_length_b 9.000000
_cell_length_c 15.000000
_cell_angle_alpha 90.000000
_cell_angle_beta 110.000000
_cell_angle_gamma 90.000000
_cell_volume 2664.028580
_symmetry_space_group_name_H-M "C 2/M"
_symmetry_group_IT_number 12
_symmetry_cell_setting 'monoclinic'
loop_
_space_group_symop_operation_xyz
x,y,z
-x,y,-z
-x,-y,-z
x,-y,z
1/2+x,1/2+y,z
1/2-x,1/2+y,-z
1/2-x,1/2-y,-z
1/2+x,1/2-y,z
loop_
_atom_site_type_symbol
_atom_site_label
_atom_site_fract_x
_atom_site_fract_y
_atom_site_fract_z
Si Si1 0.835237 0.180615 0.391030
Si Si2 0.402868 0.179725 0.889362
Si Si3 0.421847 0.320714 0.601701
Si Si4 0.182856 0.679823 0.311738
Si Si5 0.925945 0.179070 0.275420
Si Si6 0.052891 0.679322 0.899713
O O1 0.888371 0.223712 0.492273
O O2 0.758589 0.231602 0.370547
O O3 0.866214 0.228108 0.312070
O O4 0.832962 0.000000 0.389746
O O5 0.339601 0.223138 0.798980
O O6 0.474148 0.223440 0.877666
O O7 0.404133 0.000000 0.892106
O O8 0.406546 0.228597 0.993000
O O9 0.418534 0.500000 0.607306
O O10 0.374008 0.248041 0.652469
O O11 0.500148 0.278091 0.650265
O O12 0.180640 0.500000 0.317676
O O13 0.920080 0.248328 0.175999
O O14 0.924922 0.000000 0.269834
O O15 0.054603 0.500000 0.894501
#
# Coordination Sequence:
#
# PCOD9223314 Si02
#       6
#     8   8   8   8   8   8
#     4   9  19  33  49  69  97 131 160 188 232 288
#     4   8  15  28  49  72  93 120 155 195 236 280
#     4  10  19  32  50  71  96 127 160 195 234 277
#     4  10  18  32  53  73  93 122 162 200 232 276
#     4  10  19  32  49  71  98 128 159 191 231 282
#     4   9  16  30  50  71  94 121 158 197 234 277
#
# _framework density 9.0089120000000005
#
# number of rings (size 3 to 8) (size 9 to 14) (size 15 to 20)
#    0.000    2.667    1.667    2.000    0.000    2.000 
#    0.000    5.000    0.000    2.000    0.000    0.000 
#    0.000    0.000    0.000    0.000    0.000    0.000 
#
# Total GULP energy -133707.791497 kJ/mol
# GULP energy per Si atom -5571.157979 kJ/mol
# Density = 0.898841 g / cm^3
# Si number density = 9.008912 Si / 1000 Ang^3
#
#
#
# Elastic Constant Matrix: (Units=GPa)
#
#
# Indices 1 2 3 4 5 6 
#
# 1 27.3767 3.7638 -9.7657 0.0000 -1.8000 0.0000
# 2 3.7638 -3.9651 2.2963 0.0000 -2.4806 0.0000
# 3 -9.7657 2.2963 53.5842 0.0000 -26.4558 0.0000
# 4 0.0000 0.0000 0.0000 24.7348 0.0000 -14.1718
# 5 -1.8000 -2.4806 -26.4558 0.0000 -14.5041 0.0000
# 6 0.0000 0.0000 0.0000 -14.1718 0.0000 42.1032
#
#
#
# Elastic Compliance Matrix: (Units=1/GPa)
#
#
# Indices 1 2 3 4 5 6 
#
# 1 0.030992 0.034932 -0.000367 0.000000 -0.009151 0.000000
# 2 0.034932 -0.210770 0.016340 0.000000 0.001907 0.000000
# 3 -0.000367 0.016340 0.008702 0.000000 -0.018621 0.000000
# 4 0.000000 0.000000 0.000000 0.050089 0.000000 0.016860
# 5 -0.009151 0.001907 -0.018621 0.000000 -0.034172 0.000000
# 6 0.000000 0.000000 0.000000 0.016860 0.000000 0.029426
#
#
# Mechanical properties :
#
#
# Convention : Reuss Voigt Hill
#
# Bulk Modulus (GPa) = -14.43715 7.73164 -3.35276
# Shear Modulus (GPa) = -19.94956 15.84687 -2.05134
#
# Velocity S-wave (km/s) = -3.33109 2.96887 -1.06817
# Velocity P-wave (km/s) = 4.77755 4.00658 1.84015
#
# Compressibility (1/GPa) = -0.06926574
#
# Stress axis : x y z
#
# Youngs Moduli (GPa) = 32.26603 -4.74451 114.92213
#
# Poissons Ratio (x) = 0.16573 0.04216
# Poissons Ratio (y) = -1.12711 -1.87787
# Poissons Ratio (z) = 0.01184 0.07753
#
# Static dielectric constant tensor:
#      x y z
#    x 1.592430 0.000000 0.003050 
#    y 0.000000 1.607670 0.000000 
#    z 0.003050 0.000000 1.656640 
# 
# From -- ./inp_files/153647.got.cif
#   From: 2010.05.17/outbox.ucp.g08.bks.cvg/sg12_77_cif.got.tgz:153647.got - 2010.06.11 11:47:21.
