data_PCOD9223141
_publ_section_title
;
Structure prediction by ZEFSAII (Michael W. Deem and Ramdas Pophale) SiO2 
 PCOD9223141
Probable space group: C 2/M
;
_chemical_formula_sum "Si O2"
_cell_formula_units_Z 40
_cell_length_a 13.260191
_cell_length_b 26.671100
_cell_length_c 9.690577
_cell_angle_alpha 90.000000
_cell_angle_beta 31.871131
_cell_angle_gamma 90.000000
_cell_volume 1809.601334
_symmetry_space_group_name_H-M "C 2/M"
_symmetry_group_IT_number 12
_symmetry_cell_setting 'monoclinic'
loop_
_space_group_symop_operation_xyz
x,y,z
-x,y,-z
-x,-y,-z
x,-y,z
1/2+x,1/2+y,z
1/2-x,1/2+y,-z
1/2-x,1/2-y,-z
1/2+x,1/2-y,z
loop_
_atom_site_type_symbol
_atom_site_label
_atom_site_fract_x
_atom_site_fract_y
_atom_site_fract_z
Si Si1 0.124655 0.500000 0.558740
Si Si2 0.917704 0.913643 0.743804
Si Si3 0.995651 0.710205 0.837974
Si Si4 0.685543 0.500000 0.949171
Si Si5 0.025216 0.601048 0.807207
Si Si6 0.448149 0.699533 0.714547
O O1 0.272725 0.500000 0.260922
O O2 0.904305 0.500000 0.756844
O O3 0.137951 0.551984 0.627471
O O4 0.004820 0.858590 0.666701
O O5 0.000000 0.932069 0.500000
O O6 0.691402 0.905130 0.992164
O O7 0.925744 0.952631 0.858557
O O8 0.093963 0.656980 0.687151
O O9 0.045728 0.762778 0.708081
O O10 0.781584 0.702293 0.024865
O O11 0.000000 0.714735 0.000000
O O12 0.000000 0.600445 0.000000
O O13 0.500000 0.715696 0.500000
#
# Coordination Sequence:
#
# PCOD9223141 Si02
#       6
#     4   8   8   4   8   8
#     4   9  17  30  47  77 102 125 156 210 253 294
#     4   9  17  31  53  71  96 132 169 201 242 301
#     4   9  18  33  50  75 102 131 171 208 247 298
#     4   9  17  30  49  75 100 125 166 204 250 295
#     4   9  17  31  51  74  99 128 165 205 247 296
#     4   9  18  33  50  74 101 134 169 207 248 298
#
# _framework density 22.104316000000001
#
# number of rings (size 3 to 8) (size 9 to 14) (size 15 to 20)
#    0.000    3.000    0.000    0.600    0.000    0.800 
#   14.400    0.000    0.000    1.200    0.000    0.000 
#    0.000    0.000    0.000    0.000    0.000    0.000 
#
# Total GULP energy -111514.368529 kJ/mol
# GULP energy per Si atom -5575.718426 kJ/mol
# Density = 2.205401 g / cm^3
# Si number density = 22.104316 Si / 1000 Ang^3
#
#
#
# Elastic Constant Matrix: (Units=GPa)
#
#
# Indices 1 2 3 4 5 6 
#
# 1 76.6854 56.3815 18.9927 0.0000 -1.7845 0.0001
# 2 56.3815 198.1800 70.4883 0.0000 50.5124 0.0000
# 3 18.9927 70.4883 85.7769 0.0000 15.7729 0.0001
# 4 0.0000 0.0000 0.0000 22.7528 0.0000 -9.5899
# 5 -1.7845 50.5124 15.7729 0.0000 48.8631 -0.0001
# 6 0.0001 0.0000 0.0001 -9.5899 -0.0001 -144.0019
#
#
#
# Elastic Compliance Matrix: (Units=1/GPa)
#
#
# Indices 1 2 3 4 5 6 
#
# 1 0.018753 -0.007716 0.000633 0.000000 0.008457 0.000000
# 2 -0.007716 0.012301 -0.006389 0.000000 -0.010935 0.000000
# 3 0.000633 -0.006389 0.016531 0.000000 0.001292 0.000000
# 4 0.000000 0.000000 0.000000 0.042751 0.000000 -0.002847
# 5 0.008457 -0.010935 0.001292 0.000000 0.031662 0.000000
# 6 0.000000 0.000000 0.000000 -0.002847 0.000000 -0.006755
#
#
# Mechanical properties :
#
#
# Convention : Reuss Voigt Hill
#
# Bulk Modulus (GPa) = 48.44660 72.48525 60.46593
# Shear Modulus (GPa) = 33.54217 -0.15854 16.69182
#
# Velocity S-wave (km/s) = 3.89967 -0.26810 2.75096
# Velocity P-wave (km/s) = 6.49934 5.72431 6.12410
#
# Compressibility (1/GPa) = 0.02064128
#
# Stress axis : x y z
#
# Youngs Moduli (GPa) = 53.32406 81.29592 60.49372
#
# Poissons Ratio (x) = 0.62728 -0.03831
# Poissons Ratio (y) = 0.41145 0.38649
# Poissons Ratio (z) = -0.03377 0.51940
#
# Static dielectric constant tensor:
#      x y z
#    x 1.733270 0.000000 -0.014010 
#    y 0.000000 1.863600 0.000000 
#    z -0.014010 0.000000 1.775020 
# 
# From -- ./inp_files/52892.got.cif
#   From: 2010.05.17/outbox.cif.g08.bks.cpg/sg12_27_cif.got.tgz:52892.got - 2010.06.03 13:09:07.
