data_PCOD9223445
_publ_section_title
;
Structure prediction by ZEFSAII (Michael W. Deem and Ramdas Pophale) SiO2 
 PCOD9223445
Probable space group: C 2/M
;
_chemical_formula_sum "Si O2"
_cell_formula_units_Z 32
_cell_length_a 21.000000
_cell_length_b 9.000000
_cell_length_c 21.000000
_cell_angle_alpha 90.000000
_cell_angle_beta 100.000000
_cell_angle_gamma 90.000000
_cell_volume 3908.701972
_symmetry_space_group_name_H-M "C 2/M"
_symmetry_group_IT_number 12
_symmetry_cell_setting 'monoclinic'
loop_
_space_group_symop_operation_xyz
x,y,z
-x,y,-z
-x,-y,-z
x,-y,z
1/2+x,1/2+y,z
1/2-x,1/2+y,-z
1/2-x,1/2-y,-z
1/2+x,1/2-y,z
loop_
_atom_site_type_symbol
_atom_site_label
_atom_site_fract_x
_atom_site_fract_y
_atom_site_fract_z
Si Si1 0.475062 0.320591 0.352641
Si Si2 0.911039 0.179070 0.941615
Si Si3 0.216734 0.179554 0.339762
Si Si4 0.129433 0.820990 0.204111
Si Si5 0.549548 0.179202 0.927473
Si Si6 0.008437 0.321720 0.781765
Si Si7 0.651090 0.320490 0.583899
Si Si8 0.885350 0.819865 0.566777
O O1 0.478013 0.500000 0.345393
O O2 0.470244 0.247573 0.281886
O O3 0.412932 0.286083 0.385579
O O4 0.542088 0.273929 0.399487
O O5 0.865167 0.210940 0.871612
O O6 0.979919 0.248548 0.932282
O O7 0.915271 0.000000 0.948745
O O8 0.902025 0.250729 0.010822
O O9 0.186158 0.219869 0.264700
O O10 0.285180 0.250188 0.372443
O O11 0.164533 0.221746 0.385614
O O12 0.223122 0.000000 0.341498
O O13 0.062908 0.744134 0.215522
O O14 0.121313 0.000000 0.207874
O O15 0.553970 0.210141 0.851959
O O16 0.547992 0.000000 0.935366
O O17 0.004282 0.500000 0.775851
O O18 0.658722 0.500000 0.584496
O O19 0.638045 0.271458 0.507932
O O20 0.886616 0.000000 0.564627
#
# Coordination Sequence:
#
# PCOD9223445 Si02
#       8
#     8   8   8   8   8   8   8   8
#     4  10  19  34  53  71  96 130 165 202 243 290
#     4   9  15  23  39  63  90 121 159 197 229 273
#     4  10  19  33  52  72  99 133 162 196 244 292
#     4   9  17  30  47  68  95 129 166 198 236 287
#     4   9  16  25  37  59  94 127 152 186 240 290
#     4  10  19  29  45  70  97 126 161 202 242 285
#     4  10  21  34  51  75  99 125 163 206 244 288
#     4   9  17  33  55  74  93 126 166 200 242 294
#
# _framework density 8.1868610000000004
#
# number of rings (size 3 to 8) (size 9 to 14) (size 15 to 20)
#    0.000    2.500    1.250    2.625    0.000    4.500 
#    0.000    0.625    0.000    1.500    0.000    0.875 
#    0.000    0.000    0.000    0.000    0.000    0.000 
#
# Total GULP energy -178156.438807 kJ/mol
# GULP energy per Si atom -5567.388713 kJ/mol
# Density = 0.816823 g / cm^3
# Si number density = 8.186861 Si / 1000 Ang^3
#
#
#
# Elastic Constant Matrix: (Units=GPa)
#
#
# Indices 1 2 3 4 5 6 
#
# 1 87.6918 21.2311 58.8282 0.0000 16.8741 0.0000
# 2 21.2311 41.7462 40.4580 0.0000 6.1794 0.0000
# 3 58.8282 40.4580 195.7087 0.0000 27.3790 0.0000
# 4 0.0000 0.0000 0.0000 30.0205 0.0000 6.0211
# 5 16.8741 6.1794 27.3790 0.0000 20.0243 0.0000
# 6 0.0000 0.0000 0.0000 6.0211 0.0000 20.3888
#
#
#
# Elastic Compliance Matrix: (Units=1/GPa)
#
#
# Indices 1 2 3 4 5 6 
#
# 1 0.015854 -0.004178 -0.002737 0.000000 -0.008328 0.000000
# 2 -0.004178 0.031072 -0.005340 0.000000 0.001233 0.000000
# 3 -0.002737 -0.005340 0.008016 0.000000 -0.007007 0.000000
# 4 0.000000 0.000000 0.000000 0.035408 0.000000 -0.010457
# 5 -0.008328 0.001233 -0.007007 0.000000 0.066157 0.000000
# 6 0.000000 0.000000 0.000000 -0.010457 0.000000 0.052135
#
#
# Mechanical properties :
#
#
# Convention : Reuss Voigt Hill
#
# Bulk Modulus (GPa) = 32.85933 62.90903 47.88418
# Shear Modulus (GPa) = 20.55127 27.72869 24.13998
#
# Velocity S-wave (km/s) = 3.54664 4.11966 3.84384
# Velocity P-wave (km/s) = 6.07317 7.81876 7.00058
#
# Compressibility (1/GPa) = 0.03043276
#
# Stress axis : x y z
#
# Youngs Moduli (GPa) = 63.07744 32.18364 124.74456
#
# Poissons Ratio (x) = 0.13445 0.34139
# Poissons Ratio (y) = 0.26352 0.66614
# Poissons Ratio (z) = 0.17262 0.17186
#
# Static dielectric constant tensor:
#      x y z
#    x 1.522060 0.000000 0.004140 
#    y 0.000000 1.549300 0.000000 
#    z 0.004140 0.000000 1.603260 
# 
# From -- ./inp_files/319213.got.cif
#   From: 2010.05.17/outbox.ucp.g08.bks.cvg/sg12_160_cif.got.tgz:319213.got - 2010.06.11 11:47:21.
