data_PCOD9223687
_publ_section_title
;
Structure prediction by ZEFSAII (Michael W. Deem and Ramdas Pophale) SiO2 
 PCOD9223687
Probable space group: C 2/M
;
_chemical_formula_sum "Si O2"
_cell_formula_units_Z 20
_cell_length_a 18.000000
_cell_length_b 9.000000
_cell_length_c 27.000000
_cell_angle_alpha 90.000000
_cell_angle_beta 150.000000
_cell_angle_gamma 90.000000
_cell_volume 2187.000000
_symmetry_space_group_name_H-M "C 2/M"
_symmetry_group_IT_number 12
_symmetry_cell_setting 'monoclinic'
loop_
_space_group_symop_operation_xyz
x,y,z
-x,y,-z
-x,-y,-z
x,-y,z
1/2+x,1/2+y,z
1/2-x,1/2+y,-z
1/2-x,1/2-y,-z
1/2+x,1/2-y,z
loop_
_atom_site_type_symbol
_atom_site_label
_atom_site_fract_x
_atom_site_fract_y
_atom_site_fract_z
Si Si1 0.412871 0.673257 0.002509
Si Si2 0.351025 0.820192 0.216512
Si Si3 0.321390 0.675465 0.398078
Si Si4 0.173389 0.321804 0.205785
Si Si5 0.175004 0.177920 0.408050
O O1 0.412331 0.500000 0.017146
O O2 0.248120 0.718488 0.889436
O O3 0.500000 0.681915 0.000000
O O4 0.505706 0.766575 0.096246
O O5 0.271085 0.758602 0.219838
O O6 0.511174 0.746270 0.307562
O O7 0.357999 0.000000 0.222937
O O8 0.500000 0.691675 0.500000
O O9 0.289955 0.500000 0.389545
O O10 0.240825 0.712719 0.299136
O O11 0.262373 0.773134 0.409231
O O12 0.181362 0.500000 0.204159
O O13 0.250000 0.250000 0.500000
O O14 0.170491 0.000000 0.410676
#
# Coordination Sequence:
#
# PCOD9223687 Si02
#       5
#     8   8   8   8   8
#     4   8  16  31  52  79 112 150 187 227 274 323
#     4  10  20  36  58  83 114 150 188 230 275 325
#     4  10  22  40  59  81 112 147 184 228 277 329
#     4  10  19  32  56  87 116 148 187 232 277 326
#     4  12  25  40  60  84 111 144 183 228 278 333
#
# _framework density 9.1449470000000002
#
# number of rings (size 3 to 8) (size 9 to 14) (size 15 to 20)
#    0.000    2.000    0.000    5.400    0.000    8.000 
#    0.000    1.000    0.000    0.000    0.000    0.000 
#    0.000    0.000    0.000    0.000    0.000    0.000 
#
# Total GULP energy -111614.349281 kJ/mol
# GULP energy per Si atom -5580.717464 kJ/mol
# Density = 0.912413 g / cm^3
# Si number density = 9.144947 Si / 1000 Ang^3
#
#
#
# Elastic Constant Matrix: (Units=GPa)
#
#
# Indices 1 2 3 4 5 6 
#
# 1 64.5505 51.8608 57.0459 0.0000 -11.7873 0.0000
# 2 51.8608 118.2767 83.0891 0.0000 -8.1673 0.0000
# 3 57.0459 83.0891 192.0674 0.0001 -14.4833 0.0000
# 4 0.0000 0.0000 0.0001 36.3175 0.0000 -1.3125
# 5 -11.7873 -8.1673 -14.4833 0.0000 33.8136 0.0000
# 6 0.0000 0.0000 0.0000 -1.3125 0.0000 31.8248
#
#
#
# Elastic Compliance Matrix: (Units=1/GPa)
#
#
# Indices 1 2 3 4 5 6 
#
# 1 0.026886 -0.008746 -0.003776 0.000000 0.005642 0.000000
# 2 -0.008746 0.015008 -0.003980 0.000000 -0.001129 0.000000
# 3 -0.003776 -0.003980 0.008141 0.000000 0.001209 0.000000
# 4 0.000000 0.000000 0.000000 0.027576 0.000000 0.001137
# 5 0.005642 -0.001129 0.001209 0.000000 0.031786 0.000000
# 6 0.000000 0.000000 0.000000 0.001137 0.000000 0.031469
#
#
# Mechanical properties :
#
#
# Convention : Reuss Voigt Hill
#
# Bulk Modulus (GPa) = 58.71964 84.32070 71.52017
# Shear Modulus (GPa) = 27.84780 32.58444 30.21612
#
# Velocity S-wave (km/s) = 3.90626 4.22543 4.06897
# Velocity P-wave (km/s) = 7.24705 8.36708 7.82713
#
# Compressibility (1/GPa) = 0.01703008
#
# Stress axis : x y z
#
# Youngs Moduli (GPa) = 37.19359 66.63311 122.83626
#
# Poissons Ratio (x) = 0.58280 0.46387
# Poissons Ratio (y) = 0.32531 0.48885
# Poissons Ratio (z) = 0.14045 0.26518
#
# Static dielectric constant tensor:
#      x y z
#    x 1.625010 0.000000 0.036080 
#    y 0.000000 1.609630 0.000000 
#    z 0.036080 0.000000 1.658320 
# 
# From -- ./inp_files/274677.got.cif
#   From: 2010.05.17/outbox.ucp.g08.bks.cvg/sg12_138_cif.got.tgz:274677.got - 2010.06.11 11:47:21.
