data_PCOD9223062
_publ_section_title
;
Structure prediction by ZEFSAII (Michael W. Deem and Ramdas Pophale) SiO2 
 PCOD9223062
Probable space group: C 2/M
;
_chemical_formula_sum "Si O2"
_cell_formula_units_Z 48
_cell_length_a 10.181971
_cell_length_b 25.636589
_cell_length_c 14.045967
_cell_angle_alpha 90.000000
_cell_angle_beta 146.407770
_cell_angle_gamma 90.000000
_cell_volume 2028.558821
_symmetry_space_group_name_H-M "C 2/M"
_symmetry_group_IT_number 12
_symmetry_cell_setting 'monoclinic'
loop_
_space_group_symop_operation_xyz
x,y,z
-x,y,-z
-x,-y,-z
x,-y,z
1/2+x,1/2+y,z
1/2-x,1/2+y,-z
1/2-x,1/2-y,-z
1/2+x,1/2-y,z
loop_
_atom_site_type_symbol
_atom_site_label
_atom_site_fract_x
_atom_site_fract_y
_atom_site_fract_z
Si Si1 0.486716 0.282497 0.155977
Si Si2 0.738971 0.699825 0.790587
Si Si3 0.564966 0.394035 0.398033
Si Si4 0.035171 0.100515 0.890880
Si Si5 0.036401 0.561280 0.637422
Si Si6 0.177277 0.500000 0.965788
Si Si7 0.337343 0.500000 0.284938
O O1 0.472176 0.288038 0.261169
O O2 0.698617 0.248635 0.239128
O O3 0.438917 0.337794 0.075992
O O4 0.250000 0.250000 0.000000
O O5 0.618411 0.648942 0.671528
O O6 0.000000 0.687746 0.000000
O O7 0.509958 0.397254 0.251017
O O8 0.851309 0.398093 0.573063
O O9 0.485203 0.448909 0.389608
O O10 0.803040 0.081482 0.805534
O O11 0.226009 0.054447 0.017011
O O12 0.009914 0.500000 0.648874
O O13 0.000000 0.561636 0.500000
O O14 0.260850 0.500000 0.126887
O O15 0.898290 0.500000 0.797130
#
# Coordination Sequence:
#
# PCOD9223062 Si02
#       7
#     8   8   8   8   8   4   4
#     4   9  18  30  46  65  90 120 154 185 223 265
#     4   9  18  30  45  65  90 121 154 186 220 267
#     4   9  16  24  38  62  91 119 142 178 229 272
#     4   9  16  26  40  61  87 118 149 182 224 269
#     4   9  14  24  38  59  91 120 143 174 227 280
#     4   9  16  21  35  61  87 111 140 186 227 272
#     4   9  16  19  33  59  92 116 136 171 233 285
#
# _framework density 23.662119000000001
#
# number of rings (size 3 to 8) (size 9 to 14) (size 15 to 20)
#    0.000    3.000    1.667    0.000    9.333    0.000 
#    0.000    0.833    0.000    0.000    0.000    6.417 
#    0.000    1.333    0.000    0.000    0.000    0.000 
#
# Total GULP energy -133739.518878 kJ/mol
# GULP energy per Si atom -5572.479953 kJ/mol
# Density = 2.360826 g / cm^3
# Si number density = 23.662119 Si / 1000 Ang^3
#
#
#
# Elastic Constant Matrix: (Units=GPa)
#
#
# Indices 1 2 3 4 5 6 
#
# 1 112.3967 56.3129 29.1840 0.0000 19.1745 0.0000
# 2 56.3129 180.9626 35.9217 0.0000 36.9237 0.0000
# 3 29.1840 35.9217 56.6147 0.0003 30.8292 -0.0003
# 4 0.0000 0.0000 0.0003 -533.8335 0.0001 768.2678
# 5 19.1745 36.9237 30.8292 0.0001 44.6130 -0.0001
# 6 0.0000 0.0000 -0.0003 768.2678 -0.0001 -966.4838
#
#
#
# Elastic Compliance Matrix: (Units=1/GPa)
#
#
# Indices 1 2 3 4 5 6 
#
# 1 0.011326 -0.002748 -0.004301 0.000000 0.000379 0.000000
# 2 -0.002748 0.007454 -0.000957 0.000000 -0.004327 0.000000
# 3 -0.004301 -0.000957 0.030543 0.000000 -0.018466 0.000000
# 4 0.000000 0.000000 0.000000 0.013009 0.000000 0.010341
# 5 0.000379 -0.004327 -0.018466 0.000000 0.038594 0.000000
# 6 0.000000 0.000000 0.000000 0.010341 0.000000 0.007185
#
#
# Mechanical properties :
#
#
# Convention : Reuss Voigt Hill
#
# Bulk Modulus (GPa) = 30.01971 65.86791 47.94381
# Shear Modulus (GPa) = 36.97513 -275.90382 -119.46435
#
# Velocity S-wave (km/s) = 3.95730 -10.80993 -7.11317
# Velocity P-wave (km/s) = 5.79609 11.30968 6.86710
#
# Compressibility (1/GPa) = 0.03331144
#
# Stress axis : x y z
#
# Youngs Moduli (GPa) = 88.29229 134.15751 32.74103
#
# Poissons Ratio (x) = 0.36866 0.14082
# Poissons Ratio (y) = 0.24263 0.03132
# Poissons Ratio (z) = 0.37974 0.12835
#
# Static dielectric constant tensor:
#      x y z
#    x 0.000000 0.000000 0.000000 
#    y 0.000000 0.000000 0.000000 
#    z 0.000000 0.000000 0.000000 
# 
# From -- ./inp_files/134515.got.cif
#   From: 2010.05.17/outbox.cif.g08.bks.cpg/sg12_68_cif.got.tgz:134515.got - 2010.06.03 13:09:07.
