data_PCOD9223449
_publ_section_title
;
Structure prediction by ZEFSAII (Michael W. Deem and Ramdas Pophale) SiO2 
 PCOD9223449
Probable space group: C 2/M
;
_chemical_formula_sum "Si O2"
_cell_formula_units_Z 32
_cell_length_a 30.000000
_cell_length_b 9.000000
_cell_length_c 15.000000
_cell_angle_alpha 90.000000
_cell_angle_beta 80.000000
_cell_angle_gamma 90.000000
_cell_volume 3988.471400
_symmetry_space_group_name_H-M "C 2/M"
_symmetry_group_IT_number 12
_symmetry_cell_setting 'monoclinic'
loop_
_space_group_symop_operation_xyz
x,y,z
-x,y,-z
-x,-y,-z
x,-y,z
1/2+x,1/2+y,z
1/2-x,1/2+y,-z
1/2-x,1/2-y,-z
1/2+x,1/2-y,z
loop_
_atom_site_type_symbol
_atom_site_label
_atom_site_fract_x
_atom_site_fract_y
_atom_site_fract_z
Si Si1 0.601348 0.325137 0.946303
Si Si2 0.201056 0.322195 0.616892
Si Si3 0.264663 0.321678 0.899652
Si Si4 0.345155 0.179090 0.762373
Si Si5 0.485988 0.671624 0.109652
Si Si6 0.199061 0.678993 0.413802
Si Si7 0.309053 0.326067 0.198941
Si Si8 0.574202 0.177227 0.140263
O O1 0.591041 0.500000 0.967631
O O2 0.565190 0.271716 0.884054
O O3 0.649782 0.317373 0.884428
O O4 0.597011 0.240679 0.041403
O O5 0.199650 0.500000 0.629291
O O6 0.183164 0.289726 0.522045
O O7 0.252970 0.263922 0.606797
O O8 0.178312 0.239333 0.708600
O O9 0.265818 0.500000 0.908316
O O10 0.311748 0.258813 0.844272
O O11 0.229943 0.269448 0.834670
O O12 0.250000 0.250000 0.000000
O O13 0.331226 0.216963 0.663920
O O14 0.395405 0.214843 0.783310
O O15 0.339407 0.000000 0.771782
O O16 0.486036 0.500000 0.138611
O O17 0.523212 0.758778 0.153244
O O18 0.500000 0.676955 0.000000
O O19 0.206596 0.500000 0.407334
O O20 0.295419 0.500000 0.212675
O O21 0.572437 0.000000 0.134267
#
# Coordination Sequence:
#
# PCOD9223449 Si02
#       8
#     8   8   8   8   8   8   8   8
#     4   9  19  33  48  66  91 127 163 189 227 283
#     4  10  19  31  49  73  93 118 159 202 240 283
#     4  12  24  35  47  66  94 129 165 196 228 274
#     4  10  20  34  49  68  95 128 160 192 233 281
#     4   8  15  30  48  65  89 121 156 192 231 278
#     4   9  18  33  51  67  92 126 158 196 241 282
#     4  11  21  34  50  69  95 127 159 196 240 282
#     4  10  19  29  46  72  97 121 154 194 235 276
#
# _framework density 8.0231239999999993
#
# number of rings (size 3 to 8) (size 9 to 14) (size 15 to 20)
#    0.000    2.125    1.250    3.750    0.000    6.750 
#    0.000    0.000    0.000    0.000    0.000    0.875 
#    0.000    7.000    0.000    0.000    0.000    0.000 
#
# Total GULP energy -178229.444960 kJ/mol
# GULP energy per Si atom -5569.670155 kJ/mol
# Density = 0.800486 g / cm^3
# Si number density = 8.023124 Si / 1000 Ang^3
#
#
#
# Elastic Constant Matrix: (Units=GPa)
#
#
# Indices 1 2 3 4 5 6 
#
# 1 71.2297 17.3347 12.2400 0.0000 29.4874 0.0000
# 2 17.3347 56.7383 23.5453 0.0000 14.0776 0.0000
# 3 12.2400 23.5453 78.4569 0.0000 30.6173 0.0000
# 4 0.0000 0.0000 0.0000 23.7399 0.0000 3.1213
# 5 29.4874 14.0776 30.6173 0.0000 29.3130 0.0000
# 6 0.0000 0.0000 0.0000 3.1213 0.0000 21.6351
#
#
#
# Elastic Compliance Matrix: (Units=1/GPa)
#
#
# Indices 1 2 3 4 5 6 
#
# 1 0.030098 -0.004178 0.012813 0.000000 -0.041654 0.000000
# 2 -0.004178 0.021286 -0.005717 0.000000 -0.000048 0.000000
# 3 0.012813 -0.005717 0.027720 0.000000 -0.039097 0.000000
# 4 0.000000 0.000000 0.000000 0.042938 0.000000 -0.006195
# 5 -0.041654 -0.000048 -0.039097 0.000000 0.116876 0.000000
# 6 0.000000 0.000000 0.000000 -0.006195 0.000000 0.047115
#
#
# Mechanical properties :
#
#
# Convention : Reuss Voigt Hill
#
# Bulk Modulus (GPa) = 11.77304 34.74055 23.25680
# Shear Modulus (GPa) = 16.20696 25.15792 20.68244
#
# Velocity S-wave (km/s) = 3.18152 3.96389 3.59406
# Velocity P-wave (km/s) = 4.56607 6.53048 5.63454
#
# Compressibility (1/GPa) = 0.08493982
#
# Stress axis : x y z
#
# Youngs Moduli (GPa) = 33.22521 46.97985 36.07478
#
# Poissons Ratio (x) = 0.19627 -0.46224
# Poissons Ratio (y) = 0.13881 0.20626
# Poissons Ratio (z) = -0.42573 0.26861
#
# Static dielectric constant tensor:
#      x y z
#    x 1.593380 0.000000 -0.002460 
#    y 0.000000 1.540970 0.000000 
#    z -0.002460 0.000000 1.538690 
# 
# From -- ./inp_files/248251.got.cif
#   From: 2010.05.17/outbox.ucp.g08.bks.cvg/sg12_125_cif.got.tgz:248251.got - 2010.06.11 11:47:21.
