data_PCOD9223293
_publ_section_title
;
Structure prediction by ZEFSAII (Michael W. Deem and Ramdas Pophale) SiO2 
 PCOD9223293
Probable space group: C 2/M
;
_chemical_formula_sum "Si O2"
_cell_formula_units_Z 32
_cell_length_a 15.000000
_cell_length_b 18.000000
_cell_length_c 24.000000
_cell_angle_alpha 90.000000
_cell_angle_beta 30.000000
_cell_angle_gamma 90.000000
_cell_volume 3240.000000
_symmetry_space_group_name_H-M "C 2/M"
_symmetry_group_IT_number 12
_symmetry_cell_setting 'monoclinic'
loop_
_space_group_symop_operation_xyz
x,y,z
-x,y,-z
-x,-y,-z
x,-y,z
1/2+x,1/2+y,z
1/2-x,1/2+y,-z
1/2-x,1/2-y,-z
1/2+x,1/2-y,z
loop_
_atom_site_type_symbol
_atom_site_label
_atom_site_fract_x
_atom_site_fract_y
_atom_site_fract_z
Si Si1 0.495390 0.914253 0.289620
Si Si2 0.708579 0.693088 0.248410
Si Si3 0.650373 0.412937 0.753304
Si Si4 0.132677 0.159595 0.876280
Si Si5 0.583102 0.417092 0.231343
Si Si6 0.306875 0.411351 0.635727
Si Si7 0.520125 0.203745 0.429097
Si Si8 0.714029 0.920437 0.481580
O O1 0.670486 0.865841 0.208134
O O2 0.358594 0.890687 0.315368
O O3 0.372565 0.915749 0.411269
O O4 0.552160 0.000000 0.248558
O O5 0.852017 0.758058 0.158990
O O6 0.694086 0.649294 0.197977
O O7 0.726902 0.634584 0.289195
O O8 0.545097 0.742124 0.363153
O O9 0.704867 0.500000 0.721919
O O10 0.579265 0.394393 0.853810
O O11 0.512134 0.402421 0.776814
O O12 0.815357 0.355283 0.658793
O O13 0.000000 0.156965 0.000000
O O14 0.665424 0.500000 0.183813
O O15 0.424831 0.421410 0.363087
O O16 0.500000 0.401172 0.500000
O O17 0.296956 0.500000 0.652230
O O18 0.500000 0.241913 0.500000
O O19 0.350618 0.151669 0.514766
O O20 0.654828 0.000000 0.488328
#
# Coordination Sequence:
#
# PCOD9223293 Si02
#       8
#     8   8   8   8   8   8   8   8
#     4  10  20  37  62  91 120 160 206 246 292 349
#     4  11  23  39  56  83 121 163 203 244 293 353
#     4  10  20  36  58  85 115 150 195 246 299 360
#     4  11  25  43  61  86 119 156 197 255 317 357
#     4  10  21  36  59  86 117 157 195 240 296 356
#     4  10  21  40  65  92 126 163 202 242 284 349
#     4  11  20  31  47  83 124 161 190 228 287 361
#     4  10  18  31  53  84 122 158 190 227 286 358
#
# _framework density 9.8765429999999999
#
# number of rings (size 3 to 8) (size 9 to 14) (size 15 to 20)
#    0.000    1.625    3.750    2.250    0.000    6.000 
#    2.250    2.500    0.000    3.000    0.000    0.000 
#    0.000    0.000    0.000    0.000    0.000    0.000 
#
# Total GULP energy -178307.785203 kJ/mol
# GULP energy per Si atom -5572.118288 kJ/mol
# Density = 0.985406 g / cm^3
# Si number density = 9.876543 Si / 1000 Ang^3
#
#
#
# Elastic Constant Matrix: (Units=GPa)
#
#
# Indices 1 2 3 4 5 6 
#
# 1 95.5747 50.2894 24.6753 0.0022 5.7834 -0.0085
# 2 50.2894 98.3806 5.0883 -0.0016 1.9253 -0.0001
# 3 24.6753 5.0883 62.4609 -0.0026 23.5156 0.0041
# 4 0.0022 -0.0016 -0.0026 15.2753 -0.0028 7.7989
# 5 5.7834 1.9253 23.5156 -0.0028 20.4815 -0.0056
# 6 -0.0085 -0.0001 0.0041 7.7989 -0.0056 60.0140
#
#
#
# Elastic Compliance Matrix: (Units=1/GPa)
#
#
# Indices 1 2 3 4 5 6 
#
# 1 0.016401 -0.008083 -0.007685 -0.000006 0.004952 0.000004
# 2 -0.008083 0.014191 0.002959 0.000004 -0.002449 -0.000002
# 3 -0.007685 0.002959 0.031868 0.000004 -0.034697 -0.000007
# 4 -0.000006 0.000004 0.000004 0.070117 0.000004 -0.009112
# 5 0.004952 -0.002449 -0.034697 0.000004 0.087494 0.000011
# 6 0.000004 -0.000002 -0.000007 -0.009112 0.000011 0.017847
#
#
# Mechanical properties :
#
#
# Convention : Reuss Voigt Hill
#
# Bulk Modulus (GPa) = 27.14292 46.28025 36.71158
# Shear Modulus (GPa) = 18.12805 30.91168 24.51987
#
# Velocity S-wave (km/s) = 3.03270 3.96018 3.52706
# Velocity P-wave (km/s) = 5.10235 6.66265 5.93401
#
# Compressibility (1/GPa) = 0.03684203
#
# Stress axis : x y z
#
# Youngs Moduli (GPa) = 60.97356 70.46586 31.37955
#
# Poissons Ratio (x) = 0.56957 0.24115
# Poissons Ratio (y) = 0.49285 -0.09286
# Poissons Ratio (z) = 0.46859 -0.20852
#
# Static dielectric constant tensor:
#      x y z
#    x 1.729250 0.000000 0.010720 
#    y 0.000000 1.756860 0.000000 
#    z 0.010720 0.000000 1.687240 
# 
# From -- ./inp_files/340806.got.cif
#   From: 2010.05.17/outbox.ucp.g08.bks.cvg/sg12_171_cif.got.tgz:340806.got - 2010.06.11 11:47:21.
