data_PCOD9223718
_publ_section_title
;
Structure prediction by ZEFSAII (Michael W. Deem and Ramdas Pophale) SiO2 
 PCOD9223718
Probable space group: C 2/M
;
_chemical_formula_sum "Si O2"
_cell_formula_units_Z 28
_cell_length_a 30.000000
_cell_length_b 18.000000
_cell_length_c 9.000000
_cell_angle_alpha 90.000000
_cell_angle_beta 40.000000
_cell_angle_gamma 90.000000
_cell_volume 3123.947783
_symmetry_space_group_name_H-M "C 2/M"
_symmetry_group_IT_number 12
_symmetry_cell_setting 'monoclinic'
loop_
_space_group_symop_operation_xyz
x,y,z
-x,y,-z
-x,-y,-z
x,-y,z
1/2+x,1/2+y,z
1/2-x,1/2+y,-z
1/2-x,1/2-y,-z
1/2+x,1/2-y,z
loop_
_atom_site_type_symbol
_atom_site_label
_atom_site_fract_x
_atom_site_fract_y
_atom_site_fract_z
Si Si1 0.578384 0.681083 0.832771
Si Si2 0.561419 0.848955 0.002159
Si Si3 0.757717 0.342482 0.828519
Si Si4 0.692501 0.912900 0.791265
Si Si5 0.703415 0.318910 0.293966
Si Si6 0.089576 0.588101 0.609943
Si Si7 0.686449 0.413631 0.747377
O O1 0.626344 0.677761 0.561137
O O2 0.625473 0.635135 0.829817
O O3 0.500000 0.653356 0.000000
O O4 0.568040 0.764753 0.924178
O O5 0.482960 0.870716 0.252770
O O6 0.621274 0.867126 0.967563
O O7 0.583243 0.900091 0.804722
O O8 0.768944 0.261797 0.724883
O O9 0.836456 0.377608 0.635530
O O10 0.706780 0.392787 0.861764
O O11 0.716458 0.325195 0.085615
O O12 0.746344 0.882973 0.774263
O O13 0.739765 0.901058 0.524243
O O14 0.677500 0.000000 0.846283
O O15 0.087292 0.500000 0.581910
O O16 0.668808 0.500000 0.774945
#
# Coordination Sequence:
#
# PCOD9223718 Si02
#       7
#     8   8   8   8   8   8   8
#     4  11  20  38  61  84 112 144 191 241 292 335
#     4  11  18  32  56  85 116 149 186 228 274 336
#     4  11  20  37  56  80 116 151 191 233 278 341
#     4  10  19  33  53  81 113 145 188 235 275 327
#     4  10  22  36  56  83 111 151 191 233 286 337
#     4  11  20  31  54  88 119 150 182 228 278 334
#     4  10  21  35  57  83 108 146 193 241 285 333
#
# _framework density 8.9630179999999999
#
# number of rings (size 3 to 8) (size 9 to 14) (size 15 to 20)
#    0.000    1.429    4.286    3.000    0.000    3.714 
#    0.000    1.429    0.000    7.714    0.000    0.000 
#    0.000    0.000    0.000    0.000    0.000    0.000 
#
# Total GULP energy -156006.043951 kJ/mol
# GULP energy per Si atom -5571.644427 kJ/mol
# Density = 0.894262 g / cm^3
# Si number density = 8.963018 Si / 1000 Ang^3
#
#
#
# Elastic Constant Matrix: (Units=GPa)
#
#
# Indices 1 2 3 4 5 6 
#
# 1 66.3180 32.5007 41.5385 0.0000 -32.7700 0.0000
# 2 32.5007 74.4789 32.3586 0.0000 -15.6233 0.0000
# 3 41.5385 32.3586 98.9063 0.0000 -30.1223 0.0000
# 4 0.0000 0.0000 0.0000 20.3894 0.0000 -8.3744
# 5 -32.7700 -15.6233 -30.1223 0.0000 36.3602 0.0000
# 6 0.0000 0.0000 0.0000 -8.3744 0.0000 29.0773
#
#
#
# Elastic Compliance Matrix: (Units=1/GPa)
#
#
# Indices 1 2 3 4 5 6 
#
# 1 0.032720 -0.007645 -0.004360 0.000000 0.022592 0.000000
# 2 -0.007645 0.017743 -0.003171 0.000000 -0.001893 0.000000
# 3 -0.004360 -0.003171 0.015203 0.000000 0.007303 0.000000
# 4 0.000000 0.000000 0.000000 0.055625 0.000000 0.016020
# 5 0.022592 -0.001893 0.007303 0.000000 0.053101 0.000000
# 6 0.000000 0.000000 0.000000 0.016020 0.000000 0.039005
#
#
# Mechanical properties :
#
#
# Convention : Reuss Voigt Hill
#
# Bulk Modulus (GPa) = 28.31633 50.27766 39.29699
# Shear Modulus (GPa) = 19.56796 26.05240 22.81018
#
# Velocity S-wave (km/s) = 3.30751 3.81639 3.57103
# Velocity P-wave (km/s) = 5.51513 6.89405 6.24278
#
# Compressibility (1/GPa) = 0.03531532
#
# Stress axis : x y z
#
# Youngs Moduli (GPa) = 30.56259 56.35987 65.77551
#
# Poissons Ratio (x) = 0.43085 0.28678
# Poissons Ratio (y) = 0.23364 0.20856
# Poissons Ratio (z) = 0.13325 0.17870
#
# Static dielectric constant tensor:
#      x y z
#    x 1.667570 0.000000 0.037400 
#    y 0.000000 1.624020 0.000000 
#    z 0.037400 0.000000 1.622080 
# 
# From -- ./inp_files/112605.got.cif
#   From: 2010.05.17/outbox.ucp.g08.bks.cvg/sg12_57_cif.got.tgz:112605.got - 2010.06.11 11:47:21.
