data_PCOD9223179
_publ_section_title
;
Structure prediction by ZEFSAII (Michael W. Deem and Ramdas Pophale) SiO2 
 PCOD9223179
Probable space group: C 2/M
;
_chemical_formula_sum "Si O2"
_cell_formula_units_Z 32
_cell_length_a 15.000000
_cell_length_b 30.000000
_cell_length_c 9.000000
_cell_angle_alpha 90.000000
_cell_angle_beta 60.000000
_cell_angle_gamma 90.000000
_cell_volume 3507.402885
_symmetry_space_group_name_H-M "C 2/M"
_symmetry_group_IT_number 12
_symmetry_cell_setting 'monoclinic'
loop_
_space_group_symop_operation_xyz
x,y,z
-x,y,-z
-x,-y,-z
x,-y,z
1/2+x,1/2+y,z
1/2-x,1/2+y,-z
1/2-x,1/2-y,-z
1/2+x,1/2-y,z
loop_
_atom_site_type_symbol
_atom_site_label
_atom_site_fract_x
_atom_site_fract_y
_atom_site_fract_z
Si Si1 0.590697 0.110549 0.719725
Si Si2 0.634189 0.864524 0.004903
Si Si3 0.110514 0.210805 0.483666
Si Si4 0.881925 0.448256 0.558356
Si Si5 0.612431 0.814493 0.473019
Si Si6 0.789739 0.272648 0.119080
Si Si7 0.247520 0.124266 0.828002
Si Si8 0.896346 0.811376 0.174794
O O1 0.632368 0.112714 0.848561
O O2 0.623799 0.066451 0.607360
O O3 0.631090 0.152881 0.594173
O O4 0.467456 0.117447 0.828275
O O5 0.628695 0.811226 0.987814
O O6 0.735566 0.876093 0.011844
O O7 0.123115 0.263571 0.506919
O O8 0.199419 0.202970 0.287936
O O9 0.109745 0.186472 0.642099
O O10 0.000000 0.204501 0.500000
O O11 0.868276 0.500000 0.596598
O O12 0.799569 0.418868 0.714653
O O13 0.000000 0.435753 0.500000
O O14 0.500000 0.820357 0.500000
O O15 0.684028 0.833580 0.284571
O O16 0.833111 0.232868 0.181779
O O17 0.750000 0.250000 0.000000
O O18 0.140052 0.140865 0.858402
O O19 0.000000 0.802384 0.000000
#
# Coordination Sequence:
#
# PCOD9223179 Si02
#       8
#     8   8   8   8   8   8   8   8
#     4  10  20  32  53  82 113 146 184 227 282 347
#     4  11  21  32  50  81 114 157 189 224 278 336
#     4  11  24  37  52  77 109 153 203 248 290 327
#     4  10  20  38  63  88 111 141 181 233 297 365
#     4  10  17  32  51  72 104 147 190 231 271 329
#     4  12  23  36  53  78 115 160 201 245 277 330
#     4  11  20  38  56  75 113 148 190 226 291 344
#     4  12  26  38  53  79 114 155 203 251 282 320
#
# _framework density 9.1235599999999994
#
# number of rings (size 3 to 8) (size 9 to 14) (size 15 to 20)
#    0.000    1.125    5.000    2.625    8.750    0.000 
#    0.000    1.875    0.000    0.375    0.000    0.000 
#    0.000    1.500    0.000    0.000    0.000    0.000 
#
# Total GULP energy -178334.045910 kJ/mol
# GULP energy per Si atom -5572.938935 kJ/mol
# Density = 0.910279 g / cm^3
# Si number density = 9.123560 Si / 1000 Ang^3
#
#
#
# Elastic Constant Matrix: (Units=GPa)
#
#
# Indices 1 2 3 4 5 6 
#
# 1 56.9684 20.8666 42.9223 0.0000 9.6048 0.0000
# 2 20.8666 49.7656 18.1077 0.0000 1.2935 0.0000
# 3 42.9223 18.1077 78.6731 0.0000 15.5956 0.0000
# 4 0.0000 0.0000 0.0000 11.6040 0.0000 -3.8746
# 5 9.6048 1.2935 15.5956 0.0000 31.6700 0.0000
# 6 0.0000 0.0000 0.0000 -3.8746 0.0000 24.9836
#
#
#
# Elastic Compliance Matrix: (Units=1/GPa)
#
#
# Indices 1 2 3 4 5 6 
#
# 1 0.032459 -0.007916 -0.015514 0.000000 -0.001881 0.000000
# 2 -0.007916 0.023951 -0.001635 0.000000 0.002228 0.000000
# 3 -0.015514 -0.001635 0.022835 0.000000 -0.006473 0.000000
# 4 0.000000 0.000000 0.000000 0.090883 0.000000 0.014095
# 5 -0.001881 0.002228 -0.006473 0.000000 0.035243 0.000000
# 6 0.000000 0.000000 0.000000 0.014095 0.000000 0.042212
#
#
# Mechanical properties :
#
#
# Convention : Reuss Voigt Hill
#
# Bulk Modulus (GPa) = 34.34887 38.80004 36.57445
# Shear Modulus (GPa) = 16.26448 20.55221 18.40835
#
# Velocity S-wave (km/s) = 2.98878 3.35972 3.17966
# Velocity P-wave (km/s) = 5.54757 6.02993 5.79377
#
# Compressibility (1/GPa) = 0.02911304
#
# Stress axis : x y z
#
# Youngs Moduli (GPa) = 30.80772 41.75262 43.79331
#
# Poissons Ratio (x) = 0.33053 0.67942
# Poissons Ratio (y) = 0.24388 0.07161
# Poissons Ratio (z) = 0.47796 0.06828
#
# Static dielectric constant tensor:
#      x y z
#    x 1.700110 0.000000 0.059050 
#    y 0.000000 1.595370 0.000000 
#    z 0.059050 0.000000 1.676320 
# 
# From -- ./inp_files/68198.got.cif
#   From: 2010.05.17/outbox.ucp.g08.bks.cvg/sg12_35_cif.got.tgz:68198.got - 2010.06.11 11:47:21.
