data_PCOD9223557
_publ_section_title
;
Structure prediction by ZEFSAII (Michael W. Deem and Ramdas Pophale) SiO2 
 PCOD9223557
Probable space group: C 2/M
;
_chemical_formula_sum "Si O2"
_cell_formula_units_Z 32
_cell_length_a 30.000000
_cell_length_b 9.000000
_cell_length_c 12.000000
_cell_angle_alpha 90.000000
_cell_angle_beta 90.000000
_cell_angle_gamma 90.000000
_cell_volume 3240.000000
_symmetry_space_group_name_H-M "C 2/M"
_symmetry_group_IT_number 12
_symmetry_cell_setting 'monoclinic'
loop_
_space_group_symop_operation_xyz
x,y,z
-x,y,-z
-x,-y,-z
x,-y,z
1/2+x,1/2+y,z
1/2-x,1/2+y,-z
1/2-x,1/2-y,-z
1/2+x,1/2-y,z
loop_
_atom_site_type_symbol
_atom_site_label
_atom_site_fract_x
_atom_site_fract_y
_atom_site_fract_z
Si Si1 0.050209 0.325340 0.543449
Si Si2 0.913392 0.176014 0.241400
Si Si3 0.373105 0.175090 0.641200
Si Si4 0.918059 0.826814 0.843735
Si Si5 0.686671 0.319681 0.795102
Si Si6 0.990871 0.335160 0.130142
Si Si7 0.670526 0.320561 0.048212
Si Si8 0.717380 0.178009 0.262963
O O1 0.050011 0.500000 0.574657
O O2 0.061563 0.220433 0.645996
O O3 0.092161 0.307597 0.459485
O O4 0.000000 0.292951 0.500000
O O5 0.862225 0.231341 0.244712
O O6 0.945181 0.249723 0.150098
O O7 0.912460 0.000000 0.223794
O O8 0.390789 0.288727 0.733062
O O9 0.319536 0.205421 0.639686
O O10 0.377336 0.000000 0.676470
O O11 0.964853 0.745675 0.828006
O O12 0.882025 0.779511 0.938165
O O13 0.926947 0.000000 0.859233
O O14 0.685807 0.500000 0.788798
O O15 0.731191 0.268861 0.730287
O O16 0.688850 0.280143 0.926475
O O17 0.987978 0.500000 0.179221
O O18 0.000000 0.345569 0.000000
O O19 0.672936 0.500000 0.059756
O O20 0.697257 0.245177 0.148771
O O21 0.719333 0.000000 0.250544
#
# Coordination Sequence:
#
# PCOD9223557 Si02
#       8
#     8   8   8   8   8   8   8   8
#     4  10  21  38  58  78 104 137 172 219 276 327
#     4  11  23  38  57  80 106 138 178 221 266 318
#     4   9  18  33  54  78 104 136 175 220 268 316
#     4  10  19  31  51  78 107 137 172 218 265 313
#     4   9  18  33  51  73 106 144 177 215 264 315
#     4  11  23  37  53  75 106 142 176 210 253 311
#     4   9  17  30  49  76 109 142 176 214 259 308
#     4   9  17  31  52  77 105 140 182 220 258 309
#
# _framework density 9.8765429999999999
#
# number of rings (size 3 to 8) (size 9 to 14) (size 15 to 20)
#    0.000    2.250    0.000    3.000    0.000    4.250 
#    0.000    3.125    0.000    0.000    0.000    0.000 
#    0.000    0.000    0.000    0.000    0.000    0.000 
#
# Total GULP energy -178248.083596 kJ/mol
# GULP energy per Si atom -5570.252612 kJ/mol
# Density = 0.985406 g / cm^3
# Si number density = 9.876543 Si / 1000 Ang^3
#
#
#
# Elastic Constant Matrix: (Units=GPa)
#
#
# Indices 1 2 3 4 5 6 
#
# 1 192.1161 39.4245 44.4513 0.0000 -21.4626 0.0000
# 2 39.4245 25.6955 9.4998 0.0000 -5.0312 0.0000
# 3 44.4513 9.4998 39.0144 0.0000 -24.8487 0.0000
# 4 0.0000 0.0000 0.0000 18.5291 0.0000 -6.5303
# 5 -21.4626 -5.0312 -24.8487 0.0000 27.0446 0.0000
# 6 0.0000 0.0000 0.0000 -6.5303 0.0000 8.9956
#
#
#
# Elastic Compliance Matrix: (Units=1/GPa)
#
#
# Indices 1 2 3 4 5 6 
#
# 1 0.009645 -0.011587 -0.011248 0.000000 -0.004836 0.000000
# 2 -0.011587 0.056857 0.000573 0.000000 0.001908 0.000000
# 3 -0.011248 0.000573 0.078808 0.000000 0.063589 0.000000
# 4 0.000000 0.000000 0.000000 0.072525 0.000000 0.052649
# 5 -0.004836 0.001908 0.063589 0.000000 0.091919 0.000000
# 6 0.000000 0.000000 0.000000 0.052649 0.000000 0.149386
#
#
# Mechanical properties :
#
#
# Convention : Reuss Voigt Hill
#
# Bulk Modulus (GPa) = 9.92202 49.28635 29.60418
# Shear Modulus (GPa) = 9.30647 21.81055 15.55851
#
# Velocity S-wave (km/s) = 2.17293 3.32649 2.80955
# Velocity P-wave (km/s) = 3.36592 6.30551 5.05415
#
# Compressibility (1/GPa) = 0.10078598
#
# Stress axis : x y z
#
# Youngs Moduli (GPa) = 103.67767 17.58794 12.68901
#
# Poissons Ratio (x) = 0.20379 0.14273
# Poissons Ratio (y) = 1.20132 -0.00727
# Poissons Ratio (z) = 1.16616 -0.01007
#
# Static dielectric constant tensor:
#      x y z
#    x 1.850810 0.000000 0.041040 
#    y 0.000000 1.680340 0.000000 
#    z 0.041040 0.000000 1.789420 
# 
# From -- ./inp_files/187563.got.cif
#   From: 2010.05.17/outbox.ucp.g08.bks.cvg/sg12_94_cif.got.tgz:187563.got - 2010.06.11 11:47:21.
