data_PCOD9223465
_publ_section_title
;
Structure prediction by ZEFSAII (Michael W. Deem and Ramdas Pophale) SiO2 
 PCOD9223465
Probable space group: C 2/M
;
_chemical_formula_sum "Si O2"
_cell_formula_units_Z 32
_cell_length_a 30.000000
_cell_length_b 9.000000
_cell_length_c 15.000000
_cell_angle_alpha 90.000000
_cell_angle_beta 60.000000
_cell_angle_gamma 90.000000
_cell_volume 3507.402885
_symmetry_space_group_name_H-M "C 2/M"
_symmetry_group_IT_number 12
_symmetry_cell_setting 'monoclinic'
loop_
_space_group_symop_operation_xyz
x,y,z
-x,y,-z
-x,-y,-z
x,-y,z
1/2+x,1/2+y,z
1/2-x,1/2+y,-z
1/2-x,1/2-y,-z
1/2+x,1/2-y,z
loop_
_atom_site_type_symbol
_atom_site_label
_atom_site_fract_x
_atom_site_fract_y
_atom_site_fract_z
Si Si1 0.874537 0.329315 0.059599
Si Si2 0.951057 0.667625 0.152468
Si Si3 0.542245 0.673468 0.129846
Si Si4 0.006473 0.679164 0.345765
Si Si5 0.853491 0.676003 0.359317
Si Si6 0.319018 0.180887 0.591928
Si Si7 0.705307 0.322725 0.744005
Si Si8 0.420871 0.819925 0.564956
O O1 0.864049 0.500000 0.050218
O O2 0.913445 0.324043 0.105722
O O3 0.824015 0.246415 0.143171
O O4 0.905098 0.251347 0.950590
O O5 0.972946 0.500000 0.134186
O O6 0.913733 0.689584 0.275047
O O7 0.997081 0.782176 0.106376
O O8 0.549183 0.500000 0.126727
O O9 0.521144 0.740584 0.241856
O O10 0.006601 0.500000 0.333456
O O11 0.048566 0.721651 0.378035
O O12 0.952780 0.722694 0.445187
O O13 0.841729 0.500000 0.358745
O O14 0.836057 0.720740 0.474901
O O15 0.823740 0.770806 0.316020
O O16 0.263223 0.232834 0.675184
O O17 0.363112 0.232984 0.614465
O O18 0.317984 0.000000 0.593969
O O19 0.704146 0.500000 0.751109
O O20 0.421159 0.000000 0.564075
#
# Coordination Sequence:
#
# PCOD9223465 Si02
#       8
#     8   8   8   8   8   8   8   8
#     4  10  21  37  53  67  91 129 170 207 238 278
#     4   9  18  32  50  71  96 129 167 201 233 276
#     4  12  23  32  48  74 102 128 156 196 246 296
#     4   9  17  32  55  77  98 127 163 199 233 281
#     4   9  17  30  48  70 100 136 168 197 230 279
#     4   9  16  27  47  74 101 129 163 203 243 281
#     4  10  19  30  46  70 101 132 162 202 247 285
#     4   8  15  30  53  78  99 125 164 201 233 278
#
# _framework density 9.1235599999999994
#
# number of rings (size 3 to 8) (size 9 to 14) (size 15 to 20)
#    0.000    2.500    0.000    4.875    0.000    6.000 
#    0.000    1.875    0.000    4.500    0.000    0.000 
#    0.000    0.000    0.000    0.000    0.000    0.000 
#
# Total GULP energy -178384.263950 kJ/mol
# GULP energy per Si atom -5574.508248 kJ/mol
# Density = 0.910279 g / cm^3
# Si number density = 9.123560 Si / 1000 Ang^3
#
#
#
# Elastic Constant Matrix: (Units=GPa)
#
#
# Indices 1 2 3 4 5 6 
#
# 1 58.5554 30.1350 42.7407 0.0000 -17.4377 0.0000
# 2 30.1350 52.6553 36.7192 0.0000 -12.1794 0.0000
# 3 42.7407 36.7192 80.5475 0.0000 -14.3882 0.0000
# 4 0.0000 0.0000 0.0000 1.3093 0.0000 -1.0806
# 5 -17.4377 -12.1794 -14.3882 0.0000 20.8788 0.0000
# 6 0.0000 0.0000 0.0000 -1.0806 0.0000 9.9372
#
#
#
# Elastic Compliance Matrix: (Units=1/GPa)
#
#
# Indices 1 2 3 4 5 6 
#
# 1 0.034579 -0.007728 -0.011942 0.000000 0.016142 0.000000
# 2 -0.007728 0.030975 -0.009060 0.000000 0.005370 0.000000
# 3 -0.011942 -0.009060 0.022986 0.000000 0.000581 0.000000
# 4 0.000000 0.000000 0.000000 0.839057 0.000000 0.091243
# 5 0.016142 0.005370 0.000581 0.000000 0.064911 0.000000
# 6 0.000000 0.000000 0.000000 0.091243 0.000000 0.110554
#
#
# Mechanical properties :
#
#
# Convention : Reuss Voigt Hill
#
# Bulk Modulus (GPa) = 32.17657 45.66088 38.91873
# Shear Modulus (GPa) = 4.27029 11.90261 8.08645
#
# Velocity S-wave (km/s) = 1.53145 2.55679 2.10743
# Velocity P-wave (km/s) = 4.56061 5.81327 5.22462
#
# Compressibility (1/GPa) = 0.03107851
#
# Stress axis : x y z
#
# Youngs Moduli (GPa) = 28.91934 32.28432 43.50482
#
# Poissons Ratio (x) = 0.24950 0.51953
# Poissons Ratio (y) = 0.22350 0.39417
# Poissons Ratio (z) = 0.34535 0.29251
#
# Static dielectric constant tensor:
#      x y z
#    x 1.662990 0.000000 0.000990 
#    y 0.000000 1.606520 0.000000 
#    z 0.000990 0.000000 1.639350 
# 
# From -- ./inp_files/249088.got.cif
#   From: 2010.05.17/outbox.ucp.g08.bks.cvg/sg12_125_cif.got.tgz:249088.got - 2010.06.11 11:47:21.
