data_PCOD9223848
_publ_section_title
;
Structure prediction by ZEFSAII (Michael W. Deem and Ramdas Pophale) SiO2 
 PCOD9223848
Probable space group: C 2/M
;
_chemical_formula_sum "Si O2"
_cell_formula_units_Z 28
_cell_length_a 30.000000
_cell_length_b 9.000000
_cell_length_c 21.000000
_cell_angle_alpha 90.000000
_cell_angle_beta 150.000000
_cell_angle_gamma 90.000000
_cell_volume 2835.000000
_symmetry_space_group_name_H-M "C 2/M"
_symmetry_group_IT_number 12
_symmetry_cell_setting 'monoclinic'
loop_
_space_group_symop_operation_xyz
x,y,z
-x,y,-z
-x,-y,-z
x,-y,z
1/2+x,1/2+y,z
1/2-x,1/2+y,-z
1/2-x,1/2-y,-z
1/2+x,1/2-y,z
loop_
_atom_site_type_symbol
_atom_site_label
_atom_site_fract_x
_atom_site_fract_y
_atom_site_fract_z
Si Si1 0.575610 0.836175 0.145930
Si Si2 0.483552 0.324396 0.257049
Si Si3 0.770302 0.826531 0.208631
Si Si4 0.433612 0.826850 0.076339
Si Si5 0.674485 0.825222 0.454966
Si Si6 0.255698 0.669611 0.696652
Si Si7 0.326484 0.818436 0.142564
O O1 0.519569 0.791542 0.139042
O O2 0.647887 0.730614 0.204608
O O3 0.616432 0.000000 0.207960
O O4 0.500000 0.851633 0.000000
O O5 0.492549 0.500000 0.281662
O O6 0.425387 0.290201 0.122495
O O7 0.578556 0.255920 0.349036
O O8 0.424024 0.241919 0.238199
O O9 0.792125 0.759327 0.305382
O O10 0.805449 0.740628 0.188763
O O11 0.796628 0.000000 0.236237
O O12 0.661813 0.822305 0.075906
O O13 0.443860 0.000000 0.111096
O O14 0.750000 0.750000 0.500000
O O15 0.709164 0.824666 0.570405
O O16 0.663454 0.000000 0.422222
O O17 0.262313 0.500000 0.726848
O O18 0.324325 0.000000 0.137080
O O19 0.250000 0.750000 0.000000
#
# Coordination Sequence:
#
# PCOD9223848 Si02
#       7
#     8   8   8   8   8   8   8
#     4  10  19  34  54  82 119 161 205 249 308 379
#     4  12  25  41  65  95 127 168 217 269 324 383
#     4  11  22  39  63  92 127 167 209 257 319 384
#     4  10  20  35  58  87 124 165 206 258 317 379
#     4  11  25  46  69  95 129 172 221 272 324 383
#     4  11  24  40  60  90 127 167 211 266 325 380
#     4  12  24  41  65  96 133 171 213 266 323 384
#
# _framework density 9.8765429999999999
#
# number of rings (size 3 to 8) (size 9 to 14) (size 15 to 20)
#    0.000    1.000    2.857    4.714    0.000    6.000 
#    0.000    0.714    0.000    4.286    0.000    0.000 
#    0.000    0.000    0.000    0.000    0.000    0.000 
#
# Total GULP energy -156075.016482 kJ/mol
# GULP energy per Si atom -5574.107732 kJ/mol
# Density = 0.985406 g / cm^3
# Si number density = 9.876543 Si / 1000 Ang^3
#
#
#
# Elastic Constant Matrix: (Units=GPa)
#
#
# Indices 1 2 3 4 5 6 
#
# 1 174.3092 76.1757 21.1820 0.0000 2.7691 0.0000
# 2 76.1757 154.4236 29.1421 0.0000 5.9472 0.0000
# 3 21.1820 29.1421 49.3839 0.0000 4.8728 0.0000
# 4 0.0000 0.0000 0.0000 3.5949 0.0000 -16.1772
# 5 2.7691 5.9472 4.8728 0.0000 38.1207 0.0000
# 6 0.0000 0.0000 0.0000 -16.1772 0.0000 29.4120
#
#
#
# Elastic Compliance Matrix: (Units=1/GPa)
#
#
# Indices 1 2 3 4 5 6 
#
# 1 0.007371 -0.003424 -0.001156 0.000000 0.000146 0.000000
# 2 -0.003424 0.008891 -0.003713 0.000000 -0.000664 0.000000
# 3 -0.001156 -0.003713 0.023163 0.000000 -0.002298 0.000000
# 4 0.000000 0.000000 0.000000 -0.188575 0.000000 -0.103720
# 5 0.000146 -0.000664 -0.002298 0.000000 0.026619 0.000000
# 6 0.000000 0.000000 0.000000 -0.103720 0.000000 -0.023049
#
#
# Mechanical properties :
#
#
# Convention : Reuss Voigt Hill
#
# Bulk Modulus (GPa) = 43.78139 70.12400 56.95269
# Shear Modulus (GPa) = -41.19206 30.99999 -5.09603
#
# Velocity S-wave (km/s) = -4.57152 3.96583 -1.60794
# Velocity P-wave (km/s) = 2.37751 7.51982 5.04456
#
# Compressibility (1/GPa) = 0.02284075
#
# Stress axis : x y z
#
# Youngs Moduli (GPa) = 135.66198 112.47651 43.17266
#
# Poissons Ratio (x) = 0.38509 0.04990
# Poissons Ratio (y) = 0.46447 0.16028
# Poissons Ratio (z) = 0.15680 0.41757
#
# Static dielectric constant tensor:
#      x y z
#    x 1.696410 0.000000 -0.021880 
#    y 0.000000 1.722480 0.000000 
#    z -0.021880 0.000000 1.808790 
# 
# From -- ./inp_files/329709.got.cif
#   From: 2010.05.17/outbox.ucp.g08.bks.cvg/sg12_165_cif.got.tgz:329709.got - 2010.06.11 11:47:21.
