data_PCOD9223166
_publ_section_title
;
Structure prediction by ZEFSAII (Michael W. Deem and Ramdas Pophale) SiO2 
 PCOD9223166
Probable space group: C 2/M
;
_chemical_formula_sum "Si O2"
_cell_formula_units_Z 24
_cell_length_a 12.000000
_cell_length_b 30.000000
_cell_length_c 21.000000
_cell_angle_alpha 90.000000
_cell_angle_beta 160.000000
_cell_angle_gamma 90.000000
_cell_volume 2585.672284
_symmetry_space_group_name_H-M "C 2/M"
_symmetry_group_IT_number 12
_symmetry_cell_setting 'monoclinic'
loop_
_space_group_symop_operation_xyz
x,y,z
-x,y,-z
-x,-y,-z
x,-y,z
1/2+x,1/2+y,z
1/2-x,1/2+y,-z
1/2-x,1/2-y,-z
1/2+x,1/2-y,z
loop_
_atom_site_type_symbol
_atom_site_label
_atom_site_fract_x
_atom_site_fract_y
_atom_site_fract_z
Si Si1 0.695162 0.354037 0.723208
Si Si2 0.594993 0.551804 0.476053
Si Si3 0.897224 0.787221 0.213487
Si Si4 0.804453 0.391660 0.209921
Si Si5 0.579506 0.662708 0.900850
Si Si6 0.040686 0.690484 0.255160
O O1 0.567709 0.404431 0.644771
O O2 0.544543 0.323119 0.698285
O O3 0.701447 0.323862 0.661615
O O4 0.084882 0.359791 0.943358
O O5 0.500000 0.554675 0.500000
O O6 0.527103 0.500000 0.419902
O O7 0.973051 0.564776 0.669563
O O8 0.050529 0.737551 0.296645
O O9 0.500000 0.782322 0.000000
O O10 0.021092 0.807210 0.212489
O O11 0.999854 0.350961 0.281110
O O12 0.500000 0.399755 0.000000
O O13 0.674829 0.372560 0.207426
O O14 0.708526 0.690781 0.031917
#
# Coordination Sequence:
#
# PCOD9223166 Si02
#       6
#     8   8   8   8   8   8
#     4   9  20  33  51  81 112 142 181 222 256 326
#     4  11  21  38  59  76 102 142 178 229 285 324
#     4  10  17  28  53  82 112 151 184 203 259 321
#     4  10  18  33  54  79 107 131 172 230 270 318
#     4   8  17  30  52  77 114 140 180 215 258 306
#     4   9  17  27  50  79 111 140 173 213 257 306
#
# _framework density 9.2819190000000003
#
# number of rings (size 3 to 8) (size 9 to 14) (size 15 to 20)
#    1.000    1.500    1.667    2.000    2.333    0.333 
#    0.000    2.500    3.667    6.500    0.000    0.000 
#    0.000    0.000    0.000    0.000    0.000    0.000 
#
# Total GULP energy -133604.600917 kJ/mol
# GULP energy per Si atom -5566.858372 kJ/mol
# Density = 0.926079 g / cm^3
# Si number density = 9.281919 Si / 1000 Ang^3
#
#
#
# Elastic Constant Matrix: (Units=GPa)
#
#
# Indices 1 2 3 4 5 6 
#
# 1 78.6449 36.0127 -2.9104 0.0108 3.2342 -0.0077
# 2 36.0127 154.8349 24.9892 0.0304 -3.7430 -0.0040
# 3 -2.9104 24.9892 29.4232 0.0262 8.1909 0.0366
# 4 0.0108 0.0304 0.0262 26.7444 0.0078 2.6626
# 5 3.2342 -3.7430 8.1909 0.0078 22.1915 0.0010
# 6 -0.0077 -0.0040 0.0366 2.6626 0.0010 27.9528
#
#
#
# Elastic Compliance Matrix: (Units=1/GPa)
#
#
# Indices 1 2 3 4 5 6 
#
# 1 0.015478 -0.004922 0.007323 -0.000006 -0.005789 -0.000005
# 2 -0.004922 0.009386 -0.010141 -0.000002 0.006043 0.000013
# 3 0.007323 -0.010141 0.049147 -0.000028 -0.020918 -0.000060
# 4 -0.000006 -0.000002 -0.000028 0.037749 -0.000002 -0.003596
# 5 -0.005789 0.006043 -0.020918 -0.000002 0.054646 0.000025
# 6 -0.000005 0.000013 -0.000060 -0.003596 0.000025 0.036117
#
#
# Mechanical properties :
#
#
# Convention : Reuss Voigt Hill
#
# Bulk Modulus (GPa) = 17.08489 42.12067 29.60278
# Shear Modulus (GPa) = 21.05141 29.03185 25.04163
#
# Velocity S-wave (km/s) = 3.37115 3.95890 3.67679
# Velocity P-wave (km/s) = 4.93722 6.60576 5.83148
#
# Compressibility (1/GPa) = 0.05853124
#
# Stress axis : x y z
#
# Youngs Moduli (GPa) = 64.60706 106.54182 20.34713
#
# Poissons Ratio (x) = 0.52438 -0.14899
# Poissons Ratio (y) = 0.31798 0.20634
# Poissons Ratio (z) = -0.47309 1.08042
#
# Static dielectric constant tensor:
#      x y z
#    x 1.643820 0.000010 -0.002470 
#    y 0.000010 1.612350 -0.000040 
#    z -0.002470 -0.000040 1.790340 
# 
# From -- ./inp_files/307633.got.cif
#   From: 2010.05.17/outbox.ucp.g08.bks.cvg/sg12_154_cif.got.tgz:307633.got - 2010.06.11 11:47:21.
