data_PCOD9223649
_publ_section_title
;
Structure prediction by ZEFSAII (Michael W. Deem and Ramdas Pophale) SiO2 
 PCOD9223649
Probable space group: C 2/M
;
_chemical_formula_sum "Si O2"
_cell_formula_units_Z 28
_cell_length_a 30.000000
_cell_length_b 9.000000
_cell_length_c 12.000000
_cell_angle_alpha 90.000000
_cell_angle_beta 60.000000
_cell_angle_gamma 90.000000
_cell_volume 2805.922308
_symmetry_space_group_name_H-M "C 2/M"
_symmetry_group_IT_number 12
_symmetry_cell_setting 'monoclinic'
loop_
_space_group_symop_operation_xyz
x,y,z
-x,y,-z
-x,-y,-z
x,-y,z
1/2+x,1/2+y,z
1/2-x,1/2+y,-z
1/2-x,1/2-y,-z
1/2+x,1/2-y,z
loop_
_atom_site_type_symbol
_atom_site_label
_atom_site_fract_x
_atom_site_fract_y
_atom_site_fract_z
Si Si1 0.371642 0.175126 0.561416
Si Si2 0.552328 0.330177 0.362972
Si Si3 0.322093 0.832514 0.998330
Si Si4 0.488749 0.325762 0.823342
Si Si5 0.903379 0.323853 0.282293
Si Si6 0.888940 0.168198 0.082072
Si Si7 0.723640 0.830159 0.184023
O O1 0.406312 0.247951 0.613272
O O2 0.381841 0.235898 0.426077
O O3 0.312152 0.189727 0.665983
O O4 0.384226 0.000000 0.547032
O O5 0.500000 0.329671 0.500000
O O6 0.569794 0.500000 0.325049
O O7 0.537708 0.271056 0.258794
O O8 0.360115 0.719075 0.007488
O O9 0.267022 0.792022 0.119189
O O10 0.338429 0.000000 0.002024
O O11 0.313018 0.816788 0.878436
O O12 0.503072 0.500000 0.787498
O O13 0.538022 0.230395 0.789878
O O14 0.448406 0.320640 0.973722
O O15 0.900302 0.500000 0.286547
O O16 0.876793 0.265226 0.204332
O O17 0.876311 0.000000 0.124631
O O18 0.744599 0.000000 0.154321
#
# Coordination Sequence:
#
# PCOD9223649 Si02
#       7
#     8   8   8   8   8   8   8
#     4  10  21  36  55  81 112 147 182 221 271 324
#     4  10  19  32  53  79 110 143 177 221 268 319
#     4  10  20  36  60  88 113 137 175 225 272 322
#     4  10  21  37  55  79 109 145 186 225 271 324
#     4  11  23  37  54  78 110 146 187 230 268 315
#     4  11  23  38  57  78 107 147 187 226 271 323
#     4   9  19  37  60  85 114 143 173 216 274 331
#
# _framework density 9.9788940000000004
#
# number of rings (size 3 to 8) (size 9 to 14) (size 15 to 20)
#    0.000    1.857    1.429    2.571    0.000    5.429 
#    0.000    0.714    0.000    0.000    0.000    0.000 
#    0.000    0.000    0.000    0.000    0.000    0.000 
#
# Total GULP energy -156179.638409 kJ/mol
# GULP energy per Si atom -5577.844229 kJ/mol
# Density = 0.995618 g / cm^3
# Si number density = 9.978894 Si / 1000 Ang^3
#
#
#
# Elastic Constant Matrix: (Units=GPa)
#
#
# Indices 1 2 3 4 5 6 
#
# 1 8.4592 1.8876 19.3384 0.0000 -5.5026 0.0000
# 2 1.8876 22.1791 38.3355 0.0000 -5.9640 0.0000
# 3 19.3384 38.3355 -43.8598 0.0000 -22.9699 0.0000
# 4 0.0000 0.0000 0.0000 16.3478 0.0000 6.9809
# 5 -5.5026 -5.9640 -22.9699 0.0000 -1.1764 0.0000
# 6 0.0000 0.0000 0.0000 6.9809 0.0000 31.8171
#
#
#
# Elastic Compliance Matrix: (Units=1/GPa)
#
#
# Indices 1 2 3 4 5 6 
#
# 1 0.021735 -0.059857 0.016087 0.000000 -0.112317 0.000000
# 2 -0.059857 0.017672 0.011994 0.000000 -0.043803 0.000000
# 3 0.016087 0.011994 -0.007157 0.000000 0.003692 0.000000
# 4 0.000000 0.000000 0.000000 0.067494 0.000000 -0.014809
# 5 -0.112317 -0.043803 0.003692 0.000000 -0.174714 0.000000
# 6 0.000000 0.000000 0.000000 -0.014809 0.000000 0.034679
#
#
# Mechanical properties :
#
#
# Convention : Reuss Voigt Hill
#
# Bulk Modulus (GPa) = -31.94625 11.76684 -10.08971
# Shear Modulus (GPa) = 389.84899 4.54550 197.19725
#
# Velocity S-wave (km/s) = 13.99146 1.51079 9.95096
# Velocity P-wave (km/s) = 15.65161 2.99199 11.26776
#
# Compressibility (1/GPa) = -0.03130258
#
# Stress axis : x y z
#
# Youngs Moduli (GPa) = 46.00906 56.58784 -139.72280
#
# Poissons Ratio (x) = 3.38718 2.24769
# Poissons Ratio (y) = 2.75397 1.67587
# Poissons Ratio (z) = -0.74014 -0.67873
#
# Static dielectric constant tensor:
#      x y z
#    x 1.711970 0.000000 -0.019100 
#    y 0.000000 1.694310 0.000000 
#    z -0.019100 0.000000 1.719960 
# 
# From -- ./inp_files/180624.got.cif
#   From: 2010.05.17/outbox.ucp.g08.bks.cvg/sg12_91_cif.got.tgz:180624.got - 2010.06.11 11:47:21.
