data_PCOD9223917
_publ_section_title
;
Structure prediction by ZEFSAII (Michael W. Deem and Ramdas Pophale) SiO2 
 PCOD9223917
Probable space group: C 2/M
;
_chemical_formula_sum "Si O2"
_cell_formula_units_Z 32
_cell_length_a 30.000000
_cell_length_b 9.000000
_cell_length_c 15.000000
_cell_angle_alpha 90.000000
_cell_angle_beta 120.000000
_cell_angle_gamma 90.000000
_cell_volume 3507.402885
_symmetry_space_group_name_H-M "C 2/M"
_symmetry_group_IT_number 12
_symmetry_cell_setting 'monoclinic'
loop_
_space_group_symop_operation_xyz
x,y,z
-x,y,-z
-x,-y,-z
x,-y,z
1/2+x,1/2+y,z
1/2-x,1/2+y,-z
1/2-x,1/2-y,-z
1/2+x,1/2-y,z
loop_
_atom_site_type_symbol
_atom_site_label
_atom_site_fract_x
_atom_site_fract_y
_atom_site_fract_z
Si Si1 0.560709 0.821188 0.547533
Si Si2 0.515179 0.174907 0.788558
Si Si3 0.197833 0.180529 0.989853
Si Si4 0.398232 0.322595 0.238425
Si Si5 0.299835 0.319104 0.602149
Si Si6 0.052936 0.829568 0.997936
Si Si7 0.402240 0.821414 0.617657
Si Si8 0.667640 0.321540 0.164119
O O1 0.500000 0.776451 0.500000
O O2 0.597848 0.749595 0.659438
O O3 0.581850 0.787223 0.469236
O O4 0.561696 0.000000 0.558990
O O5 0.548502 0.267971 0.752206
O O6 0.454607 0.213543 0.725184
O O7 0.519100 0.000000 0.771249
O O8 0.541577 0.215158 0.908050
O O9 0.149159 0.220117 0.875891
O O10 0.201604 0.000000 0.993178
O O11 0.250000 0.250000 0.000000
O O12 0.188102 0.226537 0.085002
O O13 0.396834 0.500000 0.244723
O O14 0.296779 0.500000 0.595896
O O15 0.250000 0.250000 0.500000
O O16 0.352093 0.262939 0.604753
O O17 0.306270 0.273764 0.714945
O O18 0.105850 0.790272 0.101882
O O19 0.060871 0.000000 0.970877
O O20 0.000000 0.832106 0.000000
O O21 0.393144 0.000000 0.614355
O O22 0.673160 0.500000 0.169596
#
# Coordination Sequence:
#
# PCOD9223917 Si02
#       8
#     8   8   8   8   8   8   8   8
#     4  10  20  38  60  85 123 168 206 244 302 369
#     4  11  21  35  57  86 123 160 197 242 300 364
#     4  10  22  41  62  86 119 155 199 248 296 357
#     4  11  22  37  59  87 120 156 201 255 302 351
#     4  11  24  43  67  90 117 157 207 256 305 358
#     4  10  19  34  58  87 119 156 199 243 295 359
#     4  10  22  40  61  87 124 164 203 248 300 363
#     4   9  19  39  62  85 117 157 196 239 297 361
#
# _framework density 9.1235599999999994
#
# number of rings (size 3 to 8) (size 9 to 14) (size 15 to 20)
#    0.000    1.750    2.500    1.875    0.000    5.000 
#    0.000    6.250    0.000    0.000    0.000    0.000 
#    0.000    0.000    0.000    0.000    0.000    0.000 
#
# Total GULP energy -178451.302210 kJ/mol
# GULP energy per Si atom -5576.603194 kJ/mol
# Density = 0.910279 g / cm^3
# Si number density = 9.123560 Si / 1000 Ang^3
#
#
#
# Elastic Constant Matrix: (Units=GPa)
#
#
# Indices 1 2 3 4 5 6 
#
# 1 119.6416 28.7310 62.7126 0.0000 9.6815 0.0000
# 2 28.7310 41.9562 35.6593 0.0000 4.7327 0.0000
# 3 62.7126 35.6593 169.7986 0.0000 8.0597 0.0000
# 4 0.0000 0.0000 0.0000 34.2014 0.0000 0.7802
# 5 9.6815 4.7327 8.0597 0.0000 36.0906 0.0000
# 6 0.0000 0.0000 0.0000 0.7802 0.0000 35.7841
#
#
#
# Elastic Compliance Matrix: (Units=1/GPa)
#
#
# Indices 1 2 3 4 5 6 
#
# 1 0.011280 -0.004943 -0.003048 0.000000 -0.001697 0.000000
# 2 -0.004943 0.031398 -0.004686 0.000000 -0.001745 0.000000
# 3 -0.003048 -0.004686 0.008016 0.000000 -0.000358 0.000000
# 4 0.000000 0.000000 0.000000 0.029253 0.000000 -0.000638
# 5 -0.001697 -0.001745 -0.000358 0.000000 0.028472 0.000000
# 6 0.000000 0.000000 0.000000 -0.000638 0.000000 0.027959
#
#
# Mechanical properties :
#
#
# Convention : Reuss Voigt Hill
#
# Bulk Modulus (GPa) = 39.45943 65.06688 52.26316
# Shear Modulus (GPa) = 29.38100 34.83480 32.10790
#
# Velocity S-wave (km/s) = 4.01705 4.37402 4.19933
# Velocity P-wave (km/s) = 6.57172 7.82595 7.22610
#
# Compressibility (1/GPa) = 0.02534249
#
# Stress axis : x y z
#
# Youngs Moduli (GPa) = 88.65225 31.84885 124.75222
#
# Poissons Ratio (x) = 0.15742 0.38018
# Poissons Ratio (y) = 0.43819 0.58453
# Poissons Ratio (z) = 0.27017 0.14923
#
# Static dielectric constant tensor:
#      x y z
#    x 1.636800 0.000000 -0.027930 
#    y 0.000000 1.618280 0.000000 
#    z -0.027930 0.000000 1.660880 
# 
# From -- ./inp_files/249188.got.cif
#   From: 2010.05.17/outbox.ucp.g08.bks.cvg/sg12_125_cif.got.tgz:249188.got - 2010.06.11 11:47:21.
