data_PCOD9223281
_publ_section_title
;
Structure prediction by ZEFSAII (Michael W. Deem and Ramdas Pophale) SiO2 
 PCOD9223281
Probable space group: C 2/M
;
_chemical_formula_sum "Si O2"
_cell_formula_units_Z 32
_cell_length_a 30.000000
_cell_length_b 15.000000
_cell_length_c 21.000000
_cell_angle_alpha 90.000000
_cell_angle_beta 160.000000
_cell_angle_gamma 90.000000
_cell_volume 3232.090354
_symmetry_space_group_name_H-M "C 2/M"
_symmetry_group_IT_number 12
_symmetry_cell_setting 'monoclinic'
loop_
_space_group_symop_operation_xyz
x,y,z
-x,y,-z
-x,-y,-z
x,-y,z
1/2+x,1/2+y,z
1/2-x,1/2+y,-z
1/2-x,1/2-y,-z
1/2+x,1/2-y,z
loop_
_atom_site_type_symbol
_atom_site_label
_atom_site_fract_x
_atom_site_fract_y
_atom_site_fract_z
Si Si1 0.858226 0.395584 0.707251
Si Si2 0.767096 0.767451 0.238586
Si Si3 0.071083 0.896770 0.274541
Si Si4 0.917182 0.605387 0.089956
Si Si5 0.268333 0.393003 0.900623
Si Si6 0.265093 0.107439 0.001600
Si Si7 0.504108 0.275351 0.069688
Si Si8 0.490182 0.396812 0.563830
O O1 0.879764 0.500000 0.754539
O O2 0.703385 0.381906 0.491846
O O3 0.921235 0.319260 0.835371
O O4 0.941940 0.381308 0.753629
O O5 0.793173 0.677684 0.231989
O O6 0.883340 0.819156 0.429895
O O7 0.693673 0.841063 0.096403
O O8 0.647670 0.740321 0.122210
O O9 0.069230 0.828809 0.213922
O O10 0.077913 0.000000 0.262774
O O11 0.927326 0.885390 0.112376
O O12 0.889808 0.500000 0.047957
O O13 0.888829 0.633285 0.124396
O O14 0.239396 0.500000 0.851381
O O15 0.228088 0.361561 0.916974
O O16 0.127469 0.127200 0.781672
O O17 0.265750 0.000000 0.007024
O O18 0.500000 0.330575 0.000000
O O19 0.500000 0.399092 0.500000
O O20 0.455879 0.500000 0.537511
#
# Coordination Sequence:
#
# PCOD9223281 Si02
#       8
#     8   8   8   8   8   8   8   8
#     4   9  18  32  53  75 101 135 165 202 254 309
#     4  10  19  32  51  73 100 138 170 203 255 304
#     4   9  18  35  56  74  96 132 176 218 256 294
#     4   9  16  29  48  74 103 130 161 199 253 310
#     4   9  19  34  51  74 101 134 174 213 252 294
#     4   9  17  30  51  76 104 131 163 209 251 297
#     4  10  21  34  50  74 105 134 168 210 256 305
#     4  10  18  31  52  78 104 131 164 207 251 298
#
# _framework density 9.9007129999999997
#
# number of rings (size 3 to 8) (size 9 to 14) (size 15 to 20)
#    0.000    2.625    1.250    0.750    0.000    2.500 
#    0.000    1.250    0.000    0.375    0.000    1.750 
#    0.000    0.000    0.000    0.000    0.000    0.000 
#
# Total GULP energy -178160.872211 kJ/mol
# GULP energy per Si atom -5567.527257 kJ/mol
# Density = 0.987818 g / cm^3
# Si number density = 9.900713 Si / 1000 Ang^3
#
#
#
# Elastic Constant Matrix: (Units=GPa)
#
#
# Indices 1 2 3 4 5 6 
#
# 1 40.6311 18.9260 1.6725 0.0000 -11.5028 0.0000
# 2 18.9260 43.0497 8.2679 0.0000 2.7512 0.0000
# 3 1.6725 8.2679 23.9736 0.0000 10.4641 0.0000
# 4 0.0000 0.0000 0.0000 10.9257 0.0000 5.5704
# 5 -11.5028 2.7512 10.4641 0.0000 7.5170 0.0000
# 6 0.0000 0.0000 0.0000 5.5704 0.0000 6.8135
#
#
#
# Elastic Compliance Matrix: (Units=1/GPa)
#
#
# Indices 1 2 3 4 5 6 
#
# 1 -0.063710 0.023591 0.108645 0.000000 -0.257366 0.000001
# 2 0.023591 0.016297 -0.052039 0.000000 0.102576 0.000000
# 3 0.108645 -0.052039 -0.073397 0.000000 0.287472 -0.000001
# 4 0.000000 0.000000 0.000000 0.156947 -0.000001 -0.128313
# 5 -0.257366 0.102576 0.287472 -0.000001 -0.698520 0.000002
# 6 0.000001 0.000000 -0.000001 -0.128313 0.000002 0.251670
#
#
# Mechanical properties :
#
#
# Convention : Reuss Voigt Hill
#
# Bulk Modulus (GPa) = 25.26334 18.37637 21.81985
# Shear Modulus (GPa) = -8.96198 10.30377 0.67090
#
# Velocity S-wave (km/s) = -2.12973 2.28360 0.58271
# Velocity P-wave (km/s) = 2.59584 4.03158 3.39057
#
# Compressibility (1/GPa) = 0.03958306
#
# Stress axis : x y z
#
# Youngs Moduli (GPa) = -15.69612 61.36152 -13.62447
#
# Poissons Ratio (x) = -1.44755 1.48023
# Poissons Ratio (y) = 0.37028 -0.70900
# Poissons Ratio (z) = 1.70531 3.19319
#
# Static dielectric constant tensor:
#      x y z
#    x 1.795920 0.000000 0.038580 
#    y 0.000000 1.709440 0.000000 
#    z 0.038580 0.000000 1.660100 
# 
# From -- ./inp_files/330333.got.cif
#   From: 2010.05.17/outbox.ucp.g08.bks.cvg/sg12_166_cif.got.tgz:330333.got - 2010.06.11 11:47:21.
