data_PCOD9223178
_publ_section_title
;
Structure prediction by ZEFSAII (Michael W. Deem and Ramdas Pophale) SiO2 
 PCOD9223178
Probable space group: C 2/M
;
_chemical_formula_sum "Si O2"
_cell_formula_units_Z 32
_cell_length_a 18.000000
_cell_length_b 18.000000
_cell_length_c 21.000000
_cell_angle_alpha 90.000000
_cell_angle_beta 150.000000
_cell_angle_gamma 90.000000
_cell_volume 3402.000000
_symmetry_space_group_name_H-M "C 2/M"
_symmetry_group_IT_number 12
_symmetry_cell_setting 'monoclinic'
loop_
_space_group_symop_operation_xyz
x,y,z
-x,y,-z
-x,-y,-z
x,-y,z
1/2+x,1/2+y,z
1/2-x,1/2+y,-z
1/2-x,1/2-y,-z
1/2+x,1/2-y,z
loop_
_atom_site_type_symbol
_atom_site_label
_atom_site_fract_x
_atom_site_fract_y
_atom_site_fract_z
Si Si1 0.531082 0.828053 0.695430
Si Si2 0.058684 0.637507 0.972357
Si Si3 0.215959 0.586354 0.541263
Si Si4 0.403516 0.664967 0.567955
Si Si5 0.878033 0.809581 0.964526
Si Si6 0.118385 0.327313 0.279376
Si Si7 0.124361 0.083017 0.800761
Si Si8 0.041360 0.154521 0.207133
O O1 0.451368 0.885067 0.588441
O O2 0.460129 0.747888 0.624546
O O3 0.708497 0.828019 0.822163
O O4 0.480247 0.845173 0.730730
O O5 0.940582 0.631616 0.827407
O O6 0.119631 0.722335 0.015010
O O7 0.200183 0.586052 0.068679
O O8 0.000000 0.626272 0.000000
O O9 0.222629 0.500000 0.531762
O O10 0.301699 0.634104 0.550465
O O11 0.310950 0.605213 0.674474
O O12 0.291206 0.660880 0.425514
O O13 0.549535 0.613765 0.680524
O O14 0.000000 0.817728 0.000000
O O15 0.943222 0.855420 0.071893
O O16 0.094537 0.239566 0.250099
O O17 0.065553 0.135633 0.813221
O O18 0.069948 0.000000 0.772338
#
# Coordination Sequence:
#
# PCOD9223178 Si02
#       8
#     8   8   8   8   8   8   8   8
#     4  11  17  33  58  84 111 142 183 237 280 324
#     4  10  21  36  53  78 114 149 186 229 271 332
#     4  10  19  32  53  84 117 140 172 228 289 341
#     4  10  17  32  54  85 110 139 178 235 275 327
#     4  10  21  35  56  81 112 144 190 238 275 318
#     4  10  17  31  58  84 105 138 184 236 278 312
#     4  11  21  34  56  82 112 149 182 225 285 337
#     4  10  17  33  55  82 108 138 183 232 278 328
#
# _framework density 9.4062319999999993
#
# number of rings (size 3 to 8) (size 9 to 14) (size 15 to 20)
#    0.000    1.750    5.000    3.000    0.000    2.250 
#    0.000    8.125    0.000    4.875    0.000    0.000 
#    0.000    0.000    0.000    0.000    0.000    0.000 
#
# Total GULP energy -178287.584872 kJ/mol
# GULP energy per Si atom -5571.487027 kJ/mol
# Density = 0.938482 g / cm^3
# Si number density = 9.406232 Si / 1000 Ang^3
#
#
#
# Elastic Constant Matrix: (Units=GPa)
#
#
# Indices 1 2 3 4 5 6 
#
# 1 30.0186 19.1733 51.2173 0.0018 -0.5482 0.0006
# 2 19.1733 51.6050 50.9915 0.0025 1.6038 0.0013
# 3 51.2173 50.9915 197.1665 0.0038 4.9466 0.0017
# 4 0.0018 0.0025 0.0038 16.6471 0.0021 -3.2646
# 5 -0.5482 1.6038 4.9466 0.0021 4.6192 0.0017
# 6 0.0006 0.0013 0.0017 -3.2646 0.0017 -4.6638
#
#
#
# Elastic Compliance Matrix: (Units=1/GPa)
#
#
# Indices 1 2 3 4 5 6 
#
# 1 0.066622 -0.010515 -0.015288 -0.000003 0.027929 0.000013
# 2 -0.010515 0.027705 -0.004276 -0.000001 -0.006289 0.000003
# 3 -0.015288 -0.004276 0.010438 0.000001 -0.011507 -0.000004
# 4 -0.000003 -0.000001 0.000001 0.052820 -0.000010 -0.036973
# 5 0.027929 -0.006289 -0.011507 -0.000010 0.234311 0.000092
# 6 0.000013 0.000003 -0.000004 -0.036973 0.000092 -0.188537
#
#
# Mechanical properties :
#
#
# Convention : Reuss Voigt Hill
#
# Bulk Modulus (GPa) = 22.41744 57.95046 40.18395
# Shear Modulus (GPa) = 17.96071 13.81435 15.88753
#
# Velocity S-wave (km/s) = 3.09321 2.71277 2.90922
# Velocity P-wave (km/s) = 4.96985 6.37835 5.71764
#
# Compressibility (1/GPa) = 0.04460812
#
# Stress axis : x y z
#
# Youngs Moduli (GPa) = 15.01000 36.09421 95.80742
#
# Poissons Ratio (x) = 0.37953 1.46466
# Poissons Ratio (y) = 0.15783 0.40967
# Poissons Ratio (z) = 0.22947 0.15434
#
# Static dielectric constant tensor:
#      x y z
#    x 1.672800 0.000000 -0.010000 
#    y 0.000000 1.659240 0.000000 
#    z -0.010000 0.000000 1.716890 
# 
# From -- ./inp_files/317372.got.cif
#   From: 2010.05.17/outbox.ucp.g08.bks.cvg/sg12_159_cif.got.tgz:317372.got - 2010.06.11 11:47:21.
