data_PCOD9223923
_publ_section_title
;
Structure prediction by ZEFSAII (Michael W. Deem and Ramdas Pophale) SiO2 
 PCOD9223923
Probable space group: C 2/M
;
_chemical_formula_sum "Si O2"
_cell_formula_units_Z 22
_cell_length_a 18.000000
_cell_length_b 15.000000
_cell_length_c 24.000000
_cell_angle_alpha 90.000000
_cell_angle_beta 160.000000
_cell_angle_gamma 90.000000
_cell_volume 2216.290529
_symmetry_space_group_name_H-M "C 2/M"
_symmetry_group_IT_number 12
_symmetry_cell_setting 'monoclinic'
loop_
_space_group_symop_operation_xyz
x,y,z
-x,y,-z
-x,-y,-z
x,-y,z
1/2+x,1/2+y,z
1/2-x,1/2+y,-z
1/2-x,1/2-y,-z
1/2+x,1/2-y,z
loop_
_atom_site_type_symbol
_atom_site_label
_atom_site_fract_x
_atom_site_fract_y
_atom_site_fract_z
Si Si1 0.451678 0.236631 0.566347
Si Si2 0.955816 0.400635 0.858848
Si Si3 0.672572 0.896360 0.890178
Si Si4 0.958109 0.214228 0.908258
Si Si5 0.243598 0.607461 0.485314
Si Si6 0.500000 0.339815 0.500000
O O1 0.696417 0.209606 0.721772
O O2 0.424917 0.323667 0.588348
O O3 0.327725 0.153956 0.506852
O O4 0.368281 0.277086 0.449806
O O5 0.011768 0.500000 0.917973
O O6 0.012495 0.318813 0.938661
O O7 0.693392 0.395705 0.664229
O O8 0.079304 0.385082 0.886926
O O9 0.469284 0.881139 0.704623
O O10 0.734135 0.000000 0.927638
O O11 0.881241 0.837797 0.020201
O O12 0.000000 0.181374 0.000000
O O13 0.292921 0.500000 0.522090
#
# Coordination Sequence:
#
# PCOD9223923 Si02
#       6
#     8   8   8   8   8   4
#     4  10  21  36  58  86 113 145 189 231 281 326
#     4  10  21  36  57  82 112 150 189 229 274 331
#     4  10  20  37  60  84 111 147 192 232 273 328
#     4  11  22  36  55  85 120 148 179 230 285 336
#     4  10  20  37  60  84 112 147 190 233 275 328
#     4  10  19  34  59  84 112 144 189 238 273 320
#
# _framework density 9.9264960000000002
#
# number of rings (size 3 to 8) (size 9 to 14) (size 15 to 20)
#    0.000    1.818    3.636    0.818    0.000    4.364 
#    0.000    0.455    0.000    1.091    0.000    0.000 
#    0.000    0.000    0.000    0.000    0.000    0.000 
#
# Total GULP energy -122550.947159 kJ/mol
# GULP energy per Si atom -5570.497598 kJ/mol
# Density = 0.990390 g / cm^3
# Si number density = 9.926496 Si / 1000 Ang^3
#
#
#
# Elastic Constant Matrix: (Units=GPa)
#
#
# Indices 1 2 3 4 5 6 
#
# 1 82.5885 28.3437 -3.7043 0.0006 22.4795 -0.0016
# 2 28.3437 100.3045 13.8337 0.0401 17.6959 0.0143
# 3 -3.7043 13.8337 39.6533 0.0215 26.9537 0.0236
# 4 0.0006 0.0401 0.0215 26.7723 0.0105 6.3044
# 5 22.4795 17.6959 26.9537 0.0105 29.0762 0.0025
# 6 -0.0016 0.0143 0.0236 6.3044 0.0025 23.3847
#
#
#
# Elastic Compliance Matrix: (Units=1/GPa)
#
#
# Indices 1 2 3 4 5 6 
#
# 1 0.043601 -0.005071 0.072070 0.000000 -0.097431 -0.000057
# 2 -0.005071 0.011815 -0.006415 -0.000014 0.002677 0.000002
# 3 0.072070 -0.006415 0.187652 -0.000018 -0.225769 -0.000152
# 4 0.000000 -0.000014 -0.000018 0.039884 0.000012 -0.010753
# 5 -0.097431 0.002677 -0.225769 0.000012 0.317378 0.000183
# 6 -0.000057 0.000002 -0.000152 -0.010753 0.000183 0.045662
#
#
# Mechanical properties :
#
#
# Convention : Reuss Voigt Hill
#
# Bulk Modulus (GPa) = 2.74548 33.27696 18.01122
# Shear Modulus (GPa) = 7.73710 28.11820 17.92765
#
# Velocity S-wave (km/s) = 1.97627 3.76749 3.00829
# Velocity P-wave (km/s) = 2.56777 5.97690 4.59983
#
# Compressibility (1/GPa) = 0.36423440
#
# Stress axis : x y z
#
# Youngs Moduli (GPa) = 22.93545 84.63698 5.32901
#
# Poissons Ratio (x) = 0.42921 -0.38406
# Poissons Ratio (y) = 0.11631 0.03419
# Poissons Ratio (z) = -1.65295 0.54296
#
# Static dielectric constant tensor:
#      x y z
#    x 1.734700 -0.000010 -0.039240 
#    y -0.000010 1.694300 -0.000030 
#    z -0.039240 -0.000030 1.793610 
# 
# From -- ./inp_files/73728.got.cif
#   From: 2010.05.17/outbox.ucp.g08.bks.cvg/sg12_37_cif.got.tgz:73728.got - 2010.06.11 11:47:21.
