data_PCOD9223813
_publ_section_title
;
Structure prediction by ZEFSAII (Michael W. Deem and Ramdas Pophale) SiO2 
 PCOD9223813
Probable space group: C 2/M
;
_chemical_formula_sum "Si O2"
_cell_formula_units_Z 28
_cell_length_a 27.000000
_cell_length_b 9.000000
_cell_length_c 18.000000
_cell_angle_alpha 90.000000
_cell_angle_beta 40.000000
_cell_angle_gamma 90.000000
_cell_volume 2811.553005
_symmetry_space_group_name_H-M "C 2/M"
_symmetry_group_IT_number 12
_symmetry_cell_setting 'monoclinic'
loop_
_space_group_symop_operation_xyz
x,y,z
-x,y,-z
-x,-y,-z
x,-y,z
1/2+x,1/2+y,z
1/2-x,1/2+y,-z
1/2-x,1/2-y,-z
1/2+x,1/2-y,z
loop_
_atom_site_type_symbol
_atom_site_label
_atom_site_fract_x
_atom_site_fract_y
_atom_site_fract_z
Si Si1 0.627749 0.324202 0.435487
Si Si2 0.287733 0.321626 0.086813
Si Si3 0.793939 0.177464 0.240659
Si Si4 0.398798 0.171062 0.847262
Si Si5 0.379098 0.324793 0.720287
Si Si6 0.039957 0.168065 0.688355
Si Si7 0.312723 0.668987 0.378512
O O1 0.649003 0.500000 0.413094
O O2 0.704924 0.227498 0.348690
O O3 0.590671 0.297613 0.397511
O O4 0.574791 0.297371 0.567137
O O5 0.273574 0.500000 0.100458
O O6 0.325353 0.279292 0.123362
O O7 0.209429 0.228095 0.177423
O O8 0.336480 0.270650 0.960625
O O9 0.828049 0.233527 0.278963
O O10 0.799724 0.000000 0.232928
O O11 0.411913 0.226921 0.748447
O O12 0.480780 0.211910 0.786971
O O13 0.377368 0.000000 0.875134
O O14 0.386180 0.500000 0.727363
O O15 0.110693 0.164275 0.662407
O O16 0.005782 0.000000 0.724985
O O17 0.284370 0.500000 0.401260
O O18 0.250000 0.750000 0.500000
#
# Coordination Sequence:
#
# PCOD9223813 Si02
#       7
#     8   8   8   8   8   8   8
#     4   9  18  33  55  83 111 143 179 218 267 324
#     4  10  20  37  59  82 110 143 182 226 270 319
#     4   9  18  32  55  86 113 139 176 223 270 315
#     4  12  25  39  54  76 107 146 189 230 275 322
#     4  10  20  36  59  84 110 141 181 225 271 323
#     4  10  21  37  55  79 113 149 182 218 267 325
#     4  10  19  33  57  86 114 143 178 218 265 322
#
# _framework density 9.9589090000000002
#
# number of rings (size 3 to 8) (size 9 to 14) (size 15 to 20)
#    0.000    2.000    1.429    2.571    0.000    2.857 
#    0.000    3.571    0.000    4.286    0.000    0.000 
#    0.000    0.000    0.000    0.000    0.000    0.000 
#
# Total GULP energy -155958.108848 kJ/mol
# GULP energy per Si atom -5569.932459 kJ/mol
# Density = 0.993624 g / cm^3
# Si number density = 9.958909 Si / 1000 Ang^3
#
#
#
# Elastic Constant Matrix: (Units=GPa)
#
#
# Indices 1 2 3 4 5 6 
#
# 1 84.5973 17.0762 34.3643 -0.0034 16.6288 0.0008
# 2 17.0762 5.0085 -17.9377 -0.0068 4.2917 0.0024
# 3 34.3643 -17.9377 -25.4368 -0.0022 4.4801 0.0015
# 4 -0.0034 -0.0068 -0.0022 19.7467 0.0048 0.1572
# 5 16.6288 4.2917 4.4801 0.0048 16.2014 -0.0017
# 6 0.0008 0.0024 0.0015 0.1572 -0.0017 18.5542
#
#
#
# Elastic Compliance Matrix: (Units=1/GPa)
#
#
# Indices 1 2 3 4 5 6 
#
# 1 0.010366 0.005111 0.007903 0.000008 -0.014178 -0.000003
# 2 0.005111 0.059395 -0.036879 0.000020 -0.010781 -0.000006
# 3 0.007903 -0.036879 -0.002230 -0.000012 0.002274 0.000005
# 4 0.000008 0.000020 -0.000012 0.050645 -0.000025 -0.000429
# 5 -0.014178 -0.010781 0.002274 -0.000025 0.078503 0.000009
# 6 -0.000003 -0.000006 0.000005 -0.000429 0.000009 0.053900
#
#
# Mechanical properties :
#
#
# Convention : Reuss Voigt Hill
#
# Bulk Modulus (GPa) = 50.50392 14.57495 32.53944
# Shear Modulus (GPa) = 16.39833 12.94487 14.67160
#
# Velocity S-wave (km/s) = 2.87243 2.55211 2.71699
# Velocity P-wave (km/s) = 6.03427 4.00222 5.12006
#
# Compressibility (1/GPa) = 0.01980044
#
# Stress axis : x y z
#
# Youngs Moduli (GPa) = 96.47029 16.83645 -448.48331
#
# Poissons Ratio (x) = -0.08605 3.54426
# Poissons Ratio (y) = -0.49303 -16.53954
# Poissons Ratio (z) = -0.76238 0.62091
#
# Static dielectric constant tensor:
#      x y z
#    x 1.875700 0.000010 -0.002480 
#    y 0.000010 1.726210 0.000000 
#    z -0.002480 0.000000 1.684500 
# 
# From -- ./inp_files/288263.got.cif
#   From: 2010.05.17/outbox.ucp.g08.bks.cvg/sg12_145_cif.got.tgz:288263.got - 2010.06.11 11:47:21.
