data_PCOD9223899
_publ_section_title
;
Structure prediction by ZEFSAII (Michael W. Deem and Ramdas Pophale) SiO2 
 PCOD9223899
Probable space group: C 2/M
;
_chemical_formula_sum "Si O2"
_cell_formula_units_Z 28
_cell_length_a 24.000000
_cell_length_b 9.000000
_cell_length_c 15.000000
_cell_angle_alpha 90.000000
_cell_angle_beta 60.000000
_cell_angle_gamma 90.000000
_cell_volume 2805.922308
_symmetry_space_group_name_H-M "C 2/M"
_symmetry_group_IT_number 12
_symmetry_cell_setting 'monoclinic'
loop_
_space_group_symop_operation_xyz
x,y,z
-x,y,-z
-x,-y,-z
x,-y,z
1/2+x,1/2+y,z
1/2-x,1/2+y,-z
1/2-x,1/2-y,-z
1/2+x,1/2-y,z
loop_
_atom_site_type_symbol
_atom_site_label
_atom_site_fract_x
_atom_site_fract_y
_atom_site_fract_z
Si Si1 0.325036 0.826672 0.747990
Si Si2 0.558515 0.665289 0.385539
Si Si3 0.740106 0.676555 0.358031
Si Si4 0.970813 0.167106 0.285384
Si Si5 0.950621 0.174211 0.958396
Si Si6 0.323094 0.319406 0.940593
Si Si7 0.157235 0.325677 0.577150
O O1 0.390090 0.793485 0.641195
O O2 0.269832 0.758539 0.728474
O O3 0.339803 0.738899 0.827765
O O4 0.313912 0.000000 0.773842
O O5 0.500000 0.675490 0.500000
O O6 0.588772 0.500000 0.372110
O O7 0.525607 0.673094 0.315819
O O8 0.735807 0.500000 0.347886
O O9 0.805741 0.709901 0.359655
O O10 0.687308 0.731514 0.472310
O O11 0.916426 0.284942 0.350481
O O12 0.004078 0.187616 0.164026
O O13 0.942122 0.000000 0.311786
O O14 0.878504 0.223473 0.972663
O O15 0.939506 0.000000 0.989455
O O16 0.000000 0.231077 0.000000
O O17 0.319994 0.500000 0.944980
O O18 0.250000 0.250000 0.000000
O O19 0.167647 0.500000 0.550304
#
# Coordination Sequence:
#
# PCOD9223899 Si02
#       7
#     8   8   8   8   8   8   8
#     4  12  24  38  60  89 120 157 205 257 310 365
#     4  10  20  35  57  86 120 160 200 240 299 370
#     4  10  21  38  58  82 120 166 205 247 304 371
#     4  10  19  34  57  85 117 158 198 241 305 371
#     4   9  19  38  64  91 119 157 207 259 311 378
#     4  11  23  43  67  93 127 163 210 265 326 391
#     4  10  21  36  56  86 121 158 202 253 306 363
#
# _framework density 9.9788940000000004
#
# number of rings (size 3 to 8) (size 9 to 14) (size 15 to 20)
#    0.000    1.714    1.429    3.429    0.000    4.857 
#    0.000    1.429    0.000    3.000    0.000    0.000 
#    0.000    0.000    0.000    0.000    0.000    0.000 
#
# Total GULP energy -155935.611610 kJ/mol
# GULP energy per Si atom -5569.128986 kJ/mol
# Density = 0.995618 g / cm^3
# Si number density = 9.978894 Si / 1000 Ang^3
#
#
#
# Elastic Constant Matrix: (Units=GPa)
#
#
# Indices 1 2 3 4 5 6 
#
# 1 118.2821 28.7775 23.7382 0.0000 16.8335 0.0000
# 2 28.7775 68.0507 13.2336 0.0000 3.0770 0.0000
# 3 23.7382 13.2336 40.4988 0.0000 13.8655 0.0000
# 4 0.0000 0.0000 0.0000 23.1684 0.0000 -2.9002
# 5 16.8335 3.0770 13.8655 0.0000 41.7855 0.0000
# 6 0.0000 0.0000 0.0000 -2.9002 0.0000 24.4950
#
#
#
# Elastic Compliance Matrix: (Units=1/GPa)
#
#
# Indices 1 2 3 4 5 6 
#
# 1 0.010509 -0.003526 -0.004115 0.000000 -0.002609 0.000000
# 2 -0.003526 0.016889 -0.003963 0.000000 0.001492 0.000000
# 3 -0.004115 -0.003963 0.031286 0.000000 -0.008432 0.000000
# 4 0.000000 0.000000 0.000000 0.043812 0.000000 0.005187
# 5 -0.002609 0.001492 -0.008432 0.000000 0.027671 0.000000
# 6 0.000000 0.000000 0.000000 0.005187 0.000000 0.041439
#
#
# Mechanical properties :
#
#
# Convention : Reuss Voigt Hill
#
# Bulk Modulus (GPa) = 28.18716 39.81447 34.00082
# Shear Modulus (GPa) = 24.19693 28.62860 26.41276
#
# Velocity S-wave (km/s) = 3.48574 3.79153 3.64185
# Velocity P-wave (km/s) = 5.50950 6.25782 5.89554
#
# Compressibility (1/GPa) = 0.03547715
#
# Stress axis : x y z
#
# Youngs Moduli (GPa) = 95.15393 59.20931 31.96364
#
# Poissons Ratio (x) = 0.20878 0.13152
# Poissons Ratio (y) = 0.33552 0.12666
# Poissons Ratio (z) = 0.39152 0.23463
#
# Static dielectric constant tensor:
#      x y z
#    x 1.757740 0.000000 0.006910 
#    y 0.000000 1.701210 0.000000 
#    z 0.006910 0.000000 1.885170 
# 
# From -- ./inp_files/238432.got.cif
#   From: 2010.05.17/outbox.ucp.g08.bks.cvg/sg12_120_cif.got.tgz:238432.got - 2010.06.11 11:47:21.
