data_PCOD9223269
_publ_section_title
;
Structure prediction by ZEFSAII (Michael W. Deem and Ramdas Pophale) SiO2 
 PCOD9223269
Probable space group: C 2/M
;
_chemical_formula_sum "Si O2"
_cell_formula_units_Z 32
_cell_length_a 21.000000
_cell_length_b 9.000000
_cell_length_c 18.000000
_cell_angle_alpha 90.000000
_cell_angle_beta 90.000000
_cell_angle_gamma 90.000000
_cell_volume 3402.000000
_symmetry_space_group_name_H-M "C 2/M"
_symmetry_group_IT_number 12
_symmetry_cell_setting 'monoclinic'
loop_
_space_group_symop_operation_xyz
x,y,z
-x,y,-z
-x,-y,-z
x,-y,z
1/2+x,1/2+y,z
1/2-x,1/2+y,-z
1/2-x,1/2-y,-z
1/2+x,1/2-y,z
loop_
_atom_site_type_symbol
_atom_site_label
_atom_site_fract_x
_atom_site_fract_y
_atom_site_fract_z
Si Si1 0.351779 0.176858 0.209950
Si Si2 0.238934 0.169318 0.674831
Si Si3 0.569905 0.178166 0.534634
Si Si4 0.256873 0.823922 0.080197
Si Si5 0.334962 0.836939 0.815019
Si Si6 0.086139 0.839195 0.279599
Si Si7 0.060350 0.829969 0.691848
Si Si8 0.671668 0.670837 0.428107
O O1 0.311429 0.228424 0.282403
O O2 0.315651 0.224943 0.134398
O O3 0.416817 0.257165 0.231024
O O4 0.357123 0.000000 0.208565
O O5 0.291916 0.159481 0.740402
O O6 0.265904 0.242118 0.599887
O O7 0.219188 0.000000 0.660193
O O8 0.500000 0.219812 0.500000
O O9 0.576617 0.238727 0.617956
O O10 0.627351 0.247850 0.487368
O O11 0.573614 0.000000 0.533096
O O12 0.195794 0.777921 0.128679
O O13 0.261517 0.000000 0.071760
O O14 0.250000 0.750000 0.000000
O O15 0.401129 0.784667 0.781542
O O16 0.335321 0.000000 0.848814
O O17 0.129563 0.829327 0.352548
O O18 0.015206 0.833736 0.307016
O O19 0.100873 0.000000 0.245085
O O20 0.083082 0.000000 0.687427
O O21 0.684934 0.500000 0.448614
#
# Coordination Sequence:
#
# PCOD9223269 Si02
#       8
#     8   8   8   8   8   8   8   8
#     4  10  21  37  55  79 109 141 175 214 261 316
#     4   9  17  31  51  75 102 135 175 218 263 315
#     4  11  22  34  50  74 105 139 180 228 272 315
#     4  10  20  35  58  85 113 140 171 211 258 309
#     4   9  17  29  50  79 108 136 172 214 257 305
#     4   9  18  31  49  74 104 138 177 218 262 308
#     4  11  22  36  54  76 105 144 182 220 266 317
#     4  10  18  31  51  74 102 135 176 226 272 315
#
# _framework density 9.4062319999999993
#
# number of rings (size 3 to 8) (size 9 to 14) (size 15 to 20)
#    0.000    2.125    1.250    2.625    0.000    6.500 
#    0.000    0.625    0.000    0.750    0.000    5.250 
#    0.000    0.000    0.000    0.000    0.000    0.000 
#
# Total GULP energy -178259.710391 kJ/mol
# GULP energy per Si atom -5570.615950 kJ/mol
# Density = 0.938482 g / cm^3
# Si number density = 9.406232 Si / 1000 Ang^3
#
#
#
# Elastic Constant Matrix: (Units=GPa)
#
#
# Indices 1 2 3 4 5 6 
#
# 1 20.9696 15.1361 3.0036 0.0000 -2.8265 0.0000
# 2 15.1361 70.3593 30.8090 0.0000 4.4536 0.0000
# 3 3.0036 30.8090 64.7516 0.0000 3.1565 0.0000
# 4 0.0000 0.0000 0.0000 31.4299 0.0000 -7.3455
# 5 -2.8265 4.4536 3.1565 0.0000 19.6276 0.0000
# 6 0.0000 0.0000 0.0000 -7.3455 0.0000 15.0661
#
#
#
# Elastic Compliance Matrix: (Units=1/GPa)
#
#
# Indices 1 2 3 4 5 6 
#
# 1 0.059706 -0.015299 0.003952 0.000000 0.011434 0.000000
# 2 -0.015299 0.022019 -0.009490 0.000000 -0.005673 0.000000
# 3 0.003952 -0.009490 0.019798 0.000000 -0.000461 0.000000
# 4 0.000000 0.000000 0.000000 0.035908 0.000000 0.017507
# 5 0.011434 -0.005673 -0.000461 0.000000 0.053957 0.000000
# 6 0.000000 0.000000 0.000000 0.017507 0.000000 0.074910
#
#
# Mechanical properties :
#
#
# Convention : Reuss Voigt Hill
#
# Bulk Modulus (GPa) = 16.70863 28.21976 22.46420
# Shear Modulus (GPa) = 15.24758 20.36684 17.80721
#
# Velocity S-wave (km/s) = 2.85002 3.29390 3.07997
# Velocity P-wave (km/s) = 4.44198 5.43134 4.96138
#
# Compressibility (1/GPa) = 0.05984929
#
# Stress axis : x y z
#
# Youngs Moduli (GPa) = 16.74880 45.41618 50.50939
#
# Poissons Ratio (x) = 0.69480 -0.19962
# Poissons Ratio (y) = 0.25623 0.47935
# Poissons Ratio (z) = -0.06619 0.43101
#
# Static dielectric constant tensor:
#      x y z
#    x 1.756240 0.000000 0.016360 
#    y 0.000000 1.684920 0.000000 
#    z 0.016360 0.000000 1.612780 
# 
# From -- ./inp_files/281255.got.cif
#   From: 2010.05.17/outbox.ucp.g08.bks.cvg/sg12_141_cif.got.tgz:281255.got - 2010.06.11 11:47:21.
