data_PCOD9223805
_publ_section_title
;
Structure prediction by ZEFSAII (Michael W. Deem and Ramdas Pophale) SiO2 
 PCOD9223805
Probable space group: C 2/M
;
_chemical_formula_sum "Si O2"
_cell_formula_units_Z 32
_cell_length_a 21.000000
_cell_length_b 9.000000
_cell_length_c 21.000000
_cell_angle_alpha 90.000000
_cell_angle_beta 120.000000
_cell_angle_gamma 90.000000
_cell_volume 3437.254828
_symmetry_space_group_name_H-M "C 2/M"
_symmetry_group_IT_number 12
_symmetry_cell_setting 'monoclinic'
loop_
_space_group_symop_operation_xyz
x,y,z
-x,y,-z
-x,-y,-z
x,-y,z
1/2+x,1/2+y,z
1/2-x,1/2+y,-z
1/2-x,1/2-y,-z
1/2+x,1/2-y,z
loop_
_atom_site_type_symbol
_atom_site_label
_atom_site_fract_x
_atom_site_fract_y
_atom_site_fract_z
Si Si1 0.960498 0.321852 0.809044
Si Si2 0.562750 0.178249 0.980123
Si Si3 0.171412 0.321823 0.778844
Si Si4 0.009697 0.178739 0.699487
Si Si5 0.754424 0.828765 0.585729
Si Si6 0.778119 0.176807 0.949547
Si Si7 0.876541 0.324331 0.562153
Si Si8 0.805456 0.827209 0.756193
O O1 0.956295 0.500000 0.797525
O O2 0.881899 0.262694 0.795901
O O3 0.025290 0.291927 0.892604
O O4 0.979351 0.242047 0.751862
O O5 0.573482 0.000000 0.991044
O O6 0.500000 0.221807 0.000000
O O7 0.641926 0.255405 0.028517
O O8 0.159225 0.500000 0.764532
O O9 0.092888 0.241001 0.732657
O O10 0.212020 0.297830 0.866447
O O11 0.236707 0.273386 0.763712
O O12 0.950873 0.237341 0.617335
O O13 0.009745 0.000000 0.700435
O O14 0.813033 0.722993 0.580569
O O15 0.669532 0.792495 0.525939
O O16 0.774685 0.824974 0.669284
O O17 0.766128 0.000000 0.568956
O O18 0.787249 0.000000 0.960574
O O19 0.750000 0.250000 0.000000
O O20 0.891985 0.500000 0.573355
O O21 0.820693 0.000000 0.781933
#
# Coordination Sequence:
#
# PCOD9223805 Si02
#       8
#     8   8   8   8   8   8   8   8
#     4  11  22  36  58  86 114 147 188 233 284 338
#     4  10  22  39  58  83 116 149 183 229 284 343
#     4  10  23  41  59  82 115 151 188 234 288 342
#     4  12  24  38  57  83 113 150 195 239 282 331
#     4   9  18  33  56  87 117 148 186 228 279 338
#     4  11  23  39  60  84 111 148 193 237 284 340
#     4  10  19  33  56  85 117 150 186 232 282 331
#     4  10  20  37  60  86 116 149 186 232 284 340
#
# _framework density 9.3097549999999991
#
# number of rings (size 3 to 8) (size 9 to 14) (size 15 to 20)
#    0.000    1.625    1.250    3.750    0.000    6.250 
#    0.000    0.625    0.000    3.750    0.000    0.000 
#    0.000    0.000    0.000    0.000    0.000    0.000 
#
# Total GULP energy -178628.954665 kJ/mol
# GULP energy per Si atom -5582.154833 kJ/mol
# Density = 0.928857 g / cm^3
# Si number density = 9.309755 Si / 1000 Ang^3
#
#
#
# Elastic Constant Matrix: (Units=GPa)
#
#
# Indices 1 2 3 4 5 6 
#
# 1 102.9174 36.2135 16.5392 0.0000 35.4948 0.0000
# 2 36.2135 84.1860 31.6891 0.0000 24.3698 0.0000
# 3 16.5392 31.6891 59.5306 0.0000 33.7289 0.0000
# 4 0.0000 0.0000 0.0000 25.1422 0.0000 10.6642
# 5 35.4948 24.3698 33.7289 0.0000 40.4933 0.0000
# 6 0.0000 0.0000 0.0000 10.6642 0.0000 38.1790
#
#
#
# Elastic Compliance Matrix: (Units=1/GPa)
#
#
# Indices 1 2 3 4 5 6 
#
# 1 0.016516 -0.004943 0.008635 0.000000 -0.018694 0.000000
# 2 -0.004943 0.016772 -0.008125 0.000000 0.001007 0.000000
# 3 0.008635 -0.008125 0.038333 0.000000 -0.034608 0.000000
# 4 0.000000 0.000000 0.000000 0.045119 0.000000 -0.012603
# 5 -0.018694 0.001007 -0.034608 0.000000 0.069303 0.000000
# 6 0.000000 0.000000 0.000000 -0.012603 0.000000 0.029713
#
#
# Mechanical properties :
#
#
# Convention : Reuss Voigt Hill
#
# Bulk Modulus (GPa) = 15.93556 46.16862 31.05209
# Shear Modulus (GPa) = 20.36334 31.57569 25.96952
#
# Velocity S-wave (km/s) = 3.31063 4.12252 3.73868
# Velocity P-wave (km/s) = 4.81569 6.89275 5.94562
#
# Compressibility (1/GPa) = 0.06275275
#
# Stress axis : x y z
#
# Youngs Moduli (GPa) = 60.54874 59.62431 26.08748
#
# Poissons Ratio (x) = 0.29473 -0.22526
# Poissons Ratio (y) = 0.29930 0.21196
# Poissons Ratio (z) = -0.52282 0.48445
#
# Static dielectric constant tensor:
#      x y z
#    x 1.625240 0.000000 -0.031320 
#    y 0.000000 1.639870 0.000000 
#    z -0.031320 0.000000 1.687390 
# 
# From -- ./inp_files/320171.got.cif
#   From: 2010.05.17/outbox.ucp.g08.bks.cvg/sg12_161_cif.got.tgz:320171.got - 2010.06.11 11:47:21.
