data_PCOD9223100
_publ_section_title
;
Structure prediction by ZEFSAII (Michael W. Deem and Ramdas Pophale) SiO2 
 PCOD9223100
Probable space group: C 2/M
;
_chemical_formula_sum "Si O2"
_cell_formula_units_Z 64
_cell_length_a 23.646234
_cell_length_b 7.408429
_cell_length_c 23.575663
_cell_angle_alpha 90.000000
_cell_angle_beta 131.941544
_cell_angle_gamma 90.000000
_cell_volume 3072.019931
_symmetry_space_group_name_H-M "C 2/M"
_symmetry_group_IT_number 12
_symmetry_cell_setting 'monoclinic'
loop_
_space_group_symop_operation_xyz
x,y,z
-x,y,-z
-x,-y,-z
x,-y,z
1/2+x,1/2+y,z
1/2-x,1/2+y,-z
1/2-x,1/2-y,-z
1/2+x,1/2-y,z
loop_
_atom_site_type_symbol
_atom_site_label
_atom_site_fract_x
_atom_site_fract_y
_atom_site_fract_z
Si Si1 0.904049 0.788538 0.365770
Si Si2 0.470578 0.278850 0.746025
Si Si3 0.710073 0.710049 0.062756
Si Si4 0.051920 0.779241 0.398245
Si Si5 0.670263 0.281684 0.567955
Si Si6 0.757552 0.219217 0.792174
Si Si7 0.863964 0.219116 0.100581
Si Si8 0.169627 0.789271 0.274969
O O1 0.877897 0.715891 0.409439
O O2 0.830354 0.770888 0.276285
O O3 0.978931 0.716328 0.385615
O O4 0.919414 0.000000 0.385581
O O5 0.469733 0.500000 0.745377
O O6 0.454356 0.221070 0.670828
O O7 0.553983 0.223426 0.822598
O O8 0.404444 0.214976 0.743875
O O9 0.689266 0.500000 0.054321
O O10 0.710654 0.785785 0.126531
O O11 0.795723 0.722211 0.095898
O O12 0.657310 0.784411 0.977046
O O13 0.127763 0.724788 0.482513
O O14 0.050266 0.000000 0.396614
O O15 0.670398 0.500000 0.569840
O O16 0.756780 0.223926 0.635167
O O17 0.803720 0.285395 0.768016
O O18 0.758911 0.000000 0.793129
O O19 0.862235 0.000000 0.098859
O O20 0.154001 0.000000 0.254438
#
# Coordination Sequence:
#
# PCOD9223100 Si02
#       8
#     8   8   8   8   8   8   8   8
#     4   9  16  27  45  67  88 111 142 179 217 258
#     4   9  17  29  45  64  86 114 148 181 212 250
#     4   9  17  29  46  69  94 115 137 171 216 260
#     4   9  16  26  43  66  88 110 140 181 223 258
#     4   9  17  29  45  65  87 111 142 181 221 257
#     4   9  17  29  44  63  89 118 144 173 213 256
#     4   9  17  30  48  69  91 114 141 174 212 256
#     4   9  18  32  46  60  84 118 150 179 211 249
#
# _framework density 20.833199
#
# number of rings (size 3 to 8) (size 9 to 14) (size 15 to 20)
#    0.000    3.000    0.000    1.125    0.000    3.500 
#    0.000    1.875    0.000    8.250    0.000    0.000 
#    0.000    8.000    0.000    0.000    0.000    0.000 
#
# Total GULP energy -178570.284778 kJ/mol
# GULP energy per Si atom -5580.321399 kJ/mol
# Density = 2.078578 g / cm^3
# Si number density = 20.833199 Si / 1000 Ang^3
#
#
#
# Elastic Constant Matrix: (Units=GPa)
#
#
# Indices 1 2 3 4 5 6 
#
# 1 60.4595 -8.7326 56.5636 0.0000 2.4604 0.0000
# 2 -8.7326 64.8501 -10.1368 0.0000 -0.1005 0.0003
# 3 56.5636 -10.1368 153.3305 0.0000 -21.9895 0.0000
# 4 0.0000 0.0000 0.0000 12.9759 0.0000 3.4861
# 5 2.4604 -0.1005 -21.9895 0.0000 9.7678 0.0000
# 6 0.0000 0.0003 0.0000 3.4861 0.0000 3.2758
#
#
#
# Elastic Compliance Matrix: (Units=1/GPa)
#
#
# Indices 1 2 3 4 5 6 
#
# 1 0.044257 0.001740 -0.026298 0.000000 -0.070332 0.000000
# 2 0.001740 0.015739 0.000530 0.000001 0.000917 -0.000002
# 3 -0.026298 0.000530 0.025414 0.000000 0.063842 0.000000
# 4 0.000000 0.000001 0.000000 0.107922 0.000000 -0.114851
# 5 -0.070332 0.000917 0.063842 0.000000 0.263826 0.000001
# 6 0.000000 -0.000002 0.000000 -0.114851 0.000001 0.427494
#
#
# Mechanical properties :
#
#
# Convention : Reuss Voigt Hill
#
# Bulk Modulus (GPa) = 26.77086 39.33647 33.05367
# Shear Modulus (GPa) = 5.29013 21.26696 13.27854
#
# Velocity S-wave (km/s) = 1.59524 3.19849 2.52737
# Velocity P-wave (km/s) = 4.03374 5.70641 4.94136
#
# Compressibility (1/GPa) = 0.03735404
#
# Stress axis : x y z
#
# Youngs Moduli (GPa) = 22.59546 63.53735 39.34853
#
# Poissons Ratio (x) = -0.11055 1.03478
# Poissons Ratio (y) = -0.03931 -0.02086
# Poissons Ratio (z) = 0.59421 -0.03369
#
# Static dielectric constant tensor:
#      x y z
#    x 1.713080 0.000000 -0.024200 
#    y 0.000000 1.794080 0.000000 
#    z -0.024200 0.000000 1.728970 
# 
# From -- ./inp_files/320986.got.cif
#   From: 2010.05.17/outbox.cif.g08.bks.cpg/sg12_161_cif.got.tgz:320986.got - 2010.06.03 13:09:07.
