data_PCOD9223452
_publ_section_title
;
Structure prediction by ZEFSAII (Michael W. Deem and Ramdas Pophale) SiO2 
 PCOD9223452
Probable space group: C 2/M
;
_chemical_formula_sum "Si O2"
_cell_formula_units_Z 28
_cell_length_a 24.000000
_cell_length_b 9.000000
_cell_length_c 18.000000
_cell_angle_alpha 90.000000
_cell_angle_beta 60.000000
_cell_angle_gamma 90.000000
_cell_volume 3367.106770
_symmetry_space_group_name_H-M "C 2/M"
_symmetry_group_IT_number 12
_symmetry_cell_setting 'monoclinic'
loop_
_space_group_symop_operation_xyz
x,y,z
-x,y,-z
-x,-y,-z
x,-y,z
1/2+x,1/2+y,z
1/2-x,1/2+y,-z
1/2-x,1/2-y,-z
1/2+x,1/2-y,z
loop_
_atom_site_type_symbol
_atom_site_label
_atom_site_fract_x
_atom_site_fract_y
_atom_site_fract_z
Si Si1 0.080905 0.824685 0.076799
Si Si2 0.845320 0.322053 0.401382
Si Si3 0.778235 0.679792 0.597133
Si Si4 0.270503 0.179332 0.772790
Si Si5 0.694409 0.177776 0.087891
Si Si6 0.879464 0.179384 0.112942
Si Si7 0.436672 0.324680 0.229980
O O1 0.129624 0.726859 0.091081
O O2 0.011692 0.813930 0.161037
O O3 0.100221 0.000000 0.065136
O O4 0.084597 0.777559 0.987247
O O5 0.843553 0.500000 0.396234
O O6 0.831515 0.285194 0.497770
O O7 0.786954 0.251443 0.392124
O O8 0.909430 0.258815 0.320076
O O9 0.770602 0.500000 0.603054
O O10 0.788729 0.728523 0.676315
O O11 0.305456 0.228705 0.825510
O O12 0.195873 0.215358 0.839061
O O13 0.276091 0.000000 0.766707
O O14 0.703230 0.000000 0.081758
O O15 0.750000 0.250000 0.000000
O O16 0.904600 0.235556 0.175259
O O17 0.886304 0.000000 0.112116
O O18 0.420288 0.500000 0.249347
#
# Coordination Sequence:
#
# PCOD9223452 Si02
#       7
#     8   8   8   8   8   8   8
#     4  10  20  34  51  73  98 130 171 204 236 283
#     4  10  19  29  47  75 104 126 154 201 250 293
#     4   9  17  32  51  71  96 129 165 199 239 288
#     4   9  16  29  52  73  94 126 166 202 234 283
#     4  11  21  34  52  73  98 130 165 205 244 283
#     4   9  15  28  50  74  97 127 166 201 230 280
#     4  10  19  32  52  72  98 135 167 196 236 293
#
# _framework density 8.3157449999999997
#
# number of rings (size 3 to 8) (size 9 to 14) (size 15 to 20)
#    0.000    2.286    2.857    1.286    0.000    2.857 
#    0.000    3.571    0.000    2.571    0.000    6.000 
#    0.000    0.000    0.000    0.000    0.000    0.000 
#
# Total GULP energy -155918.726391 kJ/mol
# GULP energy per Si atom -5568.525943 kJ/mol
# Density = 0.829682 g / cm^3
# Si number density = 8.315745 Si / 1000 Ang^3
#
#
#
# Elastic Constant Matrix: (Units=GPa)
#
#
# Indices 1 2 3 4 5 6 
#
# 1 31.2107 12.2856 26.7446 0.0000 12.7343 0.0001
# 2 12.2856 26.4248 32.4874 0.0000 4.0265 0.0003
# 3 26.7446 32.4874 165.4490 0.0000 17.1045 0.0000
# 4 0.0000 0.0000 0.0000 29.5412 0.0000 0.0766
# 5 12.7343 4.0265 17.1045 0.0000 22.4891 0.0000
# 6 0.0001 0.0003 0.0000 0.0766 0.0000 20.5581
#
#
#
# Elastic Compliance Matrix: (Units=1/GPa)
#
#
# Indices 1 2 3 4 5 6 
#
# 1 0.050402 -0.016896 -0.002379 0.000000 -0.023705 0.000000
# 2 -0.016896 0.055604 -0.008842 0.000000 0.006337 -0.000001
# 3 -0.002379 -0.008842 0.008533 0.000000 -0.003560 0.000000
# 4 0.000000 0.000000 0.000000 0.033851 0.000000 -0.000126
# 5 -0.023705 0.006337 -0.003560 0.000000 0.059462 0.000000
# 6 0.000000 -0.000001 0.000000 -0.000126 0.000000 0.048643
#
#
# Mechanical properties :
#
#
# Convention : Reuss Voigt Hill
#
# Bulk Modulus (GPa) = 17.15155 40.67996 28.91576
# Shear Modulus (GPa) = 15.05281 24.62215 19.83748
#
# Velocity S-wave (km/s) = 3.01172 3.85184 3.45739
# Velocity P-wave (km/s) = 4.73593 6.65544 5.77598
#
# Compressibility (1/GPa) = 0.05830377
#
# Stress axis : x y z
#
# Youngs Moduli (GPa) = 19.84067 17.98435 117.19254
#
# Poissons Ratio (x) = 0.30387 0.27879
# Poissons Ratio (y) = 0.33523 1.03624
# Poissons Ratio (z) = 0.04720 0.15902
#
# Static dielectric constant tensor:
#      x y z
#    x 1.585540 0.000000 -0.003020 
#    y 0.000000 1.564790 0.000000 
#    z -0.003020 0.000000 1.582440 
# 
# From -- ./inp_files/287401.got.cif
#   From: 2010.05.17/outbox.ucp.g08.bks.cvg/sg12_144_cif.got.tgz:287401.got - 2010.06.11 11:47:21.
