data_PCOD9223698
_publ_section_title
;
Structure prediction by ZEFSAII (Michael W. Deem and Ramdas Pophale) SiO2 
 PCOD9223698
Probable space group: C 2/M
;
_chemical_formula_sum "Si O2"
_cell_formula_units_Z 24
_cell_length_a 30.000000
_cell_length_b 9.000000
_cell_length_c 12.000000
_cell_angle_alpha 90.000000
_cell_angle_beta 110.000000
_cell_angle_gamma 90.000000
_cell_volume 3044.604091
_symmetry_space_group_name_H-M "C 2/M"
_symmetry_group_IT_number 12
_symmetry_cell_setting 'monoclinic'
loop_
_space_group_symop_operation_xyz
x,y,z
-x,y,-z
-x,-y,-z
x,-y,z
1/2+x,1/2+y,z
1/2-x,1/2+y,-z
1/2-x,1/2-y,-z
1/2+x,1/2-y,z
loop_
_atom_site_type_symbol
_atom_site_label
_atom_site_fract_x
_atom_site_fract_y
_atom_site_fract_z
Si Si1 0.961927 0.175673 0.637980
Si Si2 0.390163 0.180829 0.751380
Si Si3 0.946091 0.180497 0.002909
Si Si4 0.804633 0.817600 0.529478
Si Si5 0.937563 0.680619 0.245843
Si Si6 0.877718 0.173148 0.387015
O O1 0.933237 0.263885 0.708798
O O2 0.925073 0.179940 0.504126
O O3 0.012650 0.253202 0.663185
O O4 0.968821 0.000000 0.673410
O O5 0.407024 0.248722 0.884843
O O6 0.341592 0.249919 0.654364
O O7 0.387067 0.000000 0.751659
O O8 0.941452 0.000000 0.003814
O O9 0.938039 0.251653 0.119494
O O10 0.000000 0.210751 0.000000
O O11 0.750000 0.750000 0.500000
O O12 0.833146 0.785390 0.434096
O O13 0.802670 0.000000 0.536601
O O14 0.938359 0.500000 0.243449
O O15 0.894046 0.735821 0.289688
O O16 0.869909 0.000000 0.349531
#
# Coordination Sequence:
#
# PCOD9223698 Si02
#       6
#     8   8   8   8   8   8
#     4  10  19  33  51  73 106 148 186 221 267 323
#     4  11  21  34  55  83 113 142 183 232 274 321
#     4  11  22  36  55  75 107 154 193 224 266 324
#     4  10  21  39  63  87 111 141 180 227 280 329
#     4  12  23  32  49  77 110 146 184 227 270 319
#     4   9  20  36  53  75 107 144 181 221 270 329
#
# _framework density 7.8827980000000002
#
# number of rings (size 3 to 8) (size 9 to 14) (size 15 to 20)
#    0.000    1.500    1.667    6.000    0.000    6.667 
#    0.000    0.000    0.000    1.000    0.000    0.000 
#    0.000    0.000    0.000    0.000    0.000    0.000 
#
# Total GULP energy -133717.012321 kJ/mol
# GULP energy per Si atom -5571.542180 kJ/mol
# Density = 0.786486 g / cm^3
# Si number density = 7.882798 Si / 1000 Ang^3
#
#
#
# Elastic Constant Matrix: (Units=GPa)
#
#
# Indices 1 2 3 4 5 6 
#
# 1 135.4072 51.6158 47.6658 0.0000 -5.9661 0.0000
# 2 51.6158 144.5071 45.8559 0.0000 -7.2352 0.0000
# 3 47.6658 45.8559 89.8475 0.0000 -10.5680 0.0000
# 4 0.0000 0.0000 0.0000 29.9780 0.0000 0.5777
# 5 -5.9661 -7.2352 -10.5680 0.0000 32.1503 0.0000
# 6 0.0000 0.0000 0.0000 0.5777 0.0000 33.3431
#
#
#
# Elastic Compliance Matrix: (Units=1/GPa)
#
#
# Indices 1 2 3 4 5 6 
#
# 1 0.009618 -0.002168 -0.003998 0.000000 -0.000017 0.000000
# 2 -0.002168 0.008753 -0.003259 0.000000 0.000496 0.000000
# 3 -0.003998 -0.003259 0.015334 0.000000 0.003565 0.000000
# 4 0.000000 0.000000 0.000000 0.033369 0.000000 -0.000578
# 5 -0.000017 0.000496 0.003565 0.000000 0.032384 0.000000
# 6 0.000000 0.000000 0.000000 -0.000578 0.000000 0.030001
#
#
# Mechanical properties :
#
#
# Convention : Reuss Voigt Hill
#
# Bulk Modulus (GPa) = 67.31654 73.33740 70.32697
# Shear Modulus (GPa) = 32.62395 34.06924 33.34659
#
# Velocity S-wave (km/s) = 4.55390 4.65368 4.60406
# Velocity P-wave (km/s) = 8.39296 8.68873 8.54213
#
# Compressibility (1/GPa) = 0.01485519
#
# Stress axis : x y z
#
# Youngs Moduli (GPa) = 103.97060 114.24183 65.21501
#
# Poissons Ratio (x) = 0.24762 0.26075
# Poissons Ratio (y) = 0.22536 0.21255
# Poissons Ratio (z) = 0.41571 0.37234
#
# Static dielectric constant tensor:
#      x y z
#    x 1.527840 0.000000 -0.018410 
#    y 0.000000 1.537690 0.000000 
#    z -0.018410 0.000000 1.566290 
# 
# From -- ./inp_files/185957.got.cif
#   From: 2010.05.17/outbox.ucp.g08.bks.cvg/sg12_93_cif.got.tgz:185957.got - 2010.06.11 11:47:21.
