data_PCOD9223247
_publ_section_title
;
Structure prediction by ZEFSAII (Michael W. Deem and Ramdas Pophale) SiO2 
 PCOD9223247
Probable space group: C 2/M
;
_chemical_formula_sum "Si O2"
_cell_formula_units_Z 32
_cell_length_a 27.000000
_cell_length_b 15.000000
_cell_length_c 12.000000
_cell_angle_alpha 90.000000
_cell_angle_beta 140.000000
_cell_angle_gamma 90.000000
_cell_volume 3123.947783
_symmetry_space_group_name_H-M "C 2/M"
_symmetry_group_IT_number 12
_symmetry_cell_setting 'monoclinic'
loop_
_space_group_symop_operation_xyz
x,y,z
-x,y,-z
-x,-y,-z
x,-y,z
1/2+x,1/2+y,z
1/2-x,1/2+y,-z
1/2-x,1/2-y,-z
1/2+x,1/2-y,z
loop_
_atom_site_type_symbol
_atom_site_label
_atom_site_fract_x
_atom_site_fract_y
_atom_site_fract_z
Si Si1 0.891639 0.726572 0.107229
Si Si2 0.396035 0.904044 0.750137
Si Si3 0.593136 0.344862 0.659900
Si Si4 0.025453 0.404660 0.352400
Si Si5 0.419284 0.286397 0.907680
Si Si6 0.262994 0.101881 0.969608
Si Si7 0.828523 0.678694 0.311463
Si Si8 0.254640 0.330625 0.596746
O O1 0.889774 0.807175 0.188706
O O2 0.961659 0.666308 0.271860
O O3 0.915523 0.766076 0.030978
O O4 0.814660 0.665309 0.977697
O O5 0.451595 0.898332 0.738540
O O6 0.408517 0.812974 0.837436
O O7 0.307882 0.900449 0.555060
O O8 0.408941 0.000000 0.829347
O O9 0.500000 0.369883 0.500000
O O10 0.672038 0.402545 0.780666
O O11 0.616067 0.263841 0.616338
O O12 0.990762 0.500000 0.316024
O O13 0.107103 0.395120 0.553061
O O14 0.345637 0.348746 0.755984
O O15 0.500000 0.321254 0.000000
O O16 0.291104 0.000000 0.019676
O O17 0.280397 0.148886 0.119994
O O18 0.775901 0.691802 0.330717
O O19 0.250000 0.250000 0.500000
#
# Coordination Sequence:
#
# PCOD9223247 Si02
#       8
#     8   8   8   8   8   8   8   8
#     4  11  21  37  54  83 115 146 189 228 283 338
#     4   9  19  33  50  78 111 144 178 221 278 329
#     4  11  22  38  59  80 108 147 188 236 278 327
#     4  10  18  30  53  82 114 144 176 223 278 340
#     4  11  20  33  54  81 111 146 185 228 276 330
#     4  11  24  38  56  82 112 149 189 231 280 332
#     4  10  19  38  56  82 112 144 186 228 282 330
#     4   9  19  34  55  80 107 145 188 224 262 326
#
# _framework density 10.243449
#
# number of rings (size 3 to 8) (size 9 to 14) (size 15 to 20)
#    0.000    1.750    2.500    3.750    0.000    2.000 
#    0.000    1.875    0.000    0.375    0.000    5.250 
#    0.000    0.000    0.000    0.000    0.000    0.000 
#
# Total GULP energy -178147.341855 kJ/mol
# GULP energy per Si atom -5567.104433 kJ/mol
# Density = 1.022013 g / cm^3
# Si number density = 10.243449 Si / 1000 Ang^3
#
#
#
# Elastic Constant Matrix: (Units=GPa)
#
#
# Indices 1 2 3 4 5 6 
#
# 1 104.3754 4.1934 34.0399 0.0000 23.0328 0.0000
# 2 4.1934 38.8124 7.8915 0.0000 2.4483 0.0000
# 3 34.0399 7.8915 83.3826 0.0000 37.4404 0.0000
# 4 0.0000 0.0000 0.0000 5.8979 0.0000 -5.8798
# 5 23.0328 2.4483 37.4404 0.0000 46.5216 0.0000
# 6 0.0000 0.0000 0.0000 -5.8798 0.0000 -6.5009
#
#
#
# Elastic Compliance Matrix: (Units=1/GPa)
#
#
# Indices 1 2 3 4 5 6 
#
# 1 0.011310 -0.000374 -0.003251 0.000000 -0.002963 0.000000
# 2 -0.000374 0.026311 -0.002817 0.000000 0.001067 0.000000
# 3 -0.003251 -0.002817 0.020039 0.000000 -0.014369 0.000000
# 4 0.000000 0.000000 0.000000 0.089158 0.000000 -0.080641
# 5 -0.002963 0.001067 -0.014369 0.000000 0.034471 0.000000
# 6 0.000000 0.000000 0.000000 -0.080641 0.000000 -0.080888
#
#
# Mechanical properties :
#
#
# Convention : Reuss Voigt Hill
#
# Bulk Modulus (GPa) = 22.33344 35.42444 28.87894
# Shear Modulus (GPa) = 38.99872 21.21344 30.10608
#
# Velocity S-wave (km/s) = 4.36775 3.22135 3.83760
# Velocity P-wave (km/s) = 6.03004 5.58256 5.81061
#
# Compressibility (1/GPa) = 0.04477590
#
# Stress axis : x y z
#
# Youngs Moduli (GPa) = 88.41682 38.00733 49.90315
#
# Poissons Ratio (x) = 0.01421 0.16224
# Poissons Ratio (y) = 0.03307 0.14056
# Poissons Ratio (z) = 0.28746 0.10705
#
# Static dielectric constant tensor:
#      x y z
#    x 1.766180 0.000000 0.001750 
#    y 0.000000 1.754260 0.000000 
#    z 0.001750 0.000000 1.798260 
# 
# From -- ./inp_files/183811.got.cif
#   From: 2010.05.17/outbox.ucp.g08.bks.cvg/sg12_92_cif.got.tgz:183811.got - 2010.06.11 11:47:21.
