data_PCOD9223881
_publ_section_title
;
Structure prediction by ZEFSAII (Michael W. Deem and Ramdas Pophale) SiO2 
 PCOD9223881
Probable space group: C 2/M
;
_chemical_formula_sum "Si O2"
_cell_formula_units_Z 32
_cell_length_a 21.000000
_cell_length_b 18.000000
_cell_length_c 27.000000
_cell_angle_alpha 90.000000
_cell_angle_beta 160.000000
_cell_angle_gamma 90.000000
_cell_volume 3490.657583
_symmetry_space_group_name_H-M "C 2/M"
_symmetry_group_IT_number 12
_symmetry_cell_setting 'monoclinic'
loop_
_space_group_symop_operation_xyz
x,y,z
-x,y,-z
-x,-y,-z
x,-y,z
1/2+x,1/2+y,z
1/2-x,1/2+y,-z
1/2-x,1/2-y,-z
1/2+x,1/2-y,z
loop_
_atom_site_type_symbol
_atom_site_label
_atom_site_fract_x
_atom_site_fract_y
_atom_site_fract_z
Si Si1 0.106819 0.802696 0.195309
Si Si2 0.583155 0.915170 0.297562
Si Si3 0.217480 0.084794 0.361393
Si Si4 0.058278 0.318148 0.629592
Si Si5 0.297503 0.209410 0.085761
Si Si6 0.971248 0.763604 0.659728
Si Si7 0.841349 0.181278 0.418160
Si Si8 0.876777 0.082130 0.592523
O O1 0.123972 0.860386 0.253528
O O2 0.245399 0.825943 0.253220
O O3 0.184514 0.723926 0.271818
O O4 0.894385 0.796416 0.025167
O O5 0.394906 0.870018 0.151979
O O6 0.740209 0.875505 0.379638
O O7 0.672113 0.912083 0.417771
O O8 0.559212 0.000000 0.266337
O O9 0.429792 0.111950 0.523171
O O10 0.137264 0.089420 0.358512
O O11 0.204977 0.000000 0.335615
O O12 0.063098 0.295303 0.690183
O O13 0.946619 0.248245 0.523674
O O14 0.447638 0.254926 0.226614
O O15 0.250000 0.250000 0.000000
O O16 0.750000 0.750000 0.500000
O O17 0.995535 0.848471 0.660453
O O18 0.000000 0.146017 0.500000
O O19 0.947318 0.000000 0.631375
#
# Coordination Sequence:
#
# PCOD9223881 Si02
#       8
#     8   8   8   8   8   8   8   8
#     4  10  22  35  53  82 118 151 193 241 287 344
#     4  11  21  35  56  86 117 150 195 244 298 353
#     4  10  19  34  56  84 120 158 198 246 294 341
#     4  10  19  34  57  85 111 148 201 241 279 347
#     4  12  23  37  58  82 118 154 191 239 292 344
#     4  12  20  37  64  84 109 152 195 238 291 345
#     4   9  17  34  56  81 111 146 190 242 289 344
#     4  10  20  34  57  88 113 141 193 246 289 344
#
# _framework density 9.1673270000000002
#
# number of rings (size 3 to 8) (size 9 to 14) (size 15 to 20)
#    0.000    1.500    5.000    1.875    0.000    2.250 
#    0.000    0.625    0.000    0.000    0.000    6.125 
#    0.000    0.000    0.000    0.000    0.000    0.000 
#
# Total GULP energy -178401.554988 kJ/mol
# GULP energy per Si atom -5575.048593 kJ/mol
# Density = 0.914646 g / cm^3
# Si number density = 9.167327 Si / 1000 Ang^3
#
#
#
# Elastic Constant Matrix: (Units=GPa)
#
#
# Indices 1 2 3 4 5 6 
#
# 1 47.6215 11.2555 23.0997 -0.0055 -1.8982 0.0081
# 2 11.2555 85.8414 30.6889 -0.0343 6.4028 0.0101
# 3 23.0997 30.6889 84.8219 -0.0149 0.3203 0.0089
# 4 -0.0055 -0.0343 -0.0149 16.2366 -0.0006 -4.1947
# 5 -1.8982 6.4028 0.3203 -0.0006 26.6792 0.0076
# 6 0.0081 0.0101 0.0089 -4.1947 0.0076 17.9929
#
#
#
# Elastic Compliance Matrix: (Units=1/GPa)
#
#
# Indices 1 2 3 4 5 6 
#
# 1 0.024373 -0.001120 -0.006240 -0.000002 0.002078 -0.000009
# 2 -0.001120 0.013702 -0.004640 0.000025 -0.003312 0.000002
# 3 -0.006240 -0.004640 0.015166 0.000002 0.000487 -0.000002
# 4 -0.000002 0.000025 0.000002 0.065537 -0.000009 0.015279
# 5 0.002078 -0.003312 0.000487 -0.000009 0.038419 -0.000018
# 6 -0.000009 0.000002 -0.000002 0.015279 -0.000018 0.059139
#
#
# Mechanical properties :
#
#
# Convention : Reuss Voigt Hill
#
# Bulk Modulus (GPa) = 34.19859 38.70809 36.45334
# Shear Modulus (GPa) = 19.99327 22.39777 21.19552
#
# Velocity S-wave (km/s) = 3.30580 3.49894 3.40374
# Velocity P-wave (km/s) = 5.76750 6.12220 5.94749
#
# Compressibility (1/GPa) = 0.02924097
#
# Stress axis : x y z
#
# Youngs Moduli (GPa) = 41.02830 72.98136 65.93791
#
# Poissons Ratio (x) = 0.08173 0.41147
# Poissons Ratio (y) = 0.04595 0.30595
# Poissons Ratio (z) = 0.25603 0.33863
#
# Static dielectric constant tensor:
#      x y z
#    x 1.700110 0.000000 -0.028210 
#    y 0.000000 1.663630 -0.000020 
#    z -0.028210 -0.000020 1.623640 
# 
# From -- ./inp_files/366815.got.cif
#   From: 2010.05.17/outbox.ucp.g08.bks.cvg/sg12_184_cif.got.tgz:366815.got - 2010.06.11 11:47:21.
