data_PCOD9223902
_publ_section_title
;
Structure prediction by ZEFSAII (Michael W. Deem and Ramdas Pophale) SiO2 
 PCOD9223902
Probable space group: C 2/M
;
_chemical_formula_sum "Si O2"
_cell_formula_units_Z 32
_cell_length_a 30.000000
_cell_length_b 9.000000
_cell_length_c 24.000000
_cell_angle_alpha 90.000000
_cell_angle_beta 30.000000
_cell_angle_gamma 90.000000
_cell_volume 3240.000000
_symmetry_space_group_name_H-M "C 2/M"
_symmetry_group_IT_number 12
_symmetry_cell_setting 'monoclinic'
loop_
_space_group_symop_operation_xyz
x,y,z
-x,y,-z
-x,-y,-z
x,-y,z
1/2+x,1/2+y,z
1/2-x,1/2+y,-z
1/2-x,1/2-y,-z
1/2+x,1/2-y,z
loop_
_atom_site_type_symbol
_atom_site_label
_atom_site_fract_x
_atom_site_fract_y
_atom_site_fract_z
Si Si1 0.431952 0.321703 0.191772
Si Si2 0.874286 0.823856 0.985701
Si Si3 0.846830 0.178034 0.891068
Si Si4 0.060553 0.821179 0.324286
Si Si5 0.276675 0.322560 0.780050
Si Si6 0.389931 0.175990 0.470545
Si Si7 0.283186 0.676508 0.270068
Si Si8 0.652048 0.179208 0.607578
O O1 0.418594 0.500000 0.213827
O O2 0.537121 0.294873 0.074738
O O3 0.376046 0.276805 0.197921
O O4 0.396019 0.240356 0.285628
O O5 0.892903 0.789299 0.900548
O O6 0.853466 0.000000 0.011694
O O7 0.792631 0.731382 0.097944
O O8 0.896516 0.228395 0.781409
O O9 0.837952 0.000000 0.896474
O O10 0.750000 0.250000 0.000000
O O11 0.125658 0.774451 0.303848
O O12 0.961933 0.757348 0.430547
O O13 0.056849 0.000000 0.328352
O O14 0.276055 0.500000 0.777572
O O15 0.245913 0.255832 0.754813
O O16 0.291890 0.202064 0.601487
O O17 0.393610 0.223183 0.401838
O O18 0.406674 0.000000 0.454454
O O19 0.287365 0.500000 0.254244
O O20 0.750000 0.250000 0.500000
O O21 0.657483 0.000000 0.602986
#
# Coordination Sequence:
#
# PCOD9223902 Si02
#       8
#     8   8   8   8   8   8   8   8
#     4  10  21  40  63  88 120 155 196 241 288 351
#     4  10  21  37  62  89 115 155 196 235 291 352
#     4  10  19  34  57  86 117 150 188 229 285 347
#     4  10  22  39  59  86 119 154 191 239 295 346
#     4  11  24  41  60  84 117 153 197 249 296 344
#     4  10  22  39  60  88 118 153 195 239 287 344
#     4  10  22  42  62  82 115 154 198 244 289 347
#     4  11  21  36  60  91 124 156 192 236 292 350
#
# _framework density 9.8765429999999999
#
# number of rings (size 3 to 8) (size 9 to 14) (size 15 to 20)
#    0.000    1.750    2.500    1.500    0.000    6.000 
#    0.000    5.000    0.000    0.000    0.000    0.000 
#    0.000    0.000    0.000    0.000    0.000    0.000 
#
# Total GULP energy -178717.383405 kJ/mol
# GULP energy per Si atom -5584.918231 kJ/mol
# Density = 0.985406 g / cm^3
# Si number density = 9.876543 Si / 1000 Ang^3
#
#
#
# Elastic Constant Matrix: (Units=GPa)
#
#
# Indices 1 2 3 4 5 6 
#
# 1 146.7413 32.1794 9.0928 -0.0016 -20.7746 0.0001
# 2 32.1794 12.3669 8.3352 -0.0020 -8.0940 0.0022
# 3 9.0928 8.3352 4.1056 -0.0007 -16.4575 0.0020
# 4 -0.0016 -0.0020 -0.0007 27.2953 0.0016 2.7781
# 5 -20.7746 -8.0940 -16.4575 0.0016 37.0176 -0.0016
# 6 0.0001 0.0022 0.0020 2.7781 -0.0016 32.3638
#
#
#
# Elastic Compliance Matrix: (Units=1/GPa)
#
#
# Indices 1 2 3 4 5 6 
#
# 1 0.010833 -0.016895 -0.025405 -0.000001 -0.008910 0.000002
# 2 -0.016895 0.083221 0.123511 0.000006 0.063626 -0.000011
# 3 -0.025405 0.123511 -0.128092 0.000007 -0.044200 -0.000003
# 4 -0.000001 0.000006 0.000007 0.036959 0.000002 -0.003173
# 5 -0.008910 0.063626 -0.044200 0.000002 0.016275 -0.000001
# 6 0.000002 -0.000011 -0.000003 -0.003173 -0.000001 0.031171
#
#
# Mechanical properties :
#
#
# Convention : Reuss Voigt Hill
#
# Bulk Modulus (GPa) = 7.78928 29.15874 18.47401
# Shear Modulus (GPa) = -72.19314 26.90911 -22.64201
#
# Velocity S-wave (km/s) = -6.05203 3.69490 -3.38931
# Velocity P-wave (km/s) = 6.69957 5.74428 2.43798
#
# Compressibility (1/GPa) = 0.12838158
#
# Stress axis : x y z
#
# Youngs Moduli (GPa) = 92.31378 12.01619 -7.80689
#
# Poissons Ratio (x) = 0.20302 -0.19834
# Poissons Ratio (y) = 1.55968 0.96423
# Poissons Ratio (z) = 2.34527 -1.48413
#
# Static dielectric constant tensor:
#      x y z
#    x 1.710850 0.000000 -0.009360 
#    y 0.000000 1.659640 0.000000 
#    z -0.009360 0.000000 1.688080 
# 
# From -- ./inp_files/249241.got.cif
#   From: 2010.05.17/outbox.ucp.g08.bks.cvg/sg12_125_cif.got.tgz:249241.got - 2010.06.11 11:47:21.
