data_PCOD9223229
_publ_section_title
;
Structure prediction by ZEFSAII (Michael W. Deem and Ramdas Pophale) SiO2 
 PCOD9223229
Probable space group: C 2/M
;
_chemical_formula_sum "Si O2"
_cell_formula_units_Z 32
_cell_length_a 30.000000
_cell_length_b 9.000000
_cell_length_c 30.000000
_cell_angle_alpha 90.000000
_cell_angle_beta 30.000000
_cell_angle_gamma 90.000000
_cell_volume 4050.000000
_symmetry_space_group_name_H-M "C 2/M"
_symmetry_group_IT_number 12
_symmetry_cell_setting 'monoclinic'
loop_
_space_group_symop_operation_xyz
x,y,z
-x,y,-z
-x,-y,-z
x,-y,z
1/2+x,1/2+y,z
1/2-x,1/2+y,-z
1/2-x,1/2-y,-z
1/2+x,1/2-y,z
loop_
_atom_site_type_symbol
_atom_site_label
_atom_site_fract_x
_atom_site_fract_y
_atom_site_fract_z
Si Si1 0.836475 0.176107 0.784116
Si Si2 0.840714 0.668684 0.869481
Si Si3 0.982862 0.819454 0.920521
Si Si4 0.331927 0.320801 0.115745
Si Si5 0.321303 0.320716 0.228174
Si Si6 0.359191 0.321025 0.597048
Si Si7 0.872283 0.827692 0.930049
Si Si8 0.462610 0.319970 0.597811
O O1 0.861555 0.220278 0.811882
O O2 0.745867 0.254541 0.847134
O O3 0.913563 0.229643 0.684279
O O4 0.825195 0.000000 0.789285
O O5 0.865021 0.500000 0.837525
O O6 0.884172 0.723856 0.877350
O O7 0.733195 0.673934 0.968038
O O8 0.084383 0.769630 0.833907
O O9 0.928176 0.775902 0.924154
O O10 0.984303 0.000000 0.919709
O O11 0.926320 0.774982 0.012898
O O12 0.327007 0.500000 0.118108
O O13 0.319976 0.275705 0.177201
O O14 0.317414 0.500000 0.233162
O O15 0.235805 0.252907 0.325792
O O16 0.350602 0.500000 0.603563
O O17 0.401919 0.278595 0.607991
O O18 0.435882 0.272004 0.496441
O O19 0.895385 0.000000 0.900330
O O20 0.464901 0.500000 0.595246
#
# Coordination Sequence:
#
# PCOD9223229 Si02
#       8
#     8   8   8   8   8   8   8   8
#     4  11  19  29  47  70  92 120 156 189 226 272
#     4  10  19  31  47  68  93 118 149 189 236 276
#     4   9  17  31  47  64  91 128 162 186 218 270
#     4  10  18  30  44  64  94 128 160 187 219 261
#     4  10  19  29  46  69  93 123 159 194 225 261
#     4   9  16  31  48  63  88 122 156 189 227 270
#     4   9  17  31  48  65  88 122 158 187 220 269
#     4   8  16  29  47  65  87 122 156 185 225 278
#
# _framework density 7.9012349999999998
#
# number of rings (size 3 to 8) (size 9 to 14) (size 15 to 20)
#    0.000    2.500    2.500    1.875    0.000    2.000 
#    0.000    3.750    0.000    1.500    0.000    0.875 
#    0.000    0.000    0.000    0.000    0.000    0.000 
#
# Total GULP energy -178230.355792 kJ/mol
# GULP energy per Si atom -5569.698618 kJ/mol
# Density = 0.788325 g / cm^3
# Si number density = 7.901235 Si / 1000 Ang^3
#
#
#
# Elastic Constant Matrix: (Units=GPa)
#
#
# Indices 1 2 3 4 5 6 
#
# 1 34.1831 8.0899 22.0044 -0.0056 -4.8838 0.0055
# 2 8.0899 5.0744 10.5663 -0.0098 -5.0115 0.0058
# 3 22.0044 10.5663 87.1018 -0.0167 -19.1923 0.0050
# 4 -0.0056 -0.0098 -0.0167 18.6957 -0.0044 -1.6530
# 5 -4.8838 -5.0115 -19.1923 -0.0044 11.1499 -0.0024
# 6 0.0055 0.0058 0.0050 -1.6530 -0.0024 22.1918
#
#
#
# Elastic Compliance Matrix: (Units=1/GPa)
#
#
# Indices 1 2 3 4 5 6 
#
# 1 0.055549 -0.109125 -0.010055 -0.000059 -0.042024 0.000008
# 2 -0.109125 0.577707 0.006715 0.000323 0.223418 -0.000076
# 3 -0.010055 0.006715 0.020784 0.000027 0.034389 0.000002
# 4 -0.000059 0.000323 0.000027 0.053843 0.000188 0.004010
# 5 -0.042024 0.223418 0.034389 0.000188 0.230890 -0.000016
# 6 0.000008 -0.000076 0.000002 0.004010 -0.000016 0.045360
#
#
# Mechanical properties :
#
#
# Convention : Reuss Voigt Hill
#
# Bulk Modulus (GPa) = 2.33040 23.07561 12.70301
# Shear Modulus (GPa) = 3.69795 16.12073 9.90934
#
# Velocity S-wave (km/s) = 1.53140 3.19743 2.50686
# Velocity P-wave (km/s) = 2.14589 5.31654 4.05404
#
# Compressibility (1/GPa) = 0.42911023
#
# Stress axis : x y z
#
# Youngs Moduli (GPa) = 18.00225 1.73098 48.11460
#
# Poissons Ratio (x) = 0.18889 0.48379
# Poissons Ratio (y) = 1.96449 -0.32308
# Poissons Ratio (z) = 0.18101 -0.01162
#
# Static dielectric constant tensor:
#      x y z
#    x 1.510090 0.000000 0.010880 
#    y 0.000000 1.528290 0.000010 
#    z 0.010880 0.000010 1.539110 
# 
# From -- ./inp_files/384548.got.cif
#   From: 2010.05.17/outbox.ucp.g08.bks.cvg/sg12_193_cif.got.tgz:384548.got - 2010.06.11 11:47:21.
