data_PCOD9223946
_publ_section_title
;
Structure prediction by ZEFSAII (Michael W. Deem and Ramdas Pophale) SiO2 
 PCOD9223946
Probable space group: C 2/M
;
_chemical_formula_sum "Si O2"
_cell_formula_units_Z 32
_cell_length_a 24.000000
_cell_length_b 9.000000
_cell_length_c 18.000000
_cell_angle_alpha 90.000000
_cell_angle_beta 80.000000
_cell_angle_gamma 90.000000
_cell_volume 3828.932544
_symmetry_space_group_name_H-M "C 2/M"
_symmetry_group_IT_number 12
_symmetry_cell_setting 'monoclinic'
loop_
_space_group_symop_operation_xyz
x,y,z
-x,y,-z
-x,-y,-z
x,-y,z
1/2+x,1/2+y,z
1/2-x,1/2+y,-z
1/2-x,1/2-y,-z
1/2+x,1/2-y,z
loop_
_atom_site_type_symbol
_atom_site_label
_atom_site_fract_x
_atom_site_fract_y
_atom_site_fract_z
Si Si1 0.715769 0.325274 0.258542
Si Si2 0.795143 0.824526 0.905642
Si Si3 0.812364 0.178665 0.476363
Si Si4 0.652092 0.177404 0.802152
Si Si5 0.365552 0.822841 0.607786
Si Si6 0.326864 0.675427 0.053059
Si Si7 0.006623 0.679759 0.412516
Si Si8 0.103135 0.680556 0.657875
O O1 0.712601 0.500000 0.281132
O O2 0.687234 0.309265 0.183806
O O3 0.782457 0.287046 0.235451
O O4 0.682627 0.223445 0.323272
O O5 0.738715 0.726004 0.924943
O O6 0.779345 0.000000 0.918601
O O7 0.837709 0.787854 0.963283
O O8 0.750000 0.250000 0.500000
O O9 0.850502 0.234725 0.536445
O O10 0.844742 0.243673 0.397320
O O11 0.808358 0.000000 0.475196
O O12 0.641606 0.247418 0.885613
O O13 0.611061 0.218485 0.743273
O O14 0.650206 0.000000 0.811136
O O15 0.428449 0.783163 0.622686
O O16 0.364755 0.000000 0.592857
O O17 0.332410 0.500000 0.061222
O O18 0.002848 0.500000 0.414494
O O19 0.000000 0.730084 0.500000
O O20 0.955647 0.727039 0.369367
O O21 0.108010 0.500000 0.650450
#
# Coordination Sequence:
#
# PCOD9223946 Si02
#       8
#     8   8   8   8   8   8   8   8
#     4   9  17  30  45  67 100 130 158 195 238 285
#     4   8  15  27  42  62  92 129 160 187 228 281
#     4  12  24  36  51  72  97 126 159 195 239 289
#     4   9  18  30  46  68  97 129 157 190 237 288
#     4  11  21  34  52  73  96 125 162 201 242 287
#     4   9  15  24  42  66  93 125 158 191 228 276
#     4   9  17  33  55  73  92 122 161 203 245 288
#     4  10  19  35  55  72  94 128 164 198 241 289
#
# _framework density 8.3574210000000004
#
# number of rings (size 3 to 8) (size 9 to 14) (size 15 to 20)
#    0.000    2.375    1.250    3.375    0.000    4.000 
#    0.000    1.875    0.000    0.000    0.000    0.875 
#    0.000    7.000    0.000    0.000    0.000    0.000 
#
# Total GULP energy -178219.288201 kJ/mol
# GULP energy per Si atom -5569.352756 kJ/mol
# Density = 0.833840 g / cm^3
# Si number density = 8.357421 Si / 1000 Ang^3
#
#
#
# Elastic Constant Matrix: (Units=GPa)
#
#
# Indices 1 2 3 4 5 6 
#
# 1 71.7000 14.2211 18.0643 0.0000 28.0946 0.0000
# 2 14.2211 37.7931 17.4427 0.0000 9.4449 0.0000
# 3 18.0643 17.4427 72.5394 0.0000 38.5571 0.0000
# 4 0.0000 0.0000 0.0000 27.4268 0.0000 4.9854
# 5 28.0946 9.4449 38.5571 0.0000 31.3901 0.0000
# 6 0.0000 0.0000 0.0000 4.9854 0.0000 15.3138
#
#
#
# Elastic Compliance Matrix: (Units=1/GPa)
#
#
# Indices 1 2 3 4 5 6 
#
# 1 0.030229 -0.008622 0.021744 0.000000 -0.051169 0.000000
# 2 -0.008622 0.032225 -0.013108 0.000000 0.014121 0.000000
# 3 0.021744 -0.013108 0.056958 0.000000 -0.085480 0.000000
# 4 0.000000 0.000000 0.000000 0.038754 0.000000 -0.012616
# 5 -0.051169 0.014121 -0.085480 0.000000 0.178403 0.000000
# 6 0.000000 0.000000 0.000000 -0.012616 0.000000 0.069408
#
#
# Mechanical properties :
#
#
# Convention : Reuss Voigt Hill
#
# Bulk Modulus (GPa) = 8.37244 31.27654 19.82449
# Shear Modulus (GPa) = 11.21674 23.64643 17.43158
#
# Velocity S-wave (km/s) = 2.59330 3.76533 3.23287
# Velocity P-wave (km/s) = 3.73989 6.13645 5.08148
#
# Compressibility (1/GPa) = 0.11943955
#
# Stress axis : x y z
#
# Youngs Moduli (GPa) = 33.08083 31.03197 17.55672
#
# Poissons Ratio (x) = 0.26757 -0.38175
# Poissons Ratio (y) = 0.28524 0.23013
# Poissons Ratio (z) = -0.71930 0.40675
#
# Static dielectric constant tensor:
#      x y z
#    x 1.556220 0.000000 0.028240 
#    y 0.000000 1.562940 0.000000 
#    z 0.028240 0.000000 1.617250 
# 
# From -- ./inp_files/287493.got.cif
#   From: 2010.05.17/outbox.ucp.g08.bks.cvg/sg12_144_cif.got.tgz:287493.got - 2010.06.11 11:47:21.
