data_PCOD9223504
_publ_section_title
;
Structure prediction by ZEFSAII (Michael W. Deem and Ramdas Pophale) SiO2 
 PCOD9223504
Probable space group: C 2/M
;
_chemical_formula_sum "Si O2"
_cell_formula_units_Z 24
_cell_length_a 21.000000
_cell_length_b 9.000000
_cell_length_c 30.000000
_cell_angle_alpha 90.000000
_cell_angle_beta 150.000000
_cell_angle_gamma 90.000000
_cell_volume 2835.000000
_symmetry_space_group_name_H-M "C 2/M"
_symmetry_group_IT_number 12
_symmetry_cell_setting 'monoclinic'
loop_
_space_group_symop_operation_xyz
x,y,z
-x,y,-z
-x,-y,-z
x,-y,z
1/2+x,1/2+y,z
1/2-x,1/2+y,-z
1/2-x,1/2-y,-z
1/2+x,1/2-y,z
loop_
_atom_site_type_symbol
_atom_site_label
_atom_site_fract_x
_atom_site_fract_y
_atom_site_fract_z
Si Si1 0.461255 0.320973 0.926158
Si Si2 0.692168 0.671572 0.752904
Si Si3 0.151596 0.324596 0.378664
Si Si4 0.406577 0.671634 0.204625
Si Si5 0.418722 0.321146 0.570006
Si Si6 0.207815 0.177100 0.020556
O O1 0.459216 0.500000 0.925809
O O2 0.321468 0.263650 0.828494
O O3 0.500000 0.270847 0.000000
O O4 0.571295 0.273907 0.958164
O O5 0.722468 0.500000 0.761452
O O6 0.641059 0.679450 0.772973
O O7 0.565663 0.714414 0.647992
O O8 0.128163 0.500000 0.358933
O O9 0.303000 0.296606 0.465405
O O10 0.118411 0.275143 0.409212
O O11 0.051167 0.230352 0.289507
O O12 0.398200 0.500000 0.185333
O O13 0.313543 0.774391 0.120235
O O14 0.415615 0.500000 0.579204
O O15 0.204130 0.000000 0.013510
O O16 0.250000 0.250000 0.000000
#
# Coordination Sequence:
#
# PCOD9223504 Si02
#       6
#     8   8   8   8   8   8
#     4  10  20  34  51  73 100 129 165 207 249 295
#     4   9  17  28  46  71  99 130 165 203 243 290
#     4   9  15  24  41  63  93 130 164 199 244 293
#     4  10  19  31  47  70  99 130 167 206 247 294
#     4   8  15  26  38  62  97 129 161 200 244 292
#     4  11  23  38  54  73 100 132 168 208 251 297
#
# _framework density 8.4656079999999996
#
# number of rings (size 3 to 8) (size 9 to 14) (size 15 to 20)
#    0.000    2.500    1.667    2.500    0.000    5.000 
#    0.000    0.000    0.000    0.000    0.000    1.167 
#    0.000    9.333    0.000    0.000    0.000    0.000 
#
# Total GULP energy -133616.473671 kJ/mol
# GULP energy per Si atom -5567.353070 kJ/mol
# Density = 0.844634 g / cm^3
# Si number density = 8.465608 Si / 1000 Ang^3
#
#
#
# Elastic Constant Matrix: (Units=GPa)
#
#
# Indices 1 2 3 4 5 6 
#
# 1 62.1583 25.9082 38.5525 0.0000 23.0891 0.0000
# 2 25.9082 37.4015 22.6157 0.0000 12.7085 0.0000
# 3 38.5525 22.6157 112.1110 0.0001 43.2470 0.0000
# 4 0.0000 0.0000 0.0001 32.7719 0.0000 4.9570
# 5 23.0891 12.7085 43.2470 0.0000 21.0451 0.0000
# 6 0.0000 0.0000 0.0000 4.9570 0.0000 20.3940
#
#
#
# Elastic Compliance Matrix: (Units=1/GPa)
#
#
# Indices 1 2 3 4 5 6 
#
# 1 0.033835 -0.012312 0.011095 0.000000 -0.052486 0.000000
# 2 -0.012312 0.038727 0.001120 0.000000 -0.012179 0.000000
# 3 0.011095 0.001120 0.047444 0.000000 -0.110346 0.000000
# 4 0.000000 0.000000 0.000000 0.031679 0.000000 -0.007700
# 5 -0.052486 -0.012179 -0.110346 0.000000 0.339212 0.000000
# 6 0.000000 0.000000 0.000000 -0.007700 0.000000 0.050905
#
#
# Mechanical properties :
#
#
# Convention : Reuss Voigt Hill
#
# Bulk Modulus (GPa) = 8.34643 42.86931 25.60787
# Shear Modulus (GPa) = 8.59205 23.14852 15.87028
#
# Velocity S-wave (km/s) = 2.25515 3.70159 3.06492
# Velocity P-wave (km/s) = 3.42363 6.60634 5.26141
#
# Compressibility (1/GPa) = 0.11981166
#
# Stress axis : x y z
#
# Youngs Moduli (GPa) = 29.55562 25.82193 21.07727
#
# Poissons Ratio (x) = 0.31793 -0.23386
# Poissons Ratio (y) = 0.36390 -0.02360
# Poissons Ratio (z) = -0.32793 -0.02891
#
# Static dielectric constant tensor:
#      x y z
#    x 1.561070 0.000000 -0.002600 
#    y 0.000000 1.570250 0.000000 
#    z -0.002600 0.000000 1.630680 
# 
# From -- ./inp_files/236608.got.cif
#   From: 2010.05.17/outbox.ucp.g08.bks.cvg/sg12_119_cif.got.tgz:236608.got - 2010.06.11 11:47:21.
