data_PCOD9223286
_publ_section_title
;
Structure prediction by ZEFSAII (Michael W. Deem and Ramdas Pophale) SiO2 
 PCOD9223286
Probable space group: C 2/M
;
_chemical_formula_sum "Si O2"
_cell_formula_units_Z 32
_cell_length_a 15.000000
_cell_length_b 9.000000
_cell_length_c 27.000000
_cell_angle_alpha 90.000000
_cell_angle_beta 80.000000
_cell_angle_gamma 90.000000
_cell_volume 3589.624260
_symmetry_space_group_name_H-M "C 2/M"
_symmetry_group_IT_number 12
_symmetry_cell_setting 'monoclinic'
loop_
_space_group_symop_operation_xyz
x,y,z
-x,y,-z
-x,-y,-z
x,-y,z
1/2+x,1/2+y,z
1/2-x,1/2+y,-z
1/2-x,1/2-y,-z
1/2+x,1/2-y,z
loop_
_atom_site_type_symbol
_atom_site_label
_atom_site_fract_x
_atom_site_fract_y
_atom_site_fract_z
Si Si1 0.567149 0.819858 0.122682
Si Si2 0.651288 0.179489 0.008682
Si Si3 0.734791 0.318616 0.709213
Si Si4 0.903203 0.680344 0.355847
Si Si5 0.879095 0.679558 0.100716
Si Si6 0.722386 0.820835 0.179597
Si Si7 0.899803 0.818353 0.629005
Si Si8 0.264961 0.322906 0.552802
O O1 0.607295 0.773379 0.065148
O O2 0.463002 0.774831 0.127417
O O3 0.624815 0.773000 0.165395
O O4 0.568907 0.000000 0.122790
O O5 0.654893 0.000000 0.009381
O O6 0.750000 0.250000 0.000000
O O7 0.608043 0.218190 0.959003
O O8 0.733337 0.500000 0.704788
O O9 0.645562 0.250998 0.689117
O O10 0.749100 0.280358 0.766596
O O11 0.823224 0.249648 0.673136
O O12 0.913614 0.500000 0.348688
O O13 0.825151 0.706288 0.405180
O O14 0.000488 0.750815 0.364982
O O15 0.870420 0.500000 0.103306
O O16 0.792073 0.755442 0.132872
O O17 0.724661 0.000000 0.177984
O O18 0.853916 0.782512 0.578669
O O19 0.903331 0.000000 0.632240
O O20 0.271093 0.500000 0.544936
O O21 0.250000 0.250000 0.500000
#
# Coordination Sequence:
#
# PCOD9223286 Si02
#       8
#     8   8   8   8   8   8   8   8
#     4   9  18  34  53  73 103 138 169 209 260 320
#     4  10  18  31  53  75 100 135 173 212 260 315
#     4  10  21  37  57  81 109 145 189 234 283 337
#     4  10  21  38  59  84 113 150 193 235 282 332
#     4  10  20  33  53  79 102 134 178 215 258 320
#     4  10  21  37  55  77 106 138 171 216 275 325
#     4  10  21  38  59  85 115 150 191 234 282 332
#     4   9  20  36  55  83 119 155 191 231 276 325
#
# _framework density 8.9145819999999993
#
# number of rings (size 3 to 8) (size 9 to 14) (size 15 to 20)
#    0.000    2.250    1.250    2.250    0.000    7.000 
#    0.000    5.000    0.000    1.500    0.000    0.000 
#    0.000    0.000    0.000    0.000    0.000    0.000 
#
# Total GULP energy -178157.831133 kJ/mol
# GULP energy per Si atom -5567.432223 kJ/mol
# Density = 0.889429 g / cm^3
# Si number density = 8.914582 Si / 1000 Ang^3
#
#
#
# Elastic Constant Matrix: (Units=GPa)
#
#
# Indices 1 2 3 4 5 6 
#
# 1 142.2752 28.3952 35.8236 0.0000 36.2346 0.0000
# 2 28.3952 47.4977 26.2357 0.0000 12.2425 0.0000
# 3 35.8236 26.2357 109.2171 0.0000 38.1278 0.0000
# 4 0.0000 0.0000 0.0000 30.4085 0.0000 2.2340
# 5 36.2346 12.2425 38.1278 0.0000 37.3109 0.0000
# 6 0.0000 0.0000 0.0000 2.2340 0.0000 32.0326
#
#
#
# Elastic Compliance Matrix: (Units=1/GPa)
#
#
# Indices 1 2 3 4 5 6 
#
# 1 0.009980 -0.004095 0.000971 0.000000 -0.009341 0.000000
# 2 -0.004095 0.026191 -0.005187 0.000000 0.000684 0.000000
# 3 0.000971 -0.005187 0.015264 0.000000 -0.014839 0.000000
# 4 0.000000 0.000000 0.000000 0.033055 0.000000 -0.002305
# 5 -0.009341 0.000684 -0.014839 0.000000 0.050814 0.000000
# 6 0.000000 0.000000 0.000000 -0.002305 0.000000 0.031379
#
#
# Mechanical properties :
#
#
# Convention : Reuss Voigt Hill
#
# Bulk Modulus (GPa) = 28.72485 53.32211 41.02348
# Shear Modulus (GPa) = 25.65299 33.85275 29.75287
#
# Velocity S-wave (km/s) = 3.79730 4.36217 4.08950
# Velocity P-wave (km/s) = 5.94744 7.43932 6.73482
#
# Compressibility (1/GPa) = 0.03481306
#
# Stress axis : x y z
#
# Youngs Moduli (GPa) = 100.19561 38.18149 65.51377
#
# Poissons Ratio (x) = 0.15636 -0.06363
# Poissons Ratio (y) = 0.41033 0.33981
# Poissons Ratio (z) = -0.09731 0.19804
#
# Static dielectric constant tensor:
#      x y z
#    x 1.644330 0.000000 0.008730 
#    y 0.000000 1.600230 0.000000 
#    z 0.008730 0.000000 1.624510 
# 
# From -- ./inp_files/359838.got.cif
#   From: 2010.05.17/outbox.ucp.g08.bks.cvg/sg12_180_cif.got.tgz:359838.got - 2010.06.11 11:47:21.
