data_PCOD9223363
_publ_section_title
;
Structure prediction by ZEFSAII (Michael W. Deem and Ramdas Pophale) SiO2 
 PCOD9223363
Probable space group: C 2/M
;
_chemical_formula_sum "Si O2"
_cell_formula_units_Z 32
_cell_length_a 15.000000
_cell_length_b 9.000000
_cell_length_c 27.000000
_cell_angle_alpha 90.000000
_cell_angle_beta 100.000000
_cell_angle_gamma 90.000000
_cell_volume 3589.624260
_symmetry_space_group_name_H-M "C 2/M"
_symmetry_group_IT_number 12
_symmetry_cell_setting 'monoclinic'
loop_
_space_group_symop_operation_xyz
x,y,z
-x,y,-z
-x,-y,-z
x,-y,z
1/2+x,1/2+y,z
1/2-x,1/2+y,-z
1/2-x,1/2-y,-z
1/2+x,1/2-y,z
loop_
_atom_site_type_symbol
_atom_site_label
_atom_site_fract_x
_atom_site_fract_y
_atom_site_fract_z
Si Si1 0.258394 0.824170 0.764833
Si Si2 0.286276 0.179981 0.576420
Si Si3 0.865264 0.320504 0.871713
Si Si4 0.268258 0.678610 0.054998
Si Si5 0.610555 0.823250 0.315322
Si Si6 0.933025 0.319841 0.132416
Si Si7 0.928313 0.678969 0.248905
Si Si8 0.106276 0.179565 0.505212
O O1 0.303598 0.766959 0.820022
O O2 0.330318 0.807262 0.728259
O O3 0.167263 0.740003 0.742828
O O4 0.238602 0.000000 0.768793
O O5 0.332218 0.232794 0.632149
O O6 0.179869 0.217622 0.555823
O O7 0.347242 0.247564 0.538376
O O8 0.290725 0.000000 0.574946
O O9 0.867193 0.500000 0.866680
O O10 0.817129 0.285147 0.918183
O O11 0.968607 0.272518 0.877929
O O12 0.276616 0.500000 0.052000
O O13 0.354634 0.744211 0.092690
O O14 0.250000 0.750000 0.000000
O O15 0.511426 0.763986 0.290655
O O16 0.599119 0.000000 0.323143
O O17 0.923936 0.500000 0.128075
O O18 0.933415 0.280072 0.190943
O O19 0.930891 0.500000 0.250477
O O20 0.000000 0.224446 0.500000
O O21 0.106623 0.000000 0.500486
#
# Coordination Sequence:
#
# PCOD9223363 Si02
#       8
#     8   8   8   8   8   8   8   8
#     4  10  18  33  55  78 103 138 178 210 250 313
#     4   9  18  33  52  76 104 139 179 218 261 313
#     4   9  18  34  57  78 101 137 175 205 247 315
#     4  11  23  39  57  80 108 136 173 219 264 310
#     4   9  18  33  53  76 107 142 176 212 256 317
#     4  10  19  35  58  79 101 135 174 211 254 307
#     4  10  19  32  52  78 105 134 169 213 260 304
#     4   9  18  33  53  75 104 139 178 222 271 315
#
# _framework density 8.9145819999999993
#
# number of rings (size 3 to 8) (size 9 to 14) (size 15 to 20)
#    0.000    2.375    2.500    0.375    0.000    1.750 
#    0.000    7.500    0.000    0.000    0.000    0.000 
#    0.000    0.000    0.000    0.000    0.000    0.000 
#
# Total GULP energy -178294.711290 kJ/mol
# GULP energy per Si atom -5571.709728 kJ/mol
# Density = 0.889429 g / cm^3
# Si number density = 8.914582 Si / 1000 Ang^3
#
#
#
# Elastic Constant Matrix: (Units=GPa)
#
#
# Indices 1 2 3 4 5 6 
#
# 1 77.3070 2.9701 -13.8402 0.0000 29.5684 0.0000
# 2 2.9701 6.8370 6.5793 0.0000 5.9263 0.0000
# 3 -13.8402 6.5793 49.7689 0.0000 17.6670 0.0000
# 4 0.0000 0.0000 0.0000 20.9084 0.0000 0.6296
# 5 29.5684 5.9263 17.6670 0.0000 14.0644 0.0000
# 6 0.0000 0.0000 0.0000 0.6296 0.0000 24.3761
#
#
#
# Elastic Compliance Matrix: (Units=1/GPa)
#
#
# Indices 1 2 3 4 5 6 
#
# 1 -0.009292 -0.023890 -0.017928 0.000000 0.052122 0.000000
# 2 -0.023890 0.170449 -0.038821 0.000000 0.027170 0.000000
# 3 -0.017928 -0.038821 0.001900 0.000000 0.051662 0.000000
# 4 0.000000 0.000000 0.000000 0.047865 0.000000 -0.001236
# 5 0.052122 0.027170 0.051662 0.000000 -0.114821 0.000000
# 6 0.000000 0.000000 0.000000 -0.001236 0.000000 0.041056
#
#
# Mechanical properties :
#
#
# Convention : Reuss Voigt Hill
#
# Bulk Modulus (GPa) = 562.34155 13.92569 288.13362
# Shear Modulus (GPa) = 16.72075 21.08334 18.90204
#
# Velocity S-wave (km/s) = 3.06573 3.44251 3.25957
# Velocity P-wave (km/s) = 18.12793 4.86094 13.27122
#
# Compressibility (1/GPa) = 0.00177828
#
# Stress axis : x y z
#
# Youngs Moduli (GPa) = -107.62049 5.86685 526.21332
#
# Poissons Ratio (x) = 0.14016 9.43394
# Poissons Ratio (y) = -2.57110 20.42827
# Poissons Ratio (z) = -1.92942 0.22776
#
# Static dielectric constant tensor:
#      x y z
#    x 1.613070 0.000000 0.013770 
#    y 0.000000 1.601290 0.000000 
#    z 0.013770 0.000000 1.629650 
# 
# From -- ./inp_files/359818.got.cif
#   From: 2010.05.17/outbox.ucp.g08.bks.cvg/sg12_180_cif.got.tgz:359818.got - 2010.06.11 11:47:21.
