data_PCOD9223001
_publ_section_title
;
Structure prediction by ZEFSAII (Michael W. Deem and Ramdas Pophale) SiO2 
 PCOD9223001
Probable space group: C 2/M
;
_chemical_formula_sum "Si O2"
_cell_formula_units_Z 48
_cell_length_a 17.918396
_cell_length_b 10.076770
_cell_length_c 24.438988
_cell_angle_alpha 90.000000
_cell_angle_beta 146.407793
_cell_angle_gamma 90.000000
_cell_volume 2441.446977
_symmetry_space_group_name_H-M "C 2/M"
_symmetry_group_IT_number 12
_symmetry_cell_setting 'monoclinic'
loop_
_space_group_symop_operation_xyz
x,y,z
-x,y,-z
-x,-y,-z
x,-y,z
1/2+x,1/2+y,z
1/2-x,1/2+y,-z
1/2-x,1/2-y,-z
1/2+x,1/2-y,z
loop_
_atom_site_type_symbol
_atom_site_label
_atom_site_fract_x
_atom_site_fract_y
_atom_site_fract_z
Si Si1 0.265883 0.650880 0.559705
Si Si2 0.915398 0.152621 0.222387
Si Si3 0.185639 0.848509 0.724968
Si Si4 0.002844 0.350386 0.938335
Si Si5 0.285692 0.152535 0.350433
Si Si6 0.040567 0.845790 0.869163
O O1 0.224190 0.500000 0.520312
O O2 0.250000 0.750000 0.500000
O O3 0.424824 0.648224 0.670037
O O4 0.196467 0.689107 0.574872
O O5 0.853915 0.211595 0.240066
O O6 0.897459 0.206526 0.150245
O O7 0.866164 0.000000 0.190868
O O8 0.347232 0.858727 0.824990
O O9 0.148883 0.753923 0.652244
O O10 0.131035 0.000000 0.686859
O O11 0.059780 0.500000 0.970173
O O12 0.071114 0.246978 0.939222
O O13 0.000000 0.309056 0.000000
O O14 0.123086 0.153459 0.239636
O O15 0.330171 0.000000 0.369831
O O16 0.078975 0.000000 0.900705
#
# Coordination Sequence:
#
# PCOD9223001 Si02
#       6
#     8   8   8   8   8   8
#     4   9  17  30  47  65  86 111 140 175 212 250
#     4   8  15  29  47  65  84 109 143 179 210 242
#     4   9  16  28  47  65  82 111 147 175 204 249
#     4   9  17  28  42  63  90 114 137 172 215 252
#     4   8  15  28  44  62  85 111 138 172 212 249
#     4   8  14  27  46  62  79 109 146 176 203 246
#
# _framework density 19.660471999999999
#
# number of rings (size 3 to 8) (size 9 to 14) (size 15 to 20)
#    0.000    3.500    0.000    2.000    0.000    1.000 
#    0.000    5.833    0.000    5.000    0.000    0.000 
#    0.000    0.000    0.000    0.000    0.000    0.000 
#
# Total GULP energy -133639.738748 kJ/mol
# GULP energy per Si atom -5568.322448 kJ/mol
# Density = 1.961572 g / cm^3
# Si number density = 19.660472 Si / 1000 Ang^3
#
#
#
# Elastic Constant Matrix: (Units=GPa)
#
#
# Indices 1 2 3 4 5 6 
#
# 1 125.4447 81.3252 39.5844 0.0000 -58.1441 0.0000
# 2 81.3252 88.3808 47.9791 0.0000 -55.3483 0.0000
# 3 39.5844 47.9791 59.0441 0.0000 -35.1871 0.0000
# 4 0.0000 0.0000 0.0000 15.7677 0.0000 -17.3818
# 5 -58.1441 -55.3483 -35.1871 0.0000 55.8777 0.0000
# 6 0.0000 0.0000 0.0000 -17.3818 0.0000 22.5385
#
#
#
# Elastic Compliance Matrix: (Units=1/GPa)
#
#
# Indices 1 2 3 4 5 6 
#
# 1 0.021320 -0.016736 0.004238 0.000000 0.008277 0.000000
# 2 -0.016736 0.047755 -0.015645 0.000000 0.020036 0.000000
# 3 0.004238 -0.015645 0.032336 -0.000001 0.009276 -0.000001
# 4 0.000000 0.000000 -0.000001 0.423237 -0.000001 0.326403
# 5 0.008277 0.020036 0.009276 -0.000001 0.052196 -0.000001
# 6 0.000000 0.000000 -0.000001 0.326403 -0.000001 0.296093
#
#
# Mechanical properties :
#
#
# Convention : Reuss Voigt Hill
#
# Bulk Modulus (GPa) = 22.15995 67.84967 45.00481
# Shear Modulus (GPa) = 5.29512 25.76882 15.53197
#
# Velocity S-wave (km/s) = 1.64290 3.62428 2.81376
# Velocity P-wave (km/s) = 3.85936 7.21800 5.78766
#
# Compressibility (1/GPa) = 0.04512645
#
# Stress axis : x y z
#
# Youngs Moduli (GPa) = 46.90367 20.94000 30.92504
#
# Poissons Ratio (x) = 0.35045 -0.13107
# Poissons Ratio (y) = 0.78497 0.48383
# Poissons Ratio (z) = -0.19880 0.32761
#
# Static dielectric constant tensor:
#      x y z
#    x 1.736520 0.000000 0.018530 
#    y 0.000000 1.683500 0.000000 
#    z 0.018530 0.000000 1.716320 
# 
# From -- ./inp_files/212569.got.cif
#   From: 2010.05.17/outbox.cif.g08.bks.cpg/sg12_107_cif.got.tgz:212569.got - 2010.06.03 13:09:07.
