data_PCOD9223453
_publ_section_title
;
Structure prediction by ZEFSAII (Michael W. Deem and Ramdas Pophale) SiO2 
 PCOD9223453
Probable space group: C 2/M
;
_chemical_formula_sum "Si O2"
_cell_formula_units_Z 32
_cell_length_a 21.000000
_cell_length_b 9.000000
_cell_length_c 21.000000
_cell_angle_alpha 90.000000
_cell_angle_beta 80.000000
_cell_angle_gamma 90.000000
_cell_volume 3908.701972
_symmetry_space_group_name_H-M "C 2/M"
_symmetry_group_IT_number 12
_symmetry_cell_setting 'monoclinic'
loop_
_space_group_symop_operation_xyz
x,y,z
-x,y,-z
-x,-y,-z
x,-y,z
1/2+x,1/2+y,z
1/2-x,1/2+y,-z
1/2-x,1/2-y,-z
1/2+x,1/2-y,z
loop_
_atom_site_type_symbol
_atom_site_label
_atom_site_fract_x
_atom_site_fract_y
_atom_site_fract_z
Si Si1 0.634244 0.679698 0.316928
Si Si2 0.739800 0.821145 0.071343
Si Si3 0.406643 0.678197 0.337769
Si Si4 0.614544 0.179106 0.179718
Si Si5 0.716865 0.822038 0.697389
Si Si6 0.523146 0.322425 0.809401
Si Si7 0.160981 0.821121 0.835245
Si Si8 0.489404 0.680783 0.575198
O O1 0.629668 0.500000 0.310069
O O2 0.625155 0.752662 0.248692
O O3 0.707456 0.714503 0.327545
O O4 0.577215 0.724797 0.376439
O O5 0.673734 0.778918 0.121446
O O6 0.800366 0.783804 0.107271
O O7 0.738184 0.000000 0.064570
O O8 0.750000 0.750000 0.000000
O O9 0.397077 0.500000 0.341762
O O10 0.337031 0.754896 0.340868
O O11 0.449211 0.708241 0.266659
O O12 0.449867 0.724328 0.390655
O O13 0.544312 0.238040 0.168963
O O14 0.614152 0.000000 0.184311
O O15 0.696686 0.756760 0.769823
O O16 0.710935 0.000000 0.699103
O O17 0.511558 0.500000 0.815834
O O18 0.584447 0.284005 0.844128
O O19 0.165467 0.000000 0.824996
O O20 0.500000 0.730160 0.500000
O O21 0.488243 0.500000 0.574280
#
# Coordination Sequence:
#
# PCOD9223453 Si02
#       8
#     8   8   8   8   8   8   8   8
#     4  10  19  33  52  77 104 133 176 219 257 304
#     4  10  22  38  55  77 105 139 175 210 257 310
#     4   9  17  31  51  74 103 137 173 214 257 306
#     4  11  21  33  53  80 107 134 169 216 262 306
#     4  10  19  29  49  78 105 132 167 217 264 305
#     4   9  17  31  53  77 102 133 172 216 255 300
#     4   9  18  35  54  74 104 138 173 211 251 305
#     4   9  17  32  54  76 100 137 183 220 252 303
#
# _framework density 8.1868610000000004
#
# number of rings (size 3 to 8) (size 9 to 14) (size 15 to 20)
#    0.000    2.375    2.500    1.500    0.000    4.000 
#    0.000    1.250    0.000    5.250    0.000    0.000 
#    0.000    0.000    0.000    0.000    0.000    0.000 
#
# Total GULP energy -178366.293543 kJ/mol
# GULP energy per Si atom -5573.946673 kJ/mol
# Density = 0.816823 g / cm^3
# Si number density = 8.186861 Si / 1000 Ang^3
#
#
#
# Elastic Constant Matrix: (Units=GPa)
#
#
# Indices 1 2 3 4 5 6 
#
# 1 186.3112 44.1340 88.9220 0.0000 5.9594 0.0000
# 2 44.1340 30.9157 29.9357 0.0000 0.0303 0.0000
# 3 88.9220 29.9357 126.9805 0.0000 3.8432 0.0000
# 4 0.0000 0.0000 0.0000 21.1805 0.0000 1.2776
# 5 5.9594 0.0303 3.8432 0.0000 29.4987 0.0000
# 6 0.0000 0.0000 0.0000 1.2776 0.0000 32.2079
#
#
#
# Elastic Compliance Matrix: (Units=1/GPa)
#
#
# Indices 1 2 3 4 5 6 
#
# 1 0.009905 -0.009670 -0.004614 0.000000 -0.001390 0.000000
# 2 -0.009670 0.051401 -0.005425 0.000000 0.002608 0.000000
# 3 -0.004614 -0.005425 0.012406 0.000000 -0.000679 0.000000
# 4 0.000000 0.000000 0.000000 0.047327 0.000000 -0.001877
# 5 -0.001390 0.002608 -0.000679 0.000000 0.034266 0.000000
# 6 0.000000 0.000000 0.000000 -0.001877 0.000000 0.031123
#
#
# Mechanical properties :
#
#
# Convention : Reuss Voigt Hill
#
# Bulk Modulus (GPa) = 29.16031 74.46563 51.81297
# Shear Modulus (GPa) = 21.07231 28.65845 24.86538
#
# Velocity S-wave (km/s) = 3.59131 4.18816 3.90117
# Velocity P-wave (km/s) = 5.91985 8.30452 7.21144
#
# Compressibility (1/GPa) = 0.03429319
#
# Stress axis : x y z
#
# Youngs Moduli (GPa) = 100.96028 19.45471 80.60611
#
# Poissons Ratio (x) = 0.18813 0.37194
# Poissons Ratio (y) = 0.97632 0.43728
# Poissons Ratio (z) = 0.46587 0.10554
#
# Static dielectric constant tensor:
#      x y z
#    x 1.572590 0.000000 0.014390 
#    y 0.000000 1.549410 0.000000 
#    z 0.014390 0.000000 1.531690 
# 
# From -- ./inp_files/319130.got.cif
#   From: 2010.05.17/outbox.ucp.g08.bks.cvg/sg12_160_cif.got.tgz:319130.got - 2010.06.11 11:47:21.
