data_PCOD9223840
_publ_section_title
;
Structure prediction by ZEFSAII (Michael W. Deem and Ramdas Pophale) SiO2 
 PCOD9223840
Probable space group: C 2/M
;
_chemical_formula_sum "Si O2"
_cell_formula_units_Z 32
_cell_length_a 27.000000
_cell_length_b 9.000000
_cell_length_c 15.000000
_cell_angle_alpha 90.000000
_cell_angle_beta 110.000000
_cell_angle_gamma 90.000000
_cell_volume 3425.179603
_symmetry_space_group_name_H-M "C 2/M"
_symmetry_group_IT_number 12
_symmetry_cell_setting 'monoclinic'
loop_
_space_group_symop_operation_xyz
x,y,z
-x,y,-z
-x,-y,-z
x,-y,z
1/2+x,1/2+y,z
1/2-x,1/2+y,-z
1/2-x,1/2-y,-z
1/2+x,1/2-y,z
loop_
_atom_site_type_symbol
_atom_site_label
_atom_site_fract_x
_atom_site_fract_y
_atom_site_fract_z
Si Si1 0.616434 0.826483 0.175702
Si Si2 0.843987 0.825848 0.957545
Si Si3 0.345337 0.823330 0.280671
Si Si4 0.310576 0.673801 0.637518
Si Si5 0.097440 0.677840 0.850953
Si Si6 0.314998 0.175580 0.453797
Si Si7 0.758098 0.824471 0.102438
Si Si8 0.998648 0.676464 0.897976
O O1 0.612673 0.721063 0.086879
O O2 0.659442 0.770609 0.271253
O O3 0.558328 0.810832 0.180700
O O4 0.622956 0.000000 0.154435
O O5 0.797159 0.725160 0.890235
O O6 0.832213 0.000000 0.950036
O O7 0.860124 0.768698 0.064816
O O8 0.396375 0.799799 0.250467
O O9 0.345510 0.776789 0.383217
O O10 0.300957 0.742718 0.194882
O O11 0.333230 0.000000 0.273724
O O12 0.322703 0.500000 0.657690
O O13 0.325835 0.729765 0.548332
O O14 0.247359 0.691441 0.605986
O O15 0.106447 0.500000 0.872042
O O16 0.043225 0.731757 0.859354
O O17 0.324581 0.000000 0.477453
O O18 0.763841 0.000000 0.096391
O O19 0.750000 0.750000 0.000000
O O20 0.009837 0.500000 0.913970
O O21 0.000000 0.735344 0.000000
#
# Coordination Sequence:
#
# PCOD9223840 Si02
#       8
#     8   8   8   8   8   8   8   8
#     4  11  21  35  57  80 107 143 182 228 279 328
#     4  12  23  34  49  74 108 143 182 223 267 322
#     4  10  20  34  55  79 107 143 182 225 271 324
#     4  10  20  35  56  82 111 139 174 224 276 331
#     4  10  19  34  54  75 104 143 184 222 270 322
#     4   9  19  36  56  80 109 140 176 220 270 328
#     4  12  23  34  49  72 106 145 183 219 262 318
#     4   9  17  32  54  79 106 141 186 230 272 323
#
# _framework density 9.3425759999999993
#
# number of rings (size 3 to 8) (size 9 to 14) (size 15 to 20)
#    0.000    1.625    2.500    3.750    0.000    2.000 
#    0.000    1.875    0.000    0.750    0.000    5.250 
#    0.000    0.000    0.000    0.000    0.000    0.000 
#
# Total GULP energy -178239.863624 kJ/mol
# GULP energy per Si atom -5569.995738 kJ/mol
# Density = 0.932131 g / cm^3
# Si number density = 9.342576 Si / 1000 Ang^3
#
#
#
# Elastic Constant Matrix: (Units=GPa)
#
#
# Indices 1 2 3 4 5 6 
#
# 1 57.8288 4.5608 18.3128 0.0000 -23.4726 0.0000
# 2 4.5608 38.7051 16.0689 0.0000 -9.0189 0.0000
# 3 18.3128 16.0689 67.3326 0.0000 -27.8614 0.0000
# 4 0.0000 0.0000 0.0000 23.9062 0.0000 -4.8452
# 5 -23.4726 -9.0189 -27.8614 0.0000 25.7285 0.0000
# 6 0.0000 0.0000 0.0000 -4.8452 0.0000 4.3440
#
#
#
# Elastic Compliance Matrix: (Units=1/GPa)
#
#
# Indices 1 2 3 4 5 6 
#
# 1 0.028670 0.002048 0.005135 0.000000 0.032434 0.000000
# 2 0.002048 0.029153 -0.004553 0.000000 0.007157 0.000000
# 3 0.005135 -0.004553 0.028663 0.000000 0.034128 0.000000
# 4 0.000000 0.000000 0.000000 0.054048 0.000000 0.060285
# 5 0.032434 0.007157 0.034128 0.000000 0.107924 0.000000
# 6 0.000000 0.000000 0.000000 0.060285 0.000000 0.297445
#
#
# Mechanical properties :
#
#
# Convention : Reuss Voigt Hill
#
# Bulk Modulus (GPa) = 10.89969 26.86128 18.88049
# Shear Modulus (GPa) = 8.75309 19.12399 13.93854
#
# Velocity S-wave (km/s) = 2.16672 3.20267 2.73421
# Velocity P-wave (km/s) = 3.47931 5.29934 4.48267
#
# Compressibility (1/GPa) = 0.09174574
#
# Stress axis : x y z
#
# Youngs Moduli (GPa) = 34.87982 34.30183 34.88760
#
# Poissons Ratio (x) = -0.07024 -0.17914
# Poissons Ratio (y) = -0.07142 0.15883
# Poissons Ratio (z) = -0.17910 0.15616
#
# Static dielectric constant tensor:
#      x y z
#    x 1.849140 0.000000 -0.049370 
#    y 0.000000 1.643710 0.000000 
#    z -0.049370 0.000000 1.616920 
# 
# From -- ./inp_files/244227.got.cif
#   From: 2010.05.17/outbox.ucp.g08.bks.cvg/sg12_123_cif.got.tgz:244227.got - 2010.06.11 11:47:21.
