data_PCOD9223044
_publ_section_title
;
Structure prediction by ZEFSAII (Michael W. Deem and Ramdas Pophale) SiO2 
 PCOD9223044
Probable space group: C 2/M
;
_chemical_formula_sum "Si O2"
_cell_formula_units_Z 32
_cell_length_a 17.444472
_cell_length_b 13.332100
_cell_length_c 20.559681
_cell_angle_alpha 90.000000
_cell_angle_beta 18.185454
_cell_angle_gamma 90.000000
_cell_volume 1492.305750
_symmetry_space_group_name_H-M "C 2/M"
_symmetry_group_IT_number 12
_symmetry_cell_setting 'monoclinic'
loop_
_space_group_symop_operation_xyz
x,y,z
-x,y,-z
-x,-y,-z
x,-y,z
1/2+x,1/2+y,z
1/2-x,1/2+y,-z
1/2-x,1/2-y,-z
1/2+x,1/2-y,z
loop_
_atom_site_type_symbol
_atom_site_label
_atom_site_fract_x
_atom_site_fract_y
_atom_site_fract_z
Si Si1 0.591739 0.177087 0.056985
Si Si2 0.317696 0.740742 0.519973
Si Si3 0.018673 0.112774 0.159110
Si Si4 0.690619 0.386977 0.285074
O O1 0.386204 0.169833 0.280764
O O2 0.626374 0.298093 0.027025
O O3 0.453800 0.134908 0.105618
O O4 0.827302 0.123680 0.897581
O O5 0.250000 0.750000 0.500000
O O6 0.580259 0.694020 0.324305
O O7 0.255707 0.847163 0.604059
O O8 0.031232 0.000000 0.125239
O O9 0.500000 0.381050 0.500000
O O10 0.678432 0.500000 0.269310
#
# Coordination Sequence:
#
# PCOD9223044 Si02
#       4
#     8   8   8   8
#     4   8  17  32  50  70  94 129 167 203 233 281
#     4   9  18  31  46  74 104 125 153 201 250 293
#     4   9  17  31  50  70  96 129 167 199 239 290
#     4   9  16  29  50  73  95 124 165 203 239 281
#
# _framework density 21.443325999999999
#
# number of rings (size 3 to 8) (size 9 to 14) (size 15 to 20)
#    1.500    1.750    0.000    0.750    0.000    2.000 
#    0.000    3.750    0.000    3.000    0.000    1.750 
#    0.000    0.000    0.000    0.000    0.000    0.000 
#
# Total GULP energy -89080.787128 kJ/mol
# GULP energy per Si atom -5567.549196 kJ/mol
# Density = 2.139452 g / cm^3
# Si number density = 21.443326 Si / 1000 Ang^3
#
#
#
# Elastic Constant Matrix: (Units=GPa)
#
#
# Indices 1 2 3 4 5 6 
#
# 1 96.8169 30.1316 10.5985 -0.0229 -14.2158 -0.0017
# 2 30.1316 135.1960 25.7624 -0.0431 -20.4181 -0.0219
# 3 10.5985 25.7624 91.8960 -0.0995 -22.7511 -0.0354
# 4 -0.0229 -0.0431 -0.0995 26.1525 -0.0067 -3.1505
# 5 -14.2158 -20.4181 -22.7511 -0.0067 34.0771 -0.0062
# 6 -0.0017 -0.0219 -0.0354 -3.1505 -0.0062 16.9820
#
#
#
# Elastic Compliance Matrix: (Units=1/GPa)
#
#
# Indices 1 2 3 4 5 6 
#
# 1 0.011485 -0.002034 0.000156 0.000008 0.003676 0.000002
# 2 -0.002034 0.008622 -0.001334 0.000010 0.003427 0.000011
# 3 0.000156 -0.001334 0.013246 0.000055 0.008109 0.000039
# 4 0.000008 0.000010 0.000055 0.039112 0.000055 0.007256
# 5 0.003676 0.003427 0.008109 0.000055 0.038346 0.000046
# 6 0.000002 0.000011 0.000039 0.007256 0.000046 0.060232
#
#
# Mechanical properties :
#
#
# Convention : Reuss Voigt Hill
#
# Bulk Modulus (GPa) = 37.13711 50.76600 43.95155
# Shear Modulus (GPa) = 26.81802 32.60341 29.71071
#
# Velocity S-wave (km/s) = 3.54028 3.90352 3.72633
# Velocity P-wave (km/s) = 5.83676 6.63645 6.24941
#
# Compressibility (1/GPa) = 0.02692724
#
# Stress axis : x y z
#
# Youngs Moduli (GPa) = 87.07340 115.98563 75.49721
#
# Poissons Ratio (x) = 0.23593 -0.01177
# Poissons Ratio (y) = 0.17712 0.10072
# Poissons Ratio (z) = -0.01357 0.15473
#
# Static dielectric constant tensor:
#      x y z
#    x 1.832140 0.000000 0.082940 
#    y 0.000000 1.751950 0.000020 
#    z 0.082940 0.000020 1.915200 
# 
# From -- ./inp_files/166028.got.cif
#   From: 2010.05.17/outbox.cif.g08.bks.cpg/sg12_84_cif.got.tgz:166028.got - 2010.06.03 13:09:07.
