data_PCOD9223069
_publ_section_title
;
Structure prediction by ZEFSAII (Michael W. Deem and Ramdas Pophale) SiO2 
 PCOD9223069
Probable space group: C 2/M
;
_chemical_formula_sum "Si O2"
_cell_formula_units_Z 32
_cell_length_a 13.832884
_cell_length_b 22.640501
_cell_length_c 8.655624
_cell_angle_alpha 90.000000
_cell_angle_beta 157.040809
_cell_angle_gamma 90.000000
_cell_volume 1057.415595
_symmetry_space_group_name_H-M "C 2/M"
_symmetry_group_IT_number 12
_symmetry_cell_setting 'monoclinic'
loop_
_space_group_symop_operation_xyz
x,y,z
-x,y,-z
-x,-y,-z
x,-y,z
1/2+x,1/2+y,z
1/2-x,1/2+y,-z
1/2-x,1/2-y,-z
1/2+x,1/2-y,z
loop_
_atom_site_type_symbol
_atom_site_label
_atom_site_fract_x
_atom_site_fract_y
_atom_site_fract_z
Si Si1 0.430485 0.690486 0.610213
Si Si2 0.624802 0.431462 0.856280
Si Si3 0.036931 0.678497 0.298208
Si Si4 0.166101 0.435773 0.400336
O O1 0.651304 0.642957 0.912957
O O2 0.295917 0.686556 0.579438
O O3 0.486637 0.758662 0.656233
O O4 0.198958 0.676150 0.160871
O O5 0.500000 0.433193 0.500000
O O6 0.730599 0.500000 0.022187
O O7 0.435514 0.433282 0.723440
O O8 0.078023 0.609790 0.401024
O O9 0.126177 0.500000 0.402736
O O10 0.000000 0.429496 0.000000
#
# Coordination Sequence:
#
# PCOD9223069 Si02
#       4
#     8   8   8   8
#     4   9  16  26  42  61  87 112 139 171 210 250
#     4   9  16  26  41  63  87 109 138 177 214 244
#     4   9  15  26  42  64  84 110 141 173 209 248
#     4   9  14  24  43  64  83 105 141 181 208 239
#
# _framework density 30.262464000000001
#
# number of rings (size 3 to 8) (size 9 to 14) (size 15 to 20)
#    0.000    3.000    5.000    0.000    0.000    0.000 
#    0.000    1.250    0.000    1.500    0.000   10.500 
#    0.000    5.000    0.000    2.250    0.000    3.000 
#
# Total GULP energy -89080.281911 kJ/mol
# GULP energy per Si atom -5567.517619 kJ/mol
# Density = 3.019359 g / cm^3
# Si number density = 30.262464 Si / 1000 Ang^3
#
#
#
# Elastic Constant Matrix: (Units=GPa)
#
#
# Indices 1 2 3 4 5 6 
#
# 1 106.1042 13.2871 3.7552 -0.0004 8.8689 0.0001
# 2 13.2871 403.2617 15.2886 0.0001 1.7981 -0.0001
# 3 3.7552 15.2886 107.5990 0.0001 -19.5869 0.0001
# 4 -0.0004 0.0001 0.0001 50.3339 -0.0003 -27.4964
# 5 8.8689 1.7981 -19.5869 -0.0003 27.9310 0.0002
# 6 0.0001 -0.0001 0.0001 -27.4964 0.0002 26.2189
#
#
#
# Elastic Compliance Matrix: (Units=1/GPa)
#
#
# Indices 1 2 3 4 5 6 
#
# 1 0.009811 -0.000269 -0.000995 0.000000 -0.003796 0.000000
# 2 -0.000269 0.002506 -0.000413 0.000000 -0.000366 0.000000
# 3 -0.000995 -0.000413 0.010832 0.000000 0.007939 0.000000
# 4 0.000000 0.000000 0.000000 0.046517 0.000000 0.048783
# 5 -0.003796 -0.000366 0.007939 0.000000 0.042599 0.000000
# 6 0.000000 0.000000 0.000000 0.048783 0.000000 0.089301
#
#
# Mechanical properties :
#
#
# Convention : Reuss Voigt Hill
#
# Bulk Modulus (GPa) = 50.51793 75.73630 63.12711
# Shear Modulus (GPa) = 23.63865 59.87233 41.75549
#
# Velocity S-wave (km/s) = 2.79789 4.45279 3.71857
# Velocity P-wave (km/s) = 5.21220 7.17755 6.27233
#
# Compressibility (1/GPa) = 0.01979495
#
# Stress axis : x y z
#
# Youngs Moduli (GPa) = 101.92808 399.05354 92.31566
#
# Poissons Ratio (x) = 0.10719 0.09187
# Poissons Ratio (y) = 0.02738 0.03815
# Poissons Ratio (z) = 0.10144 0.16492
#
# Static dielectric constant tensor:
#      x y z
#    x 2.484960 0.000000 -0.011390 
#    y 0.000000 2.571510 0.000000 
#    z -0.011390 0.000000 2.485530 
# 
# From -- ./inp_files/47755.got.cif
#   From: 2010.05.17/outbox.cif.g08.bks.cpg/sg12_24_cif.got.tgz:47755.got - 2010.06.03 13:09:07.
