data_PCOD9223616
_publ_section_title
;
Structure prediction by ZEFSAII (Michael W. Deem and Ramdas Pophale) SiO2 
 PCOD9223616
Probable space group: C 2/M
;
_chemical_formula_sum "Si O2"
_cell_formula_units_Z 28
_cell_length_a 18.000000
_cell_length_b 9.000000
_cell_length_c 24.000000
_cell_angle_alpha 90.000000
_cell_angle_beta 130.000000
_cell_angle_gamma 90.000000
_cell_volume 2978.380795
_symmetry_space_group_name_H-M "C 2/M"
_symmetry_group_IT_number 12
_symmetry_cell_setting 'monoclinic'
loop_
_space_group_symop_operation_xyz
x,y,z
-x,y,-z
-x,-y,-z
x,-y,z
1/2+x,1/2+y,z
1/2-x,1/2+y,-z
1/2-x,1/2-y,-z
1/2+x,1/2-y,z
loop_
_atom_site_type_symbol
_atom_site_label
_atom_site_fract_x
_atom_site_fract_y
_atom_site_fract_z
Si Si1 0.611742 0.321778 0.807206
Si Si2 0.445552 0.822853 0.804802
Si Si3 0.496076 0.330710 0.057015
Si Si4 0.462329 0.321127 0.645897
Si Si5 0.201608 0.321660 0.356524
Si Si6 0.233889 0.834117 0.049421
Si Si7 0.586479 0.318715 0.502484
O O1 0.616992 0.500000 0.815148
O O2 0.530940 0.257940 0.811063
O O3 0.565557 0.283997 0.724524
O O4 0.713424 0.250774 0.874613
O O5 0.454049 0.758640 0.870237
O O6 0.342127 0.790585 0.725716
O O7 0.460657 0.000000 0.810456
O O8 0.536850 0.500000 0.074046
O O9 0.500000 0.250764 0.000000
O O10 0.381200 0.345171 0.006916
O O11 0.455037 0.500000 0.644664
O O12 0.377055 0.250996 0.641088
O O13 0.441738 0.272563 0.573280
O O14 0.199651 0.500000 0.362626
O O15 0.308876 0.269406 0.424435
O O16 0.275927 0.000000 0.068279
O O17 0.250000 0.750000 0.000000
O O18 0.500000 0.268800 0.500000
O O19 0.588396 0.500000 0.503923
#
# Coordination Sequence:
#
# PCOD9223616 Si02
#       7
#     8   8   8   8   8   8   8
#     4  10  19  32  51  79 108 135 173 218 262 307
#     4  10  19  32  52  79 106 134 173 219 265 307
#     4  10  22  39  55  73 102 141 178 211 257 317
#     4   9  18  32  53  79 102 135 176 211 253 305
#     4   9  18  32  53  80 103 132 172 215 260 303
#     4  11  21  34  56  80 104 136 176 217 260 309
#     4   9  17  32  53  76 106 139 171 208 255 309
#
# _framework density 9.4010809999999996
#
# number of rings (size 3 to 8) (size 9 to 14) (size 15 to 20)
#    0.000    2.286    1.429    1.714    0.000    2.000 
#    2.571    0.000    0.000    1.714    0.000    0.000 
#    0.000    0.000    0.000    0.000    0.000    0.000 
#
# Total GULP energy -155911.043536 kJ/mol
# GULP energy per Si atom -5568.251555 kJ/mol
# Density = 0.937968 g / cm^3
# Si number density = 9.401081 Si / 1000 Ang^3
#
#
#
# Elastic Constant Matrix: (Units=GPa)
#
#
# Indices 1 2 3 4 5 6 
#
# 1 37.0119 12.7461 52.1920 0.0000 -14.7566 0.0000
# 2 12.7461 46.7476 52.6562 0.0000 -2.1310 0.0000
# 3 52.1920 52.6562 205.1889 0.0000 -14.0397 0.0000
# 4 0.0000 0.0000 0.0000 21.1951 0.0000 0.9302
# 5 -14.7566 -2.1310 -14.0397 0.0000 17.0905 0.0000
# 6 0.0000 0.0000 0.0000 0.9302 0.0000 9.3815
#
#
#
# Elastic Compliance Matrix: (Units=1/GPa)
#
#
# Indices 1 2 3 4 5 6 
#
# 1 0.062596 -0.000706 -0.012766 0.000000 0.043473 0.000000
# 2 -0.000706 0.030219 -0.007798 0.000000 -0.003247 0.000000
# 3 -0.012766 -0.007798 0.009855 0.000000 -0.003899 0.000000
# 4 0.000000 0.000000 0.000000 0.047387 0.000000 -0.004699
# 5 0.043473 -0.003247 -0.003899 0.000000 0.092440 0.000000
# 6 0.000000 0.000000 0.000000 -0.004699 0.000000 0.107059
#
#
# Mechanical properties :
#
#
# Convention : Reuss Voigt Hill
#
# Bulk Modulus (GPa) = 16.63035 58.23745 37.43390
# Shear Modulus (GPa) = 12.13182 20.95700 16.54441
#
# Velocity S-wave (km/s) = 2.54290 3.34219 2.96956
# Velocity P-wave (km/s) = 4.18162 6.77752 5.63119
#
# Compressibility (1/GPa) = 0.06013102
#
# Stress axis : x y z
#
# Youngs Moduli (GPa) = 15.97540 33.09174 101.47076
#
# Poissons Ratio (x) = 0.02335 1.29542
# Poissons Ratio (y) = 0.01127 0.79123
# Poissons Ratio (z) = 0.20395 0.25804
#
# Static dielectric constant tensor:
#      x y z
#    x 1.636750 0.000000 -0.022090 
#    y 0.000000 1.661810 0.000000 
#    z -0.022090 0.000000 1.671910 
# 
# From -- ./inp_files/342485.got.cif
#   From: 2010.05.17/outbox.ucp.g08.bks.cvg/sg12_172_cif.got.tgz:342485.got - 2010.06.11 11:47:21.
