data_PCOD9223295
_publ_section_title
;
Structure prediction by ZEFSAII (Michael W. Deem and Ramdas Pophale) SiO2 
 PCOD9223295
Probable space group: C 2/M
;
_chemical_formula_sum "Si O2"
_cell_formula_units_Z 32
_cell_length_a 15.000000
_cell_length_b 9.000000
_cell_length_c 24.000000
_cell_angle_alpha 90.000000
_cell_angle_beta 90.000000
_cell_angle_gamma 90.000000
_cell_volume 3240.000000
_symmetry_space_group_name_H-M "C 2/M"
_symmetry_group_IT_number 12
_symmetry_cell_setting 'monoclinic'
loop_
_space_group_symop_operation_xyz
x,y,z
-x,y,-z
-x,-y,-z
x,-y,z
1/2+x,1/2+y,z
1/2-x,1/2+y,-z
1/2-x,1/2-y,-z
1/2+x,1/2-y,z
loop_
_atom_site_type_symbol
_atom_site_label
_atom_site_fract_x
_atom_site_fract_y
_atom_site_fract_z
Si Si1 0.249296 0.320944 0.686566
Si Si2 0.154701 0.321459 0.988873
Si Si3 0.915296 0.680540 0.131387
Si Si4 0.846325 0.322791 0.489478
Si Si5 0.404580 0.674271 0.374339
Si Si6 0.600701 0.325118 0.401389
Si Si7 0.256620 0.678362 0.809608
Si Si8 0.105182 0.677987 0.110305
O O1 0.241202 0.500000 0.686179
O O2 0.155037 0.248216 0.672851
O O3 0.316654 0.279911 0.637088
O O4 0.283116 0.275308 0.747539
O O5 0.163211 0.500000 0.985616
O O6 0.116588 0.269753 0.929898
O O7 0.250000 0.250000 0.000000
O O8 0.098542 0.288586 0.044503
O O9 0.917307 0.500000 0.129459
O O10 0.844973 0.723366 0.177911
O O11 0.015487 0.730160 0.140154
O O12 0.840472 0.500000 0.486140
O O13 0.750000 0.250000 0.500000
O O14 0.882043 0.255894 0.432170
O O15 0.903147 0.270770 0.542720
O O16 0.382867 0.500000 0.379589
O O17 0.510128 0.688693 0.366733
O O18 0.610892 0.500000 0.416768
O O19 0.262806 0.500000 0.812895
O O20 0.313421 0.745724 0.859318
O O21 0.114630 0.500000 0.114954
#
# Coordination Sequence:
#
# PCOD9223295 Si02
#       8
#     8   8   8   8   8   8   8   8
#     4  10  22  40  60  81 111 153 194 234 282 336
#     4  10  18  31  54  80 109 143 181 223 277 340
#     4   9  18  34  55  79 111 147 183 226 280 340
#     4  12  23  37  61  91 121 152 188 231 283 341
#     4  11  23  39  61  88 117 152 191 234 285 336
#     4  10  22  40  60  85 119 154 189 232 285 339
#     4  10  21  38  58  80 109 148 191 234 283 329
#     4  10  20  34  55  82 109 144 186 229 280 337
#
# _framework density 9.8765429999999999
#
# number of rings (size 3 to 8) (size 9 to 14) (size 15 to 20)
#    0.000    1.750    2.500    2.250    0.000    5.500 
#    0.000    1.250    0.000    1.500    0.000    0.000 
#    0.000    0.000    0.000    0.000    0.000    0.000 
#
# Total GULP energy -178573.701752 kJ/mol
# GULP energy per Si atom -5580.428180 kJ/mol
# Density = 0.985406 g / cm^3
# Si number density = 9.876543 Si / 1000 Ang^3
#
#
#
# Elastic Constant Matrix: (Units=GPa)
#
#
# Indices 1 2 3 4 5 6 
#
# 1 58.0079 5.8410 -3.5532 0.0000 -4.5134 0.0000
# 2 5.8410 15.4134 15.5580 0.0000 -1.5555 0.0000
# 3 -3.5532 15.5580 66.0760 0.0000 0.6107 0.0000
# 4 0.0000 0.0000 0.0000 21.3148 0.0000 5.8262
# 5 -4.5134 -1.5555 0.6107 0.0000 13.1820 0.0000
# 6 0.0000 0.0000 0.0000 5.8262 0.0000 22.2913
#
#
#
# Elastic Compliance Matrix: (Units=1/GPa)
#
#
# Indices 1 2 3 4 5 6 
#
# 1 0.018844 -0.009969 0.003313 0.000000 0.005122 0.000000
# 2 -0.009969 0.091996 -0.022275 0.000000 0.008474 0.000000
# 3 0.003313 -0.022275 0.020580 0.000000 -0.002447 0.000000
# 4 0.000000 0.000000 0.000000 0.050525 0.000000 -0.013206
# 5 0.005122 0.008474 -0.002447 0.000000 0.078728 0.000000
# 6 0.000000 0.000000 0.000000 -0.013206 0.000000 0.048312
#
#
# Mechanical properties :
#
#
# Convention : Reuss Voigt Hill
#
# Bulk Modulus (GPa) = 13.59461 19.46543 16.53002
# Shear Modulus (GPa) = 12.77573 19.46772 16.12172
#
# Velocity S-wave (km/s) = 2.54593 3.14276 2.85995
# Velocity P-wave (km/s) = 3.94202 4.80052 4.39230
#
# Compressibility (1/GPa) = 0.07355857
#
# Stress axis : x y z
#
# Youngs Moduli (GPa) = 53.06643 10.87002 48.59137
#
# Poissons Ratio (x) = 0.10836 -0.16099
# Poissons Ratio (y) = 0.52899 1.08240
# Poissons Ratio (z) = -0.17582 0.24214
#
# Static dielectric constant tensor:
#      x y z
#    x 1.724540 0.000000 -0.015650 
#    y 0.000000 1.659370 0.000000 
#    z -0.015650 0.000000 1.691710 
# 
# From -- ./inp_files/338863.got.cif
#   From: 2010.05.17/outbox.ucp.g08.bks.cvg/sg12_170_cif.got.tgz:338863.got - 2010.06.11 11:47:21.
