data_PCOD9223219
_publ_section_title
;
Structure prediction by ZEFSAII (Michael W. Deem and Ramdas Pophale) SiO2 
 PCOD9223219
Probable space group: C 2/M
;
_chemical_formula_sum "Si O2"
_cell_formula_units_Z 32
_cell_length_a 30.000000
_cell_length_b 9.000000
_cell_length_c 15.000000
_cell_angle_alpha 90.000000
_cell_angle_beta 50.000000
_cell_angle_gamma 90.000000
_cell_volume 3102.479995
_symmetry_space_group_name_H-M "C 2/M"
_symmetry_group_IT_number 12
_symmetry_cell_setting 'monoclinic'
loop_
_space_group_symop_operation_xyz
x,y,z
-x,y,-z
-x,-y,-z
x,-y,z
1/2+x,1/2+y,z
1/2-x,1/2+y,-z
1/2-x,1/2-y,-z
1/2+x,1/2-y,z
loop_
_atom_site_type_symbol
_atom_site_label
_atom_site_fract_x
_atom_site_fract_y
_atom_site_fract_z
Si Si1 0.747987 0.173191 0.851996
Si Si2 0.373675 0.828938 0.908347
Si Si3 0.042251 0.328825 0.760629
Si Si4 0.368247 0.174776 0.718635
Si Si5 0.854643 0.669937 0.238613
Si Si6 0.107070 0.680025 0.509870
Si Si7 0.934745 0.826378 0.985816
Si Si8 0.258034 0.822902 0.652093
O O1 0.810967 0.225789 0.801842
O O2 0.738243 0.273476 0.777094
O O3 0.749929 0.000000 0.824051
O O4 0.695888 0.189697 0.989479
O O5 0.397220 0.814843 0.777841
O O6 0.402269 0.709728 0.935317
O O7 0.385320 0.000000 0.922937
O O8 0.021375 0.500000 0.780263
O O9 0.104910 0.331675 0.726995
O O10 0.057901 0.265942 0.642271
O O11 0.997970 0.243769 0.882928
O O12 0.400709 0.215593 0.585239
O O13 0.350937 0.000000 0.730441
O O14 0.844101 0.500000 0.223359
O O15 0.793116 0.747049 0.338272
O O16 0.894593 0.749172 0.112301
O O17 0.105699 0.500000 0.519532
O O18 0.174341 0.725157 0.445181
O O19 0.939659 0.000000 0.998676
O O20 0.256137 0.000000 0.645190
#
# Coordination Sequence:
#
# PCOD9223219 Si02
#       8
#     8   8   8   8   8   8   8   8
#     4  10  18  29  49  79 116 152 185 221 272 330
#     4  10  20  34  54  81 113 149 186 225 274 333
#     4  10  22  41  62  80 107 150 191 231 277 333
#     4   9  18  33  55  82 113 148 186 226 270 325
#     4  11  22  37  59  86 113 144 184 228 284 342
#     4   8  17  36  59  83 113 149 189 226 269 325
#     4  12  25  39  58  83 112 145 185 237 287 330
#     4  10  19  33  56  85 117 150 184 227 275 326
#
# _framework density 10.314329000000001
#
# number of rings (size 3 to 8) (size 9 to 14) (size 15 to 20)
#    0.000    2.000    1.250    3.750    0.000    4.000 
#    0.000    3.750    0.000    3.750    0.000    0.000 
#    0.000    0.000    0.000    0.000    0.000    0.000 
#
# Total GULP energy -178434.933399 kJ/mol
# GULP energy per Si atom -5576.091669 kJ/mol
# Density = 1.029085 g / cm^3
# Si number density = 10.314329 Si / 1000 Ang^3
#
#
#
# Elastic Constant Matrix: (Units=GPa)
#
#
# Indices 1 2 3 4 5 6 
#
# 1 16.5872 3.4047 0.9738 0.0000 8.2911 0.0000
# 2 3.4047 63.1411 5.8214 0.0001 -2.2060 0.0000
# 3 0.9738 5.8214 54.9203 0.0000 0.7406 0.0000
# 4 0.0000 0.0001 0.0000 0.5710 0.0000 4.9418
# 5 8.2911 -2.2060 0.7406 0.0000 16.2727 0.0000
# 6 0.0000 0.0000 0.0000 4.9418 0.0000 15.6377
#
#
#
# Elastic Compliance Matrix: (Units=1/GPa)
#
#
# Indices 1 2 3 4 5 6 
#
# 1 0.083085 -0.005963 -0.000260 0.000000 -0.043129 0.000000
# 2 -0.005963 0.016504 -0.001716 0.000002 0.005354 -0.000001
# 3 -0.000260 -0.001716 0.018407 0.000000 -0.000938 0.000000
# 4 0.000000 0.000002 0.000000 -1.009311 0.000001 0.318963
# 5 -0.043129 0.005354 -0.000938 0.000001 0.084196 0.000000
# 6 0.000000 -0.000001 0.000000 0.318963 0.000000 -0.036851
#
#
# Mechanical properties :
#
#
# Convention : Reuss Voigt Hill
#
# Bulk Modulus (GPa) = 9.79243 17.22761 13.51002
# Shear Modulus (GPa) = -6.29681 14.79286 4.24802
#
# Velocity S-wave (km/s) = -1.74902 2.68078 1.43658
# Velocity P-wave (km/s) = 0.82373 4.23693 3.05206
#
# Compressibility (1/GPa) = 0.10211967
#
# Stress axis : x y z
#
# Youngs Moduli (GPa) = 12.03587 60.59022 54.32618
#
# Poissons Ratio (x) = 0.36130 0.01410
# Poissons Ratio (y) = 0.07177 0.09322
# Poissons Ratio (z) = 0.00312 0.10397
#
# Static dielectric constant tensor:
#      x y z
#    x 1.851440 0.000000 0.025190 
#    y 0.000000 1.721220 0.000000 
#    z 0.025190 0.000000 1.731770 
# 
# From -- ./inp_files/249768.got.cif
#   From: 2010.05.17/outbox.ucp.g08.bks.cvg/sg12_125_cif.got.tgz:249768.got - 2010.06.11 11:47:21.
