data_PCOD9223117
_publ_section_title
;
Structure prediction by ZEFSAII (Michael W. Deem and Ramdas Pophale) SiO2 
 PCOD9223117
Probable space group: C 2/M
;
_chemical_formula_sum "Si O2"
_cell_formula_units_Z 56
_cell_length_a 26.051532
_cell_length_b 13.513159
_cell_length_c 7.607264
_cell_angle_alpha 90.000000
_cell_angle_beta 106.978224
_cell_angle_gamma 90.000000
_cell_volume 2561.329124
_symmetry_space_group_name_H-M "C 2/M"
_symmetry_group_IT_number 12
_symmetry_cell_setting 'monoclinic'
loop_
_space_group_symop_operation_xyz
x,y,z
-x,y,-z
-x,-y,-z
x,-y,z
1/2+x,1/2+y,z
1/2-x,1/2+y,-z
1/2-x,1/2-y,-z
1/2+x,1/2-y,z
loop_
_atom_site_type_symbol
_atom_site_label
_atom_site_fract_x
_atom_site_fract_y
_atom_site_fract_z
Si Si1 0.060403 0.278098 0.768278
Si Si2 0.724995 0.891170 0.439171
Si Si3 0.665499 0.308946 0.868199
Si Si4 0.165499 0.191054 0.462798
Si Si5 0.775005 0.391170 0.989180
Si Si6 0.065115 0.500000 0.866928
Si Si7 0.060403 0.721902 0.352528
Si Si8 0.065115 0.500000 0.263303
O O1 0.106655 0.207135 0.889846
O O2 0.078340 0.393086 0.802209
O O3 0.057200 0.258367 0.557200
O O4 0.000000 0.268451 0.781574
O O5 0.786942 0.877376 0.561123
O O6 0.691825 0.800490 0.482224
O O7 0.723859 0.882301 0.223859
O O8 0.704927 0.000000 0.466297
O O9 0.658253 0.339410 0.658253
O O10 0.713058 0.377376 0.987238
O O11 0.691825 0.199510 0.901427
O O12 0.106655 0.207135 0.323464
O O13 0.795073 0.500000 0.056443
O O14 0.000000 0.500000 0.801912
O O15 0.085978 0.500000 0.085978
O O16 0.078340 0.606914 0.354472
#
# Coordination Sequence:
#
# PCOD9223117 Si02
#       8
#     8   8   8   8   8   4   8   4
#     4   9  17  29  44  62  87 118 148 178 215 262
#     4   9  18  32  48  66  89 116 146 185 228 262
#     4   9  18  31  47  67  89 116 150 182 217 266
#     4   9  18  31  47  67  89 116 150 182 217 266
#     4   9  18  32  48  66  89 116 146 185 228 262
#     4   9  17  27  39  59  87 117 147 177 212 255
#     4   9  17  29  44  62  87 118 148 178 215 262
#     4   9  17  27  39  59  87 117 147 177 212 255
#
# _framework density 21.86365
#
# number of rings (size 3 to 8) (size 9 to 14) (size 15 to 20)
#    0.000    3.000    0.000    0.429    2.000    3.429 
#    0.000    0.000    0.000    0.857    0.000    6.000 
#    0.000    0.000    0.000   21.429    0.000   22.286 
#
# Total GULP energy -156031.079162 kJ/mol
# GULP energy per Si atom -5572.538542 kJ/mol
# Density = 2.181389 g / cm^3
# Si number density = 21.863650 Si / 1000 Ang^3
#
#
#
# Elastic Constant Matrix: (Units=GPa)
#
#
# Indices 1 2 3 4 5 6 
#
# 1 73.3334 -11.8801 15.6142 0.0000 26.6281 0.0000
# 2 -11.8801 25.4084 -9.3664 0.0000 -1.3788 0.0000
# 3 15.6142 -9.3664 38.6728 0.0000 -7.6154 0.0000
# 4 0.0000 0.0000 0.0000 4.5132 0.0000 9.0016
# 5 26.6281 -1.3788 -7.6154 0.0000 23.3718 0.0000
# 6 0.0000 0.0000 0.0000 9.0016 0.0000 20.9234
#
#
#
# Elastic Compliance Matrix: (Units=1/GPa)
#
#
# Indices 1 2 3 4 5 6 
#
# 1 0.038342 0.006295 -0.024026 0.000000 -0.051141 0.000000
# 2 0.006295 0.045155 0.008022 0.000000 -0.001895 0.000000
# 3 -0.024026 0.008022 0.045932 0.000000 0.042813 0.000000
# 4 0.000000 0.000000 0.000000 1.561210 0.000000 -0.671659
# 5 -0.051141 -0.001895 0.042813 0.000000 0.114891 0.000000
# 6 0.000000 0.000000 0.000000 -0.671659 0.000000 0.336753
#
#
# Mechanical properties :
#
#
# Convention : Reuss Voigt Hill
#
# Bulk Modulus (GPa) = 9.09015 14.01664 11.55339
# Shear Modulus (GPa) = 2.27441 19.29813 10.78627
#
# Velocity S-wave (km/s) = 1.02104 2.97418 2.22354
# Velocity P-wave (km/s) = 2.35727 4.26839 3.44789
#
# Compressibility (1/GPa) = 0.11000922
#
# Stress axis : x y z
#
# Youngs Moduli (GPa) = 26.08132 22.14608 21.77124
#
# Poissons Ratio (x) = -0.13941 0.52308
# Poissons Ratio (y) = -0.16418 -0.17464
# Poissons Ratio (z) = 0.62664 -0.17765
#
# Static dielectric constant tensor:
#      x y z
#    x 1.894780 0.000000 0.028590 
#    y 0.000000 1.769950 0.000000 
#    z 0.028590 0.000000 1.842670 
# 
# From -- ./inp_files/111326.got.cif
#   From: 2010.05.17/outbox.cif.g08.bks.cpg/sg12_56_cif.got.tgz:111326.got - 2010.06.03 13:09:07.
