data_PCOD9223096
_publ_section_title
;
Structure prediction by ZEFSAII (Michael W. Deem and Ramdas Pophale) SiO2 
 PCOD9223096
Probable space group: C 2/M
;
_chemical_formula_sum "Si O2"
_cell_formula_units_Z 64
_cell_length_a 28.495926
_cell_length_b 20.592109
_cell_length_c 21.017154
_cell_angle_alpha 90.000000
_cell_angle_beta 165.629814
_cell_angle_gamma 90.000000
_cell_volume 3060.796981
_symmetry_space_group_name_H-M "C 2/M"
_symmetry_group_IT_number 12
_symmetry_cell_setting 'monoclinic'
loop_
_space_group_symop_operation_xyz
x,y,z
-x,y,-z
-x,-y,-z
x,-y,z
1/2+x,1/2+y,z
1/2-x,1/2+y,-z
1/2-x,1/2-y,-z
1/2+x,1/2-y,z
loop_
_atom_site_type_symbol
_atom_site_label
_atom_site_fract_x
_atom_site_fract_y
_atom_site_fract_z
Si Si1 0.237929 0.669828 0.022040
Si Si2 0.282459 0.827446 0.639956
Si Si3 0.768780 0.576146 0.508779
Si Si4 0.730717 0.927521 0.119426
Si Si5 0.281818 0.821889 0.420313
Si Si6 0.790434 0.306439 0.288663
Si Si7 0.719519 0.812673 0.862959
Si Si8 0.237301 0.340000 0.241985
O O1 0.309575 0.657173 0.044498
O O2 0.009598 0.671460 0.716224
O O3 0.297183 0.615397 0.148377
O O4 0.286028 0.738030 0.119198
O O5 0.213844 0.877474 0.496093
O O6 0.247861 0.749685 0.587404
O O7 0.211741 0.845890 0.617474
O O8 0.509663 0.834022 0.939684
O O9 0.706099 0.500000 0.428017
O O10 0.713461 0.618036 0.373487
O O11 0.999475 0.573784 0.813305
O O12 0.790310 0.896688 0.264234
O O13 0.794671 0.000000 0.196957
O O14 0.206217 0.820772 0.247977
O O15 0.695460 0.322153 0.095820
O O16 0.810947 0.228635 0.313399
O O17 0.002227 0.334629 0.569565
#
# Coordination Sequence:
#
# PCOD9223096 Si02
#       8
#     8   8   8   8   8   8   8   8
#     4   9  16  27  43  65  87 109 144 177 214 252
#     4   9  17  27  43  65  90 113 141 177 212 256
#     4   9  17  28  41  60  87 117 146 175 210 254
#     4   9  16  26  41  60  87 118 142 169 206 255
#     4   9  17  28  44  66  90 111 142 182 216 253
#     4   9  16  27  43  64  89 110 135 178 221 251
#     4   9  16  26  44  64  86 109 138 179 219 250
#     4   9  16  27  41  63  91 111 140 171 212 258
#
# _framework density 20.909587999999999
#
# number of rings (size 3 to 8) (size 9 to 14) (size 15 to 20)
#    0.000    3.000    1.250    0.375    0.000    0.500 
#    0.000    2.500    0.000    2.250    0.000   21.000 
#    0.000    0.000    0.000    0.000    0.000    0.000 
#
# Total GULP energy -178350.897733 kJ/mol
# GULP energy per Si atom -5573.465554 kJ/mol
# Density = 2.086200 g / cm^3
# Si number density = 20.909588 Si / 1000 Ang^3
#
#
#
# Elastic Constant Matrix: (Units=GPa)
#
#
# Indices 1 2 3 4 5 6 
#
# 1 120.1478 59.6601 31.7937 -0.0020 -34.2157 -0.0031
# 2 59.6601 112.5198 9.0130 -0.0005 -21.0678 0.0008
# 3 31.7937 9.0130 64.0476 -0.0019 -8.6307 0.0009
# 4 -0.0020 -0.0005 -0.0019 14.7270 -0.0028 4.0633
# 5 -34.2157 -21.0678 -8.6307 -0.0028 22.2212 -0.0015
# 6 -0.0031 0.0008 0.0009 4.0633 -0.0015 -10.3668
#
#
#
# Elastic Compliance Matrix: (Units=1/GPa)
#
#
# Indices 1 2 3 4 5 6 
#
# 1 0.018531 -0.005401 -0.005576 0.000008 0.021248 -0.000007
# 2 -0.005401 0.012381 0.001477 0.000000 0.003996 0.000002
# 3 -0.005576 0.001477 0.018155 0.000001 -0.000134 0.000004
# 4 0.000008 0.000000 0.000001 0.061276 0.000021 0.024017
# 5 0.021248 0.003996 -0.000134 0.000021 0.081457 -0.000010
# 6 -0.000007 0.000002 0.000004 0.024017 -0.000010 -0.087048
#
#
# Mechanical properties :
#
#
# Convention : Reuss Voigt Hill
#
# Bulk Modulus (GPa) = 33.25698 55.29431 44.27564
# Shear Modulus (GPa) = 37.37663 18.39950 27.88807
#
# Velocity S-wave (km/s) = 4.23251 2.96962 3.65601
# Velocity P-wave (km/s) = 6.31072 6.18547 6.24841
#
# Compressibility (1/GPa) = 0.03006888
#
# Stress axis : x y z
#
# Youngs Moduli (GPa) = 53.96263 80.77081 55.07997
#
# Poissons Ratio (x) = 0.43621 0.30712
# Poissons Ratio (y) = 0.29143 -0.08136
# Poissons Ratio (z) = 0.30089 -0.11931
#
# Static dielectric constant tensor:
#      x y z
#    x 1.815370 0.000000 0.012340 
#    y 0.000000 1.700210 0.000000 
#    z 0.012340 0.000000 1.842790 
# 
# From -- ./inp_files/317005.got.cif
#   From: 2010.05.17/outbox.cif.g08.bks.cpg/sg12_159_cif.got.tgz:317005.got - 2010.06.03 13:09:07.
