data_PCOD9223587
_publ_section_title
;
Structure prediction by ZEFSAII (Michael W. Deem and Ramdas Pophale) SiO2 
 PCOD9223587
Probable space group: C 2/M
;
_chemical_formula_sum "Si O2"
_cell_formula_units_Z 32
_cell_length_a 9.000000
_cell_length_b 21.000000
_cell_length_c 24.000000
_cell_angle_alpha 90.000000
_cell_angle_beta 50.000000
_cell_angle_gamma 90.000000
_cell_volume 3474.777594
_symmetry_space_group_name_H-M "C 2/M"
_symmetry_group_IT_number 12
_symmetry_cell_setting 'monoclinic'
loop_
_space_group_symop_operation_xyz
x,y,z
-x,y,-z
-x,-y,-z
x,-y,z
1/2+x,1/2+y,z
1/2-x,1/2+y,-z
1/2-x,1/2-y,-z
1/2+x,1/2-y,z
loop_
_atom_site_type_symbol
_atom_site_label
_atom_site_fract_x
_atom_site_fract_y
_atom_site_fract_z
Si Si1 0.919298 0.680883 0.081760
Si Si2 0.282970 0.305809 0.075709
Si Si3 0.260182 0.569389 0.337414
Si Si4 0.065531 0.693452 0.420704
Si Si5 0.794032 0.073599 0.149042
Si Si6 0.292154 0.320046 0.579794
Si Si7 0.889084 0.926778 0.830818
Si Si8 0.059581 0.569213 0.684173
O O1 0.777808 0.742667 0.115146
O O2 0.788635 0.621131 0.130685
O O3 0.106524 0.694422 0.074852
O O4 0.000000 0.667966 0.000000
O O5 0.288473 0.373411 0.104003
O O6 0.500000 0.299113 0.000000
O O7 0.257664 0.500000 0.366870
O O8 0.203055 0.632302 0.383489
O O9 0.463855 0.576796 0.256753
O O10 0.090626 0.567187 0.331508
O O11 0.181613 0.759094 0.386705
O O12 0.000000 0.695627 0.500000
O O13 0.878779 0.691087 0.424929
O O14 0.588089 0.080099 0.229899
O O15 0.970958 0.086537 0.149528
O O16 0.813595 0.000000 0.126110
O O17 0.500000 0.332323 0.500000
O O18 0.218459 0.378505 0.634085
O O19 0.823100 0.000000 0.851561
O O20 0.151173 0.500000 0.668301
#
# Coordination Sequence:
#
# PCOD9223587 Si02
#       8
#     8   8   8   8   8   8   8   8
#     4  11  22  37  56  78 106 137 173 214 257 305
#     4  11  22  37  56  78 106 137 173 214 257 305
#     4   8  16  32  53  75 100 132 168 206 250 300
#     4  10  19  32  50  72 100 132 168 208 251 299
#     4   9  18  35  57  79 105 137 172 210 255 307
#     4  10  19  32  50  72 100 132 168 208 251 299
#     4   9  18  35  57  79 105 137 172 210 255 307
#     4   8  16  32  53  75 100 132 168 206 250 300
#
# _framework density 9.2092220000000005
#
# number of rings (size 3 to 8) (size 9 to 14) (size 15 to 20)
#    0.000    2.500    0.000    6.000    0.000    2.500 
#    0.000    5.000    0.000    5.250    0.000    0.000 
#    0.000    0.000    0.000    0.000    0.000    0.000 
#
# Total GULP energy -178186.123601 kJ/mol
# GULP energy per Si atom -5568.316363 kJ/mol
# Density = 0.918826 g / cm^3
# Si number density = 9.209222 Si / 1000 Ang^3
#
#
#
# Elastic Constant Matrix: (Units=GPa)
#
#
# Indices 1 2 3 4 5 6 
#
# 1 96.3283 57.5101 22.9329 0.0000 -19.7343 0.0002
# 2 57.5101 122.5817 58.1227 0.0000 -27.3510 0.0000
# 3 22.9329 58.1227 24.3729 0.0000 -15.8539 0.0000
# 4 0.0000 0.0000 0.0000 16.7796 0.0000 9.2273
# 5 -19.7343 -27.3510 -15.8539 0.0000 18.1519 0.0000
# 6 0.0002 0.0000 0.0000 9.2273 0.0000 8.0901
#
#
#
# Elastic Compliance Matrix: (Units=1/GPa)
#
#
# Indices 1 2 3 4 5 6 
#
# 1 0.013397 0.004133 -0.020693 0.000001 0.002719 -0.000001
# 2 0.004133 -0.032090 0.102131 -0.000002 0.045341 0.000003
# 3 -0.020693 0.102131 -0.225960 0.000003 -0.065961 -0.000005
# 4 0.000001 -0.000002 0.000003 0.159869 0.000001 -0.182343
# 5 0.002719 0.045341 -0.065961 0.000001 0.068756 -0.000001
# 6 -0.000001 0.000003 -0.000005 -0.182343 -0.000001 0.331584
#
#
# Mechanical properties :
#
#
# Convention : Reuss Voigt Hill
#
# Bulk Modulus (GPa) = -13.60335 57.82383 22.11024
# Shear Modulus (GPa) = 41.69781 15.58546 28.64163
#
# Velocity S-wave (km/s) = 4.76322 2.91209 3.94769
# Velocity P-wave (km/s) = 4.78010 6.53985 5.72796
#
# Compressibility (1/GPa) = -0.07351131
#
# Stress axis : x y z
#
# Youngs Moduli (GPa) = 74.64299 -31.16192 -4.42557
#
# Poissons Ratio (x) = 0.12880 -0.09158
# Poissons Ratio (y) = -0.30851 0.45199
# Poissons Ratio (z) = 1.54460 3.18259
#
# Static dielectric constant tensor:
#      x y z
#    x 1.615930 0.000000 0.022250 
#    y 0.000000 1.698070 0.000000 
#    z 0.022250 0.000000 1.692280 
# 
# From -- ./inp_files/333738.got.cif
#   From: 2010.05.17/outbox.ucp.g08.bks.cvg/sg12_167_cif.got.tgz:333738.got - 2010.06.11 11:47:21.
