data_PCOD9223519
_publ_section_title
;
Structure prediction by ZEFSAII (Michael W. Deem and Ramdas Pophale) SiO2 
 PCOD9223519
Probable space group: C 2/M
;
_chemical_formula_sum "Si O2"
_cell_formula_units_Z 32
_cell_length_a 24.000000
_cell_length_b 9.000000
_cell_length_c 18.000000
_cell_angle_alpha 90.000000
_cell_angle_beta 80.000000
_cell_angle_gamma 90.000000
_cell_volume 3828.932544
_symmetry_space_group_name_H-M "C 2/M"
_symmetry_group_IT_number 12
_symmetry_cell_setting 'monoclinic'
loop_
_space_group_symop_operation_xyz
x,y,z
-x,y,-z
-x,-y,-z
x,-y,z
1/2+x,1/2+y,z
1/2-x,1/2+y,-z
1/2-x,1/2-y,-z
1/2+x,1/2-y,z
loop_
_atom_site_type_symbol
_atom_site_label
_atom_site_fract_x
_atom_site_fract_y
_atom_site_fract_z
Si Si1 0.188063 0.320523 0.687307
Si Si2 0.849921 0.177330 0.458151
Si Si3 0.530384 0.830497 0.572223
Si Si4 0.421197 0.820680 0.689647
Si Si5 0.409132 0.818494 0.172187
Si Si6 0.431829 0.829147 0.004352
Si Si7 0.814747 0.178991 0.631212
Si Si8 0.459934 0.818616 0.840473
O O1 0.185240 0.500000 0.685329
O O2 0.172955 0.255889 0.610222
O O3 0.141346 0.272260 0.760147
O O4 0.254374 0.279522 0.681904
O O5 0.915325 0.227381 0.446916
O O6 0.819406 0.222148 0.542628
O O7 0.845149 0.000000 0.452047
O O8 0.500000 0.837849 0.500000
O O9 0.481575 0.778735 0.639459
O O10 0.547993 0.000000 0.589264
O O11 0.368245 0.749155 0.660534
O O12 0.426030 0.779141 0.774679
O O13 0.417259 0.000000 0.683535
O O14 0.404786 0.767295 0.086624
O O15 0.473462 0.774988 0.180748
O O16 0.408555 0.000000 0.171375
O O17 0.411720 0.000000 0.004196
O O18 0.500000 0.833957 0.000000
O O19 0.429421 0.761235 0.922507
O O20 0.819437 0.000000 0.632588
O O21 0.461099 0.000000 0.845249
#
# Coordination Sequence:
#
# PCOD9223519 Si02
#       8
#     8   8   8   8   8   8   8   8
#     4  10  20  34  51  68  89 120 160 200 232 270
#     4  11  22  34  49  69  93 121 154 195 241 280
#     4  10  19  32  50  71  93 120 153 189 230 275
#     4  10  19  31  49  70  93 124 158 191 228 274
#     4   8  13  24  44  68  93 118 145 183 230 276
#     4   7  10  18  36  65  97 119 135 172 231 278
#     4  10  22  36  47  63  90 125 161 197 234 272
#     4   8  13  22  40  70  99 116 140 182 230 277
#
# _framework density 8.3574210000000004
#
# number of rings (size 3 to 8) (size 9 to 14) (size 15 to 20)
#    0.000    2.750    1.250    3.000    0.000    3.750 
#    0.000    0.000    0.000    0.750    0.000    0.875 
#    0.000    4.000    0.000    0.000    0.000    0.000 
#
# Total GULP energy -178143.107522 kJ/mol
# GULP energy per Si atom -5566.972110 kJ/mol
# Density = 0.833840 g / cm^3
# Si number density = 8.357421 Si / 1000 Ang^3
#
#
#
# Elastic Constant Matrix: (Units=GPa)
#
#
# Indices 1 2 3 4 5 6 
#
# 1 62.9563 8.2674 48.5261 0.0000 -19.0104 0.0000
# 2 8.2674 1.9372 11.8797 0.0000 -4.7946 0.0000
# 3 48.5261 11.8797 148.4086 0.0000 -13.8458 0.0000
# 4 0.0000 0.0000 0.0000 -19.4961 0.0000 -0.2163
# 5 -19.0104 -4.7946 -13.8458 0.0000 21.8056 0.0000
# 6 0.0000 0.0000 0.0000 -0.2163 0.0000 17.3542
#
#
#
# Elastic Compliance Matrix: (Units=1/GPa)
#
#
# Indices 1 2 3 4 5 6 
#
# 1 0.036931 -0.203003 0.003203 0.000000 -0.010405 0.000000
# 2 -0.203003 4.203176 -0.212981 0.000000 0.611969 0.000000
# 3 0.003203 -0.212981 0.019804 0.000000 -0.031462 0.000000
# 4 0.000000 0.000000 0.000000 -0.051285 0.000000 -0.000639
# 5 -0.010405 0.611969 -0.031462 0.000000 0.151370 0.000000
# 6 0.000000 0.000000 0.000000 -0.000639 0.000000 0.057615
#
#
# Mechanical properties :
#
#
# Convention : Reuss Voigt Hill
#
# Bulk Modulus (GPa) = 0.29118 38.96093 19.62606
# Shear Modulus (GPa) = 0.78272 13.57467 7.17870
#
# Velocity S-wave (km/s) = 0.68505 2.85289 2.07464
# Velocity P-wave (km/s) = 0.89460 5.84908 4.18402
#
# Compressibility (1/GPa) = 3.43434923
#
# Stress axis : x y z
#
# Youngs Moduli (GPa) = 27.07732 0.23792 50.49491
#
# Poissons Ratio (x) = 0.04830 -0.16176
# Poissons Ratio (y) = 5.49678 10.75448
# Poissons Ratio (z) = -0.08674 0.05067
#
# Static dielectric constant tensor:
#      x y z
#    x 1.553580 0.000000 0.002820 
#    y 0.000000 1.565970 0.000000 
#    z 0.002820 0.000000 1.614720 
# 
# From -- ./inp_files/287593.got.cif
#   From: 2010.05.17/outbox.ucp.g08.bks.cvg/sg12_144_cif.got.tgz:287593.got - 2010.06.11 11:47:21.
