data_PCOD9223375
_publ_section_title
;
Structure prediction by ZEFSAII (Michael W. Deem and Ramdas Pophale) SiO2 
 PCOD9223375
Probable space group: C 2/M
;
_chemical_formula_sum "Si O2"
_cell_formula_units_Z 28
_cell_length_a 30.000000
_cell_length_b 15.000000
_cell_length_c 9.000000
_cell_angle_alpha 90.000000
_cell_angle_beta 130.000000
_cell_angle_gamma 90.000000
_cell_volume 3102.479995
_symmetry_space_group_name_H-M "C 2/M"
_symmetry_group_IT_number 12
_symmetry_cell_setting 'monoclinic'
loop_
_space_group_symop_operation_xyz
x,y,z
-x,y,-z
-x,-y,-z
x,-y,z
1/2+x,1/2+y,z
1/2-x,1/2+y,-z
1/2-x,1/2-y,-z
1/2+x,1/2-y,z
loop_
_atom_site_type_symbol
_atom_site_label
_atom_site_fract_x
_atom_site_fract_y
_atom_site_fract_z
Si Si1 0.903261 0.219503 0.520973
Si Si2 0.867430 0.892641 0.184244
Si Si3 0.444827 0.897049 0.993853
Si Si4 0.849696 0.394100 0.536933
Si Si5 0.099767 0.108403 0.185167
Si Si6 0.461858 0.287038 0.192112
Si Si7 0.283507 0.605358 0.740700
O O1 0.863411 0.160087 0.328282
O O2 0.880308 0.320308 0.496955
O O3 0.903443 0.163235 0.672042
O O4 0.970985 0.218996 0.617660
O O5 0.919543 0.838470 0.215102
O O6 0.879379 0.000000 0.221037
O O7 0.809650 0.882176 0.961377
O O8 0.387232 0.891509 0.768713
O O9 0.449375 0.000000 0.061369
O O10 0.500000 0.883974 0.000000
O O11 0.444572 0.814478 0.108114
O O12 0.850708 0.500000 0.490401
O O13 0.782752 0.363240 0.416923
O O14 0.162719 0.134255 0.247991
O O15 0.095953 0.000000 0.187382
O O16 0.049048 0.149024 0.973498
O O17 0.279418 0.500000 0.704214
#
# Coordination Sequence:
#
# PCOD9223375 Si02
#       7
#     8   8   8   8   8   8   8
#     4  12  22  33  55  85 111 142 187 228 270 329
#     4  10  23  40  56  77 114 153 183 224 274 324
#     4  10  18  33  57  85 112 139 179 233 283 320
#     4  10  20  36  60  83 109 144 181 227 281 327
#     4  10  20  34  54  81 112 142 183 233 271 318
#     4  11  20  36  53  82 111 145 187 220 273 333
#     4   8  18  38  58  77 107 147 184 221 273 330
#
# _framework density 9.0250380000000003
#
# number of rings (size 3 to 8) (size 9 to 14) (size 15 to 20)
#    0.000    1.857    2.857    2.571    0.000    4.571 
#    0.000    0.714    0.000    1.714    0.000    0.000 
#    0.000    0.000    0.000    0.000    0.000    0.000 
#
# Total GULP energy -155919.574738 kJ/mol
# GULP energy per Si atom -5568.556241 kJ/mol
# Density = 0.900450 g / cm^3
# Si number density = 9.025038 Si / 1000 Ang^3
#
#
#
# Elastic Constant Matrix: (Units=GPa)
#
#
# Indices 1 2 3 4 5 6 
#
# 1 32.1800 9.4184 24.5462 0.0000 23.1053 0.0000
# 2 9.4184 126.3899 24.3719 0.0000 1.2060 0.0000
# 3 24.5462 24.3719 62.4889 0.0000 14.2781 0.0000
# 4 0.0000 0.0000 0.0000 27.9606 0.0000 0.4881
# 5 23.1053 1.2060 14.2781 0.0000 38.8553 0.0000
# 6 0.0000 0.0000 0.0000 0.4881 0.0000 30.9738
#
#
#
# Elastic Compliance Matrix: (Units=1/GPa)
#
#
# Indices 1 2 3 4 5 6 
#
# 1 0.071927 -0.001230 -0.019661 0.000000 -0.035509 0.000000
# 2 -0.001230 0.008616 -0.003257 0.000000 0.001661 0.000000
# 3 -0.019661 -0.003257 0.024346 0.000000 0.002846 0.000000
# 4 0.000000 0.000000 0.000000 0.035774 0.000000 -0.000564
# 5 -0.035509 0.001661 0.002846 0.000000 0.045754 0.000000
# 6 0.000000 0.000000 0.000000 -0.000564 0.000000 0.032294
#
#
# Mechanical properties :
#
#
# Convention : Reuss Voigt Hill
#
# Bulk Modulus (GPa) = 17.66963 37.52577 27.59770
# Shear Modulus (GPa) = 17.49042 30.40608 23.94825
#
# Velocity S-wave (km/s) = 3.11624 4.10877 3.64643
# Velocity P-wave (km/s) = 4.77058 6.58363 5.74903
#
# Compressibility (1/GPa) = 0.05659429
#
# Stress axis : x y z
#
# Youngs Moduli (GPa) = 13.90295 116.06561 41.07526
#
# Poissons Ratio (x) = 0.14275 0.80756
# Poissons Ratio (y) = 0.01710 0.13377
# Poissons Ratio (z) = 0.27334 0.37799
#
# Static dielectric constant tensor:
#      x y z
#    x 1.704660 0.000000 -0.064270 
#    y 0.000000 1.608360 0.000000 
#    z -0.064270 0.000000 1.686620 
# 
# From -- ./inp_files/86341.got.cif
#   From: 2010.05.17/outbox.ucp.g08.bks.cvg/sg12_44_cif.got.tgz:86341.got - 2010.06.11 11:47:21.
