data_PCOD9223652
_publ_section_title
;
Structure prediction by ZEFSAII (Michael W. Deem and Ramdas Pophale) SiO2 
 PCOD9223652
Probable space group: C 2/M
;
_chemical_formula_sum "Si O2"
_cell_formula_units_Z 28
_cell_length_a 30.000000
_cell_length_b 9.000000
_cell_length_c 21.000000
_cell_angle_alpha 90.000000
_cell_angle_beta 150.000000
_cell_angle_gamma 90.000000
_cell_volume 2835.000000
_symmetry_space_group_name_H-M "C 2/M"
_symmetry_group_IT_number 12
_symmetry_cell_setting 'monoclinic'
loop_
_space_group_symop_operation_xyz
x,y,z
-x,y,-z
-x,-y,-z
x,-y,z
1/2+x,1/2+y,z
1/2-x,1/2+y,-z
1/2-x,1/2-y,-z
1/2+x,1/2-y,z
loop_
_atom_site_type_symbol
_atom_site_label
_atom_site_fract_x
_atom_site_fract_y
_atom_site_fract_z
Si Si1 0.657468 0.323757 0.521268
Si Si2 0.390737 0.829778 0.905829
Si Si3 0.987657 0.323795 0.820515
Si Si4 0.565439 0.822352 0.638856
Si Si5 0.977995 0.324063 0.272347
Si Si6 0.344120 0.676017 0.721432
Si Si7 0.808032 0.830170 0.289885
O O1 0.646126 0.500000 0.495040
O O2 0.581522 0.220173 0.399333
O O3 0.752497 0.267611 0.614431
O O4 0.650037 0.301335 0.588599
O O5 0.393347 0.720644 0.848958
O O6 0.295163 0.817790 0.821158
O O7 0.398661 0.000000 0.890652
O O8 0.457168 0.808631 0.046112
O O9 0.966432 0.500000 0.786710
O O10 0.899795 0.229899 0.729015
O O11 0.044999 0.276597 0.828898
O O12 0.500000 0.766906 0.500000
O O13 0.555490 0.765223 0.699659
O O14 0.659666 0.777874 0.725225
O O15 0.552998 0.000000 0.626184
O O16 0.961994 0.500000 0.255069
O O17 0.329030 0.500000 0.700871
O O18 0.828925 0.000000 0.297186
#
# Coordination Sequence:
#
# PCOD9223652 Si02
#       7
#     8   8   8   8   8   8   8
#     4  10  20  35  55  80 109 142 179 220 268 321
#     4   9  19  37  58  80 106 141 183 222 262 313
#     4  10  21  38  57  75 106 148 184 219 262 318
#     4  10  19  32  53  80 110 139 171 216 270 320
#     4  10  21  36  54  79 109 144 182 219 266 320
#     4  11  22  35  56  83 109 137 177 226 271 317
#     4   9  18  32  53  80 105 134 177 221 262 311
#
# _framework density 9.8765429999999999
#
# number of rings (size 3 to 8) (size 9 to 14) (size 15 to 20)
#    0.000    2.143    1.429    3.000    0.000    6.571 
#    0.000    0.714    0.000    0.000    0.000    0.000 
#    0.000    0.000    0.000    0.000    0.000    0.000 
#
# Total GULP energy -155908.628006 kJ/mol
# GULP energy per Si atom -5568.165286 kJ/mol
# Density = 0.985406 g / cm^3
# Si number density = 9.876543 Si / 1000 Ang^3
#
#
#
# Elastic Constant Matrix: (Units=GPa)
#
#
# Indices 1 2 3 4 5 6 
#
# 1 109.1152 7.2003 -3.6121 0.0000 -5.0674 0.0000
# 2 7.2003 -13.3168 -13.7183 0.0000 -1.0402 0.0000
# 3 -3.6121 -13.7183 8.7722 0.0000 6.8754 0.0000
# 4 0.0000 0.0000 0.0000 11.1258 0.0000 2.0579
# 5 -5.0674 -1.0402 6.8754 0.0000 9.0981 0.0000
# 6 0.0000 0.0000 0.0000 2.0579 0.0000 26.1564
#
#
#
# Elastic Compliance Matrix: (Units=1/GPa)
#
#
# Indices 1 2 3 4 5 6 
#
# 1 0.009329 0.001148 0.003584 0.000000 0.002619 0.000000
# 2 0.001148 -0.016471 -0.059627 0.000000 0.043816 0.000000
# 3 0.003584 -0.059627 0.063783 0.000000 -0.053022 0.000000
# 4 0.000000 0.000000 0.000000 0.091208 0.000000 -0.007176
# 5 0.002619 0.043816 -0.053022 0.000000 0.156449 0.000000
# 6 0.000000 0.000000 0.000000 -0.007176 0.000000 0.038796
#
#
# Mechanical properties :
#
#
# Convention : Reuss Voigt Hill
#
# Bulk Modulus (GPa) = -18.81511 9.36785 -4.72363
# Shear Modulus (GPa) = 11.48979 16.92277 14.20628
#
# Velocity S-wave (km/s) = 2.41440 2.93015 2.68469
# Velocity P-wave (km/s) = 1.33169 4.02498 2.68580
#
# Compressibility (1/GPa) = -0.05314877
#
# Stress axis : x y z
#
# Youngs Moduli (GPa) = 107.19093 -60.71361 15.67815
#
# Poissons Ratio (x) = 0.06969 -0.05619
# Poissons Ratio (y) = -0.12304 0.93484
# Poissons Ratio (z) = -0.38414 -3.62015
#
# Static dielectric constant tensor:
#      x y z
#    x 1.739040 0.000000 -0.026470 
#    y 0.000000 1.671420 0.000000 
#    z -0.026470 0.000000 1.814560 
# 
# From -- ./inp_files/280870.got.cif
#   From: 2010.05.17/outbox.ucp.g08.bks.cvg/sg12_141_cif.got.tgz:280870.got - 2010.06.11 11:47:21.
