data_PCOD9223057
_publ_section_title
;
Structure prediction by ZEFSAII (Michael W. Deem and Ramdas Pophale) SiO2 
 PCOD9223057
Probable space group: C 2/M
;
_chemical_formula_sum "Si O2"
_cell_formula_units_Z 48
_cell_length_a 25.456827
_cell_length_b 7.169279
_cell_length_c 25.256832
_cell_angle_alpha 90.000000
_cell_angle_beta 22.431967
_cell_angle_gamma 90.000000
_cell_volume 1758.940828
_symmetry_space_group_name_H-M "C 2/M"
_symmetry_group_IT_number 12
_symmetry_cell_setting 'monoclinic'
loop_
_space_group_symop_operation_xyz
x,y,z
-x,y,-z
-x,-y,-z
x,-y,z
1/2+x,1/2+y,z
1/2-x,1/2+y,-z
1/2-x,1/2-y,-z
1/2+x,1/2-y,z
loop_
_atom_site_type_symbol
_atom_site_label
_atom_site_fract_x
_atom_site_fract_y
_atom_site_fract_z
Si Si1 0.151415 0.773541 0.512571
Si Si2 0.327233 0.208663 0.012012
Si Si3 0.656977 0.225046 0.848948
Si Si4 0.444642 0.726562 0.787865
Si Si5 0.108583 0.273983 0.779078
Si Si6 0.447727 0.726780 0.607189
O O1 0.302025 0.710372 0.354048
O O2 0.086862 0.715248 0.628477
O O3 0.045980 0.717870 0.563851
O O4 0.153694 0.000000 0.510987
O O5 0.402329 0.200369 0.884377
O O6 0.451804 0.294468 0.928835
O O7 0.301877 0.000000 0.056299
O O8 0.178642 0.286805 0.136932
O O9 0.689970 0.267285 0.756764
O O10 0.787627 0.286089 0.761540
O O11 0.650930 0.000000 0.860158
O O12 0.500000 0.290474 0.000000
O O13 0.438850 0.500000 0.796510
O O14 0.098215 0.500000 0.786308
O O15 0.500000 0.782526 0.500000
O O16 0.449587 0.500000 0.605621
#
# Coordination Sequence:
#
# PCOD9223057 Si02
#       6
#     8   8   8   8   8   8
#     4   9  16  25  39  58  82 113 145 175 211 255
#     4   9  18  31  46  63  87 114 142 180 220 255
#     4   9  16  22  32  53  81 112 142 170 206 254
#     4   9  18  31  46  64  85 113 147 179 214 257
#     4   9  16  26  38  57  84 113 143 176 214 253
#     4   9  14  22  34  51  79 112 140 167 204 254
#
# _framework density 27.289151
#
# number of rings (size 3 to 8) (size 9 to 14) (size 15 to 20)
#    0.000    3.000    1.667    0.000    2.333    0.667 
#    0.000    0.000    0.000    0.000    0.000    0.000 
#    0.000    2.667    0.000    0.167    0.000    0.000 
#
# Total GULP energy -134209.683579 kJ/mol
# GULP energy per Si atom -5592.070149 kJ/mol
# Density = 2.722704 g / cm^3
# Si number density = 27.289151 Si / 1000 Ang^3
#
#
#
# Elastic Constant Matrix: (Units=GPa)
#
#
# Indices 1 2 3 4 5 6 
#
# 1 77.9114 -6.9453 -3.2983 -0.0069 -5.6670 0.0042
# 2 -6.9453 148.9966 -6.1532 -0.0177 -0.1365 0.0036
# 3 -3.2983 -6.1532 133.1564 -0.0295 2.3184 0.0087
# 4 -0.0069 -0.0177 -0.0295 -19.1438 0.0037 6.7781
# 5 -5.6670 -0.1365 2.3184 0.0037 54.4186 0.0016
# 6 0.0042 0.0036 0.0087 6.7781 0.0016 -22.5115
#
#
#
# Elastic Compliance Matrix: (Units=1/GPa)
#
#
# Indices 1 2 3 4 5 6 
#
# 1 0.013002 0.000621 0.000327 -0.000005 0.001342 0.000001
# 2 0.000621 0.006754 0.000326 -0.000007 0.000068 -0.000001
# 3 0.000327 0.000326 0.007538 -0.000012 -0.000286 -0.000001
# 4 -0.000005 -0.000007 -0.000012 -0.058469 0.000004 -0.017605
# 5 0.001342 0.000068 -0.000286 0.000004 0.018528 0.000003
# 6 0.000001 -0.000001 -0.000001 -0.017605 0.000003 -0.049722
#
#
# Mechanical properties :
#
#
# Convention : Reuss Voigt Hill
#
# Bulk Modulus (GPa) = 33.50864 36.36344 34.93604
# Shear Modulus (GPa) = -90.95731 27.65005 -31.65363
#
# Velocity S-wave (km/s) = -5.77956 3.18657 -3.40948
# Velocity P-wave (km/s) = 5.67732 5.18586 1.63383
#
# Compressibility (1/GPa) = 0.02984305
#
# Stress axis : x y z
#
# Youngs Moduli (GPa) = 76.91199 148.05957 132.65878
#
# Poissons Ratio (x) = -0.09192 -0.04343
# Poissons Ratio (y) = -0.04775 -0.04329
# Poissons Ratio (z) = -0.02518 -0.04831
#
# Static dielectric constant tensor:
#      x y z
#    x 2.119880 0.000230 0.023750 
#    y 0.000230 2.976940 0.000760 
#    z 0.023750 0.000760 2.093600 
# 
# From -- ./inp_files/101937.got.cif
#   From: 2010.05.17/outbox.cif.g08.bks.cpg/sg12_51_cif.got.tgz:101937.got - 2010.06.03 13:09:07.
