data_PCOD9223122
_publ_section_title
;
Structure prediction by ZEFSAII (Michael W. Deem and Ramdas Pophale) SiO2 
 PCOD9223122
Probable space group: C 2/M
;
_chemical_formula_sum "Si O2"
_cell_formula_units_Z 56
_cell_length_a 20.049506
_cell_length_b 15.224791
_cell_length_c 11.556349
_cell_angle_alpha 90.000000
_cell_angle_beta 134.165445
_cell_angle_gamma 90.000000
_cell_volume 2530.435234
_symmetry_space_group_name_H-M "C 2/M"
_symmetry_group_IT_number 12
_symmetry_cell_setting 'monoclinic'
loop_
_space_group_symop_operation_xyz
x,y,z
-x,y,-z
-x,-y,-z
x,-y,z
1/2+x,1/2+y,z
1/2-x,1/2+y,-z
1/2-x,1/2-y,-z
1/2+x,1/2-y,z
loop_
_atom_site_type_symbol
_atom_site_label
_atom_site_fract_x
_atom_site_fract_y
_atom_site_fract_z
Si Si1 0.137123 0.599637 0.925073
Si Si2 0.394350 0.107548 0.360605
Si Si3 0.714235 0.606503 0.262687
Si Si4 0.040990 0.840216 0.930126
Si Si5 0.217051 0.393367 0.264910
Si Si6 0.034986 0.358025 0.162868
Si Si7 0.877626 0.895818 0.607788
O O1 0.172259 0.500000 0.960288
O O2 0.183407 0.637826 0.097600
O O3 0.147864 0.640728 0.812475
O O4 0.024876 0.597240 0.810077
O O5 0.500000 0.138481 0.500000
O O6 0.321365 0.130625 0.372246
O O7 0.397153 0.000000 0.358767
O O8 0.707230 0.500000 0.249013
O O9 0.672626 0.637148 0.335095
O O10 0.649328 0.645391 0.081945
O O11 0.004785 0.740559 0.884428
O O12 0.986989 0.879403 0.755741
O O13 0.000000 0.882197 0.000000
O O14 0.212011 0.500000 0.256630
O O15 0.144602 0.363634 0.277624
O O16 0.319218 0.363411 0.427497
O O17 0.000000 0.399897 0.000000
O O18 0.865280 0.000000 0.593390
#
# Coordination Sequence:
#
# PCOD9223122 Si02
#       7
#     8   8   8   8   8   8   8
#     4   9  17  30  47  66  93 122 151 188 231 278
#     4   9  18  30  48  72  94 118 152 194 232 271
#     4   9  17  30  48  70  95 122 154 192 233 273
#     4   9  17  30  46  67  96 127 156 188 230 274
#     4   9  17  28  45  70  95 122 152 189 236 275
#     4   9  17  28  44  67  95 123 155 186 229 279
#     4   9  17  28  47  73  97 120 152 192 232 277
#
# _framework density 22.130579999999998
#
# number of rings (size 3 to 8) (size 9 to 14) (size 15 to 20)
#    0.000    3.000    0.000    0.857    2.000    4.000 
#    0.000    0.714    0.000    0.857    0.000    5.000 
#    0.000    0.000    0.000    0.000    0.000    0.429 
#
# Total GULP energy -155885.145020 kJ/mol
# GULP energy per Si atom -5567.326608 kJ/mol
# Density = 2.208021 g / cm^3
# Si number density = 22.130580 Si / 1000 Ang^3
#
#
#
# Elastic Constant Matrix: (Units=GPa)
#
#
# Indices 1 2 3 4 5 6 
#
# 1 32.1673 -1.4780 5.1655 0.0000 0.4003 0.0000
# 2 -1.4780 42.0140 9.5813 0.0000 -0.8954 0.0000
# 3 5.1655 9.5813 127.9036 0.0000 10.3352 0.0000
# 4 0.0000 0.0000 0.0000 4.6775 0.0000 3.4007
# 5 0.4003 -0.8954 10.3352 0.0000 30.1716 0.0000
# 6 0.0000 0.0000 0.0000 3.4007 0.0000 3.0111
#
#
#
# Elastic Compliance Matrix: (Units=1/GPa)
#
#
# Indices 1 2 3 4 5 6 
#
# 1 0.031373 0.001421 -0.001381 0.000000 0.000099 0.000000
# 2 0.001421 0.024335 -0.001992 0.000000 0.001386 0.000000
# 3 -0.001381 -0.001992 0.008255 0.000000 -0.002869 0.000000
# 4 0.000000 0.000000 0.000000 1.194984 0.000000 -1.349606
# 5 0.000099 0.001386 -0.002869 0.000000 0.034166 0.000000
# 6 0.000000 0.000000 0.000000 -1.349606 0.000000 1.856343
#
#
# Mechanical properties :
#
#
# Convention : Reuss Voigt Hill
#
# Bulk Modulus (GPa) = 16.65056 25.40249 21.02652
# Shear Modulus (GPa) = 1.57561 20.15979 10.86770
#
# Velocity S-wave (km/s) = 0.84469 3.02146 2.21842
# Velocity P-wave (km/s) = 2.91401 4.86577 4.01043
#
# Compressibility (1/GPa) = 0.06005806
#
# Stress axis : x y z
#
# Youngs Moduli (GPa) = 31.87414 41.09230 121.13545
#
# Poissons Ratio (x) = -0.05838 0.16735
# Poissons Ratio (y) = -0.04529 0.24134
# Poissons Ratio (z) = 0.04403 0.08187
#
# Static dielectric constant tensor:
#      x y z
#    x 1.836160 0.000000 0.009550 
#    y 0.000000 1.829110 0.000000 
#    z 0.009550 0.000000 1.902770 
# 
# From -- ./inp_files/169510.got.cif
#   From: 2010.05.17/outbox.cif.g08.bks.cpg/sg12_85_cif.got.tgz:169510.got - 2010.06.03 13:09:07.
