data_PCOD9223035
_publ_section_title
;
Structure prediction by ZEFSAII (Michael W. Deem and Ramdas Pophale) SiO2 
 PCOD9223035
Probable space group: C 2/M
;
_chemical_formula_sum "Si O2"
_cell_formula_units_Z 40
_cell_length_a 16.298072
_cell_length_b 19.132505
_cell_length_c 7.118894
_cell_angle_alpha 90.000000
_cell_angle_beta 121.704114
_cell_angle_gamma 90.000000
_cell_volume 1888.576081
_symmetry_space_group_name_H-M "C 2/M"
_symmetry_group_IT_number 12
_symmetry_cell_setting 'monoclinic'
loop_
_space_group_symop_operation_xyz
x,y,z
-x,y,-z
-x,-y,-z
x,-y,z
1/2+x,1/2+y,z
1/2-x,1/2+y,-z
1/2-x,1/2-y,-z
1/2+x,1/2-y,z
loop_
_atom_site_type_symbol
_atom_site_label
_atom_site_fract_x
_atom_site_fract_y
_atom_site_fract_z
Si Si1 0.373137 0.000000 0.006215
Si Si2 0.390481 0.725509 0.417765
Si Si3 0.889429 0.203346 0.859542
Si Si4 0.303994 0.134720 0.396638
Si Si5 0.699075 0.846749 0.151718
Si Si6 0.084630 0.500000 0.393881
O O1 0.325460 0.922075 0.968665
O O2 0.394093 0.000000 0.806019
O O3 0.469618 0.000000 0.247086
O O4 0.500000 0.708829 0.500000
O O5 0.376940 0.719285 0.624760
O O6 0.362397 0.805856 0.355802
O O7 0.307245 0.677562 0.230125
O O8 0.806557 0.146436 0.799959
O O9 0.868790 0.276492 0.946592
O O10 0.000000 0.180389 0.000000
O O11 0.303074 0.143151 0.623556
O O12 0.362900 0.064789 0.448555
#
# Coordination Sequence:
#
# PCOD9223035 Si02
#       6
#     4   8   8   8   8   4
#     4   9  16  24  47  74  92 114 157 205 232 261
#     4   9  17  31  48  68  97 127 154 187 234 279
#     4   9  17  29  50  69  94 123 158 193 227 271
#     4   8  16  30  44  68  94 124 155 191 231 279
#     4   8  16  28  44  70  98 119 152 198 235 271
#     4   9  16  26  48  70  92 120 157 196 233 270
#
# _framework density 21.179977999999998
#
# number of rings (size 3 to 8) (size 9 to 14) (size 15 to 20)
#    0.000    3.400    0.000    2.400    8.400    0.000 
#    0.000    5.500    0.000    0.000    0.000    0.000 
#    0.000    0.000    0.000    0.000    0.000    0.000 
#
# Total GULP energy -111394.294629 kJ/mol
# GULP energy per Si atom -5569.714731 kJ/mol
# Density = 2.113177 g / cm^3
# Si number density = 21.179978 Si / 1000 Ang^3
#
#
#
# Elastic Constant Matrix: (Units=GPa)
#
#
# Indices 1 2 3 4 5 6 
#
# 1 116.6187 71.1551 51.1880 0.0000 30.4471 0.0000
# 2 71.1551 180.8034 78.3668 0.0000 46.2204 0.0000
# 3 51.1880 78.3668 98.5452 0.0000 21.5214 0.0000
# 4 0.0000 0.0000 0.0000 23.7821 0.0000 0.7121
# 5 30.4471 46.2204 21.5214 0.0000 57.1995 0.0000
# 6 0.0000 0.0000 0.0000 0.7121 0.0000 11.6630
#
#
#
# Elastic Compliance Matrix: (Units=1/GPa)
#
#
# Indices 1 2 3 4 5 6 
#
# 1 0.012636 -0.002440 -0.003905 0.000000 -0.003285 0.000000
# 2 -0.002440 0.010242 -0.005833 0.000000 -0.004783 0.000000
# 3 -0.003905 -0.005833 0.016704 0.000000 0.000507 0.000000
# 4 0.000000 0.000000 0.000000 0.042125 0.000000 -0.002572
# 5 -0.003285 -0.004783 0.000507 0.000000 0.022905 0.000000
# 6 0.000000 0.000000 0.000000 -0.002572 0.000000 0.085898
#
#
# Mechanical properties :
#
#
# Convention : Reuss Voigt Hill
#
# Bulk Modulus (GPa) = 65.68352 88.59855 77.14103
# Shear Modulus (GPa) = 22.73327 31.54608 27.13967
#
# Velocity S-wave (km/s) = 3.27974 3.86350 3.58353
# Velocity P-wave (km/s) = 6.73956 7.86284 7.32277
#
# Compressibility (1/GPa) = 0.01522452
#
# Stress axis : x y z
#
# Youngs Moduli (GPa) = 79.14059 97.63733 59.86614
#
# Poissons Ratio (x) = 0.23827 0.23381
# Poissons Ratio (y) = 0.19313 0.34918
# Poissons Ratio (z) = 0.30908 0.56949
#
# Static dielectric constant tensor:
#      x y z
#    x 1.788750 0.000000 -0.037160 
#    y 0.000000 1.765850 0.000000 
#    z -0.037160 0.000000 1.841110 
# 
# From -- ./inp_files/62957.got.cif
#   From: 2010.05.17/outbox.cif.g08.bks.cpg/sg12_32_cif.got.tgz:62957.got - 2010.06.03 13:09:07.
