data_PCOD9223921
_publ_section_title
;
Structure prediction by ZEFSAII (Michael W. Deem and Ramdas Pophale) SiO2 
 PCOD9223921
Probable space group: C 2/M
;
_chemical_formula_sum "Si O2"
_cell_formula_units_Z 28
_cell_length_a 21.000000
_cell_length_b 18.000000
_cell_length_c 24.000000
_cell_angle_alpha 90.000000
_cell_angle_beta 160.000000
_cell_angle_gamma 90.000000
_cell_volume 3102.806740
_symmetry_space_group_name_H-M "C 2/M"
_symmetry_group_IT_number 12
_symmetry_cell_setting 'monoclinic'
loop_
_space_group_symop_operation_xyz
x,y,z
-x,y,-z
-x,-y,-z
x,-y,z
1/2+x,1/2+y,z
1/2-x,1/2+y,-z
1/2-x,1/2-y,-z
1/2+x,1/2-y,z
loop_
_atom_site_type_symbol
_atom_site_label
_atom_site_fract_x
_atom_site_fract_y
_atom_site_fract_z
Si Si1 0.583506 0.799128 0.126593
Si Si2 0.216559 0.183344 0.098902
Si Si3 0.564688 0.213840 0.611926
Si Si4 0.978583 0.792395 0.245614
Si Si5 0.783920 0.189881 0.451902
Si Si6 0.425436 0.917102 0.784222
Si Si7 0.700543 0.584320 0.980296
O O1 0.798454 0.780154 0.294856
O O2 0.544463 0.857258 0.142696
O O3 0.500000 0.827693 0.000000
O O4 0.484243 0.719689 0.055669
O O5 0.322194 0.171828 0.245077
O O6 0.320531 0.249461 0.150312
O O7 0.211828 0.114793 0.052673
O O8 0.500000 0.176984 0.500000
O O9 0.395757 0.252242 0.505779
O O10 0.118399 0.820823 0.408373
O O11 0.086303 0.729217 0.299909
O O12 0.912581 0.856617 0.150189
O O13 0.752701 0.112727 0.395603
O O14 0.402730 0.000000 0.787694
O O15 0.597368 0.917426 0.882673
O O16 0.626121 0.500000 0.917487
#
# Coordination Sequence:
#
# PCOD9223921 Si02
#       7
#     8   8   8   8   8   8   8
#     4  10  20  35  55  79 106 143 188 228 259 314
#     4  10  19  35  58  82 105 137 184 234 269 310
#     4  10  20  33  56  83 104 136 185 230 266 316
#     4  10  19  34  59  81 105 140 181 229 274 314
#     4  10  20  34  54  82 109 139 180 228 267 319
#     4  11  21  34  52  77 115 150 177 220 272 323
#     4  11  22  35  55  83 115 144 177 223 278 330
#
# _framework density 9.0240880000000008
#
# number of rings (size 3 to 8) (size 9 to 14) (size 15 to 20)
#    0.000    1.714    4.286    1.286    0.000    0.857 
#    0.000    1.429    0.000    4.286    0.000    0.000 
#    0.000    0.000    0.000    0.000    0.000    0.000 
#
# Total GULP energy -156013.394931 kJ/mol
# GULP energy per Si atom -5571.906962 kJ/mol
# Density = 0.900355 g / cm^3
# Si number density = 9.024088 Si / 1000 Ang^3
#
#
#
# Elastic Constant Matrix: (Units=GPa)
#
#
# Indices 1 2 3 4 5 6 
#
# 1 94.2202 23.8685 14.0079 -0.0046 -22.8423 -0.0068
# 2 23.8685 55.7833 24.2700 0.0075 -16.9981 -0.0140
# 3 14.0079 24.2700 32.5114 -0.0014 -19.2439 0.0117
# 4 -0.0046 0.0075 -0.0014 6.5626 -0.0011 4.6400
# 5 -22.8423 -16.9981 -19.2439 -0.0011 37.6738 -0.0001
# 6 -0.0068 -0.0140 0.0117 4.6400 -0.0001 9.2454
#
#
#
# Elastic Compliance Matrix: (Units=1/GPa)
#
#
# Indices 1 2 3 4 5 6 
#
# 1 0.013105 -0.004188 0.001526 0.000023 0.006836 -0.000010
# 2 -0.004188 0.028075 -0.018862 -0.000130 0.000493 0.000129
# 3 0.001526 -0.018862 0.056894 0.000169 0.021477 -0.000184
# 4 0.000023 -0.000130 0.000169 0.236187 0.000048 -0.118536
# 5 0.006836 0.000493 0.021477 0.000048 0.041881 -0.000045
# 6 -0.000010 0.000129 -0.000184 -0.118536 -0.000045 0.167652
#
#
# Mechanical properties :
#
#
# Convention : Reuss Voigt Hill
#
# Bulk Modulus (GPa) = 18.17333 34.08973 26.13153
# Shear Modulus (GPa) = 8.26195 18.72093 13.49144
#
# Velocity S-wave (km/s) = 2.14188 3.22417 2.73705
# Velocity P-wave (km/s) = 4.02593 5.72622 4.94963
#
# Compressibility (1/GPa) = 0.05502568
#
# Stress axis : x y z
#
# Youngs Moduli (GPa) = 76.30827 35.61846 17.57667
#
# Poissons Ratio (x) = 0.14919 -0.02683
# Poissons Ratio (y) = 0.31962 0.33153
# Poissons Ratio (z) = -0.11648 0.67183
#
# Static dielectric constant tensor:
#      x y z
#    x 1.633000 0.000000 -0.012030 
#    y 0.000000 1.574860 -0.000010 
#    z -0.012030 -0.000010 1.665770 
# 
# From -- ./inp_files/76806.got.cif
#   From: 2010.05.17/outbox.ucp.g08.bks.cvg/sg12_39_cif.got.tgz:76806.got - 2010.06.11 11:47:21.
