data_PCOD9223249
_publ_section_title
;
Structure prediction by ZEFSAII (Michael W. Deem and Ramdas Pophale) SiO2 
 PCOD9223249
Probable space group: C 2/M
;
_chemical_formula_sum "Si O2"
_cell_formula_units_Z 32
_cell_length_a 30.000000
_cell_length_b 9.000000
_cell_length_c 12.000000
_cell_angle_alpha 90.000000
_cell_angle_beta 90.000000
_cell_angle_gamma 90.000000
_cell_volume 3240.000000
_symmetry_space_group_name_H-M "C 2/M"
_symmetry_group_IT_number 12
_symmetry_cell_setting 'monoclinic'
loop_
_space_group_symop_operation_xyz
x,y,z
-x,y,-z
-x,-y,-z
x,-y,z
1/2+x,1/2+y,z
1/2-x,1/2+y,-z
1/2-x,1/2-y,-z
1/2+x,1/2-y,z
loop_
_atom_site_type_symbol
_atom_site_label
_atom_site_fract_x
_atom_site_fract_y
_atom_site_fract_z
Si Si1 0.388322 0.823849 0.288561
Si Si2 0.986205 0.664699 0.196978
Si Si3 0.209445 0.674281 0.064116
Si Si4 0.153446 0.821175 0.242949
Si Si5 0.934512 0.174251 0.898300
Si Si6 0.958177 0.661147 0.580735
Si Si7 0.135183 0.173268 0.924681
Si Si8 0.876173 0.827751 0.518346
O O1 0.440265 0.790326 0.258010
O O2 0.362796 0.720367 0.201963
O O3 0.373956 0.774829 0.410764
O O4 0.381719 0.000000 0.271860
O O5 0.978081 0.500000 0.149786
O O6 0.016641 0.759892 0.115438
O O7 0.021383 0.656099 0.298141
O O8 0.216649 0.500000 0.075310
O O9 0.194979 0.747493 0.180725
O O10 0.250000 0.750000 0.000000
O O11 0.167071 0.715214 0.988810
O O12 0.106468 0.773093 0.183416
O O13 0.152649 0.786421 0.373673
O O14 0.155519 0.000000 0.229773
O O15 0.938298 0.000000 0.876055
O O16 0.913766 0.195411 0.021476
O O17 0.935439 0.500000 0.558085
O O18 0.926234 0.798596 0.562067
O O19 0.000000 0.670305 0.500000
O O20 0.147032 0.000000 0.943633
O O21 0.869183 0.000000 0.490569
#
# Coordination Sequence:
#
# PCOD9223249 Si02
#       8
#     8   8   8   8   8   8   8   8
#     4  11  23  38  52  74 109 153 199 237 278 332
#     4  10  20  31  47  71 104 146 193 241 285 328
#     4  11  22  39  67  97 119 143 172 213 269 329
#     4   9  19  35  54  83 118 146 180 229 278 328
#     4   9  18  33  52  74 105 142 185 239 287 325
#     4  10  18  31  46  67 102 144 190 243 288 322
#     4  10  22  41  59  81 112 145 184 230 278 334
#     4  11  21  33  52  78 109 148 190 235 283 327
#
# _framework density 9.8765429999999999
#
# number of rings (size 3 to 8) (size 9 to 14) (size 15 to 20)
#    0.000    1.875    2.500    3.000    0.000    5.250 
#    0.000    2.500    0.000    0.750    0.000    0.000 
#    0.000    0.000    0.000    0.000    0.000    0.000 
#
# Total GULP energy -178263.776137 kJ/mol
# GULP energy per Si atom -5570.743004 kJ/mol
# Density = 0.985406 g / cm^3
# Si number density = 9.876543 Si / 1000 Ang^3
#
#
#
# Elastic Constant Matrix: (Units=GPa)
#
#
# Indices 1 2 3 4 5 6 
#
# 1 46.4239 27.0481 22.0474 0.0000 -36.0780 0.0000
# 2 27.0481 47.7968 37.3579 0.0000 -26.5489 0.0000
# 3 22.0474 37.3579 98.2978 0.0000 -25.9607 0.0000
# 4 0.0000 0.0000 0.0000 33.0665 0.0000 -7.6182
# 5 -36.0780 -26.5489 -25.9607 0.0000 26.8076 0.0000
# 6 0.0000 0.0000 0.0000 -7.6182 0.0000 22.5297
#
#
#
# Elastic Compliance Matrix: (Units=1/GPa)
#
#
# Indices 1 2 3 4 5 6 
#
# 1 -0.150640 -0.050822 -0.018452 0.000000 -0.270935 0.000000
# 2 -0.050822 0.033745 -0.014328 0.000000 -0.048852 0.000000
# 3 -0.018452 -0.014328 0.012699 0.000000 -0.026726 0.000000
# 4 0.000000 0.000000 0.000000 0.032797 0.000000 0.011090
# 5 -0.270935 -0.048852 -0.026726 0.000000 -0.401586 0.000000
# 6 0.000000 0.000000 0.000000 0.011090 0.000000 0.048136
#
#
# Mechanical properties :
#
#
# Convention : Reuss Voigt Hill
#
# Bulk Modulus (GPa) = -3.68459 40.60281 18.45911
# Shear Modulus (GPa) = -14.36321 23.55178 4.59429
#
# Velocity S-wave (km/s) = -2.69947 3.45673 1.52673
# Velocity P-wave (km/s) = 3.40376 6.04415 3.53173
#
# Compressibility (1/GPa) = -0.27140088
#
# Stress axis : x y z
#
# Youngs Moduli (GPa) = -6.63833 29.63367 78.74669
#
# Poissons Ratio (x) = 1.50604 1.45307
# Poissons Ratio (y) = -0.33737 1.12828
# Poissons Ratio (z) = -0.12249 0.42459
#
# Static dielectric constant tensor:
#      x y z
#    x 1.748120 0.000000 0.009380 
#    y 0.000000 1.709430 0.000000 
#    z 0.009380 0.000000 1.798680 
# 
# From -- ./inp_files/187615.got.cif
#   From: 2010.05.17/outbox.ucp.g08.bks.cvg/sg12_94_cif.got.tgz:187615.got - 2010.06.11 11:47:21.
