data_PCOD9223383
_publ_section_title
;
Structure prediction by ZEFSAII (Michael W. Deem and Ramdas Pophale) SiO2 
 PCOD9223383
Probable space group: C 2/M
;
_chemical_formula_sum "Si O2"
_cell_formula_units_Z 32
_cell_length_a 18.000000
_cell_length_b 18.000000
_cell_length_c 24.000000
_cell_angle_alpha 90.000000
_cell_angle_beta 150.000000
_cell_angle_gamma 90.000000
_cell_volume 3888.000000
_symmetry_space_group_name_H-M "C 2/M"
_symmetry_group_IT_number 12
_symmetry_cell_setting 'monoclinic'
loop_
_space_group_symop_operation_xyz
x,y,z
-x,y,-z
-x,-y,-z
x,-y,z
1/2+x,1/2+y,z
1/2-x,1/2+y,-z
1/2-x,1/2-y,-z
1/2+x,1/2-y,z
loop_
_atom_site_type_symbol
_atom_site_label
_atom_site_fract_x
_atom_site_fract_y
_atom_site_fract_z
Si Si1 0.089855 0.341425 0.816423
Si Si2 0.127781 0.912175 0.939506
Si Si3 0.724652 0.678201 0.895917
Si Si4 0.334526 0.915152 0.865751
Si Si5 0.146507 0.583606 0.556176
Si Si6 0.442466 0.180459 0.837046
Si Si7 0.680235 0.344482 0.235307
Si Si8 0.563642 0.910044 0.678262
O O1 0.143033 0.257039 0.839613
O O2 0.047363 0.379236 0.730215
O O3 0.971519 0.339089 0.790865
O O4 0.232028 0.385289 0.933261
O O5 0.143361 0.871597 0.889845
O O6 0.975943 0.887325 0.870450
O O7 0.132122 0.000000 0.934817
O O8 0.740974 0.636323 0.847433
O O9 0.891829 0.690225 0.028880
O O10 0.358573 0.880801 0.820041
O O11 0.279547 0.000000 0.828421
O O12 0.500000 0.916808 0.000000
O O13 0.209817 0.500000 0.594216
O O14 0.255257 0.635383 0.661626
O O15 0.000000 0.579574 0.500000
O O16 0.082326 0.605936 0.454474
O O17 0.355945 0.257493 0.789399
O O18 0.797156 0.372411 0.264397
O O19 0.583756 0.000000 0.690995
#
# Coordination Sequence:
#
# PCOD9223383 Si02
#       8
#     8   8   8   8   8   8   8   8
#     4  11  20  34  47  70 107 137 158 192 250 307
#     4  11  20  30  50  75 103 136 165 200 244 298
#     4  10  18  34  47  67 103 135 165 201 245 286
#     4   9  18  30  48  69  90 128 177 207 227 274
#     4   8  16  32  51  70  96 129 166 208 245 282
#     4  10  19  32  50  71 100 135 161 201 250 289
#     4  11  18  33  52  75 100 128 168 203 247 297
#     4  10  21  34  51  74 101 132 164 204 250 296
#
# _framework density 8.2304530000000007
#
# number of rings (size 3 to 8) (size 9 to 14) (size 15 to 20)
#    0.000    2.000    2.500    4.125    0.000    4.000 
#    0.000    1.875    0.000    0.000    0.000    0.000 
#    0.000    6.250    0.000    0.000    0.000    0.000 
#
# Total GULP energy -178424.008660 kJ/mol
# GULP energy per Si atom -5575.750271 kJ/mol
# Density = 0.821172 g / cm^3
# Si number density = 8.230453 Si / 1000 Ang^3
#
#
#
# Elastic Constant Matrix: (Units=GPa)
#
#
# Indices 1 2 3 4 5 6 
#
# 1 108.3994 38.1006 21.8563 -0.0026 -30.5465 -0.0014
# 2 38.1006 99.8266 25.6456 -0.0029 -14.4885 -0.0011
# 3 21.8563 25.6456 32.7445 -0.0075 -18.2638 -0.0042
# 4 -0.0026 -0.0029 -0.0075 15.6964 -0.0018 -11.0724
# 5 -30.5465 -14.4885 -18.2638 -0.0018 24.4255 -0.0010
# 6 -0.0014 -0.0011 -0.0042 -11.0724 -0.0010 16.4238
#
#
#
# Elastic Compliance Matrix: (Units=1/GPa)
#
#
# Indices 1 2 3 4 5 6 
#
# 1 0.015444 -0.004018 0.003914 0.000016 0.019858 0.000014
# 2 -0.004018 0.013586 -0.010750 -0.000011 -0.005004 -0.000010
# 3 0.003914 -0.010750 0.060933 0.000086 0.044081 0.000076
# 4 0.000016 -0.000011 0.000086 0.121481 0.000090 0.081898
# 5 0.019858 -0.005004 0.044081 0.000090 0.095768 0.000079
# 6 0.000014 -0.000010 0.000076 0.081898 0.000079 0.116100
#
#
# Mechanical properties :
#
#
# Convention : Reuss Voigt Hill
#
# Bulk Modulus (GPa) = 14.65070 45.79728 30.22399
# Shear Modulus (GPa) = 10.68900 21.66700 16.17800
#
# Velocity S-wave (km/s) = 2.55101 3.63198 3.13839
# Velocity P-wave (km/s) = 4.19482 6.74319 5.61548
#
# Compressibility (1/GPa) = 0.06825611
#
# Stress axis : x y z
#
# Youngs Moduli (GPa) = 64.74996 73.60339 16.41147
#
# Poissons Ratio (x) = 0.29574 -0.06424
# Poissons Ratio (y) = 0.26016 0.17642
# Poissons Ratio (z) = -0.25346 0.79124
#
# Static dielectric constant tensor:
#      x y z
#    x 1.554390 0.000000 -0.008210 
#    y 0.000000 1.554660 0.000000 
#    z -0.008210 0.000000 1.549080 
# 
# From -- ./inp_files/344386.got.cif
#   From: 2010.05.17/outbox.ucp.g08.bks.cvg/sg12_173_cif.got.tgz:344386.got - 2010.06.11 11:47:21.
