data_PCOD9223653
_publ_section_title
;
Structure prediction by ZEFSAII (Michael W. Deem and Ramdas Pophale) SiO2 
 PCOD9223653
Probable space group: C 2/M
;
_chemical_formula_sum "Si O2"
_cell_formula_units_Z 28
_cell_length_a 30.000000
_cell_length_b 9.000000
_cell_length_c 12.000000
_cell_angle_alpha 90.000000
_cell_angle_beta 110.000000
_cell_angle_gamma 90.000000
_cell_volume 3044.604091
_symmetry_space_group_name_H-M "C 2/M"
_symmetry_group_IT_number 12
_symmetry_cell_setting 'monoclinic'
loop_
_space_group_symop_operation_xyz
x,y,z
-x,y,-z
-x,-y,-z
x,-y,z
1/2+x,1/2+y,z
1/2-x,1/2+y,-z
1/2-x,1/2-y,-z
1/2+x,1/2-y,z
loop_
_atom_site_type_symbol
_atom_site_label
_atom_site_fract_x
_atom_site_fract_y
_atom_site_fract_z
Si Si1 0.959064 0.328952 0.879418
Si Si2 0.092732 0.333735 0.947639
Si Si3 0.377352 0.823223 0.398622
Si Si4 0.285267 0.824904 0.183866
Si Si5 0.057517 0.822898 0.367393
Si Si6 0.312519 0.667852 0.986721
Si Si7 0.049365 0.176930 0.708887
O O1 0.970933 0.500000 0.856181
O O2 0.946726 0.232821 0.762725
O O3 0.916391 0.331454 0.929243
O O4 0.000000 0.277086 0.000000
O O5 0.084145 0.500000 0.898008
O O6 0.060099 0.226954 0.844722
O O7 0.146247 0.285435 0.983493
O O8 0.322734 0.792947 0.314561
O O9 0.399512 0.751219 0.528606
O O10 0.411314 0.759000 0.330839
O O11 0.382474 0.000000 0.410378
O O12 0.228110 0.819296 0.142206
O O13 0.294670 0.000000 0.158910
O O14 0.292958 0.704270 0.093161
O O15 0.004811 0.784682 0.369455
O O16 0.062357 0.000000 0.377085
O O17 0.331342 0.500000 0.999499
O O18 0.054804 0.000000 0.701943
#
# Coordination Sequence:
#
# PCOD9223653 Si02
#       7
#     8   8   8   8   8   8   8
#     4  10  21  38  58  78 104 142 185 225 266 317
#     4  11  21  34  55  81 110 141 179 223 267 320
#     4  11  22  36  56  79 109 147 184 220 263 321
#     4   9  19  34  52  78 109 142 179 218 265 323
#     4  11  24  38  54  78 111 145 182 225 269 320
#     4  10  19  32  53  80 110 141 174 220 273 321
#     4  11  22  35  52  79 112 145 179 218 268 321
#
# _framework density 9.1965979999999998
#
# number of rings (size 3 to 8) (size 9 to 14) (size 15 to 20)
#    0.000    1.571    2.857    2.571    0.000    6.000 
#    0.000    0.000    0.000    0.857    0.000    0.000 
#    0.000    0.000    0.000    0.000    0.000    0.000 
#
# Total GULP energy -155921.309395 kJ/mol
# GULP energy per Si atom -5568.618193 kJ/mol
# Density = 0.917567 g / cm^3
# Si number density = 9.196598 Si / 1000 Ang^3
#
#
#
# Elastic Constant Matrix: (Units=GPa)
#
#
# Indices 1 2 3 4 5 6 
#
# 1 5.2607 -5.3518 12.5202 0.0000 11.4554 0.0000
# 2 -5.3518 28.0132 22.1591 0.0000 5.5344 0.0000
# 3 12.5202 22.1591 109.5646 0.0000 25.6547 0.0000
# 4 0.0000 0.0000 0.0000 -1.6851 0.0000 25.9768
# 5 11.4554 5.5344 25.6547 0.0000 32.1949 0.0000
# 6 0.0000 0.0000 0.0000 25.9768 0.0000 -2.9415
#
#
#
# Elastic Compliance Matrix: (Units=1/GPa)
#
#
# Indices 1 2 3 4 5 6 
#
# 1 -0.601569 -0.204467 0.063616 0.000000 0.198502 0.000000
# 2 -0.204467 -0.026992 0.013157 0.000000 0.066907 0.000000
# 3 0.063616 0.013157 0.006179 0.000000 -0.029821 0.000000
# 4 0.000000 0.000000 0.000000 0.004391 0.000000 0.038781
# 5 0.198502 0.066907 -0.029821 0.000000 -0.027308 0.000000
# 6 0.000000 0.000000 0.000000 0.038781 0.000000 0.002516
#
#
# Mechanical properties :
#
#
# Convention : Reuss Voigt Hill
#
# Bulk Modulus (GPa) = -1.13925 22.38814 10.62444
# Shear Modulus (GPa) = -7.35311 13.08107 2.86398
#
# Velocity S-wave (km/s) = -2.00160 2.66971 1.24919
# Velocity P-wave (km/s) = 2.44185 4.65849 2.80525
#
# Compressibility (1/GPa) = -0.87776819
#
# Stress axis : x y z
#
# Youngs Moduli (GPa) = -1.66232 -37.04843 161.83551
#
# Poissons Ratio (x) = -7.57517 -10.29528
# Poissons Ratio (y) = -0.33989 -2.12933
# Poissons Ratio (z) = 0.10575 0.48746
#
# Static dielectric constant tensor:
#      x y z
#    x 1.759440 0.000000 -0.022840 
#    y 0.000000 1.634840 0.000000 
#    z -0.022840 0.000000 1.632360 
# 
# From -- ./inp_files/186396.got.cif
#   From: 2010.05.17/outbox.ucp.g08.bks.cvg/sg12_94_cif.got.tgz:186396.got - 2010.06.11 11:47:21.
