data_PCOD9223255
_publ_section_title
;
Structure prediction by ZEFSAII (Michael W. Deem and Ramdas Pophale) SiO2 
 PCOD9223255
Probable space group: C 2/M
;
_chemical_formula_sum "Si O2"
_cell_formula_units_Z 32
_cell_length_a 27.000000
_cell_length_b 9.000000
_cell_length_c 21.000000
_cell_angle_alpha 90.000000
_cell_angle_beta 130.000000
_cell_angle_gamma 90.000000
_cell_volume 3909.124793
_symmetry_space_group_name_H-M "C 2/M"
_symmetry_group_IT_number 12
_symmetry_cell_setting 'monoclinic'
loop_
_space_group_symop_operation_xyz
x,y,z
-x,y,-z
-x,-y,-z
x,-y,z
1/2+x,1/2+y,z
1/2-x,1/2+y,-z
1/2-x,1/2-y,-z
1/2+x,1/2-y,z
loop_
_atom_site_type_symbol
_atom_site_label
_atom_site_fract_x
_atom_site_fract_y
_atom_site_fract_z
Si Si1 0.557213 0.677845 0.096186
Si Si2 0.008783 0.168406 0.703860
Si Si3 0.349655 0.172764 0.030040
Si Si4 0.995641 0.325919 0.822710
Si Si5 0.815681 0.675133 0.255309
Si Si6 0.315606 0.823527 0.855631
Si Si7 0.662761 0.334024 0.854874
Si Si8 0.537041 0.179134 0.595814
O O1 0.560043 0.500000 0.098133
O O2 0.540474 0.737039 0.152158
O O3 0.624352 0.745357 0.128349
O O4 0.500000 0.724251 0.000000
O O5 0.085275 0.158840 0.783093
O O6 0.005681 0.246203 0.632417
O O7 0.981789 0.261230 0.741068
O O8 0.983379 0.000000 0.680804
O O9 0.427626 0.188276 0.098040
O O10 0.322738 0.279817 0.062349
O O11 0.335657 0.000000 0.033513
O O12 0.324432 0.206651 0.938732
O O13 0.979879 0.500000 0.812010
O O14 0.807729 0.500000 0.258224
O O15 0.752614 0.762406 0.226230
O O16 0.817703 0.715953 0.182100
O O17 0.886280 0.719779 0.341113
O O18 0.319303 0.000000 0.850456
O O19 0.688584 0.500000 0.862730
O O20 0.500000 0.218758 0.500000
O O21 0.534301 0.000000 0.600967
#
# Coordination Sequence:
#
# PCOD9223255 Si02
#       8
#     8   8   8   8   8   8   8   8
#     4  11  22  34  50  72  98 130 173 221 262 295
#     4   9  17  29  47  75 105 130 162 205 251 297
#     4   9  18  30  45  65  90 126 169 209 246 286
#     4  10  18  31  50  70  97 133 173 214 254 294
#     4  10  20  34  50  70  98 129 162 203 249 297
#     4  11  22  35  49  67  95 131 172 212 251 296
#     4   9  17  29  46  66  92 127 165 203 243 290
#     4   9  18  34  56  80 105 133 164 199 245 305
#
# _framework density 8.1859760000000001
#
# number of rings (size 3 to 8) (size 9 to 14) (size 15 to 20)
#    0.000    2.250    1.250    2.250    0.000    6.250 
#    0.000    0.000    0.000    0.000    0.000    0.875 
#    0.000    0.000    0.000    0.000    0.000    0.000 
#
# Total GULP energy -178482.204198 kJ/mol
# GULP energy per Si atom -5577.568881 kJ/mol
# Density = 0.816734 g / cm^3
# Si number density = 8.185976 Si / 1000 Ang^3
#
#
#
# Elastic Constant Matrix: (Units=GPa)
#
#
# Indices 1 2 3 4 5 6 
#
# 1 68.2425 36.5091 56.6367 0.0000 -3.6119 0.0000
# 2 36.5091 61.3181 48.9636 0.0000 -3.4838 0.0000
# 3 56.6367 48.9636 97.6338 0.0000 -13.5765 0.0000
# 4 0.0000 0.0000 0.0000 17.9709 0.0000 -3.1728
# 5 -3.6119 -3.4838 -13.5765 0.0000 19.5836 0.0000
# 6 0.0000 0.0000 0.0000 -3.1728 0.0000 26.7538
#
#
#
# Elastic Compliance Matrix: (Units=1/GPa)
#
#
# Indices 1 2 3 4 5 6 
#
# 1 0.030410 -0.006147 -0.015416 0.000000 -0.006172 0.000000
# 2 -0.006147 0.028914 -0.011484 0.000000 -0.003952 0.000000
# 3 -0.015416 -0.011484 0.026854 0.000000 0.013730 0.000000
# 4 0.000000 0.000000 0.000000 0.056835 0.000000 0.006740
# 5 -0.006172 -0.003952 0.013730 0.000000 0.058740 0.000000
# 6 0.000000 0.000000 0.000000 0.006740 0.000000 0.038177
#
#
# Mechanical properties :
#
#
# Convention : Reuss Voigt Hill
#
# Bulk Modulus (GPa) = 49.79262 56.82370 53.30816
# Shear Modulus (GPa) = 15.98875 18.53400 17.26137
#
# Velocity S-wave (km/s) = 3.12844 3.36826 3.25056
# Velocity P-wave (km/s) = 6.59764 7.06471 6.83517
#
# Compressibility (1/GPa) = 0.02008330
#
# Stress axis : x y z
#
# Youngs Moduli (GPa) = 32.88418 34.58520 37.23857
#
# Poissons Ratio (x) = 0.21258 0.57408
# Poissons Ratio (y) = 0.20213 0.42766
# Poissons Ratio (z) = 0.50695 0.39719
#
# Static dielectric constant tensor:
#      x y z
#    x 1.570700 0.000000 0.017700 
#    y 0.000000 1.550920 0.000000 
#    z 0.017700 0.000000 1.525290 
# 
# From -- ./inp_files/326891.got.cif
#   From: 2010.05.17/outbox.ucp.g08.bks.cvg/sg12_164_cif.got.tgz:326891.got - 2010.06.11 11:47:21.
