data_PCOD9223762
_publ_section_title
;
Structure prediction by ZEFSAII (Michael W. Deem and Ramdas Pophale) SiO2 
 PCOD9223762
Probable space group: C 2/M
;
_chemical_formula_sum "Si O2"
_cell_formula_units_Z 32
_cell_length_a 24.000000
_cell_length_b 9.000000
_cell_length_c 21.000000
_cell_angle_alpha 90.000000
_cell_angle_beta 50.000000
_cell_angle_gamma 90.000000
_cell_volume 3474.777594
_symmetry_space_group_name_H-M "C 2/M"
_symmetry_group_IT_number 12
_symmetry_cell_setting 'monoclinic'
loop_
_space_group_symop_operation_xyz
x,y,z
-x,y,-z
-x,-y,-z
x,-y,z
1/2+x,1/2+y,z
1/2-x,1/2+y,-z
1/2-x,1/2-y,-z
1/2+x,1/2-y,z
loop_
_atom_site_type_symbol
_atom_site_label
_atom_site_fract_x
_atom_site_fract_y
_atom_site_fract_z
Si Si1 0.422558 0.676628 0.584023
Si Si2 0.404101 0.322786 0.747265
Si Si3 0.242438 0.676507 0.172728
Si Si4 0.965990 0.675582 0.127079
Si Si5 0.700790 0.679719 0.590901
Si Si6 0.275158 0.178411 0.667706
Si Si7 0.613991 0.824563 0.941365
Si Si8 0.960374 0.178934 0.268047
O O1 0.500000 0.720343 0.500000
O O2 0.411833 0.500000 0.581803
O O3 0.423239 0.703571 0.659162
O O4 0.356979 0.763472 0.599504
O O5 0.395880 0.500000 0.761882
O O6 0.326864 0.244311 0.811705
O O7 0.469000 0.269198 0.744918
O O8 0.237170 0.500000 0.176844
O O9 0.244270 0.729321 0.245965
O O10 0.316958 0.732512 0.088276
O O11 0.954109 0.500000 0.146882
O O12 0.911981 0.723843 0.110151
O O13 0.959553 0.763049 0.196815
O O14 0.045897 0.693107 0.038062
O O15 0.706339 0.500000 0.583826
O O16 0.750000 0.750000 0.500000
O O17 0.726690 0.726652 0.643146
O O18 0.616462 0.722363 0.644310
O O19 0.273075 0.000000 0.670178
O O20 0.631153 0.000000 0.925538
O O21 0.962351 0.000000 0.265857
#
# Coordination Sequence:
#
# PCOD9223762 Si02
#       8
#     8   8   8   8   8   8   8   8
#     4   9  18  31  52  76  95 126 175 221 258 305
#     4   9  19  35  52  74 104 141 178 217 268 317
#     4  10  19  33  55  81 106 136 176 222 265 312
#     4   9  19  35  56  83 111 141 176 214 262 317
#     4  10  22  37  53  76 105 139 176 216 263 315
#     4   9  19  34  49  72 105 134 165 210 265 312
#     4   9  18  34  56  82 112 140 171 217 266 313
#     4  10  21  37  56  76 108 145 177 218 267 316
#
# _framework density 9.2092220000000005
#
# number of rings (size 3 to 8) (size 9 to 14) (size 15 to 20)
#    0.000    2.625    0.000    1.875    1.750    4.250 
#    0.000    1.875    0.000    0.000    0.000    0.000 
#    0.000    0.000    0.000    0.000    0.000    0.000 
#
# Total GULP energy -178432.740234 kJ/mol
# GULP energy per Si atom -5576.023132 kJ/mol
# Density = 0.918826 g / cm^3
# Si number density = 9.209222 Si / 1000 Ang^3
#
#
#
# Elastic Constant Matrix: (Units=GPa)
#
#
# Indices 1 2 3 4 5 6 
#
# 1 103.3812 30.1942 46.4070 0.0001 -17.9981 -0.0001
# 2 30.1942 0.7926 21.7133 0.0009 -3.0194 -0.0008
# 3 46.4070 21.7133 35.7583 -0.0001 -10.9420 0.0000
# 4 0.0001 0.0009 -0.0001 22.4415 0.0000 4.2882
# 5 -17.9981 -3.0194 -10.9420 0.0000 19.8581 0.0000
# 6 -0.0001 -0.0008 0.0000 4.2882 0.0000 25.1605
#
#
#
# Elastic Compliance Matrix: (Units=1/GPa)
#
#
# Indices 1 2 3 4 5 6 
#
# 1 0.023312 0.005035 -0.032009 -0.000001 0.004257 0.000000
# 2 0.005035 -0.074739 0.044224 0.000004 0.017567 -0.000003
# 3 -0.032009 0.044224 0.043101 -0.000002 0.001462 0.000002
# 4 -0.000001 0.000004 -0.000002 0.046060 -0.000001 -0.007850
# 5 0.004257 0.017567 0.001462 -0.000001 0.057692 0.000001
# 6 0.000000 -0.000003 0.000002 -0.007850 0.000001 0.041083
#
#
# Mechanical properties :
#
#
# Convention : Reuss Voigt Hill
#
# Bulk Modulus (GPa) = 38.20614 37.39568 37.80091
# Shear Modulus (GPa) = 45.15281 16.26653 30.70967
#
# Velocity S-wave (km/s) = 4.95663 2.97503 4.08773
# Velocity P-wave (km/s) = 7.31752 5.66997 6.54579
#
# Compressibility (1/GPa) = 0.02617380
#
# Stress axis : x y z
#
# Youngs Moduli (GPa) = 42.89594 -13.37997 23.20135
#
# Poissons Ratio (x) = 0.06737 0.74266
# Poissons Ratio (y) = -0.21599 -1.02605
# Poissons Ratio (z) = 1.37308 0.59171
#
# Static dielectric constant tensor:
#      x y z
#    x 1.629790 0.000000 -0.016700 
#    y 0.000000 1.618050 0.000000 
#    z -0.016700 0.000000 1.635770 
# 
# From -- ./inp_files/324181.got.cif
#   From: 2010.05.17/outbox.ucp.g08.bks.cvg/sg12_163_cif.got.tgz:324181.got - 2010.06.11 11:47:21.
