data_PCOD9223627
_publ_section_title
;
Structure prediction by ZEFSAII (Michael W. Deem and Ramdas Pophale) SiO2 
 PCOD9223627
Probable space group: C 2/M
;
_chemical_formula_sum "Si O2"
_cell_formula_units_Z 28
_cell_length_a 15.000000
_cell_length_b 9.000000
_cell_length_c 30.000000
_cell_angle_alpha 90.000000
_cell_angle_beta 130.000000
_cell_angle_gamma 90.000000
_cell_volume 3102.479995
_symmetry_space_group_name_H-M "C 2/M"
_symmetry_group_IT_number 12
_symmetry_cell_setting 'monoclinic'
loop_
_space_group_symop_operation_xyz
x,y,z
-x,y,-z
-x,-y,-z
x,-y,z
1/2+x,1/2+y,z
1/2-x,1/2+y,-z
1/2-x,1/2-y,-z
1/2+x,1/2-y,z
loop_
_atom_site_type_symbol
_atom_site_label
_atom_site_fract_x
_atom_site_fract_y
_atom_site_fract_z
Si Si1 0.891922 0.330744 0.931725
Si Si2 0.815170 0.677982 0.651516
Si Si3 0.571889 0.171846 0.567626
Si Si4 0.503340 0.820788 0.640150
Si Si5 0.058232 0.176821 0.141339
Si Si6 0.699150 0.321281 0.939306
Si Si7 0.771482 0.820215 0.729737
O O1 0.879972 0.500000 0.910934
O O2 0.914247 0.219107 0.899701
O O3 0.779979 0.288113 0.923782
O O4 0.000000 0.329544 0.000000
O O5 0.823383 0.500000 0.657946
O O6 0.684138 0.726420 0.597713
O O7 0.829102 0.754245 0.703971
O O8 0.907423 0.733467 0.644202
O O9 0.500000 0.173244 0.500000
O O10 0.492903 0.217883 0.584517
O O11 0.610493 0.000000 0.588808
O O12 0.636747 0.775964 0.692179
O O13 0.497238 0.000000 0.641257
O O14 0.155688 0.235363 0.205280
O O15 0.930210 0.234232 0.110695
O O16 0.055450 0.000000 0.145543
O O17 0.699348 0.500000 0.945220
O O18 0.750000 0.250000 0.000000
O O19 0.773994 0.000000 0.728193
#
# Coordination Sequence:
#
# PCOD9223627 Si02
#       7
#     8   8   8   8   8   8   8
#     4  10  20  34  51  72 101 134 161 197 256 311
#     4  10  19  32  52  77 103 134 171 214 258 295
#     4   9  18  34  54  76 106 145 179 206 248 304
#     4   8  16  32  52  72 101 137 169 207 255 303
#     4  10  21  35  54  77  99 128 170 215 252 299
#     4  10  20  34  51  73 100 130 164 203 250 303
#     4   9  19  37  54  71 100 135 170 210 257 308
#
# _framework density 9.0250380000000003
#
# number of rings (size 3 to 8) (size 9 to 14) (size 15 to 20)
#    0.000    2.571    1.429    1.286    0.000    3.429 
#    0.000    5.714    0.000    0.000    0.000    0.000 
#    0.000    0.000    0.000    0.000    0.000    0.000 
#
# Total GULP energy -155873.730481 kJ/mol
# GULP energy per Si atom -5566.918946 kJ/mol
# Density = 0.900450 g / cm^3
# Si number density = 9.025038 Si / 1000 Ang^3
#
#
#
# Elastic Constant Matrix: (Units=GPa)
#
#
# Indices 1 2 3 4 5 6 
#
# 1 79.8642 11.2585 5.1975 0.0000 -9.8233 0.0000
# 2 11.2585 -0.6508 -1.7131 0.0000 2.6095 0.0000
# 3 5.1975 -1.7131 42.5447 0.0000 -6.1865 0.0000
# 4 0.0000 0.0000 0.0000 15.3871 0.0000 -4.9365
# 5 -9.8233 2.6095 -6.1865 0.0000 -2.6526 0.0000
# 6 0.0000 0.0000 0.0000 -4.9365 0.0000 27.0937
#
#
#
# Elastic Compliance Matrix: (Units=1/GPa)
#
#
# Indices 1 2 3 4 5 6 
#
# 1 0.014821 -0.095057 -0.020325 0.000000 -0.100998 0.000000
# 2 -0.095057 1.788030 0.291663 0.000000 1.430767 0.000000
# 3 -0.020325 0.291663 0.067506 0.000000 0.204751 0.000000
# 4 0.000000 0.000000 0.000000 0.069024 0.000000 0.012576
# 5 -0.100998 1.430767 0.204751 0.000000 0.927018 0.000000
# 6 0.000000 0.000000 0.000000 0.012576 0.000000 0.039200
#
#
# Mechanical properties :
#
#
# Convention : Reuss Voigt Hill
#
# Bulk Modulus (GPa) = 0.44986 16.80487 8.62736
# Shear Modulus (GPa) = 1.51791 15.09998 8.30895
#
# Velocity S-wave (km/s) = 0.91802 2.89547 2.14785
# Velocity P-wave (km/s) = 1.17195 4.52865 3.30773
#
# Compressibility (1/GPa) = 2.22291944
#
# Stress axis : x y z
#
# Youngs Moduli (GPa) = 67.46957 0.55927 14.81359
#
# Poissons Ratio (x) = 0.05316 0.30108
# Poissons Ratio (y) = 6.41347 -4.32058
# Poissons Ratio (z) = 1.37130 -0.16312
#
# Static dielectric constant tensor:
#      x y z
#    x 1.597440 0.000000 0.007470 
#    y 0.000000 1.654330 0.000000 
#    z 0.007470 0.000000 1.637630 
# 
# From -- ./inp_files/375128.got.cif
#   From: 2010.05.17/outbox.ucp.g08.bks.cvg/sg12_188_cif.got.tgz:375128.got - 2010.06.11 11:47:21.
