data_PCOD9223355
_publ_section_title
;
Structure prediction by ZEFSAII (Michael W. Deem and Ramdas Pophale) SiO2 
 PCOD9223355
Probable space group: C 2/M
;
_chemical_formula_sum "Si O2"
_cell_formula_units_Z 20
_cell_length_a 27.000000
_cell_length_b 9.000000
_cell_length_c 18.000000
_cell_angle_alpha 90.000000
_cell_angle_beta 30.000000
_cell_angle_gamma 90.000000
_cell_volume 2187.000000
_symmetry_space_group_name_H-M "C 2/M"
_symmetry_group_IT_number 12
_symmetry_cell_setting 'monoclinic'
loop_
_space_group_symop_operation_xyz
x,y,z
-x,y,-z
-x,-y,-z
x,-y,z
1/2+x,1/2+y,z
1/2-x,1/2+y,-z
1/2-x,1/2-y,-z
1/2+x,1/2-y,z
loop_
_atom_site_type_symbol
_atom_site_label
_atom_site_fract_x
_atom_site_fract_y
_atom_site_fract_z
Si Si1 0.797223 0.321204 0.621382
Si Si2 0.029426 0.320832 0.722727
Si Si3 0.616437 0.829876 0.333436
Si Si4 0.643774 0.323924 0.144523
Si Si5 0.836214 0.180288 0.336143
O O1 0.795563 0.500000 0.628042
O O2 0.888016 0.283796 0.447941
O O3 0.823890 0.274131 0.670785
O O4 0.697957 0.278873 0.703848
O O5 0.024875 0.500000 0.735101
O O6 0.065792 0.248453 0.753145
O O7 0.929517 0.252777 0.819468
O O8 0.500000 0.844253 0.500000
O O9 0.617933 0.719878 0.262348
O O10 0.651516 0.000000 0.269339
O O11 0.643667 0.500000 0.133758
O O12 0.750000 0.250000 0.000000
O O13 0.750000 0.250000 0.500000
O O14 0.836667 0.000000 0.341169
#
# Coordination Sequence:
#
# PCOD9223355 Si02
#       5
#     8   8   8   8   8
#     4   8  15  28  50  78 109 142 175 212 265 322
#     4  10  18  33  53  76 106 143 181 223 272 324
#     4  10  18  34  58  81 110 147 180 219 271 324
#     4  12  25  39  55  79 109 145 185 227 273 328
#     4   9  16  27  45  75 109 143 179 219 265 318
#
# _framework density 9.1449470000000002
#
# number of rings (size 3 to 8) (size 9 to 14) (size 15 to 20)
#    0.000    2.200    2.000    4.200    0.000    0.400 
#    0.000    2.000    0.000    1.200    0.000    8.400 
#    0.000    0.000    0.000    0.000    0.000    0.000 
#
# Total GULP energy -111352.767330 kJ/mol
# GULP energy per Si atom -5567.638367 kJ/mol
# Density = 0.912413 g / cm^3
# Si number density = 9.144947 Si / 1000 Ang^3
#
#
#
# Elastic Constant Matrix: (Units=GPa)
#
#
# Indices 1 2 3 4 5 6 
#
# 1 194.7432 47.4815 26.7301 0.0002 -40.6270 -0.0001
# 2 47.4815 96.3032 21.9727 0.0006 -17.6319 -0.0002
# 3 26.7301 21.9727 33.9446 0.0000 -17.5061 -0.0001
# 4 0.0002 0.0006 0.0000 10.3086 0.0001 -7.2355
# 5 -40.6270 -17.6319 -17.5061 0.0001 23.7292 0.0000
# 6 -0.0001 -0.0002 -0.0001 -7.2355 0.0000 35.1747
#
#
#
# Elastic Compliance Matrix: (Units=1/GPa)
#
#
# Indices 1 2 3 4 5 6 
#
# 1 0.008313 -0.001956 0.002115 0.000000 0.014340 0.000000
# 2 -0.001956 0.013058 -0.005868 -0.000001 0.002025 0.000000
# 3 0.002115 -0.005868 0.050380 0.000000 0.036429 0.000000
# 4 0.000000 -0.000001 0.000000 0.113376 -0.000001 0.023322
# 5 0.014340 0.002025 0.036429 -0.000001 0.095074 0.000000
# 6 0.000000 0.000000 0.000000 0.023322 0.000000 0.033227
#
#
# Mechanical properties :
#
#
# Convention : Reuss Voigt Hill
#
# Bulk Modulus (GPa) = 16.57449 57.48440 37.02944
# Shear Modulus (GPa) = 14.49463 29.09627 21.79545
#
# Velocity S-wave (km/s) = 2.81818 3.99286 3.45580
# Velocity P-wave (km/s) = 4.43523 7.26327 6.01774
#
# Compressibility (1/GPa) = 0.06033367
#
# Stress axis : x y z
#
# Youngs Moduli (GPa) = 120.29171 76.58275 19.84926
#
# Poissons Ratio (x) = 0.14978 -0.04199
# Poissons Ratio (y) = 0.23527 0.11648
# Poissons Ratio (z) = -0.25447 0.44939
#
# Static dielectric constant tensor:
#      x y z
#    x 1.660910 0.000000 0.018810 
#    y 0.000000 1.630720 0.000000 
#    z 0.018810 0.000000 1.971160 
# 
# From -- ./inp_files/220597.got.cif
#   From: 2010.05.17/outbox.ucp.g08.bks.cvg/sg12_111_cif.got.tgz:220597.got - 2010.06.11 11:47:21.
