data_PCOD9223078
_publ_section_title
;
Structure prediction by ZEFSAII (Michael W. Deem and Ramdas Pophale) SiO2 
 PCOD9223078
Probable space group: C 2/M
;
_chemical_formula_sum "Si O2"
_cell_formula_units_Z 64
_cell_length_a 24.188396
_cell_length_b 7.280831
_cell_length_c 15.467585
_cell_angle_alpha 90.000000
_cell_angle_beta 74.215399
_cell_angle_gamma 90.000000
_cell_volume 2621.301753
_symmetry_space_group_name_H-M "C 2/M"
_symmetry_group_IT_number 12
_symmetry_cell_setting 'monoclinic'
loop_
_space_group_symop_operation_xyz
x,y,z
-x,y,-z
-x,-y,-z
x,-y,z
1/2+x,1/2+y,z
1/2-x,1/2+y,-z
1/2-x,1/2-y,-z
1/2+x,1/2-y,z
loop_
_atom_site_type_symbol
_atom_site_label
_atom_site_fract_x
_atom_site_fract_y
_atom_site_fract_z
Si Si1 0.950885 0.222585 0.585642
Si Si2 0.584905 0.724516 0.211300
Si Si3 0.288550 0.717473 0.798925
Si Si4 0.636357 0.723307 0.521964
Si Si5 0.126111 0.204650 0.704967
Si Si6 0.243082 0.223909 0.379891
Si Si7 0.656626 0.280288 0.879364
Si Si8 0.552055 0.723606 0.039420
O O1 0.944202 0.284704 0.686731
O O2 0.895354 0.267570 0.553045
O O3 0.000000 0.287489 0.500000
O O4 0.956164 0.000000 0.588554
O O5 0.584564 0.500000 0.210897
O O6 0.652309 0.784283 0.182996
O O7 0.551723 0.782680 0.139096
O O8 0.295911 0.500000 0.792491
O O9 0.283162 0.779245 0.702033
O O10 0.224327 0.744875 0.864542
O O11 0.635416 0.500000 0.528195
O O12 0.604949 0.788623 0.623165
O O13 0.700761 0.785998 0.473546
O O14 0.193437 0.195783 0.649975
O O15 0.131385 0.290407 0.797775
O O16 0.100346 0.000000 0.725226
O O17 0.246889 0.000000 0.378739
O O18 0.652754 0.500000 0.873512
O O19 0.613174 0.221472 0.972110
O O20 0.550236 0.500000 0.039925
O O21 0.500000 0.784321 0.000000
#
# Coordination Sequence:
#
# PCOD9223078 Si02
#       8
#     8   8   8   8   8   8   8   8
#     4   9  16  25  39  62  90 117 149 192 234 270
#     4   9  16  28  45  66  91 121 157 194 235 282
#     4   9  16  28  48  70  94 125 157 191 233 281
#     4   9  15  24  37  56  84 117 147 179 221 265
#     4   9  17  26  39  61  91 119 143 178 223 263
#     4   9  15  25  41  60  87 118 149 180 214 264
#     4   9  18  31  45  68  99 125 155 195 233 274
#     4   9  18  31  47  65  90 125 159 191 232 283
#
# _framework density 24.415351000000001
#
# number of rings (size 3 to 8) (size 9 to 14) (size 15 to 20)
#    0.000    3.000    1.250    0.375    0.000    1.500 
#    0.000    5.000    0.000    0.375    0.000    0.000 
#    0.000    4.500    0.000    0.000    0.000    0.000 
#
# Total GULP energy -178466.199300 kJ/mol
# GULP energy per Si atom -5577.068728 kJ/mol
# Density = 2.435978 g / cm^3
# Si number density = 24.415351 Si / 1000 Ang^3
#
#
#
# Elastic Constant Matrix: (Units=GPa)
#
#
# Indices 1 2 3 4 5 6 
#
# 1 100.9968 -4.9021 81.2870 0.0000 10.5223 0.0000
# 2 -4.9021 105.0128 -0.1704 0.0000 6.4747 0.0000
# 3 81.2870 -0.1704 163.1522 0.0000 23.7034 0.0000
# 4 0.0000 0.0000 0.0000 2.5847 0.0000 -8.9487
# 5 10.5223 6.4747 23.7034 0.0000 39.2131 0.0000
# 6 0.0000 0.0000 0.0000 -8.9487 0.0000 2.5878
#
#
#
# Elastic Compliance Matrix: (Units=1/GPa)
#
#
# Indices 1 2 3 4 5 6 
#
# 1 0.016598 0.000733 -0.008336 0.000000 0.000464 0.000000
# 2 0.000733 0.009663 -0.000104 0.000000 -0.001729 0.000000
# 3 -0.008336 -0.000104 0.010913 0.000000 -0.004343 0.000000
# 4 0.000000 0.000000 0.000000 -0.035261 0.000000 -0.121933
# 5 0.000464 -0.001729 -0.004343 0.000000 0.028288 0.000000
# 6 0.000000 0.000000 0.000000 -0.121933 0.000000 -0.035218
#
#
# Mechanical properties :
#
#
# Convention : Reuss Voigt Hill
#
# Bulk Modulus (GPa) = 45.95554 57.95453 51.95504
# Shear Modulus (GPa) = 283.27493 28.40695 155.84094
#
# Velocity S-wave (km/s) = 10.78310 3.41469 7.99798
# Velocity P-wave (km/s) = 13.18699 6.27179 10.32550
#
# Compressibility (1/GPa) = 0.02176016
#
# Stress axis : x y z
#
# Youngs Moduli (GPa) = 60.24874 103.48417 91.63034
#
# Poissons Ratio (x) = -0.07582 0.76385
# Poissons Ratio (y) = -0.04414 0.00950
# Poissons Ratio (z) = 0.50225 0.01073
#
# Static dielectric constant tensor:
#      x y z
#    x 2.107280 0.000000 0.065910 
#    y 0.000000 1.955180 0.000000 
#    z 0.065910 0.000000 1.951940 
# 
# From -- ./inp_files/232434.got.cif
#   From: 2010.05.17/outbox.cif.g08.bks.cpg/sg12_117_cif.got.tgz:232434.got - 2010.06.03 13:09:07.
