data_PCOD9223933
_publ_section_title
;
Structure prediction by ZEFSAII (Michael W. Deem and Ramdas Pophale) SiO2 
 PCOD9223933
Probable space group: C 2/M
;
_chemical_formula_sum "Si O2"
_cell_formula_units_Z 32
_cell_length_a 30.000000
_cell_length_b 9.000000
_cell_length_c 15.000000
_cell_angle_alpha 90.000000
_cell_angle_beta 50.000000
_cell_angle_gamma 90.000000
_cell_volume 3102.479995
_symmetry_space_group_name_H-M "C 2/M"
_symmetry_group_IT_number 12
_symmetry_cell_setting 'monoclinic'
loop_
_space_group_symop_operation_xyz
x,y,z
-x,y,-z
-x,-y,-z
x,-y,z
1/2+x,1/2+y,z
1/2-x,1/2+y,-z
1/2-x,1/2-y,-z
1/2+x,1/2-y,z
loop_
_atom_site_type_symbol
_atom_site_label
_atom_site_fract_x
_atom_site_fract_y
_atom_site_fract_z
Si Si1 0.137564 0.822171 0.490839
Si Si2 0.859978 0.823654 0.012086
Si Si3 0.238088 0.677796 0.610574
Si Si4 0.766656 0.678138 0.884053
Si Si5 0.058884 0.678281 0.231431
Si Si6 0.109513 0.320872 0.847135
Si Si7 0.554403 0.178816 0.737091
Si Si8 0.889061 0.178604 0.670629
O O1 0.206180 0.783212 0.399856
O O2 0.108053 0.741981 0.611715
O O3 0.104408 0.783871 0.442155
O O4 0.133547 0.000000 0.507675
O O5 0.790386 0.796894 0.104471
O O6 0.893469 0.761206 0.055045
O O7 0.868783 0.000000 0.990570
O O8 0.885550 0.737966 0.894296
O O9 0.237941 0.500000 0.600870
O O10 0.250000 0.750000 0.500000
O O11 0.174361 0.717175 0.728012
O O12 0.775272 0.500000 0.880840
O O13 0.825533 0.756077 0.776425
O O14 0.750000 0.750000 0.000000
O O15 0.059680 0.500000 0.237233
O O16 0.064325 0.750543 0.322004
O O17 0.003465 0.724075 0.242285
O O18 0.105795 0.500000 0.865647
O O19 0.063673 0.278182 0.828694
O O20 0.556434 0.000000 0.733423
O O21 0.888857 0.000000 0.680746
#
# Coordination Sequence:
#
# PCOD9223933 Si02
#       8
#     8   8   8   8   8   8   8   8
#     4  10  22  38  60  90 122 157 195 243 301 356
#     4  11  24  40  61  91 122 155 196 244 298 356
#     4  10  19  34  59  89 120 155 192 236 293 352
#     4  11  22  37  61  91 123 158 196 242 298 357
#     4  11  24  42  63  86 116 157 204 252 301 351
#     4  10  21  39  62  88 121 159 197 242 295 353
#     4  10  23  42  63  87 116 157 206 251 296 351
#     4  11  23  40  62  90 123 158 199 243 297 363
#
# _framework density 10.314329000000001
#
# number of rings (size 3 to 8) (size 9 to 14) (size 15 to 20)
#    0.000    1.500    2.500    2.250    0.000    6.500 
#    0.000    5.000    0.000    0.000    0.000    0.000 
#    0.000    0.000    0.000    0.000    0.000    0.000 
#
# Total GULP energy -178816.127798 kJ/mol
# GULP energy per Si atom -5588.003994 kJ/mol
# Density = 1.029085 g / cm^3
# Si number density = 10.314329 Si / 1000 Ang^3
#
#
#
# Elastic Constant Matrix: (Units=GPa)
#
#
# Indices 1 2 3 4 5 6 
#
# 1 146.3204 32.2091 1.2778 0.0000 22.5694 0.0000
# 2 32.2091 29.4794 0.2850 0.0000 8.9856 0.0001
# 3 1.2778 0.2850 19.7938 0.0000 15.9941 0.0000
# 4 0.0000 0.0000 0.0000 21.6744 0.0000 6.6833
# 5 22.5694 8.9856 15.9941 0.0000 39.6148 0.0000
# 6 0.0000 0.0001 0.0000 6.6833 0.0000 34.4702
#
#
#
# Elastic Compliance Matrix: (Units=1/GPa)
#
#
# Indices 1 2 3 4 5 6 
#
# 1 0.009512 -0.008984 0.003336 0.000000 -0.004728 0.000000
# 2 -0.008984 0.046074 0.006271 0.000000 -0.007864 0.000000
# 3 0.003336 0.006271 0.078515 0.000000 -0.035023 0.000000
# 4 0.000000 0.000000 0.000000 0.049071 0.000000 -0.009514
# 5 -0.004728 -0.007864 -0.035023 0.000000 0.043861 0.000000
# 6 0.000000 0.000000 0.000000 -0.009514 0.000000 0.030855
#
#
# Mechanical properties :
#
#
# Convention : Reuss Voigt Hill
#
# Bulk Modulus (GPa) = 7.38839 29.23749 18.31294
# Shear Modulus (GPa) = 16.56960 29.94000 23.25480
#
# Velocity S-wave (km/s) = 2.83721 3.81383 3.36118
# Velocity P-wave (km/s) = 3.78449 5.79636 4.89490
#
# Compressibility (1/GPa) = 0.13534755
#
# Stress axis : x y z
#
# Youngs Moduli (GPa) = 105.12913 21.70410 12.73647
#
# Poissons Ratio (x) = 0.19499 -0.04249
# Poissons Ratio (y) = 0.94447 -0.07987
# Poissons Ratio (z) = -0.35071 -0.13611
#
# Static dielectric constant tensor:
#      x y z
#    x 1.774360 0.000000 -0.006470 
#    y 0.000000 1.680380 0.000000 
#    z -0.006470 0.000000 1.746980 
# 
# From -- ./inp_files/249800.got.cif
#   From: 2010.05.17/outbox.ucp.g08.bks.cvg/sg12_125_cif.got.tgz:249800.got - 2010.06.11 11:47:21.
