data_PCOD9223259
_publ_section_title
;
Structure prediction by ZEFSAII (Michael W. Deem and Ramdas Pophale) SiO2 
 PCOD9223259
Probable space group: C 2/M
;
_chemical_formula_sum "Si O2"
_cell_formula_units_Z 32
_cell_length_a 30.000000
_cell_length_b 12.000000
_cell_length_c 15.000000
_cell_angle_alpha 90.000000
_cell_angle_beta 140.000000
_cell_angle_gamma 90.000000
_cell_volume 3471.053092
_symmetry_space_group_name_H-M "C 2/M"
_symmetry_group_IT_number 12
_symmetry_cell_setting 'monoclinic'
loop_
_space_group_symop_operation_xyz
x,y,z
-x,y,-z
-x,-y,-z
x,-y,z
1/2+x,1/2+y,z
1/2-x,1/2+y,-z
1/2-x,1/2-y,-z
1/2+x,1/2-y,z
loop_
_atom_site_type_symbol
_atom_site_label
_atom_site_fract_x
_atom_site_fract_y
_atom_site_fract_z
Si Si1 0.827515 0.865294 0.229306
Si Si2 0.779969 0.370181 0.792836
Si Si3 0.903424 0.130692 0.178393
Si Si4 0.070668 0.273627 0.958572
Si Si5 0.583277 0.222132 0.313912
Si Si6 0.440399 0.370056 0.547893
Si Si7 0.112529 0.126276 0.186626
Si Si8 0.264740 0.800342 0.425464
O O1 0.756303 0.835698 0.169580
O O2 0.844759 0.826651 0.156320
O O3 0.890074 0.832537 0.391628
O O4 0.829800 0.000000 0.226695
O O5 0.765075 0.500000 0.754706
O O6 0.743211 0.297676 0.659846
O O7 0.862701 0.351868 0.921815
O O8 0.911767 0.203198 0.103087
O O9 0.977279 0.135756 0.343574
O O10 0.892193 0.000000 0.138043
O O11 0.993737 0.326553 0.827030
O O12 0.073756 0.187757 0.046072
O O13 0.572725 0.297623 0.384845
O O14 0.599391 0.301714 0.254814
O O15 0.655536 0.155899 0.445303
O O16 0.424431 0.500000 0.541749
O O17 0.196418 0.126508 0.299335
O O18 0.088987 0.000000 0.161197
O O19 0.250000 0.750000 0.500000
#
# Coordination Sequence:
#
# PCOD9223259 Si02
#       8
#     8   8   8   8   8   8   8   8
#     4   9  16  27  46  70  98 131 165 200 246 296
#     4  10  20  35  52  71  99 135 171 205 242 286
#     4   9  17  28  44  71 105 132 159 201 251 298
#     4  10  21  33  48  72 103 134 165 202 242 295
#     4  10  18  31  50  72  99 127 164 203 244 291
#     4   9  15  24  43  72 101 126 155 200 253 297
#     4  10  20  33  50  72  99 130 160 196 246 301
#     4   9  19  33  51  73  96 122 160 205 241 288
#
# _framework density 9.2191039999999997
#
# number of rings (size 3 to 8) (size 9 to 14) (size 15 to 20)
#    0.000    2.500    1.250    1.500    0.000    6.000 
#    0.000    0.625    0.000    9.750    0.000    0.000 
#    0.000    2.250    0.000    0.000    0.000    0.000 
#
# Total GULP energy -178166.957245 kJ/mol
# GULP energy per Si atom -5567.717414 kJ/mol
# Density = 0.919812 g / cm^3
# Si number density = 9.219104 Si / 1000 Ang^3
#
#
#
# Elastic Constant Matrix: (Units=GPa)
#
#
# Indices 1 2 3 4 5 6 
#
# 1 90.7896 5.9828 18.5652 0.0000 0.1700 0.0000
# 2 5.9828 17.8886 -2.1126 0.0000 -3.0378 0.0000
# 3 18.5652 -2.1126 85.6090 0.0000 15.8395 0.0000
# 4 0.0000 0.0000 0.0000 51.6191 0.0000 -5.4097
# 5 0.1700 -3.0378 15.8395 0.0000 35.0806 0.0000
# 6 0.0000 0.0000 0.0000 -5.4097 0.0000 15.3134
#
#
#
# Elastic Compliance Matrix: (Units=1/GPa)
#
#
# Indices 1 2 3 4 5 6 
#
# 1 0.011867 -0.004157 -0.002836 0.000000 0.000863 0.000000
# 2 -0.004157 0.058215 0.001529 0.000000 0.004371 0.000000
# 3 -0.002836 0.001529 0.013428 0.000000 -0.005917 0.000000
# 4 0.000000 0.000000 0.000000 0.020117 0.000000 0.007107
# 5 0.000863 0.004371 -0.005917 0.000000 0.031552 0.000000
# 6 0.000000 0.000000 0.000000 0.007107 0.000000 0.067813
#
#
# Mechanical properties :
#
#
# Convention : Reuss Voigt Hill
#
# Bulk Modulus (GPa) = 13.77731 26.57311 20.17521
# Shear Modulus (GPa) = 20.99843 31.85939 26.42891
#
# Velocity S-wave (km/s) = 3.37835 4.16131 3.79010
# Velocity P-wave (km/s) = 4.76509 6.12633 5.48808
#
# Compressibility (1/GPa) = 0.07258310
#
# Stress axis : x y z
#
# Youngs Moduli (GPa) = 84.26978 17.17781 74.46867
#
# Poissons Ratio (x) = 0.07141 0.21117
# Poissons Ratio (y) = 0.35032 -0.11389
# Poissons Ratio (z) = 0.23896 -0.02627
#
# Static dielectric constant tensor:
#      x y z
#    x 1.689120 0.000000 0.044360 
#    y 0.000000 1.602060 0.000000 
#    z 0.044360 0.000000 1.655540 
# 
# From -- ./inp_files/250846.got.cif
#   From: 2010.05.17/outbox.ucp.g08.bks.cvg/sg12_126_cif.got.tgz:250846.got - 2010.06.11 11:47:21.
