data_PCOD9223392
_publ_section_title
;
Structure prediction by ZEFSAII (Michael W. Deem and Ramdas Pophale) SiO2 
 PCOD9223392
Probable space group: C 2/M
;
_chemical_formula_sum "Si O2"
_cell_formula_units_Z 28
_cell_length_a 30.000000
_cell_length_b 9.000000
_cell_length_c 21.000000
_cell_angle_alpha 90.000000
_cell_angle_beta 150.000000
_cell_angle_gamma 90.000000
_cell_volume 2835.000000
_symmetry_space_group_name_H-M "C 2/M"
_symmetry_group_IT_number 12
_symmetry_cell_setting 'monoclinic'
loop_
_space_group_symop_operation_xyz
x,y,z
-x,y,-z
-x,-y,-z
x,-y,z
1/2+x,1/2+y,z
1/2-x,1/2+y,-z
1/2-x,1/2-y,-z
1/2+x,1/2-y,z
loop_
_atom_site_type_symbol
_atom_site_label
_atom_site_fract_x
_atom_site_fract_y
_atom_site_fract_z
Si Si1 0.798018 0.325194 0.915865
Si Si2 0.922043 0.824312 0.152775
Si Si3 0.522163 0.672614 0.452494
Si Si4 0.197533 0.676432 0.344427
Si Si5 0.146009 0.674414 0.811093
Si Si6 0.612952 0.675805 0.353570
Si Si7 0.225332 0.822743 0.686033
O O1 0.813339 0.500000 0.946870
O O2 0.715639 0.265601 0.855451
O O3 0.769137 0.304112 0.808008
O O4 0.883440 0.226751 0.037767
O O5 0.860503 0.736879 0.125978
O O6 0.025104 0.777558 0.282986
O O7 0.913692 0.000000 0.152486
O O8 0.500000 0.667146 0.500000
O O9 0.511107 0.500000 0.415340
O O10 0.451193 0.783497 0.335389
O O11 0.622397 0.725155 0.562282
O O12 0.180991 0.500000 0.324182
O O13 0.295860 0.703427 0.495960
O O14 0.125416 0.749887 0.300668
O O15 0.211171 0.737316 0.290557
O O16 0.165299 0.500000 0.832916
O O17 0.604541 0.500000 0.334562
O O18 0.218058 0.000000 0.664540
#
# Coordination Sequence:
#
# PCOD9223392 Si02
#       7
#     8   8   8   8   8   8   8
#     4  11  22  39  58  79 110 149 192 232 273 328
#     4  11  23  40  59  79 107 147 191 232 279 332
#     4  10  18  34  58  81 110 150 186 222 271 327
#     4   9  17  33  59  86 110 138 177 223 272 332
#     4  12  24  37  55  83 115 147 186 233 282 328
#     4   9  19  36  58  83 111 139 176 227 280 331
#     4   9  18  34  57  83 111 148 187 223 273 332
#
# _framework density 9.8765429999999999
#
# number of rings (size 3 to 8) (size 9 to 14) (size 15 to 20)
#    0.000    1.857    1.429    3.429    0.000    3.714 
#    0.000    5.714    0.000    4.286    0.000    0.000 
#    0.000    0.000    0.000    0.000    0.000    0.000 
#
# Total GULP energy -156167.911192 kJ/mol
# GULP energy per Si atom -5577.425400 kJ/mol
# Density = 0.985406 g / cm^3
# Si number density = 9.876543 Si / 1000 Ang^3
#
#
#
# Elastic Constant Matrix: (Units=GPa)
#
#
# Indices 1 2 3 4 5 6 
#
# 1 100.6462 25.9135 -8.1600 0.0000 -5.8399 0.0000
# 2 25.9135 7.3797 20.8224 0.0000 -14.2114 0.0000
# 3 -8.1600 20.8224 -5.7667 0.0000 -6.8671 0.0000
# 4 0.0000 0.0000 0.0000 55.5067 0.0000 -56.3210
# 5 -5.8399 -14.2114 -6.8671 0.0000 5.6055 0.0000
# 6 0.0000 0.0000 0.0000 -56.3210 0.0000 127.7484
#
#
#
# Elastic Compliance Matrix: (Units=1/GPa)
#
#
# Indices 1 2 3 4 5 6 
#
# 1 0.008843 0.002359 -0.008983 0.000000 0.004187 0.000000
# 2 0.002359 -0.035306 -0.011045 0.000000 -0.100582 0.000000
# 3 -0.008983 -0.011045 -0.063481 0.000000 -0.115128 0.000000
# 4 0.000000 0.000000 0.000000 0.032599 0.000000 0.014372
# 5 0.004187 -0.100582 -0.115128 0.000000 -0.213279 0.000000
# 6 0.000000 0.000000 0.000000 0.014372 0.000000 0.014164
#
#
# Mechanical properties :
#
#
# Convention : Reuss Voigt Hill
#
# Bulk Modulus (GPa) = -7.98195 19.93452 5.97629
# Shear Modulus (GPa) = -19.01993 42.01769 11.49888
#
# Velocity S-wave (km/s) = -3.10640 4.61710 2.41536
# Velocity P-wave (km/s) = 4.11290 6.20784 3.28796
#
# Compressibility (1/GPa) = -0.12528260
#
# Stress axis : x y z
#
# Youngs Moduli (GPa) = 113.08172 -28.32402 -15.75270
#
# Poissons Ratio (x) = 0.06680 -0.14151
# Poissons Ratio (y) = -0.26671 -0.17398
# Poissons Ratio (z) = 1.01585 -0.31283
#
# Static dielectric constant tensor:
#      x y z
#    x 1.750630 0.000000 -0.083150 
#    y 0.000000 1.661260 0.000000 
#    z -0.083150 0.000000 1.815860 
# 
# From -- ./inp_files/329690.got.cif
#   From: 2010.05.17/outbox.ucp.g08.bks.cvg/sg12_165_cif.got.tgz:329690.got - 2010.06.11 11:47:21.
