data_PCOD9223297
_publ_section_title
;
Structure prediction by ZEFSAII (Michael W. Deem and Ramdas Pophale) SiO2 
 PCOD9223297
Probable space group: C 2/M
;
_chemical_formula_sum "Si O2"
_cell_formula_units_Z 28
_cell_length_a 27.000000
_cell_length_b 9.000000
_cell_length_c 15.000000
_cell_angle_alpha 90.000000
_cell_angle_beta 110.000000
_cell_angle_gamma 90.000000
_cell_volume 3425.179603
_symmetry_space_group_name_H-M "C 2/M"
_symmetry_group_IT_number 12
_symmetry_cell_setting 'monoclinic'
loop_
_space_group_symop_operation_xyz
x,y,z
-x,y,-z
-x,-y,-z
x,-y,z
1/2+x,1/2+y,z
1/2-x,1/2+y,-z
1/2-x,1/2-y,-z
1/2+x,1/2-y,z
loop_
_atom_site_type_symbol
_atom_site_label
_atom_site_fract_x
_atom_site_fract_y
_atom_site_fract_z
Si Si1 0.072063 0.679751 0.600101
Si Si2 0.430430 0.823545 0.096425
Si Si3 0.443948 0.179117 0.797985
Si Si4 0.239545 0.321737 0.091155
Si Si5 0.631508 0.677579 0.100337
Si Si6 0.960981 0.318904 0.610510
Si Si7 0.346690 0.823055 0.206880
O O1 0.067819 0.500000 0.595711
O O2 0.069726 0.729426 0.496789
O O3 0.124431 0.715476 0.683883
O O4 0.020971 0.728911 0.625443
O O5 0.493188 0.793881 0.144841
O O6 0.391748 0.801005 0.158049
O O7 0.425909 0.000000 0.071148
O O8 0.406323 0.722089 0.005010
O O9 0.401047 0.257567 0.834883
O O10 0.438657 0.228093 0.691560
O O11 0.436793 0.000000 0.801606
O O12 0.232908 0.500000 0.079980
O O13 0.188145 0.252737 0.109272
O O14 0.294538 0.274705 0.169618
O O15 0.250000 0.250000 0.000000
O O16 0.638103 0.500000 0.111789
O O17 0.961758 0.500000 0.614779
O O18 0.333477 0.000000 0.195105
#
# Coordination Sequence:
#
# PCOD9223297 Si02
#       7
#     8   8   8   8   8   8   8
#     4   8  13  24  47  81 112 137 169 210 254 305
#     4  10  19  32  52  78 109 144 176 210 258 314
#     4  10  19  33  53  79 110 146 179 213 258 312
#     4  12  24  39  57  77 101 135 176 222 265 312
#     4  12  25  38  52  73 103 143 183 223 263 309
#     4   8  13  24  47  79 111 139 171 209 252 304
#     4  10  18  31  54  82 111 140 171 212 259 308
#
# _framework density 8.1747540000000001
#
# number of rings (size 3 to 8) (size 9 to 14) (size 15 to 20)
#    0.000    2.000    2.857    3.857    0.000    2.286 
#    0.000    0.000    0.000    1.714    0.000    2.000 
#    0.000    0.000    0.000    0.000    0.000    0.000 
#
# Total GULP energy -155946.231390 kJ/mol
# GULP energy per Si atom -5569.508264 kJ/mol
# Density = 0.815615 g / cm^3
# Si number density = 8.174754 Si / 1000 Ang^3
#
#
#
# Elastic Constant Matrix: (Units=GPa)
#
#
# Indices 1 2 3 4 5 6 
#
# 1 146.0646 62.2681 68.2510 0.0000 -12.3673 0.0000
# 2 62.2681 78.3408 43.4379 0.0000 -5.1898 0.0000
# 3 68.2510 43.4379 110.2763 0.0000 -5.0213 0.0000
# 4 0.0000 0.0000 0.0000 9.5415 0.0000 3.9076
# 5 -12.3673 -5.1898 -5.0213 0.0000 22.7720 0.0000
# 6 0.0000 0.0000 0.0000 3.9076 0.0000 28.2843
#
#
#
# Elastic Compliance Matrix: (Units=1/GPa)
#
#
# Indices 1 2 3 4 5 6 
#
# 1 0.012357 -0.006926 -0.004733 0.000000 0.004089 0.000000
# 2 -0.006926 0.020337 -0.003722 0.000000 0.000053 0.000000
# 3 -0.004733 -0.003722 0.013443 0.000000 -0.000455 0.000000
# 4 0.000000 0.000000 0.000000 0.111091 0.000000 -0.015348
# 5 0.004089 0.000053 -0.000455 0.000000 0.046046 0.000000
# 6 0.000000 0.000000 0.000000 -0.015348 0.000000 0.037476
#
#
# Mechanical properties :
#
#
# Convention : Reuss Voigt Hill
#
# Bulk Modulus (GPa) = 65.04371 75.84396 70.44384
# Shear Modulus (GPa) = 18.07422 22.83453 20.45438
#
# Velocity S-wave (km/s) = 3.32850 3.74123 3.54088
# Velocity P-wave (km/s) = 7.39199 8.07170 7.73931
#
# Compressibility (1/GPa) = 0.01537428
#
# Stress axis : x y z
#
# Youngs Moduli (GPa) = 80.92597 49.17129 74.38876
#
# Poissons Ratio (x) = 0.34058 0.35211
# Poissons Ratio (y) = 0.56052 0.27684
# Poissons Ratio (z) = 0.38305 0.18300
#
# Static dielectric constant tensor:
#      x y z
#    x 1.537580 0.000000 0.019450 
#    y 0.000000 1.550450 0.000000 
#    z 0.019450 0.000000 1.619300 
# 
# From -- ./inp_files/243230.got.cif
#   From: 2010.05.17/outbox.ucp.g08.bks.cvg/sg12_122_cif.got.tgz:243230.got - 2010.06.11 11:47:21.
