data_PCOD9223356
_publ_section_title
;
Structure prediction by ZEFSAII (Michael W. Deem and Ramdas Pophale) SiO2 
 PCOD9223356
Probable space group: C 2/M
;
_chemical_formula_sum "Si O2"
_cell_formula_units_Z 32
_cell_length_a 21.000000
_cell_length_b 18.000000
_cell_length_c 12.000000
_cell_angle_alpha 90.000000
_cell_angle_beta 130.000000
_cell_angle_gamma 90.000000
_cell_volume 3474.777594
_symmetry_space_group_name_H-M "C 2/M"
_symmetry_group_IT_number 12
_symmetry_cell_setting 'monoclinic'
loop_
_space_group_symop_operation_xyz
x,y,z
-x,y,-z
-x,-y,-z
x,-y,z
1/2+x,1/2+y,z
1/2-x,1/2+y,-z
1/2-x,1/2-y,-z
1/2+x,1/2-y,z
loop_
_atom_site_type_symbol
_atom_site_label
_atom_site_fract_x
_atom_site_fract_y
_atom_site_fract_z
Si Si1 0.520739 0.694580 0.154624
Si Si2 0.305242 0.849743 0.345001
Si Si3 0.198794 0.414877 0.295086
Si Si4 0.435420 0.144957 0.695287
Si Si5 0.881942 0.217725 0.158226
Si Si6 0.262361 0.201928 0.848117
Si Si7 0.674450 0.586145 0.361676
Si Si8 0.437742 0.863868 0.329203
O O1 0.542380 0.778487 0.217433
O O2 0.444430 0.672604 0.150378
O O3 0.597873 0.641337 0.264688
O O4 0.500000 0.693148 0.000000
O O5 0.374507 0.838378 0.520549
O O6 0.266767 0.771962 0.260171
O O7 0.235470 0.898719 0.325799
O O8 0.349186 0.884247 0.284053
O O9 0.206104 0.500000 0.268316
O O10 0.115702 0.403427 0.274646
O O11 0.203835 0.360045 0.196641
O O12 0.272932 0.397999 0.466729
O O13 0.517543 0.107785 0.732601
O O14 0.815966 0.177250 0.163674
O O15 0.930090 0.275741 0.292795
O O16 0.829976 0.268281 0.012250
O O17 0.649693 0.500000 0.335415
O O18 0.500000 0.879605 0.500000
#
# Coordination Sequence:
#
# PCOD9223356 Si02
#       8
#     8   8   8   8   8   8   8   8
#     4  11  20  32  52  76 101 132 167 208 259 302
#     4   9  16  30  52  73  96 132 171 212 260 298
#     4  10  20  34  52  74 103 138 170 205 252 303
#     4   9  17  30  50  76 101 126 168 215 253 305
#     4   9  19  31  51  78 100 123 162 211 253 299
#     4  10  18  33  54  75 100 129 169 215 256 298
#     4  10  21  34  48  72 104 137 176 212 245 299
#     4   8  15  28  48  74 100 124 157 206 257 298
#
# _framework density 9.2092220000000005
#
# number of rings (size 3 to 8) (size 9 to 14) (size 15 to 20)
#    0.000    2.500    0.000    3.000    0.000    3.250 
#    0.000    1.250    0.000   24.375    0.000    0.000 
#    0.000    0.000    0.000    0.000    0.000    0.000 
#
# Total GULP energy -178281.202006 kJ/mol
# GULP energy per Si atom -5571.287563 kJ/mol
# Density = 0.918826 g / cm^3
# Si number density = 9.209222 Si / 1000 Ang^3
#
#
#
# Elastic Constant Matrix: (Units=GPa)
#
#
# Indices 1 2 3 4 5 6 
#
# 1 122.3797 18.8982 18.3149 0.0000 -5.6014 0.0000
# 2 18.8982 29.8337 14.6295 0.0000 -4.2269 0.0000
# 3 18.3149 14.6295 19.3662 0.0000 -10.7825 0.0000
# 4 0.0000 0.0000 0.0000 8.8933 0.0000 0.4719
# 5 -5.6014 -4.2269 -10.7825 0.0000 25.6107 0.0000
# 6 0.0000 0.0000 0.0000 0.4719 0.0000 0.1751
#
#
#
# Elastic Compliance Matrix: (Units=1/GPa)
#
#
# Indices 1 2 3 4 5 6 
#
# 1 0.009706 -0.002235 -0.008509 0.000000 -0.001828 0.000000
# 2 -0.002235 0.056072 -0.046192 0.000000 -0.010682 0.000000
# 3 -0.008509 -0.046192 0.116637 0.000000 0.039621 0.000000
# 4 0.000000 0.000000 0.000000 0.131209 0.000000 -0.353632
# 5 -0.001828 -0.010682 0.039621 0.000000 0.053565 0.000000
# 6 0.000000 0.000000 0.000000 -0.353632 0.000000 6.664306
#
#
# Mechanical properties :
#
#
# Convention : Reuss Voigt Hill
#
# Bulk Modulus (GPa) = 14.58897 30.58497 22.58697
# Shear Modulus (GPa) = 0.69752 14.91828 7.80790
#
# Velocity S-wave (km/s) = 0.61606 2.84907 2.06116
# Velocity P-wave (km/s) = 2.90587 5.24067 4.23726
#
# Compressibility (1/GPa) = 0.06854492
#
# Stress axis : x y z
#
# Youngs Moduli (GPa) = 103.02753 17.83412 8.57359
#
# Poissons Ratio (x) = 0.03986 0.07295
# Poissons Ratio (y) = 0.23026 0.39603
# Poissons Ratio (z) = 0.87666 0.82378
#
# Static dielectric constant tensor:
#      x y z
#    x 1.703870 0.000000 0.033850 
#    y 0.000000 1.585780 0.000000 
#    z 0.033850 0.000000 1.636820 
# 
# From -- ./inp_files/168802.got.cif
#   From: 2010.05.17/outbox.ucp.g08.bks.cvg/sg12_85_cif.got.tgz:168802.got - 2010.06.11 11:47:21.
