data_PCOD9223684
_publ_section_title
;
Structure prediction by ZEFSAII (Michael W. Deem and Ramdas Pophale) SiO2 
 PCOD9223684
Probable space group: C 2/M
;
_chemical_formula_sum "Si O2"
_cell_formula_units_Z 28
_cell_length_a 15.000000
_cell_length_b 9.000000
_cell_length_c 24.000000
_cell_angle_alpha 90.000000
_cell_angle_beta 110.000000
_cell_angle_gamma 90.000000
_cell_volume 3044.604091
_symmetry_space_group_name_H-M "C 2/M"
_symmetry_group_IT_number 12
_symmetry_cell_setting 'monoclinic'
loop_
_space_group_symop_operation_xyz
x,y,z
-x,y,-z
-x,-y,-z
x,-y,z
1/2+x,1/2+y,z
1/2-x,1/2+y,-z
1/2-x,1/2-y,-z
1/2+x,1/2-y,z
loop_
_atom_site_type_symbol
_atom_site_label
_atom_site_fract_x
_atom_site_fract_y
_atom_site_fract_z
Si Si1 0.889096 0.821385 0.280288
Si Si2 0.368052 0.322753 0.067679
Si Si3 0.171993 0.175876 0.061589
Si Si4 0.352462 0.316182 0.499758
Si Si5 0.687059 0.175903 0.183744
Si Si6 0.951538 0.317956 0.411190
Si Si7 0.983251 0.174590 0.800715
O O1 0.788652 0.776780 0.230653
O O2 0.915312 0.734253 0.342401
O O3 0.964364 0.798388 0.246475
O O4 0.885701 0.000000 0.291393
O O5 0.343864 0.500000 0.064455
O O6 0.277550 0.225785 0.065716
O O7 0.447533 0.298750 0.131426
O O8 0.390103 0.288506 0.007318
O O9 0.158414 0.253348 0.118123
O O10 0.164847 0.000000 0.068870
O O11 0.350951 0.500000 0.499790
O O12 0.250000 0.250000 0.500000
O O13 0.442800 0.252517 0.555045
O O14 0.382078 0.252252 0.444425
O O15 0.607360 0.223557 0.210275
O O16 0.691996 0.000000 0.176672
O O17 0.954353 0.500000 0.416410
O O18 0.956961 0.000000 0.797276
#
# Coordination Sequence:
#
# PCOD9223684 Si02
#       7
#     8   8   8   8   8   8   8
#     4  10  22  42  62  81 118 165 201 245 297 351
#     4   9  18  35  56  80 110 147 187 240 304 362
#     4  10  19  32  56  83 109 144 191 241 299 365
#     4  11  22  41  68  98 132 167 205 247 292 345
#     4  11  23  39  58  82 115 152 196 247 301 355
#     4  11  23  40  64  96 130 165 204 247 297 354
#     4  10  21  39  60  81 111 152 198 244 298 359
#
# _framework density 9.1965979999999998
#
# number of rings (size 3 to 8) (size 9 to 14) (size 15 to 20)
#    0.000    1.714    1.429    4.286    0.000    4.571 
#    0.000    5.714    0.000    0.000    0.000    0.000 
#    0.000    0.000    0.000    0.000    0.000    0.000 
#
# Total GULP energy -156226.379621 kJ/mol
# GULP energy per Si atom -5579.513558 kJ/mol
# Density = 0.917567 g / cm^3
# Si number density = 9.196598 Si / 1000 Ang^3
#
#
#
# Elastic Constant Matrix: (Units=GPa)
#
#
# Indices 1 2 3 4 5 6 
#
# 1 86.4646 34.3760 37.1955 0.0000 -15.7430 0.0000
# 2 34.3760 95.0236 47.4041 0.0000 -8.1612 0.0000
# 3 37.1955 47.4041 135.1348 0.0000 -18.1912 0.0000
# 4 0.0000 0.0000 0.0000 35.7307 0.0000 -4.4718
# 5 -15.7430 -8.1612 -18.1912 0.0000 12.9627 0.0000
# 6 0.0000 0.0000 0.0000 -4.4718 0.0000 33.5878
#
#
#
# Elastic Compliance Matrix: (Units=1/GPa)
#
#
# Indices 1 2 3 4 5 6 
#
# 1 0.016559 -0.004137 -0.000925 0.000000 0.016209 0.000000
# 2 -0.004137 0.013839 -0.003969 0.000000 -0.001882 0.000000
# 3 -0.000925 -0.003969 0.010553 0.000000 0.011187 0.000000
# 4 0.000000 0.000000 0.000000 0.028461 0.000000 0.003789
# 5 0.016209 -0.001882 0.011187 0.000000 0.111345 0.000000
# 6 0.000000 0.000000 0.000000 0.003789 0.000000 0.030277
#
#
# Mechanical properties :
#
#
# Convention : Reuss Voigt Hill
#
# Bulk Modulus (GPa) = 43.68905 61.61935 52.65420
# Shear Modulus (GPa) = 21.12148 29.63273 25.37711
#
# Velocity S-wave (km/s) = 3.39238 4.01817 3.71846
# Velocity P-wave (km/s) = 6.25689 7.42304 6.86477
#
# Compressibility (1/GPa) = 0.02288903
#
# Stress axis : x y z
#
# Youngs Moduli (GPa) = 60.38945 72.26064 94.76095
#
# Poissons Ratio (x) = 0.29895 0.08762
# Poissons Ratio (y) = 0.24984 0.37612
# Poissons Ratio (z) = 0.05584 0.28681
#
# Static dielectric constant tensor:
#      x y z
#    x 1.644580 0.000000 -0.002280 
#    y 0.000000 1.623120 0.000000 
#    z -0.002280 0.000000 1.640170 
# 
# From -- ./inp_files/338153.got.cif
#   From: 2010.05.17/outbox.ucp.g08.bks.cvg/sg12_170_cif.got.tgz:338153.got - 2010.06.11 11:47:21.
