data_PCOD9223824
_publ_section_title
;
Structure prediction by ZEFSAII (Michael W. Deem and Ramdas Pophale) SiO2 
 PCOD9223824
Probable space group: C 2/M
;
_chemical_formula_sum "Si O2"
_cell_formula_units_Z 32
_cell_length_a 15.000000
_cell_length_b 9.000000
_cell_length_c 30.000000
_cell_angle_alpha 90.000000
_cell_angle_beta 50.000000
_cell_angle_gamma 90.000000
_cell_volume 3102.479995
_symmetry_space_group_name_H-M "C 2/M"
_symmetry_group_IT_number 12
_symmetry_cell_setting 'monoclinic'
loop_
_space_group_symop_operation_xyz
x,y,z
-x,y,-z
-x,-y,-z
x,-y,z
1/2+x,1/2+y,z
1/2-x,1/2+y,-z
1/2-x,1/2-y,-z
1/2+x,1/2-y,z
loop_
_atom_site_type_symbol
_atom_site_label
_atom_site_fract_x
_atom_site_fract_y
_atom_site_fract_z
Si Si1 0.766724 0.678428 0.199731
Si Si2 0.733456 0.820628 0.307650
Si Si3 0.125121 0.826725 0.983793
Si Si4 0.827765 0.177924 0.862037
Si Si5 0.009752 0.179470 0.111600
Si Si6 0.842158 0.319918 0.357141
Si Si7 0.985032 0.820164 0.387093
Si Si8 0.116109 0.820222 0.488049
O O1 0.758373 0.500000 0.209256
O O2 0.752540 0.763009 0.251068
O O3 0.680375 0.725050 0.187045
O O4 0.893679 0.727218 0.141439
O O5 0.823872 0.753187 0.314578
O O6 0.608830 0.749316 0.360482
O O7 0.733582 0.000000 0.309207
O O8 0.102060 0.785025 0.042779
O O9 0.159479 0.000000 0.971687
O O10 0.219109 0.736983 0.925620
O O11 0.000000 0.813552 0.000000
O O12 0.939690 0.216457 0.855876
O O13 0.821149 0.000000 0.863510
O O14 0.987533 0.000000 0.116111
O O15 0.849556 0.500000 0.351725
O O16 0.946404 0.250961 0.352711
O O17 0.729081 0.277120 0.423674
O O18 0.896609 0.779077 0.455844
O O19 0.992630 0.000000 0.381596
O O20 0.000000 0.767639 0.500000
O O21 0.114474 0.000000 0.487809
#
# Coordination Sequence:
#
# PCOD9223824 Si02
#       8
#     8   8   8   8   8   8   8   8
#     4  11  24  42  62  86 115 154 202 254 307 360
#     4  12  26  44  64  88 119 162 211 260 313 366
#     4  10  19  33  58  89 122 158 193 237 295 355
#     4  10  22  38  60  88 119 154 195 243 296 356
#     4  10  21  39  60  87 122 158 196 242 297 361
#     4  11  22  40  65  94 128 163 204 252 306 368
#     4  11  22  40  65  94 129 165 204 251 306 367
#     4   9  17  34  62  93 126 165 201 246 305 362
#
# _framework density 10.314329000000001
#
# number of rings (size 3 to 8) (size 9 to 14) (size 15 to 20)
#    0.000    1.500    2.500    3.000    0.000    2.750 
#    0.000    6.250    0.000    0.000    0.000    0.000 
#    0.000    0.000    0.000    0.000    0.000    0.000 
#
# Total GULP energy -178795.396525 kJ/mol
# GULP energy per Si atom -5587.356141 kJ/mol
# Density = 1.029085 g / cm^3
# Si number density = 10.314329 Si / 1000 Ang^3
#
#
#
# Elastic Constant Matrix: (Units=GPa)
#
#
# Indices 1 2 3 4 5 6 
#
# 1 108.0704 28.3553 6.1409 0.0000 40.6801 0.0000
# 2 28.3553 67.4192 8.7861 0.0000 17.5573 0.0000
# 3 6.1409 8.7861 54.5187 0.0000 31.0058 0.0000
# 4 0.0000 0.0000 0.0000 30.3648 0.0000 2.5602
# 5 40.6801 17.5573 31.0058 0.0000 42.7190 0.0000
# 6 0.0000 0.0000 0.0000 2.5602 0.0000 28.0270
#
#
#
# Elastic Compliance Matrix: (Units=1/GPa)
#
#
# Indices 1 2 3 4 5 6 
#
# 1 0.019620 -0.002873 0.013976 0.000000 -0.027646 0.000000
# 2 -0.002873 0.017167 0.000023 0.000000 -0.004336 0.000000
# 3 0.013976 0.000023 0.041448 0.000000 -0.043401 0.000000
# 4 0.000000 0.000000 0.000000 0.033188 0.000000 -0.003032
# 5 -0.027646 -0.004336 -0.043401 0.000000 0.083019 0.000000
# 6 0.000000 0.000000 0.000000 -0.003032 0.000000 0.035957
#
#
# Mechanical properties :
#
#
# Convention : Reuss Voigt Hill
#
# Bulk Modulus (GPa) = 9.95166 35.17477 22.56321
# Shear Modulus (GPa) = 20.69174 32.67055 26.68115
#
# Velocity S-wave (km/s) = 3.17054 3.98395 3.60029
# Velocity P-wave (km/s) = 4.27057 6.18473 5.31454
#
# Compressibility (1/GPa) = 0.10048576
#
# Stress axis : x y z
#
# Youngs Moduli (GPa) = 50.96946 58.25039 24.12686
#
# Poissons Ratio (x) = 0.16738 -0.33720
# Poissons Ratio (y) = 0.14646 -0.00056
# Poissons Ratio (z) = -0.71235 -0.00134
#
# Static dielectric constant tensor:
#      x y z
#    x 1.778820 0.000000 0.000120 
#    y 0.000000 1.680450 0.000000 
#    z 0.000120 0.000000 1.759820 
# 
# From -- ./inp_files/375047.got.cif
#   From: 2010.05.17/outbox.ucp.g08.bks.cvg/sg12_188_cif.got.tgz:375047.got - 2010.06.11 11:47:21.
