data_PCOD9223222
_publ_section_title
;
Structure prediction by ZEFSAII (Michael W. Deem and Ramdas Pophale) SiO2 
 PCOD9223222
Probable space group: C 2/M
;
_chemical_formula_sum "Si O2"
_cell_formula_units_Z 28
_cell_length_a 21.000000
_cell_length_b 18.000000
_cell_length_c 24.000000
_cell_angle_alpha 90.000000
_cell_angle_beta 20.000000
_cell_angle_gamma 90.000000
_cell_volume 3102.806740
_symmetry_space_group_name_H-M "C 2/M"
_symmetry_group_IT_number 12
_symmetry_cell_setting 'monoclinic'
loop_
_space_group_symop_operation_xyz
x,y,z
-x,y,-z
-x,-y,-z
x,-y,z
1/2+x,1/2+y,z
1/2-x,1/2+y,-z
1/2-x,1/2-y,-z
1/2+x,1/2-y,z
loop_
_atom_site_type_symbol
_atom_site_label
_atom_site_fract_x
_atom_site_fract_y
_atom_site_fract_z
Si Si1 0.312589 0.817511 0.990089
Si Si2 0.831667 0.684813 0.364223
Si Si3 0.209891 0.414636 0.393004
Si Si4 0.042488 0.918996 0.031046
Si Si5 0.477667 0.759805 0.454718
Si Si6 0.909531 0.147924 0.337632
Si Si7 0.159581 0.238248 0.916637
O O1 0.488464 0.851487 0.812628
O O2 0.250000 0.750000 0.000000
O O3 0.373077 0.786461 0.001099
O O4 0.130136 0.866637 0.152911
O O5 0.697018 0.717152 0.427399
O O6 0.896940 0.762018 0.340116
O O7 0.711289 0.636937 0.506994
O O8 0.140956 0.500000 0.449497
O O9 0.356821 0.407106 0.220962
O O10 0.059593 0.348889 0.513305
O O11 0.317270 0.395183 0.361968
O O12 0.119946 0.000000 0.983599
O O13 0.167315 0.846223 0.933810
O O14 0.000000 0.922131 0.000000
O O15 0.500000 0.736291 0.500000
O O16 0.650301 0.744593 0.272047
O O17 0.000000 0.242950 0.000000
#
# Coordination Sequence:
#
# PCOD9223222 Si02
#       7
#     8   8   8   8   8   8   8
#     4  10  18  29  50  71  94 126 163 203 257 303
#     4   9  17  30  48  72  95 122 161 203 243 305
#     4  10  21  35  49  68  96 131 176 215 244 291
#     4   9  17  30  44  59  86 127 170 205 237 277
#     4  11  20  31  48  71 102 136 167 201 250 297
#     4   9  17  32  49  69  93 124 161 204 256 291
#     4  11  20  31  46  70 101 133 171 210 249 301
#
# _framework density 9.0240880000000008
#
# number of rings (size 3 to 8) (size 9 to 14) (size 15 to 20)
#    0.000    2.143    1.429    5.143    2.000    0.857 
#    0.000    0.000    0.000    0.000    0.000    0.000 
#    0.000    1.143    0.000    0.000    0.000    0.000 
#
# Total GULP energy -155998.847688 kJ/mol
# GULP energy per Si atom -5571.387417 kJ/mol
# Density = 0.900355 g / cm^3
# Si number density = 9.024088 Si / 1000 Ang^3
#
#
#
# Elastic Constant Matrix: (Units=GPa)
#
#
# Indices 1 2 3 4 5 6 
#
# 1 84.7703 7.6933 40.7474 0.0137 22.6212 0.0045
# 2 7.6933 5.9885 2.4832 0.0142 5.6181 -0.0079
# 3 40.7474 2.4832 135.8041 -0.0078 25.2173 -0.0007
# 4 0.0137 0.0142 -0.0078 6.9834 -0.0076 1.2260
# 5 22.6212 5.6181 25.2173 -0.0076 34.8429 0.0037
# 6 0.0045 -0.0079 -0.0007 1.2260 0.0037 6.2060
#
#
#
# Elastic Compliance Matrix: (Units=1/GPa)
#
#
# Indices 1 2 3 4 5 6 
#
# 1 0.016327 -0.014110 -0.003575 -0.000009 -0.005737 -0.000025
# 2 -0.014110 0.209772 0.005750 -0.000494 -0.028825 0.000393
# 3 -0.003575 0.005750 0.009326 -0.000003 -0.005355 0.000015
# 4 -0.000009 -0.000494 -0.000003 0.148344 0.000123 -0.029307
# 5 -0.005737 -0.028825 -0.005355 0.000123 0.040949 -0.000082
# 6 -0.000025 0.000393 0.000015 -0.029307 -0.000082 0.166925
#
#
# Mechanical properties :
#
#
# Convention : Reuss Voigt Hill
#
# Bulk Modulus (GPa) = 4.72691 36.49009 20.60850
# Shear Modulus (GPa) = 7.28832 21.31573 14.30202
#
# Velocity S-wave (km/s) = 2.01172 3.44036 2.81808
# Velocity P-wave (km/s) = 2.83210 6.00363 4.69384
#
# Compressibility (1/GPa) = 0.21155478
#
# Stress axis : x y z
#
# Youngs Moduli (GPa) = 61.24941 4.76709 107.23159
#
# Poissons Ratio (x) = 0.06726 0.38340
# Poissons Ratio (y) = 0.86420 -0.61663
# Poissons Ratio (z) = 0.21899 -0.02741
#
# Static dielectric constant tensor:
#      x y z
#    x 1.627170 -0.000010 -0.009360 
#    y -0.000010 1.596320 0.000040 
#    z -0.009360 0.000040 1.639610 
# 
# From -- ./inp_files/347776.got.cif
#   From: 2010.05.17/outbox.ucp.g08.bks.cvg/sg12_174_cif.got.tgz:347776.got - 2010.06.11 11:47:21.
