data_PCOD9223509
_publ_section_title
;
Structure prediction by ZEFSAII (Michael W. Deem and Ramdas Pophale) SiO2 
 PCOD9223509
Probable space group: C 2/M
;
_chemical_formula_sum "Si O2"
_cell_formula_units_Z 24
_cell_length_a 30.000000
_cell_length_b 9.000000
_cell_length_c 12.000000
_cell_angle_alpha 90.000000
_cell_angle_beta 110.000000
_cell_angle_gamma 90.000000
_cell_volume 3044.604091
_symmetry_space_group_name_H-M "C 2/M"
_symmetry_group_IT_number 12
_symmetry_cell_setting 'monoclinic'
loop_
_space_group_symop_operation_xyz
x,y,z
-x,y,-z
-x,-y,-z
x,-y,z
1/2+x,1/2+y,z
1/2-x,1/2+y,-z
1/2-x,1/2-y,-z
1/2+x,1/2-y,z
loop_
_atom_site_type_symbol
_atom_site_label
_atom_site_fract_x
_atom_site_fract_y
_atom_site_fract_z
Si Si1 0.611617 0.679086 0.701735
Si Si2 0.216085 0.177805 0.876508
Si Si3 0.823318 0.173577 0.570268
Si Si4 0.005398 0.831806 0.639301
Si Si5 0.590722 0.824041 0.442126
Si Si6 0.757533 0.673736 0.328485
O O1 0.613255 0.500000 0.684884
O O2 0.659449 0.719197 0.811736
O O3 0.559878 0.710719 0.712090
O O4 0.607288 0.757193 0.576866
O O5 0.237780 0.230823 0.777951
O O6 0.217453 0.000000 0.891051
O O7 0.250000 0.250000 0.000000
O O8 0.874124 0.249060 0.615759
O O9 0.793294 0.260670 0.451021
O O10 0.793982 0.183635 0.659031
O O11 0.826618 0.000000 0.541847
O O12 0.962908 0.722546 0.633448
O O13 0.000000 0.837980 0.500000
O O14 0.996738 0.000000 0.673032
O O15 0.595560 0.000000 0.450501
O O16 0.768315 0.500000 0.316516
#
# Coordination Sequence:
#
# PCOD9223509 Si02
#       6
#     8   8   8   8   8   8
#     4   9  18  32  47  64  91 129 163 196 239 287
#     4  11  22  35  52  71  97 131 167 203 240 283
#     4  10  19  31  48  69  98 131 159 193 241 294
#     4   8  15  28  44  62  90 125 159 191 234 290
#     4  11  19  26  43  71  99 126 158 194 237 288
#     4  10  20  33  49  71  95 124 164 203 241 286
#
# _framework density 7.8827980000000002
#
# number of rings (size 3 to 8) (size 9 to 14) (size 15 to 20)
#    0.000    2.167    1.667    4.000    0.000    5.667 
#    0.000    0.000    0.000    0.000    0.000    1.167 
#    0.000    9.333    0.000    0.000    0.000    0.000 
#
# Total GULP energy -133650.666578 kJ/mol
# GULP energy per Si atom -5568.777774 kJ/mol
# Density = 0.786486 g / cm^3
# Si number density = 7.882798 Si / 1000 Ang^3
#
#
#
# Elastic Constant Matrix: (Units=GPa)
#
#
# Indices 1 2 3 4 5 6 
#
# 1 118.0632 48.4898 30.4431 0.0000 24.5185 0.0000
# 2 48.4898 63.4534 9.3498 0.0000 12.9129 0.0000
# 3 30.4431 9.3498 55.9615 0.0000 19.1747 0.0000
# 4 0.0000 0.0000 0.0000 22.6996 0.0000 2.2081
# 5 24.5185 12.9129 19.1747 0.0000 21.8473 0.0000
# 6 0.0000 0.0000 0.0000 2.2081 0.0000 24.6580
#
#
#
# Elastic Compliance Matrix: (Units=1/GPa)
#
#
# Indices 1 2 3 4 5 6 
#
# 1 0.014878 -0.009199 -0.003859 0.000000 -0.007873 0.000000
# 2 -0.009199 0.023634 0.003296 0.000000 -0.006538 0.000000
# 3 -0.003859 0.003296 0.026601 0.000000 -0.020964 0.000000
# 4 0.000000 0.000000 0.000000 0.044441 0.000000 -0.003980
# 5 -0.007873 -0.006538 -0.020964 0.000000 0.076872 0.000000
# 6 0.000000 0.000000 0.000000 -0.003980 0.000000 0.040911
#
#
# Mechanical properties :
#
#
# Convention : Reuss Voigt Hill
#
# Bulk Modulus (GPa) = 21.93513 46.00484 33.96999
# Shear Modulus (GPa) = 19.07970 23.78732 21.43351
#
# Velocity S-wave (km/s) = 3.48258 3.88856 3.69116
# Velocity P-wave (km/s) = 5.48768 7.02887 6.30554
#
# Compressibility (1/GPa) = 0.04558896
#
# Stress axis : x y z
#
# Youngs Moduli (GPa) = 67.21214 42.31188 37.59217
#
# Poissons Ratio (x) = 0.38922 0.14507
# Poissons Ratio (y) = 0.61827 -0.12389
# Poissons Ratio (z) = 0.25938 -0.13944
#
# Static dielectric constant tensor:
#      x y z
#    x 1.601080 0.000000 0.000970 
#    y 0.000000 1.531370 0.000000 
#    z 0.000970 0.000000 1.487980 
# 
# From -- ./inp_files/185728.got.cif
#   From: 2010.05.17/outbox.ucp.g08.bks.cvg/sg12_93_cif.got.tgz:185728.got - 2010.06.11 11:47:21.
