data_PCOD9223440
_publ_section_title
;
Structure prediction by ZEFSAII (Michael W. Deem and Ramdas Pophale) SiO2 
 PCOD9223440
Probable space group: C 2/M
;
_chemical_formula_sum "Si O2"
_cell_formula_units_Z 22
_cell_length_a 30.000000
_cell_length_b 12.000000
_cell_length_c 18.000000
_cell_angle_alpha 90.000000
_cell_angle_beta 160.000000
_cell_angle_gamma 90.000000
_cell_volume 2216.290529
_symmetry_space_group_name_H-M "C 2/M"
_symmetry_group_IT_number 12
_symmetry_cell_setting 'monoclinic'
loop_
_space_group_symop_operation_xyz
x,y,z
-x,y,-z
-x,-y,-z
x,-y,z
1/2+x,1/2+y,z
1/2-x,1/2+y,-z
1/2-x,1/2-y,-z
1/2+x,1/2-y,z
loop_
_atom_site_type_symbol
_atom_site_label
_atom_site_fract_x
_atom_site_fract_y
_atom_site_fract_z
Si Si1 0.696842 0.000000 0.068025
Si Si2 0.478470 0.000000 0.066665
Si Si3 0.392416 0.780710 0.695425
Si Si4 0.627824 0.245976 0.502706
Si Si5 0.189467 0.000000 0.601781
Si Si6 0.364933 0.365795 0.961351
Si Si7 0.155444 0.271505 0.920006
O O1 0.696159 0.111713 0.020342
O O2 0.571389 0.000000 0.925581
O O3 0.809589 0.000000 0.306574
O O4 0.554312 0.885870 0.175608
O O5 0.339050 0.000000 0.808152
O O6 0.250000 0.750000 0.500000
O O7 0.380430 0.812464 0.589959
O O8 0.500451 0.682612 0.862607
O O9 0.634671 0.379044 0.496316
O O10 0.495775 0.221872 0.340439
O O11 0.751738 0.198801 0.739421
O O12 0.358353 0.500000 0.947154
O O13 0.347232 0.320889 0.018254
O O14 0.250000 0.250000 0.000000
#
# Coordination Sequence:
#
# PCOD9223440 Si02
#       7
#     4   4   8   8   4   8   8
#     4  10  18  45  62  80 132 164 199 249 304 374
#     4  10  18  45  62  80 132 164 199 249 304 374
#     4  11  25  41  64  94 123 163 206 252 308 362
#     4  11  22  41  66  85 124 166 204 247 314 355
#     4  10  18  40  68  84 116 170 198 256 306 356
#     4  11  24  43  59  93 129 158 207 257 299 365
#     4  11  25  41  64  94 123 163 206 252 308 362
#
# _framework density 9.9264960000000002
#
# number of rings (size 3 to 8) (size 9 to 14) (size 15 to 20)
#    0.545    0.727    7.273    0.000   10.182    1.455 
#    0.000    3.636    0.000    0.000    0.000    0.000 
#    0.000    0.000    0.000    0.000    0.000    0.000 
#
# Total GULP energy -122681.027181 kJ/mol
# GULP energy per Si atom -5576.410326 kJ/mol
# Density = 0.990390 g / cm^3
# Si number density = 9.926496 Si / 1000 Ang^3
#
#
#
# Elastic Constant Matrix: (Units=GPa)
#
#
# Indices 1 2 3 4 5 6 
#
# 1 88.1343 34.9161 47.8085 0.0000 31.8411 0.0000
# 2 34.9161 114.5624 15.7107 0.0000 -3.4166 0.0000
# 3 47.8085 15.7107 106.9942 0.0000 13.0215 0.0000
# 4 0.0000 0.0000 0.0000 32.1960 0.0000 0.3956
# 5 31.8411 -3.4166 13.0215 0.0000 32.6661 0.0000
# 6 0.0000 0.0000 0.0000 0.3956 0.0000 20.9745
#
#
#
# Elastic Compliance Matrix: (Units=1/GPa)
#
#
# Indices 1 2 3 4 5 6 
#
# 1 0.028105 -0.008168 -0.008325 0.000000 -0.024931 0.000000
# 2 -0.008168 0.011355 0.000913 0.000000 0.008785 0.000000
# 3 -0.008325 0.000913 0.012541 0.000000 0.003211 0.000000
# 4 0.000000 0.000000 0.000000 0.031067 0.000000 -0.000586
# 5 -0.024931 0.008785 0.003211 0.000000 0.054553 0.000000
# 6 0.000000 0.000000 0.000000 -0.000586 0.000000 0.047688
#
#
# Mechanical properties :
#
#
# Convention : Reuss Voigt Hill
#
# Bulk Modulus (GPa) = 47.97879 56.28461 52.13170
# Shear Modulus (GPa) = 22.37989 31.25101 26.81545
#
# Velocity S-wave (km/s) = 3.36114 3.97182 3.67917
# Velocity P-wave (km/s) = 6.26758 7.03179 6.66065
#
# Compressibility (1/GPa) = 0.02084254
#
# Stress axis : x y z
#
# Youngs Moduli (GPa) = 35.58114 88.06734 79.73720
#
# Poissons Ratio (x) = 0.71930 0.66378
# Poissons Ratio (y) = 0.29061 -0.07280
# Poissons Ratio (z) = 0.29620 -0.08041
#
# Static dielectric constant tensor:
#      x y z
#    x 1.682940 0.000000 -0.011700 
#    y 0.000000 1.689820 0.000000 
#    z -0.011700 0.000000 1.750140 
# 
# From -- ./inp_files/296569.got.cif
#   From: 2010.05.17/outbox.ucp.g08.bks.cvg/sg12_149_cif.got.tgz:296569.got - 2010.06.11 11:47:21.
