data_PCOD9223075
_publ_section_title
;
Structure prediction by ZEFSAII (Michael W. Deem and Ramdas Pophale) SiO2 
 PCOD9223075
Probable space group: C 2/M
;
_chemical_formula_sum "Si O2"
_cell_formula_units_Z 64
_cell_length_a 25.035758
_cell_length_b 9.359046
_cell_length_c 28.532466
_cell_angle_alpha 90.000000
_cell_angle_beta 138.908636
_cell_angle_gamma 90.000000
_cell_volume 4394.099958
_symmetry_space_group_name_H-M "C 2/M"
_symmetry_group_IT_number 12
_symmetry_cell_setting 'monoclinic'
loop_
_space_group_symop_operation_xyz
x,y,z
-x,y,-z
-x,-y,-z
x,-y,z
1/2+x,1/2+y,z
1/2-x,1/2+y,-z
1/2-x,1/2-y,-z
1/2+x,1/2-y,z
loop_
_atom_site_type_symbol
_atom_site_label
_atom_site_fract_x
_atom_site_fract_y
_atom_site_fract_z
Si Si1 0.170233 0.164738 0.159357
Si Si2 0.495703 0.335306 0.888162
Si Si3 0.152141 0.329467 0.388800
Si Si4 0.906293 0.669295 0.750997
Si Si5 0.083092 0.665032 0.023797
Si Si6 0.411891 0.674126 0.459167
Si Si7 0.242779 0.169562 0.704009
Si Si8 0.655039 0.329125 0.485239
O O1 0.086871 0.165576 0.134981
O O2 0.148980 0.251591 0.098447
O O3 0.235817 0.243044 0.235312
O O4 0.190577 0.000000 0.163296
O O5 0.519528 0.500000 0.897560
O O6 0.470632 0.258835 0.823429
O O7 0.560731 0.247010 0.961378
O O8 0.143760 0.500000 0.389354
O O9 0.104455 0.288181 0.310188
O O10 0.248418 0.301110 0.444605
O O11 0.127823 0.248429 0.419882
O O12 0.925049 0.500000 0.765913
O O13 0.818489 0.687243 0.718229
O O14 0.104897 0.500000 0.030358
O O15 0.000000 0.665276 0.000000
O O16 0.500000 0.721498 0.500000
O O17 0.411202 0.500000 0.459118
O O18 0.339277 0.716266 0.376216
O O19 0.390734 0.718873 0.498079
O O20 0.237884 0.000000 0.711328
O O21 0.645506 0.500000 0.473959
#
# Coordination Sequence:
#
# PCOD9223075 Si02
#       8
#     8   8   8   8   8   8   8   8
#     4   9  16  24  34  49  70  96 126 162 198 229
#     4   9  16  23  32  49  73  98 126 159 194 230
#     4   9  16  26  40  57  78 103 130 165 204 241
#     4   9  15  24  37  52  73 101 131 162 195 233
#     4   9  15  23  34  48  67  96 131 160 189 227
#     4   9  16  27  44  62  79 102 134 172 209 244
#     4   9  15  25  39  54  72  96 130 166 198 237
#     4   9  16  27  41  59  78  99 130 167 205 244
#
# _framework density 14.564984000000001
#
# number of rings (size 3 to 8) (size 9 to 14) (size 15 to 20)
#    0.000    3.000    1.250    1.125    0.000    5.000 
#    0.000    0.625    0.000    1.500    0.000    0.000 
#    0.000    0.000    0.000    1.125    0.000   13.125 
#
# Total GULP energy -178153.884633 kJ/mol
# GULP energy per Si atom -5567.308895 kJ/mol
# Density = 1.453183 g / cm^3
# Si number density = 14.564984 Si / 1000 Ang^3
#
#
#
# Elastic Constant Matrix: (Units=GPa)
#
#
# Indices 1 2 3 4 5 6 
#
# 1 49.1414 28.4075 47.8993 0.0000 -10.9278 0.0000
# 2 28.4075 76.5464 77.0879 0.0000 -17.8945 0.0000
# 3 47.8993 77.0879 152.0399 0.0000 -35.6107 0.0000
# 4 0.0000 0.0000 0.0000 23.7748 0.0000 -7.8736
# 5 -10.9278 -17.8945 -35.6107 0.0000 16.9771 0.0000
# 6 0.0000 0.0000 0.0000 -7.8736 0.0000 9.8412
#
#
#
# Elastic Compliance Matrix: (Units=1/GPa)
#
#
# Indices 1 2 3 4 5 6 
#
# 1 0.029772 -0.003271 -0.007942 0.000000 -0.000943 0.000000
# 2 -0.003271 0.027056 -0.012780 0.000000 -0.000394 0.000000
# 3 -0.007942 -0.012780 0.022029 0.000000 0.027626 0.000000
# 4 0.000000 0.000000 0.000000 0.057223 0.000000 0.045782
# 5 -0.000943 -0.000394 0.027626 0.000000 0.115829 0.000000
# 6 0.000000 0.000000 0.000000 0.045782 0.000000 0.138241
#
#
# Mechanical properties :
#
#
# Convention : Reuss Voigt Hill
#
# Bulk Modulus (GPa) = 32.39200 64.94633 48.66917
# Shear Modulus (GPa) = 11.15010 18.40750 14.77880
#
# Velocity S-wave (km/s) = 2.76984 3.55888 3.18886
# Velocity P-wave (km/s) = 5.70239 7.84698 6.85902
#
# Compressibility (1/GPa) = 0.03087182
#
# Stress axis : x y z
#
# Youngs Moduli (GPa) = 33.58892 36.96029 45.39388
#
# Poissons Ratio (x) = 0.12091 0.36050
# Poissons Ratio (y) = 0.10988 0.58012
# Poissons Ratio (z) = 0.26675 0.47234
#
# Static dielectric constant tensor:
#      x y z
#    x 1.449520 0.000000 -0.010080 
#    y 0.000000 1.485560 0.000000 
#    z -0.010080 0.000000 1.479970 
# 
# From -- ./inp_files/291589.got.cif
#   From: 2010.05.17/outbox.cif.g08.bks.cpg/sg12_146_cif.got.tgz:291589.got - 2010.06.03 13:09:07.
