data_PCOD9223703
_publ_section_title
;
Structure prediction by ZEFSAII (Michael W. Deem and Ramdas Pophale) SiO2 
 PCOD9223703
Probable space group: C 2/M
;
_chemical_formula_sum "Si O2"
_cell_formula_units_Z 24
_cell_length_a 21.000000
_cell_length_b 9.000000
_cell_length_c 15.000000
_cell_angle_alpha 90.000000
_cell_angle_beta 70.000000
_cell_angle_gamma 90.000000
_cell_volume 2664.028580
_symmetry_space_group_name_H-M "C 2/M"
_symmetry_group_IT_number 12
_symmetry_cell_setting 'monoclinic'
loop_
_space_group_symop_operation_xyz
x,y,z
-x,y,-z
-x,-y,-z
x,-y,z
1/2+x,1/2+y,z
1/2-x,1/2+y,-z
1/2-x,1/2-y,-z
1/2+x,1/2-y,z
loop_
_atom_site_type_symbol
_atom_site_label
_atom_site_fract_x
_atom_site_fract_y
_atom_site_fract_z
Si Si1 0.923017 0.821133 0.410677
Si Si2 0.422975 0.320567 0.716891
Si Si3 0.339693 0.821970 0.607296
Si Si4 0.186598 0.180470 0.686334
Si Si5 0.900806 0.181013 0.112906
Si Si6 0.947856 0.180532 0.903306
O O1 0.892060 0.744737 0.511640
O O2 0.872172 0.778276 0.354956
O O3 0.001122 0.783694 0.354319
O O4 0.920093 0.000000 0.421796
O O5 0.415684 0.500000 0.713216
O O6 0.365881 0.238643 0.688591
O O7 0.421110 0.274375 0.820694
O O8 0.262377 0.770106 0.626648
O O9 0.341216 0.000000 0.603605
O O10 0.160489 0.231277 0.795700
O O11 0.188392 0.000000 0.685991
O O12 0.973558 0.223632 0.120340
O O13 0.899450 0.000000 0.113545
O O14 0.904558 0.230686 0.008960
O O15 0.948464 0.000000 0.903789
#
# Coordination Sequence:
#
# PCOD9223703 Si02
#       6
#     8   8   8   8   8   8
#     4  10  19  34  55  73  91 124 169 211 242 273
#     4  10  19  33  52  75  99 125 160 203 245 282
#     4  11  23  34  46  69 103 137 162 192 240 295
#     4   9  17  31  49  71  99 128 159 198 245 289
#     4   8  12  23  46  75  99 117 150 202 247 280
#     4   8  13  23  46  77  99 116 150 203 248 277
#
# _framework density 9.0089120000000005
#
# number of rings (size 3 to 8) (size 9 to 14) (size 15 to 20)
#    0.000    2.667    1.667    2.500    0.000    2.667 
#    0.000    1.667    0.000    0.000    0.000    4.667 
#    0.000    0.000    0.000    0.000    0.000    0.000 
#
# Total GULP energy -133721.064871 kJ/mol
# GULP energy per Si atom -5571.711036 kJ/mol
# Density = 0.898841 g / cm^3
# Si number density = 9.008912 Si / 1000 Ang^3
#
#
#
# Elastic Constant Matrix: (Units=GPa)
#
#
# Indices 1 2 3 4 5 6 
#
# 1 39.7948 4.5028 -12.6290 0.0000 11.1716 0.0000
# 2 4.5028 -0.9912 0.9179 0.0000 1.1585 0.0000
# 3 -12.6290 0.9179 55.6792 0.0000 22.7325 0.0000
# 4 0.0000 0.0000 0.0000 -1.0862 0.0000 1.7710
# 5 11.1716 1.1585 22.7325 0.0000 0.7350 0.0000
# 6 0.0000 0.0000 0.0000 1.7710 0.0000 19.1989
#
#
#
# Elastic Compliance Matrix: (Units=1/GPa)
#
#
# Indices 1 2 3 4 5 6 
#
# 1 0.009143 0.060744 -0.008334 0.000000 0.023039 0.000000
# 2 0.060744 -0.666555 0.002341 -0.000001 0.054926 0.000000
# 3 -0.008334 0.002341 0.002939 0.000000 0.032066 0.000000
# 4 0.000000 -0.000001 0.000000 -0.800268 0.000000 0.073822
# 5 0.023039 0.054926 0.032066 0.000000 -0.067958 0.000000
# 6 0.000000 0.000000 0.000000 0.073822 0.000000 0.045276
#
#
# Mechanical properties :
#
#
# Convention : Reuss Voigt Hill
#
# Bulk Modulus (GPa) = -1.83496 8.89624 3.53064
# Shear Modulus (GPa) = -2.82713 10.54895 3.86091
#
# Velocity S-wave (km/s) = -1.25399 2.42228 1.46543
# Velocity P-wave (km/s) = 1.76558 3.57371 2.19706
#
# Compressibility (1/GPa) = -0.54496957
#
# Stress axis : x y z
#
# Youngs Moduli (GPa) = 109.37075 -1.50025 340.19809
#
# Poissons Ratio (x) = 0.09113 2.83518
# Poissons Ratio (y) = -6.64359 -0.79651
# Poissons Ratio (z) = 0.91149 0.00351
#
# Static dielectric constant tensor:
#      x y z
#    x 1.608200 0.000000 0.026530 
#    y 0.000000 1.598860 0.000000 
#    z 0.026530 0.000000 1.665980 
# 
# From -- ./inp_files/229813.got.cif
#   From: 2010.05.17/outbox.ucp.g08.bks.cvg/sg12_115_cif.got.tgz:229813.got - 2010.06.11 11:47:21.
