data_PCOD9223132
_publ_section_title
;
Structure prediction by ZEFSAII (Michael W. Deem and Ramdas Pophale) SiO2 
 PCOD9223132
Probable space group: C 2/M
;
_chemical_formula_sum "Si O2"
_cell_formula_units_Z 40
_cell_length_a 9.314792
_cell_length_b 22.383610
_cell_length_c 13.821510
_cell_angle_alpha 90.000000
_cell_angle_beta 52.235159
_cell_angle_gamma 90.000000
_cell_volume 2278.125638
_symmetry_space_group_name_H-M "C 2/M"
_symmetry_group_IT_number 12
_symmetry_cell_setting 'monoclinic'
loop_
_space_group_symop_operation_xyz
x,y,z
-x,y,-z
-x,-y,-z
x,-y,z
1/2+x,1/2+y,z
1/2-x,1/2+y,-z
1/2-x,1/2-y,-z
1/2+x,1/2-y,z
loop_
_atom_site_type_symbol
_atom_site_label
_atom_site_fract_x
_atom_site_fract_y
_atom_site_fract_z
Si Si1 0.477097 0.857568 0.623482
Si Si2 0.164412 0.930002 0.502986
Si Si3 0.885739 0.822924 0.911272
Si Si4 0.888539 0.069406 0.246292
Si Si5 0.745911 0.773453 0.163918
O O1 0.500000 0.844869 0.500000
O O2 0.659960 0.888953 0.583683
O O3 0.306421 0.903030 0.703135
O O4 0.418952 0.798971 0.705762
O O5 0.105225 0.924809 0.639641
O O6 0.000000 0.914358 0.500000
O O7 0.211787 0.000000 0.467692
O O8 0.783847 0.792968 0.863313
O O9 0.956292 0.889242 0.863744
O O10 0.068740 0.783486 0.853397
O O11 0.771755 0.813490 0.056002
O O12 0.902145 0.000000 0.215094
#
# Coordination Sequence:
#
# PCOD9223132 Si02
#       5
#     8   8   8   8   8
#     4   9  17  31  49  71  96 124 158 195 238 282
#     4   9  17  29  46  69  97 128 159 193 237 285
#     4   9  18  33  51  71  95 127 161 194 236 280
#     4   9  17  31  50  71  97 126 158 196 236 280
#     4   9  18  33  50  70  96 125 160 195 234 284
#
# _framework density 17.558295000000001
#
# number of rings (size 3 to 8) (size 9 to 14) (size 15 to 20)
#    0.000    3.000    0.000    0.600    0.000    4.000 
#    0.000   19.000    0.000    0.000    0.000   15.400 
#    0.000    0.000    0.000    0.000    0.000    0.000 
#
# Total GULP energy -111467.006136 kJ/mol
# GULP energy per Si atom -5573.350307 kJ/mol
# Density = 1.751833 g / cm^3
# Si number density = 17.558295 Si / 1000 Ang^3
#
#
#
# Elastic Constant Matrix: (Units=GPa)
#
#
# Indices 1 2 3 4 5 6 
#
# 1 57.5122 -2.7849 -2.9809 0.0000 1.0326 0.0000
# 2 -2.7849 49.4415 26.8433 0.0000 1.0828 0.0000
# 3 -2.9809 26.8433 62.4918 0.0000 -12.0750 0.0000
# 4 0.0000 0.0000 0.0000 25.7249 0.0000 -1.9940
# 5 1.0326 1.0828 -12.0750 0.0000 7.6561 0.0000
# 6 0.0000 0.0000 0.0000 -1.9940 0.0000 19.0184
#
#
#
# Elastic Compliance Matrix: (Units=1/GPa)
#
#
# Indices 1 2 3 4 5 6 
#
# 1 0.017484 0.001170 -0.000224 0.000000 -0.002877 0.000000
# 2 0.001170 0.032837 -0.021542 0.000000 -0.038777 0.000000
# 3 -0.000224 -0.021542 0.037166 0.000000 0.061693 0.000000
# 4 0.000000 0.000000 0.000000 0.039191 0.000000 0.004109
# 5 -0.002877 -0.038777 0.061693 0.000000 0.233788 0.000000
# 6 0.000000 0.000000 0.000000 0.004109 0.000000 0.053011
#
#
# Mechanical properties :
#
#
# Convention : Reuss Voigt Hill
#
# Bulk Modulus (GPa) = 21.60146 23.51115 22.55631
# Shear Modulus (GPa) = 10.63599 20.37109 15.50354
#
# Velocity S-wave (km/s) = 2.46387 3.40986 2.97471
# Velocity P-wave (km/s) = 4.51925 5.37794 4.96719
#
# Compressibility (1/GPa) = 0.04629318
#
# Stress axis : x y z
#
# Youngs Moduli (GPa) = 57.19419 30.45348 26.90662
#
# Poissons Ratio (x) = -0.03562 0.00604
# Poissons Ratio (y) = -0.06690 0.57963
# Poissons Ratio (z) = 0.01284 0.65603
#
# Static dielectric constant tensor:
#      x y z
#    x 1.602110 0.000000 0.004510 
#    y 0.000000 1.587550 0.000000 
#    z 0.004510 0.000000 1.592290 
# 
# From -- ./inp_files/120168.got.cif
#   From: 2010.05.17/outbox.cif.g08.bks.cpg/sg12_61_cif.got.tgz:120168.got - 2010.06.03 13:09:07.
