data_PCOD9223679
_publ_section_title
;
Structure prediction by ZEFSAII (Michael W. Deem and Ramdas Pophale) SiO2 
 PCOD9223679
Probable space group: C 2/M
;
_chemical_formula_sum "Si O2"
_cell_formula_units_Z 32
_cell_length_a 30.000000
_cell_length_b 9.000000
_cell_length_c 15.000000
_cell_angle_alpha 90.000000
_cell_angle_beta 120.000000
_cell_angle_gamma 90.000000
_cell_volume 3507.402885
_symmetry_space_group_name_H-M "C 2/M"
_symmetry_group_IT_number 12
_symmetry_cell_setting 'monoclinic'
loop_
_space_group_symop_operation_xyz
x,y,z
-x,y,-z
-x,-y,-z
x,-y,z
1/2+x,1/2+y,z
1/2-x,1/2+y,-z
1/2-x,1/2-y,-z
1/2+x,1/2-y,z
loop_
_atom_site_type_symbol
_atom_site_label
_atom_site_fract_x
_atom_site_fract_y
_atom_site_fract_z
Si Si1 0.216666 0.671316 0.039791
Si Si2 0.471405 0.679314 0.212603
Si Si3 0.549488 0.319021 0.607665
Si Si4 0.892905 0.321594 0.003369
Si Si5 0.139073 0.181582 0.570581
Si Si6 0.357689 0.677189 0.790354
Si Si7 0.090258 0.180259 0.338193
Si Si8 0.247338 0.326189 0.272831
O O1 0.211535 0.500000 0.009404
O O2 0.244497 0.679264 0.163022
O O3 0.250000 0.750000 0.000000
O O4 0.159160 0.730643 0.998005
O O5 0.466290 0.500000 0.198915
O O6 0.452439 0.725093 0.291741
O O7 0.440570 0.759773 0.104839
O O8 0.531078 0.719559 0.269594
O O9 0.500000 0.270849 0.500000
O O10 0.547740 0.500000 0.605110
O O11 0.601603 0.270648 0.612213
O O12 0.892092 0.500000 0.998094
O O13 0.888479 0.255249 0.900616
O O14 0.114584 0.233797 0.454072
O O15 0.197577 0.227154 0.639779
O O16 0.139152 0.000000 0.571582
O O17 0.362627 0.500000 0.803515
O O18 0.378909 0.727821 0.717021
O O19 0.298972 0.727386 0.739036
O O20 0.092080 0.000000 0.343762
O O21 0.239462 0.500000 0.289959
#
# Coordination Sequence:
#
# PCOD9223679 Si02
#       8
#     8   8   8   8   8   8   8   8
#     4   9  19  33  49  72 101 133 170 213 256 305
#     4  10  19  32  55  84 109 136 176 220 260 308
#     4   9  15  26  49  81 111 137 170 213 257 308
#     4  10  22  39  54  74 106 140 175 216 267 319
#     4   9  16  29  50  79 112 141 169 210 262 312
#     4  10  20  36  56  76 103 138 179 225 266 306
#     4   9  18  32  52  81 110 136 173 223 267 301
#     4   9  19  34  52  76 108 140 173 213 261 313
#
# _framework density 9.1235599999999994
#
# number of rings (size 3 to 8) (size 9 to 14) (size 15 to 20)
#    0.000    2.625    1.250    1.500    1.750    3.500 
#    0.000    3.750    0.000    1.875    0.000    0.000 
#    0.000    0.000    0.000    0.000    0.000    0.000 
#
# Total GULP energy -178356.796227 kJ/mol
# GULP energy per Si atom -5573.649882 kJ/mol
# Density = 0.910279 g / cm^3
# Si number density = 9.123560 Si / 1000 Ang^3
#
#
#
# Elastic Constant Matrix: (Units=GPa)
#
#
# Indices 1 2 3 4 5 6 
#
# 1 78.7067 25.9594 67.8971 0.0000 -16.1668 0.0000
# 2 25.9594 17.5640 10.9864 0.0000 0.3655 0.0000
# 3 67.8971 10.9864 3.9945 0.0000 37.2885 0.0000
# 4 0.0000 0.0000 0.0000 10.0778 0.0000 5.7147
# 5 -16.1668 0.3655 37.2885 0.0000 22.5319 0.0000
# 6 0.0000 0.0000 0.0000 5.7147 0.0000 9.0092
#
#
#
# Elastic Compliance Matrix: (Units=1/GPa)
#
#
# Indices 1 2 3 4 5 6 
#
# 1 0.007933 -0.017662 0.009833 0.000000 -0.010295 0.000000
# 2 -0.017662 0.090800 -0.012632 0.000000 0.006760 0.000000
# 3 0.009833 -0.012632 -0.003472 0.000000 0.013007 0.000000
# 4 0.000000 0.000000 0.000000 0.154969 0.000000 -0.098300
# 5 -0.010295 0.006760 0.013007 0.000000 0.015360 0.000000
# 6 0.000000 0.000000 0.000000 -0.098300 0.000000 0.173351
#
#
# Mechanical properties :
#
#
# Convention : Reuss Voigt Hill
#
# Bulk Modulus (GPa) = 18.40302 34.43900 26.42101
# Shear Modulus (GPa) = 10.04066 8.01860 9.02963
#
# Velocity S-wave (km/s) = 2.34831 2.09857 2.22694
# Velocity P-wave (km/s) = 4.17852 4.97862 4.59601
#
# Compressibility (1/GPa) = 0.05433891
#
# Stress axis : x y z
#
# Youngs Moduli (GPa) = 126.05262 11.01326 -288.00600
#
# Poissons Ratio (x) = 0.19451 2.83208
# Poissons Ratio (y) = 2.22632 -3.63823
# Poissons Ratio (z) = -1.23953 0.13912
#
# Static dielectric constant tensor:
#      x y z
#    x 1.635730 0.000000 -0.003010 
#    y 0.000000 1.625810 0.000000 
#    z -0.003010 0.000000 1.605850 
# 
# From -- ./inp_files/249255.got.cif
#   From: 2010.05.17/outbox.ucp.g08.bks.cvg/sg12_125_cif.got.tgz:249255.got - 2010.06.11 11:47:21.
