data_PCOD9223420
_publ_section_title
;
Structure prediction by ZEFSAII (Michael W. Deem and Ramdas Pophale) SiO2 
 PCOD9223420
Probable space group: C 2/M
;
_chemical_formula_sum "Si O2"
_cell_formula_units_Z 32
_cell_length_a 15.000000
_cell_length_b 9.000000
_cell_length_c 30.000000
_cell_angle_alpha 90.000000
_cell_angle_beta 50.000000
_cell_angle_gamma 90.000000
_cell_volume 3102.479995
_symmetry_space_group_name_H-M "C 2/M"
_symmetry_group_IT_number 12
_symmetry_cell_setting 'monoclinic'
loop_
_space_group_symop_operation_xyz
x,y,z
-x,y,-z
-x,-y,-z
x,-y,z
1/2+x,1/2+y,z
1/2-x,1/2+y,-z
1/2-x,1/2-y,-z
1/2+x,1/2-y,z
loop_
_atom_site_type_symbol
_atom_site_label
_atom_site_fract_x
_atom_site_fract_y
_atom_site_fract_z
Si Si1 0.287918 0.319642 0.893753
Si Si2 0.487387 0.174313 0.699464
Si Si3 0.978721 0.177332 0.138982
Si Si4 0.243262 0.676958 0.632336
Si Si5 0.579984 0.825469 0.018503
Si Si6 0.056837 0.672826 0.388373
Si Si7 0.828453 0.321713 0.513308
Si Si8 0.252148 0.677113 0.805175
O O1 0.282390 0.500000 0.896381
O O2 0.420975 0.276152 0.858640
O O3 0.205121 0.270084 0.960657
O O4 0.242388 0.273872 0.860144
O O5 0.609100 0.221048 0.682089
O O6 0.500526 0.187170 0.641727
O O7 0.377263 0.269508 0.748828
O O8 0.465493 0.000000 0.716359
O O9 0.854048 0.249890 0.186903
O O10 0.968577 0.000000 0.142594
O O11 0.027018 0.232538 0.075684
O O12 0.245222 0.500000 0.625562
O O13 0.329786 0.727143 0.643257
O O14 0.291523 0.754740 0.572252
O O15 0.585841 0.000000 0.029930
O O16 0.500000 0.819216 0.000000
O O17 0.089838 0.500000 0.383621
O O18 0.961241 0.710755 0.456344
O O19 0.814957 0.500000 0.517886
O O20 0.750000 0.250000 0.500000
O O21 0.242633 0.500000 0.806342
#
# Coordination Sequence:
#
# PCOD9223420 Si02
#       8
#     8   8   8   8   8   8   8   8
#     4   9  20  38  59  84 118 156 190 233 292 353
#     4  10  23  44  62  83 120 157 195 248 303 344
#     4  11  22  37  59  89 120 151 192 241 295 347
#     4  11  23  40  62  92 125 157 198 248 298 355
#     4  10  18  35  61  85 118 157 190 232 288 348
#     4  10  22  41  62  87 123 162 196 240 302 360
#     4  11  21  37  62  91 124 162 200 242 300 361
#     4  11  23  42  63  84 112 154 204 242 288 351
#
# _framework density 10.314329000000001
#
# number of rings (size 3 to 8) (size 9 to 14) (size 15 to 20)
#    0.000    1.625    2.500    2.250    0.000    5.250 
#    0.000    6.875    0.000    0.000    0.000    0.000 
#    0.000    0.000    0.000    0.000    0.000    0.000 
#
# Total GULP energy -178829.815807 kJ/mol
# GULP energy per Si atom -5588.431744 kJ/mol
# Density = 1.029085 g / cm^3
# Si number density = 10.314329 Si / 1000 Ang^3
#
#
#
# Elastic Constant Matrix: (Units=GPa)
#
#
# Indices 1 2 3 4 5 6 
#
# 1 94.6855 30.2481 3.0528 0.0000 -37.6175 0.0000
# 2 30.2481 45.8293 15.4123 0.0000 -23.3583 -0.0001
# 3 3.0528 15.4123 46.4559 0.0000 -29.7223 0.0000
# 4 0.0000 0.0000 0.0000 31.9593 0.0000 -2.6674
# 5 -37.6175 -23.3583 -29.7223 0.0000 36.1787 0.0000
# 6 0.0000 -0.0001 0.0000 -2.6674 0.0000 27.5127
#
#
#
# Elastic Compliance Matrix: (Units=1/GPa)
#
#
# Indices 1 2 3 4 5 6 
#
# 1 0.049198 -0.001940 0.061844 0.000000 0.100710 0.000000
# 2 -0.001940 0.033298 0.003256 0.000000 0.022157 0.000000
# 3 0.061844 0.003256 0.124094 0.000000 0.168355 0.000000
# 4 0.000000 0.000000 0.000000 0.031545 0.000000 0.003058
# 5 0.100710 0.022157 0.168355 0.000000 0.284972 0.000000
# 6 0.000000 0.000000 0.000000 0.003058 0.000000 0.036643
#
#
# Mechanical properties :
#
#
# Convention : Reuss Voigt Hill
#
# Bulk Modulus (GPa) = 3.00380 31.59969 17.30174
# Shear Modulus (GPa) = 9.18444 28.34730 18.76587
#
# Velocity S-wave (km/s) = 2.11233 3.71100 3.01939
# Velocity P-wave (km/s) = 2.72186 5.80635 4.53443
#
# Compressibility (1/GPa) = 0.33291193
#
# Stress axis : x y z
#
# Youngs Moduli (GPa) = 20.32612 30.03172 8.05839
#
# Poissons Ratio (x) = 0.05825 -0.49836
# Poissons Ratio (y) = 0.03943 -0.02624
# Poissons Ratio (z) = -1.25705 -0.09779
#
# Static dielectric constant tensor:
#      x y z
#    x 1.767910 0.000000 -0.012940 
#    y 0.000000 1.688720 0.000000 
#    z -0.012940 0.000000 1.733080 
# 
# From -- ./inp_files/375388.got.cif
#   From: 2010.05.17/outbox.ucp.g08.bks.cvg/sg12_188_cif.got.tgz:375388.got - 2010.06.11 11:47:21.
