data_PCOD9223796
_publ_section_title
;
Structure prediction by ZEFSAII (Michael W. Deem and Ramdas Pophale) SiO2 
 PCOD9223796
Probable space group: C 2/M
;
_chemical_formula_sum "Si O2"
_cell_formula_units_Z 28
_cell_length_a 21.000000
_cell_length_b 9.000000
_cell_length_c 21.000000
_cell_angle_alpha 90.000000
_cell_angle_beta 50.000000
_cell_angle_gamma 90.000000
_cell_volume 3040.430395
_symmetry_space_group_name_H-M "C 2/M"
_symmetry_group_IT_number 12
_symmetry_cell_setting 'monoclinic'
loop_
_space_group_symop_operation_xyz
x,y,z
-x,y,-z
-x,-y,-z
x,-y,z
1/2+x,1/2+y,z
1/2-x,1/2+y,-z
1/2-x,1/2-y,-z
1/2+x,1/2-y,z
loop_
_atom_site_type_symbol
_atom_site_label
_atom_site_fract_x
_atom_site_fract_y
_atom_site_fract_z
Si Si1 0.588867 0.329166 0.451236
Si Si2 0.189129 0.325727 0.136380
Si Si3 0.294563 0.669907 0.742164
Si Si4 0.747851 0.317572 0.430076
Si Si5 0.656707 0.678303 0.749479
Si Si6 0.996894 0.328384 0.078650
Si Si7 0.640624 0.670739 0.049319
O O1 0.500000 0.252561 0.500000
O O2 0.574333 0.500000 0.482018
O O3 0.629228 0.333739 0.355554
O O4 0.659248 0.273512 0.454507
O O5 0.181198 0.500000 0.155546
O O6 0.182374 0.227384 0.203296
O O7 0.129342 0.272278 0.118609
O O8 0.277905 0.297351 0.045228
O O9 0.260300 0.500000 0.766672
O O10 0.231620 0.784925 0.750014
O O11 0.754405 0.500000 0.426119
O O12 0.750000 0.250000 0.500000
O O13 0.815699 0.248435 0.336824
O O14 0.642418 0.500000 0.753598
O O15 0.582598 0.768093 0.831566
O O16 0.013914 0.500000 0.087216
O O17 0.065750 0.209080 0.052469
O O18 0.000000 0.330293 0.000000
O O19 0.645541 0.500000 0.066362
#
# Coordination Sequence:
#
# PCOD9223796 Si02
#       7
#     8   8   8   8   8   8   8
#     4   8  16  33  56  82 109 141 184 233 279 333
#     4  10  20  35  55  78 108 145 185 228 276 331
#     4  10  19  33  56  82 109 142 182 229 280 335
#     4  10  20  37  61  86 116 153 194 240 296 354
#     4  11  22  37  58  83 113 149 192 235 279 343
#     4  11  23  38  57  82 113 147 185 234 288 338
#     4  10  21  36  54  77 107 145 187 229 274 330
#
# _framework density 9.2092220000000005
#
# number of rings (size 3 to 8) (size 9 to 14) (size 15 to 20)
#    0.000    2.000    0.000    5.143    0.000    5.143 
#    2.571    0.000    0.000   14.571    0.000    0.000 
#    0.000    0.000    0.000    0.000    0.000    0.000 
#
# Total GULP energy -155898.668772 kJ/mol
# GULP energy per Si atom -5567.809599 kJ/mol
# Density = 0.918826 g / cm^3
# Si number density = 9.209222 Si / 1000 Ang^3
#
#
#
# Elastic Constant Matrix: (Units=GPa)
#
#
# Indices 1 2 3 4 5 6 
#
# 1 52.3501 7.8881 39.9123 0.0004 18.7061 0.0000
# 2 7.8881 41.6915 37.5897 0.0001 15.0752 0.0000
# 3 39.9123 37.5897 66.7248 0.0004 24.3558 0.0000
# 4 0.0004 0.0001 0.0004 -90.9160 -0.0001 11.6875
# 5 18.7061 15.0752 24.3558 -0.0001 31.1376 0.0000
# 6 0.0000 0.0000 0.0000 11.6875 0.0000 25.5909
#
#
#
# Elastic Compliance Matrix: (Units=1/GPa)
#
#
# Indices 1 2 3 4 5 6 
#
# 1 0.059115 0.042959 -0.054594 0.000000 -0.013609 0.000000
# 2 0.042959 0.080159 -0.066157 0.000000 -0.012868 0.000000
# 3 -0.054594 -0.066157 0.085725 0.000000 -0.002227 0.000000
# 4 0.000000 0.000000 0.000000 -0.010389 0.000000 0.004745
# 5 -0.013609 -0.012868 -0.002227 0.000000 0.048263 0.000000
# 6 0.000000 0.000000 0.000000 0.004745 0.000000 0.036909
#
#
# Mechanical properties :
#
#
# Convention : Reuss Voigt Hill
#
# Bulk Modulus (GPa) = 14.40605 36.83851 25.62228
# Shear Modulus (GPa) = 10.44923 -1.81239 4.31842
#
# Velocity S-wave (km/s) = 2.38444 -0.99305 1.53287
# Velocity P-wave (km/s) = 3.92674 4.32775 4.13211
#
# Compressibility (1/GPa) = 0.06941527
#
# Stress axis : x y z
#
# Youngs Moduli (GPa) = 16.91629 12.47525 11.66515
#
# Poissons Ratio (x) = -0.53592 0.63684
# Poissons Ratio (y) = -0.72670 0.77173
# Poissons Ratio (z) = 0.92352 0.82532
#
# Static dielectric constant tensor:
#      x y z
#    x 1.781770 0.000000 -0.086670 
#    y 0.000000 1.627670 0.000000 
#    z -0.086670 0.000000 1.582000 
# 
# From -- ./inp_files/319725.got.cif
#   From: 2010.05.17/outbox.ucp.g08.bks.cvg/sg12_160_cif.got.tgz:319725.got - 2010.06.11 11:47:21.
