data_PCOD9223093
_publ_section_title
;
Structure prediction by ZEFSAII (Michael W. Deem and Ramdas Pophale) SiO2 
 PCOD9223093
Probable space group: C 2/M
;
_chemical_formula_sum "Si O2"
_cell_formula_units_Z 40
_cell_length_a 9.445082
_cell_length_b 28.962215
_cell_length_c 6.957535
_cell_angle_alpha 90.000000
_cell_angle_beta 55.751210
_cell_angle_gamma 90.000000
_cell_volume 1573.218937
_symmetry_space_group_name_H-M "C 2/M"
_symmetry_group_IT_number 12
_symmetry_cell_setting 'monoclinic'
loop_
_space_group_symop_operation_xyz
x,y,z
-x,y,-z
-x,-y,-z
x,-y,z
1/2+x,1/2+y,z
1/2-x,1/2+y,-z
1/2-x,1/2-y,-z
1/2+x,1/2-y,z
loop_
_atom_site_type_symbol
_atom_site_label
_atom_site_fract_x
_atom_site_fract_y
_atom_site_fract_z
Si Si1 0.742507 0.105647 0.497438
Si Si2 0.369321 0.114731 0.869734
Si Si3 0.059671 0.947841 0.179684
Si Si4 0.367938 0.303842 0.274245
Si Si5 0.097150 0.280754 0.199614
O O1 0.563121 0.096581 0.738099
O O2 0.686752 0.109201 0.313015
O O3 0.837993 0.155351 0.449822
O O4 0.885359 0.067250 0.416692
O O5 0.394240 0.168746 0.901764
O O6 0.213922 0.088352 0.089884
O O7 0.113176 0.000000 0.181138
O O8 0.000000 0.946489 0.000000
O O9 0.176405 0.294055 0.344898
O O10 0.446203 0.255388 0.279300
O O11 0.500000 0.319979 0.000000
O O12 0.250000 0.250000 0.000000
#
# Coordination Sequence:
#
# PCOD9223093 Si02
#       5
#     8   8   8   8   8
#     4   9  16  27  41  58  83 114 146 177 217 262
#     4   9  17  27  40  59  84 114 144 178 219 261
#     4   9  16  26  40  58  82 112 145 180 218 263
#     4   9  16  27  43  62  87 119 150 180 214 256
#     4   9  16  27  43  62  88 120 149 179 215 256
#
# _framework density 25.425574999999998
#
# number of rings (size 3 to 8) (size 9 to 14) (size 15 to 20)
#    0.000    3.000    0.000    4.200    0.000    1.600 
#    0.000    4.000    0.000    0.000    0.000    0.000 
#    0.000   20.000    0.000   30.600    0.000   46.000 
#
# Total GULP energy -111656.429869 kJ/mol
# GULP energy per Si atom -5582.821493 kJ/mol
# Density = 2.536771 g / cm^3
# Si number density = 25.425575 Si / 1000 Ang^3
#
#
#
# Elastic Constant Matrix: (Units=GPa)
#
#
# Indices 1 2 3 4 5 6 
#
# 1 100.5731 25.3288 18.6493 0.0000 -37.1928 0.0000
# 2 25.3288 111.9027 43.0112 0.0000 -41.2677 0.0000
# 3 18.6493 43.0112 140.9667 0.0000 -44.5118 0.0000
# 4 0.0000 0.0000 0.0000 18.5261 0.0000 -1.9092
# 5 -37.1928 -41.2677 -44.5118 0.0000 56.0660 0.0000
# 6 0.0000 0.0000 0.0000 -1.9092 0.0000 24.8890
#
#
#
# Elastic Compliance Matrix: (Units=1/GPa)
#
#
# Indices 1 2 3 4 5 6 
#
# 1 0.013375 0.000165 0.001362 0.000000 0.010075 0.000000
# 2 0.000165 0.012419 -0.001188 0.000000 0.008307 0.000000
# 3 0.001362 -0.001188 0.009723 0.000000 0.007748 0.000000
# 4 0.000000 0.000000 0.000000 0.054408 0.000000 0.004174
# 5 0.010075 0.008307 0.007748 0.000000 0.036785 0.000000
# 6 0.000000 0.000000 0.000000 0.004174 0.000000 0.040499
#
#
# Mechanical properties :
#
#
# Convention : Reuss Voigt Hill
#
# Bulk Modulus (GPa) = 27.62950 58.60235 43.11592
# Shear Modulus (GPa) = 27.99609 37.65976 32.82792
#
# Velocity S-wave (km/s) = 3.32188 3.85278 3.59714
# Velocity P-wave (km/s) = 5.06000 6.54908 5.85210
#
# Compressibility (1/GPa) = 0.03619320
#
# Stress axis : x y z
#
# Youngs Moduli (GPa) = 74.76772 80.51999 102.85235
#
# Poissons Ratio (x) = -0.01326 -0.14003
# Poissons Ratio (y) = -0.01231 0.12218
# Poissons Ratio (z) = -0.10180 0.09565
#
# Static dielectric constant tensor:
#      x y z
#    x 2.065210 0.000000 0.077110 
#    y 0.000000 2.269580 0.000000 
#    z 0.077110 0.000000 2.120150 
# 
# From -- ./inp_files/53674.got.cif
#   From: 2010.05.17/outbox.cif.g08.bks.cpg/sg12_27_cif.got.tgz:53674.got - 2010.06.03 13:09:07.
