data_PCOD9223907
_publ_section_title
;
Structure prediction by ZEFSAII (Michael W. Deem and Ramdas Pophale) SiO2 
 PCOD9223907
Probable space group: C 2/M
;
_chemical_formula_sum "Si O2"
_cell_formula_units_Z 28
_cell_length_a 30.000000
_cell_length_b 9.000000
_cell_length_c 12.000000
_cell_angle_alpha 90.000000
_cell_angle_beta 60.000000
_cell_angle_gamma 90.000000
_cell_volume 2805.922308
_symmetry_space_group_name_H-M "C 2/M"
_symmetry_group_IT_number 12
_symmetry_cell_setting 'monoclinic'
loop_
_space_group_symop_operation_xyz
x,y,z
-x,y,-z
-x,-y,-z
x,-y,z
1/2+x,1/2+y,z
1/2-x,1/2+y,-z
1/2-x,1/2-y,-z
1/2+x,1/2-y,z
loop_
_atom_site_type_symbol
_atom_site_label
_atom_site_fract_x
_atom_site_fract_y
_atom_site_fract_z
Si Si1 0.103939 0.662813 0.027503
Si Si2 0.712797 0.658804 0.175315
Si Si3 0.620671 0.828163 0.370180
Si Si4 0.070644 0.826762 0.618356
Si Si5 0.951291 0.669732 0.126504
Si Si6 0.970406 0.328119 0.684200
Si Si7 0.199715 0.157669 0.930354
O O1 0.124983 0.500000 0.036235
O O2 0.092267 0.662226 0.912461
O O3 0.141046 0.796518 0.006631
O O4 0.052253 0.679974 0.163167
O O5 0.694149 0.500000 0.241985
O O6 0.674107 0.791295 0.246662
O O7 0.767095 0.707188 0.157644
O O8 0.715868 0.643889 0.038684
O O9 0.616454 0.737822 0.488390
O O10 0.576109 0.786144 0.338425
O O11 0.614438 0.000000 0.402228
O O12 0.066380 0.755755 0.744319
O O13 0.019497 0.774154 0.616921
O O14 0.072890 0.000000 0.623437
O O15 0.964997 0.500000 0.141418
O O16 0.000000 0.736382 0.000000
O O17 0.984782 0.500000 0.644640
O O18 0.208466 0.000000 0.862881
#
# Coordination Sequence:
#
# PCOD9223907 Si02
#       7
#     8   8   8   8   8   8   8
#     4  10  19  34  58  83 110 143 184 230 275 323
#     4  10  20  34  54  81 114 146 182 225 272 325
#     4  11  22  37  58  80 110 149 188 226 273 332
#     4  12  25  37  53  79 114 149 187 230 274 326
#     4  10  20  38  60  79 105 145 190 231 272 323
#     4  10  20  36  56  80 110 148 187 223 271 330
#     4  10  20  33  53  82 115 147 180 222 275 330
#
# _framework density 9.9788940000000004
#
# number of rings (size 3 to 8) (size 9 to 14) (size 15 to 20)
#    0.000    1.571    2.857    3.000    0.000    5.429 
#    0.000    0.000    0.000    0.857    0.000    0.000 
#    0.000    0.000    0.000    0.000    0.000    0.000 
#
# Total GULP energy -155939.477709 kJ/mol
# GULP energy per Si atom -5569.267061 kJ/mol
# Density = 0.995618 g / cm^3
# Si number density = 9.978894 Si / 1000 Ang^3
#
#
#
# Elastic Constant Matrix: (Units=GPa)
#
#
# Indices 1 2 3 4 5 6 
#
# 1 12.4328 31.2231 10.3778 0.0000 -4.4885 0.0000
# 2 31.2231 26.5662 24.4315 0.0000 0.2966 0.0000
# 3 10.3778 24.4315 54.2845 0.0000 19.0883 0.0000
# 4 0.0000 0.0000 0.0000 10.3821 0.0000 -3.8617
# 5 -4.4885 0.2966 19.0883 0.0000 -7.6322 0.0000
# 6 0.0000 0.0000 0.0000 -3.8617 0.0000 -5.1181
#
#
#
# Elastic Compliance Matrix: (Units=1/GPa)
#
#
# Indices 1 2 3 4 5 6 
#
# 1 -0.030388 0.046638 -0.011760 0.000000 -0.009728 0.000000
# 2 0.046638 -0.022478 0.005934 0.000000 -0.013461 0.000000
# 3 -0.011760 0.005934 0.008240 0.000000 0.027754 0.000000
# 4 0.000000 0.000000 0.000000 0.075212 0.000000 -0.056748
# 5 -0.009728 -0.013461 0.027754 0.000000 -0.056412 0.000000
# 6 0.000000 0.000000 0.000000 -0.056748 0.000000 -0.152567
#
#
# Mechanical properties :
#
#
# Convention : Reuss Voigt Hill
#
# Bulk Modulus (GPa) = 27.02876 25.03871 26.03374
# Shear Modulus (GPa) = -20.18695 1.34311 -9.42192
#
# Velocity S-wave (km/s) = -3.18383 0.82124 -2.17513
# Velocity P-wave (km/s) = 0.23802 3.67047 2.60086
#
# Compressibility (1/GPa) = 0.03699763
#
# Stress axis : x y z
#
# Youngs Moduli (GPa) = -32.90819 -44.48747 121.36381
#
# Poissons Ratio (x) = 2.07480 1.42723
# Poissons Ratio (y) = 1.53477 -0.72016
# Poissons Ratio (z) = -0.38700 0.26398
#
# Static dielectric constant tensor:
#      x y z
#    x 1.709520 0.000000 -0.010010 
#    y 0.000000 1.632640 0.000000 
#    z -0.010010 0.000000 1.736860 
# 
# From -- ./inp_files/181101.got.cif
#   From: 2010.05.17/outbox.ucp.g08.bks.cvg/sg12_91_cif.got.tgz:181101.got - 2010.06.11 11:47:21.
