data_PCOD9223455
_publ_section_title
;
Structure prediction by ZEFSAII (Michael W. Deem and Ramdas Pophale) SiO2 
 PCOD9223455
Probable space group: C 2/M
;
_chemical_formula_sum "Si O2"
_cell_formula_units_Z 32
_cell_length_a 24.000000
_cell_length_b 9.000000
_cell_length_c 21.000000
_cell_angle_alpha 90.000000
_cell_angle_beta 50.000000
_cell_angle_gamma 90.000000
_cell_volume 3474.777594
_symmetry_space_group_name_H-M "C 2/M"
_symmetry_group_IT_number 12
_symmetry_cell_setting 'monoclinic'
loop_
_space_group_symop_operation_xyz
x,y,z
-x,y,-z
-x,-y,-z
x,-y,z
1/2+x,1/2+y,z
1/2-x,1/2+y,-z
1/2-x,1/2-y,-z
1/2+x,1/2-y,z
loop_
_atom_site_type_symbol
_atom_site_label
_atom_site_fract_x
_atom_site_fract_y
_atom_site_fract_z
Si Si1 0.007866 0.670464 0.303532
Si Si2 0.558450 0.321411 0.905967
Si Si3 0.073446 0.669323 0.763247
Si Si4 0.586401 0.661773 0.439733
Si Si5 0.275852 0.677093 0.213822
Si Si6 0.854556 0.167698 0.746807
Si Si7 0.277702 0.319928 0.360910
Si Si8 0.132846 0.672965 0.520487
O O1 0.015833 0.500000 0.321094
O O2 0.081694 0.755073 0.261510
O O3 0.987981 0.668535 0.244585
O O4 0.936039 0.737411 0.391090
O O5 0.554123 0.500000 0.903776
O O6 0.547689 0.251659 0.844968
O O7 0.641236 0.284262 0.863276
O O8 0.500000 0.270155 0.000000
O O9 0.094367 0.500000 0.762742
O O10 0.144130 0.751251 0.682953
O O11 0.500000 0.663045 0.500000
O O12 0.609044 0.500000 0.451569
O O13 0.616036 0.667282 0.347214
O O14 0.610443 0.800958 0.463669
O O15 0.267652 0.500000 0.219130
O O16 0.220765 0.747387 0.204750
O O17 0.263086 0.723717 0.297366
O O18 0.843609 0.000000 0.776394
O O19 0.280452 0.500000 0.360671
O O20 0.215159 0.267544 0.455529
O O21 0.137304 0.500000 0.535659
#
# Coordination Sequence:
#
# PCOD9223455 Si02
#       8
#     8   8   8   8   8   8   8   8
#     4  10  22  36  49  69 102 144 185 220 256 302
#     4   9  19  38  64  89 108 129 160 200 251 313
#     4  10  21  36  53  77 107 137 170 211 260 310
#     4  10  19  30  42  65  99 131 173 228 271 295
#     4   9  17  31  52  79 107 132 162 206 258 306
#     4  11  21  31  48  73 103 139 177 217 260 304
#     4   9  18  32  50  72  99 136 180 223 264 305
#     4  10  19  31  48  68  94 136 187 225 258 302
#
# _framework density 9.2092220000000005
#
# number of rings (size 3 to 8) (size 9 to 14) (size 15 to 20)
#    0.000    2.250    2.500    1.500    0.000    5.000 
#    0.000    0.000    0.000    0.750    0.000    0.000 
#    0.000    0.000    0.000    0.000    0.000    0.000 
#
# Total GULP energy -178207.071826 kJ/mol
# GULP energy per Si atom -5568.970995 kJ/mol
# Density = 0.918826 g / cm^3
# Si number density = 9.209222 Si / 1000 Ang^3
#
#
#
# Elastic Constant Matrix: (Units=GPa)
#
#
# Indices 1 2 3 4 5 6 
#
# 1 96.4751 36.0572 40.1759 0.0000 -12.6266 0.0000
# 2 36.0572 6.5642 25.5696 0.0003 -10.9273 -0.0001
# 3 40.1759 25.5696 43.2400 0.0002 -24.8672 -0.0001
# 4 0.0000 0.0003 0.0002 7.5136 -0.0001 3.1500
# 5 -12.6266 -10.9273 -24.8672 -0.0001 8.8659 0.0000
# 6 0.0000 -0.0001 -0.0001 3.1500 0.0000 14.8576
#
#
#
# Elastic Compliance Matrix: (Units=1/GPa)
#
#
# Indices 1 2 3 4 5 6 
#
# 1 0.006944 0.022929 -0.003147 0.000000 0.029324 0.000000
# 2 0.022929 -0.092908 0.021921 0.000003 -0.020371 -0.000001
# 3 -0.003147 0.021921 -0.042490 -0.000001 -0.096641 0.000000
# 4 0.000000 0.000003 -0.000001 0.146077 0.000001 -0.030970
# 5 0.029324 -0.020371 -0.096641 0.000001 -0.141612 0.000000
# 6 0.000000 -0.000001 0.000000 -0.030970 0.000000 0.073872
#
#
# Mechanical properties :
#
#
# Convention : Reuss Voigt Hill
#
# Bulk Modulus (GPa) = -22.19894 38.87609 8.33857
# Shear Modulus (GPa) = -33.66111 9.21250 -12.22430
#
# Velocity S-wave (km/s) = -4.27965 2.23889 -2.57903
# Velocity P-wave (km/s) = 6.04147 5.27603 2.08120
#
# Compressibility (1/GPa) = -0.04504719
#
# Stress axis : x y z
#
# Youngs Moduli (GPa) = 144.00986 -10.76339 -23.53494
#
# Poissons Ratio (x) = 0.24680 -0.07405
# Poissons Ratio (y) = -3.30203 0.51590
# Poissons Ratio (z) = 0.45314 0.23594
#
# Static dielectric constant tensor:
#      x y z
#    x 1.657330 0.000000 -0.015780 
#    y 0.000000 1.678850 0.000000 
#    z -0.015780 0.000000 1.634900 
# 
# From -- ./inp_files/324130.got.cif
#   From: 2010.05.17/outbox.ucp.g08.bks.cvg/sg12_163_cif.got.tgz:324130.got - 2010.06.11 11:47:21.
