data_PCOD9223558
_publ_section_title
;
Structure prediction by ZEFSAII (Michael W. Deem and Ramdas Pophale) SiO2 
 PCOD9223558
Probable space group: C 2/M
;
_chemical_formula_sum "Si O2"
_cell_formula_units_Z 28
_cell_length_a 18.000000
_cell_length_b 9.000000
_cell_length_c 30.000000
_cell_angle_alpha 90.000000
_cell_angle_beta 40.000000
_cell_angle_gamma 90.000000
_cell_volume 3123.947783
_symmetry_space_group_name_H-M "C 2/M"
_symmetry_group_IT_number 12
_symmetry_cell_setting 'monoclinic'
loop_
_space_group_symop_operation_xyz
x,y,z
-x,y,-z
-x,-y,-z
x,-y,z
1/2+x,1/2+y,z
1/2-x,1/2+y,-z
1/2-x,1/2-y,-z
1/2+x,1/2-y,z
loop_
_atom_site_type_symbol
_atom_site_label
_atom_site_fract_x
_atom_site_fract_y
_atom_site_fract_z
Si Si1 0.598657 0.829408 0.695298
Si Si2 0.148099 0.819972 0.577898
Si Si3 0.763327 0.321873 0.063868
Si Si4 0.155868 0.824229 0.760581
Si Si5 0.824179 0.329627 0.809028
Si Si6 0.563448 0.178496 0.093906
Si Si7 0.123180 0.175228 0.306639
O O1 0.645904 0.756234 0.627916
O O2 0.626559 0.727692 0.724357
O O3 0.459264 0.837944 0.760081
O O4 0.641336 0.000000 0.680017
O O5 0.250000 0.750000 0.500000
O O6 0.013956 0.792341 0.623872
O O7 0.162346 0.000000 0.574026
O O8 0.749996 0.500000 0.075321
O O9 0.752282 0.238935 0.116206
O O10 0.656310 0.257037 0.084030
O O11 0.880490 0.296144 0.981072
O O12 0.287612 0.771035 0.706004
O O13 0.062897 0.744008 0.836391
O O14 0.144838 0.000000 0.771416
O O15 0.788082 0.500000 0.814520
O O16 0.833565 0.220585 0.762661
O O17 0.562599 0.000000 0.101975
O O18 0.139392 0.000000 0.306520
#
# Coordination Sequence:
#
# PCOD9223558 Si02
#       7
#     8   8   8   8   8   8   8
#     4  10  20  35  58  85 114 149 187 228 274 329
#     4  10  21  39  64  91 117 147 182 224 272 328
#     4  10  19  31  51  78 108 144 190 239 284 330
#     4  12  23  36  56  83 115 149 189 234 282 334
#     4  10  19  33  55  81 110 145 189 236 281 332
#     4  10  20  33  50  76 110 148 188 235 286 332
#     4  10  22  39  59  82 114 150 185 226 279 336
#
# _framework density 8.9630179999999999
#
# number of rings (size 3 to 8) (size 9 to 14) (size 15 to 20)
#    0.000    1.714    1.429    3.857    0.000    4.571 
#    0.000    1.429    0.000    8.571    0.000    0.000 
#    0.000    0.000    0.000    0.000    0.000    0.000 
#
# Total GULP energy -156153.412418 kJ/mol
# GULP energy per Si atom -5576.907586 kJ/mol
# Density = 0.894262 g / cm^3
# Si number density = 8.963018 Si / 1000 Ang^3
#
#
#
# Elastic Constant Matrix: (Units=GPa)
#
#
# Indices 1 2 3 4 5 6 
#
# 1 32.8263 16.7165 17.2113 0.0000 -3.4593 -0.0001
# 2 16.7165 125.8892 56.6072 0.0001 -5.0050 -0.0002
# 3 17.2113 56.6072 141.7692 0.0000 2.1966 0.0000
# 4 0.0000 0.0001 0.0000 35.0511 0.0000 -1.0344
# 5 -3.4593 -5.0050 2.1966 0.0000 21.9852 0.0000
# 6 -0.0001 -0.0002 0.0000 -1.0344 0.0000 23.8987
#
#
#
# Elastic Compliance Matrix: (Units=1/GPa)
#
#
# Indices 1 2 3 4 5 6 
#
# 1 0.034089 -0.002965 -0.003032 0.000000 0.004992 0.000000
# 2 -0.002965 0.010090 -0.003703 0.000000 0.002200 0.000000
# 3 -0.003032 -0.003703 0.008935 0.000000 -0.002213 0.000000
# 4 0.000000 0.000000 0.000000 0.028566 0.000000 0.001236
# 5 0.004992 0.002200 -0.002213 0.000000 0.046993 0.000000
# 6 0.000000 0.000000 0.000000 0.001236 0.000000 0.041897
#
#
# Mechanical properties :
#
#
# Convention : Reuss Voigt Hill
#
# Bulk Modulus (GPa) = 29.66134 53.50607 41.58371
# Shear Modulus (GPa) = 24.85011 30.18364 27.51688
#
# Velocity S-wave (km/s) = 3.72729 4.10785 3.92219
# Velocity P-wave (km/s) = 5.92503 7.23963 6.61507
#
# Compressibility (1/GPa) = 0.03371392
#
# Stress axis : x y z
#
# Youngs Moduli (GPa) = 29.33501 99.11109 111.92396
#
# Poissons Ratio (x) = 0.29384 0.33936
# Poissons Ratio (y) = 0.08697 0.41444
# Poissons Ratio (z) = 0.08895 0.36700
#
# Static dielectric constant tensor:
#      x y z
#    x 1.691170 0.000000 0.012180 
#    y 0.000000 1.603590 0.000000 
#    z 0.012180 0.000000 1.580260 
# 
# From -- ./inp_files/314453.got.cif
#   From: 2010.05.17/outbox.ucp.g08.bks.cvg/sg12_158_cif.got.tgz:314453.got - 2010.06.11 11:47:21.
