data_PCOD9223181
_publ_section_title
;
Structure prediction by ZEFSAII (Michael W. Deem and Ramdas Pophale) SiO2 
 PCOD9223181
Probable space group: C 2/M
;
_chemical_formula_sum "Si O2"
_cell_formula_units_Z 24
_cell_length_a 18.000000
_cell_length_b 15.000000
_cell_length_c 18.000000
_cell_angle_alpha 90.000000
_cell_angle_beta 30.000000
_cell_angle_gamma 90.000000
_cell_volume 2430.000000
_symmetry_space_group_name_H-M "C 2/M"
_symmetry_group_IT_number 12
_symmetry_cell_setting 'monoclinic'
loop_
_space_group_symop_operation_xyz
x,y,z
-x,y,-z
-x,-y,-z
x,-y,z
1/2+x,1/2+y,z
1/2-x,1/2+y,-z
1/2-x,1/2-y,-z
1/2+x,1/2-y,z
loop_
_atom_site_type_symbol
_atom_site_label
_atom_site_fract_x
_atom_site_fract_y
_atom_site_fract_z
Si Si1 0.985880 0.145083 0.708501
Si Si2 0.287393 0.396482 0.603403
Si Si3 0.304471 0.597926 0.339353
Si Si4 0.080355 0.732311 0.852288
Si Si5 0.439897 0.852700 0.336039
Si Si6 0.355440 0.101285 0.962183
O O1 0.048876 0.118019 0.572811
O O2 0.082046 0.097999 0.689385
O O3 0.024259 0.249162 0.684805
O O4 0.815162 0.123424 0.873115
O O5 0.267431 0.500000 0.638643
O O6 0.224170 0.333766 0.723440
O O7 0.181909 0.370990 0.623686
O O8 0.304969 0.500000 0.303573
O O9 0.361569 0.677693 0.237522
O O10 0.142893 0.615133 0.517557
O O11 0.000000 0.749557 0.000000
O O12 0.954732 0.676967 0.915700
O O13 0.589712 0.894819 0.171544
O O14 0.387299 0.000000 0.960860
#
# Coordination Sequence:
#
# PCOD9223181 Si02
#       6
#     8   8   8   8   8   8
#     4  11  18  34  56  86 116 136 165 220 283 328
#     4  10  18  33  56  80 108 141 178 219 267 325
#     4  11  20  35  58  83 108 140 181 223 270 321
#     4  11  23  39  55  74 104 152 192 221 255 312
#     4  10  17  32  55  81 110 143 167 214 274 327
#     4  11  22  34  54  87 116 138 170 221 276 326
#
# _framework density 9.8765429999999999
#
# number of rings (size 3 to 8) (size 9 to 14) (size 15 to 20)
#    0.000    1.333    5.000    7.000    0.000    1.667 
#    0.000    0.833    0.000    2.000    0.000    1.167 
#    0.000    0.000    0.000    0.000    0.000    0.000 
#
# Total GULP energy -133814.562034 kJ/mol
# GULP energy per Si atom -5575.606751 kJ/mol
# Density = 0.985406 g / cm^3
# Si number density = 9.876543 Si / 1000 Ang^3
#
#
#
# Elastic Constant Matrix: (Units=GPa)
#
#
# Indices 1 2 3 4 5 6 
#
# 1 7.3373 14.2069 28.3606 -0.0001 11.2256 0.0001
# 2 14.2069 182.3923 67.6380 0.0005 10.0632 -0.0001
# 3 28.3606 67.6380 219.0396 0.0009 14.8152 -0.0003
# 4 -0.0001 0.0005 0.0009 27.2460 -0.0003 -5.2269
# 5 11.2256 10.0632 14.8152 -0.0003 32.3821 0.0001
# 6 0.0001 -0.0001 -0.0003 -5.2269 0.0001 5.5484
#
#
#
# Elastic Compliance Matrix: (Units=1/GPa)
#
#
# Indices 1 2 3 4 5 6 
#
# 1 1.228895 -0.029251 -0.125774 0.000001 -0.359378 -0.000016
# 2 -0.029251 0.006925 0.001144 0.000000 0.007465 0.000000
# 3 -0.125774 0.001144 0.018133 0.000000 0.034949 0.000002
# 4 0.000001 0.000000 0.000000 0.044799 0.000000 0.042203
# 5 -0.359378 0.007465 0.034949 0.000000 0.137154 0.000005
# 6 -0.000016 0.000000 0.000002 0.042203 0.000005 0.219990
#
#
# Mechanical properties :
#
#
# Convention : Reuss Voigt Hill
#
# Bulk Modulus (GPa) = 1.05687 69.90892 35.48290
# Shear Modulus (GPa) = 2.19389 32.93954 17.56671
#
# Velocity S-wave (km/s) = 1.05502 4.08801 2.98537
# Velocity P-wave (km/s) = 1.42137 7.59939 5.46676
#
# Compressibility (1/GPa) = 0.94619112
#
# Stress axis : x y z
#
# Youngs Moduli (GPa) = 0.81374 144.40412 55.14803
#
# Poissons Ratio (x) = 4.22403 6.93617
# Poissons Ratio (y) = 0.02380 -0.06309
# Poissons Ratio (z) = 0.10235 -0.16521
#
# Static dielectric constant tensor:
#      x y z
#    x 1.711130 0.000000 0.006060 
#    y 0.000000 1.722160 0.000000 
#    z 0.006060 0.000000 1.751300 
# 
# From -- ./inp_files/278039.got.cif
#   From: 2010.05.17/outbox.ucp.g08.bks.cvg/sg12_140_cif.got.tgz:278039.got - 2010.06.11 11:47:21.
