data_PCOD9223466
_publ_section_title
;
Structure prediction by ZEFSAII (Michael W. Deem and Ramdas Pophale) SiO2 
 PCOD9223466
Probable space group: C 2/M
;
_chemical_formula_sum "Si O2"
_cell_formula_units_Z 32
_cell_length_a 27.000000
_cell_length_b 9.000000
_cell_length_c 21.000000
_cell_angle_alpha 90.000000
_cell_angle_beta 50.000000
_cell_angle_gamma 90.000000
_cell_volume 3909.124793
_symmetry_space_group_name_H-M "C 2/M"
_symmetry_group_IT_number 12
_symmetry_cell_setting 'monoclinic'
loop_
_space_group_symop_operation_xyz
x,y,z
-x,y,-z
-x,-y,-z
x,-y,z
1/2+x,1/2+y,z
1/2-x,1/2+y,-z
1/2-x,1/2-y,-z
1/2+x,1/2-y,z
loop_
_atom_site_type_symbol
_atom_site_label
_atom_site_fract_x
_atom_site_fract_y
_atom_site_fract_z
Si Si1 0.552708 0.320591 0.906273
Si Si2 0.956825 0.670378 0.353668
Si Si3 0.193261 0.676743 0.645251
Si Si4 0.046004 0.327831 0.403132
Si Si5 0.335848 0.323531 0.519181
Si Si6 0.559036 0.676919 0.754400
Si Si7 0.824780 0.824805 0.679841
Si Si8 0.802125 0.177322 0.220822
O O1 0.545823 0.500000 0.909561
O O2 0.545326 0.270443 0.838354
O O3 0.626869 0.292962 0.866606
O O4 0.500000 0.262987 0.000000
O O5 0.946065 0.500000 0.344164
O O6 0.891154 0.735330 0.438040
O O7 0.980802 0.756872 0.271222
O O8 0.006600 0.676963 0.370571
O O9 0.183328 0.500000 0.647852
O O10 0.262881 0.714311 0.558632
O O11 0.131213 0.769062 0.676247
O O12 0.198508 0.724630 0.714670
O O13 0.064840 0.500000 0.400961
O O14 0.108571 0.226833 0.344940
O O15 0.000000 0.280228 0.500000
O O16 0.345731 0.500000 0.502122
O O17 0.336495 0.293455 0.594609
O O18 0.556430 0.500000 0.756740
O O19 0.763900 0.731639 0.756643
O O20 0.812528 0.000000 0.696387
O O21 0.799084 0.000000 0.237131
#
# Coordination Sequence:
#
# PCOD9223466 Si02
#       8
#     8   8   8   8   8   8   8   8
#     4   8  15  30  53  79 101 123 154 189 230 285
#     4  11  22  33  47  65  91 126 161 204 245 281
#     4   9  17  30  46  65  92 125 161 199 235 277
#     4  10  20  34  49  68  91 123 170 214 249 284
#     4   9  18  30  44  64  89 122 163 201 236 277
#     4  10  20  33  49  69  95 126 156 193 236 287
#     4  10  19  30  47  69  96 129 163 206 247 282
#     4   9  16  27  47  73 100 128 156 193 237 285
#
# _framework density 8.1859760000000001
#
# number of rings (size 3 to 8) (size 9 to 14) (size 15 to 20)
#    0.000    2.500    1.250    3.375    0.000    4.250 
#    0.000    0.000    0.000   13.500    0.000    0.875 
#    0.000    0.000    0.000    0.000    0.000    0.000 
#
# Total GULP energy -178152.943471 kJ/mol
# GULP energy per Si atom -5567.279483 kJ/mol
# Density = 0.816734 g / cm^3
# Si number density = 8.185976 Si / 1000 Ang^3
#
#
#
# Elastic Constant Matrix: (Units=GPa)
#
#
# Indices 1 2 3 4 5 6 
#
# 1 52.3201 22.7156 47.1729 -0.0008 -2.9553 0.0004
# 2 22.7156 30.8855 41.4578 -0.0024 2.0577 0.0018
# 3 47.1729 41.4578 80.1070 -0.0009 -13.0734 0.0008
# 4 -0.0008 -0.0024 -0.0009 11.8256 0.0009 2.8808
# 5 -2.9553 2.0577 -13.0734 0.0009 13.6686 -0.0005
# 6 0.0004 0.0018 0.0008 2.8808 -0.0005 20.6627
#
#
#
# Elastic Compliance Matrix: (Units=1/GPa)
#
#
# Indices 1 2 3 4 5 6 
#
# 1 0.083287 0.165508 -0.160952 0.000043 -0.160853 -0.000020
# 2 0.165508 0.701999 -0.559513 0.000171 -0.605050 -0.000082
# 3 -0.160952 -0.559513 0.479788 -0.000138 0.508330 0.000065
# 4 0.000043 0.000171 -0.000138 0.087535 -0.000154 -0.012204
# 5 -0.160853 -0.605050 0.508330 -0.000154 0.615667 0.000073
# 6 -0.000020 -0.000082 0.000065 -0.012204 0.000073 0.050098
#
#
# Mechanical properties :
#
#
# Convention : Reuss Voigt Hill
#
# Bulk Modulus (GPa) = 6.44497 42.88949 24.66723
# Shear Modulus (GPa) = 1.57232 12.69581 7.13406
#
# Velocity S-wave (km/s) = 0.98105 2.78773 2.08973
# Velocity P-wave (km/s) = 2.28657 6.05109 4.57407
#
# Compressibility (1/GPa) = 0.15515974
#
# Stress axis : x y z
#
# Youngs Moduli (GPa) = 12.00667 1.42450 2.08425
#
# Poissons Ratio (x) = -0.23577 0.33546
# Poissons Ratio (y) = -1.98720 1.16617
# Poissons Ratio (z) = 1.93250 0.79703
#
# Static dielectric constant tensor:
#      x y z
#    x 1.680450 0.000000 0.009670 
#    y 0.000000 1.550760 0.000000 
#    z 0.009670 0.000000 1.536960 
# 
# From -- ./inp_files/326883.got.cif
#   From: 2010.05.17/outbox.ucp.g08.bks.cvg/sg12_164_cif.got.tgz:326883.got - 2010.06.11 11:47:21.
