data_PCOD9223317
_publ_section_title
;
Structure prediction by ZEFSAII (Michael W. Deem and Ramdas Pophale) SiO2 
 PCOD9223317
Probable space group: C 2/M
;
_chemical_formula_sum "Si O2"
_cell_formula_units_Z 24
_cell_length_a 30.000000
_cell_length_b 9.000000
_cell_length_c 9.000000
_cell_angle_alpha 90.000000
_cell_angle_beta 90.000000
_cell_angle_gamma 90.000000
_cell_volume 2430.000000
_symmetry_space_group_name_H-M "C 2/M"
_symmetry_group_IT_number 12
_symmetry_cell_setting 'monoclinic'
loop_
_space_group_symop_operation_xyz
x,y,z
-x,y,-z
-x,-y,-z
x,-y,z
1/2+x,1/2+y,z
1/2-x,1/2+y,-z
1/2-x,1/2-y,-z
1/2+x,1/2-y,z
loop_
_atom_site_type_symbol
_atom_site_label
_atom_site_fract_x
_atom_site_fract_y
_atom_site_fract_z
Si Si1 0.253847 0.820742 0.839707
Si Si2 0.490378 0.830087 0.336388
Si Si3 0.450863 0.332639 0.078399
Si Si4 0.913462 0.333957 0.820123
Si Si5 0.163296 0.824149 0.334502
Si Si6 0.207272 0.678963 0.586419
O O1 0.298870 0.754955 0.766012
O O2 0.212841 0.752519 0.745995
O O3 0.254101 0.000000 0.836720
O O4 0.250000 0.750000 0.000000
O O5 0.500000 0.774278 0.500000
O O6 0.458467 0.725333 0.243260
O O7 0.537801 0.836701 0.253213
O O8 0.473152 0.000000 0.344784
O O9 0.433602 0.500000 0.070550
O O10 0.500000 0.332953 0.000000
O O11 0.420886 0.217915 0.988046
O O12 0.894125 0.500000 0.808842
O O13 0.883386 0.213613 0.739286
O O14 0.166316 0.742325 0.493112
O O15 0.171873 0.000000 0.346262
O O16 0.209341 0.500000 0.587242
O O17 0.250000 0.750000 0.500000
#
# Coordination Sequence:
#
# PCOD9223317 Si02
#       6
#     8   8   8   8   8   8
#     4  11  21  36  56  80 107 137 173 213 258 307
#     4   9  18  33  53  76 102 133 170 211 256 307
#     4   9  17  30  49  73 100 132 170 209 252 306
#     4  10  19  33  53  76 102 134 172 213 258 308
#     4  11  21  35  54  78 106 137 174 216 261 309
#     4  10  18  32  53  77 103 136 175 212 254 307
#
# _framework density 9.8765429999999999
#
# number of rings (size 3 to 8) (size 9 to 14) (size 15 to 20)
#    0.000    2.000    0.000    7.500    0.000    3.000 
#    0.000    1.667    0.000    2.000    0.000    0.000 
#    0.000    0.000    0.000    0.000    0.000    0.000 
#
# Total GULP energy -133817.378410 kJ/mol
# GULP energy per Si atom -5575.724100 kJ/mol
# Density = 0.985406 g / cm^3
# Si number density = 9.876543 Si / 1000 Ang^3
#
#
#
# Elastic Constant Matrix: (Units=GPa)
#
#
# Indices 1 2 3 4 5 6 
#
# 1 10.0547 13.0080 3.1664 0.0000 15.1279 0.0000
# 2 13.0080 170.0707 52.6811 0.0000 12.3513 0.0000
# 3 3.1664 52.6811 136.5992 0.0000 27.2700 0.0000
# 4 0.0000 0.0000 0.0000 26.1045 0.0000 7.1425
# 5 15.1279 12.3513 27.2700 0.0000 14.7861 0.0000
# 6 0.0000 0.0000 0.0000 7.1425 0.0000 21.8342
#
#
#
# Elastic Compliance Matrix: (Units=1/GPa)
#
#
# Indices 1 2 3 4 5 6 
#
# 1 -0.076649 0.004587 -0.023556 0.000000 0.118034 0.000000
# 2 0.004587 0.006419 -0.000909 0.000000 -0.008378 0.000000
# 3 -0.023556 -0.000909 0.005151 0.000000 0.015360 0.000000
# 4 0.000000 0.000000 0.000000 0.042073 0.000000 -0.013763
# 5 0.118034 -0.008378 0.015360 0.000000 -0.074461 0.000000
# 6 0.000000 0.000000 0.000000 -0.013763 0.000000 0.050302
#
#
# Mechanical properties :
#
#
# Convention : Reuss Voigt Hill
#
# Bulk Modulus (GPa) = -9.53877 50.49284 20.47703
# Shear Modulus (GPa) = -118.05354 29.06957 -44.49199
#
# Velocity S-wave (km/s) = -7.73914 3.84037 -4.75110
# Velocity P-wave (km/s) = 9.20319 6.72919 4.43940
#
# Compressibility (1/GPa) = -0.10483529
#
# Stress axis : x y z
#
# Youngs Moduli (GPa) = -13.04648 155.78238 194.13708
#
# Poissons Ratio (x) = -0.71460 4.57309
# Poissons Ratio (y) = 0.05985 0.17655
# Poissons Ratio (z) = -0.30732 0.14167
#
# Static dielectric constant tensor:
#      x y z
#    x 1.731390 0.000000 0.015270 
#    y 0.000000 1.662630 0.000000 
#    z 0.015270 0.000000 1.947760 
# 
# From -- ./inp_files/108723.got.cif
#   From: 2010.05.17/outbox.ucp.g08.bks.cvg/sg12_55_cif.got.tgz:108723.got - 2010.06.11 11:47:21.
