data_PCOD9223397
_publ_section_title
;
Structure prediction by ZEFSAII (Michael W. Deem and Ramdas Pophale) SiO2 
 PCOD9223397
Probable space group: C 2/M
;
_chemical_formula_sum "Si O2"
_cell_formula_units_Z 28
_cell_length_a 27.000000
_cell_length_b 9.000000
_cell_length_c 18.000000
_cell_angle_alpha 90.000000
_cell_angle_beta 140.000000
_cell_angle_gamma 90.000000
_cell_volume 2811.553005
_symmetry_space_group_name_H-M "C 2/M"
_symmetry_group_IT_number 12
_symmetry_cell_setting 'monoclinic'
loop_
_space_group_symop_operation_xyz
x,y,z
-x,y,-z
-x,-y,-z
x,-y,z
1/2+x,1/2+y,z
1/2-x,1/2+y,-z
1/2-x,1/2-y,-z
1/2+x,1/2-y,z
loop_
_atom_site_type_symbol
_atom_site_label
_atom_site_fract_x
_atom_site_fract_y
_atom_site_fract_z
Si Si1 0.866636 0.178370 0.262619
Si Si2 0.066173 0.821866 0.221295
Si Si3 0.689537 0.178525 0.260994
Si Si4 0.279833 0.675778 0.958900
Si Si5 0.098966 0.822174 0.021516
Si Si6 0.135465 0.179102 0.572853
Si Si7 0.003193 0.181229 0.310523
O O1 0.787217 0.268179 0.171991
O O2 0.895178 0.205746 0.378935
O O3 0.923338 0.224349 0.260354
O O4 0.852697 0.000000 0.238936
O O5 0.142597 0.744741 0.277342
O O6 0.032306 0.773687 0.262445
O O7 0.079367 0.000000 0.238972
O O8 0.992042 0.794118 0.083840
O O9 0.642201 0.233375 0.134870
O O10 0.778209 0.229772 0.349826
O O11 0.689068 0.000000 0.264944
O O12 0.280407 0.500000 0.970707
O O13 0.360464 0.714261 0.011539
O O14 0.250000 0.750000 0.000000
O O15 0.110262 0.000000 0.045275
O O16 0.071287 0.232398 0.442633
O O17 0.138836 0.000000 0.570172
O O18 0.999007 0.000000 0.303582
#
# Coordination Sequence:
#
# PCOD9223397 Si02
#       7
#     8   8   8   8   8   8   8
#     4  10  18  34  59  85 112 144 186 231 278 328
#     4  10  21  37  56  79 108 146 190 232 273 326
#     4  11  22  36  56  84 113 143 183 231 283 332
#     4  11  22  35  55  83 116 150 184 225 277 332
#     4  10  21  38  57  79 109 146 188 228 271 332
#     4   9  18  33  56  86 114 142 185 235 277 327
#     4   9  18  34  58  84 111 147 191 231 272 330
#
# _framework density 9.9589090000000002
#
# number of rings (size 3 to 8) (size 9 to 14) (size 15 to 20)
#    0.000    2.000    1.429    2.571    0.000    7.429 
#    0.000    2.143    0.000    5.143    0.000    0.000 
#    0.000    0.000    0.000    0.000    0.000    0.000 
#
# Total GULP energy -156075.411792 kJ/mol
# GULP energy per Si atom -5574.121850 kJ/mol
# Density = 0.993624 g / cm^3
# Si number density = 9.958909 Si / 1000 Ang^3
#
#
#
# Elastic Constant Matrix: (Units=GPa)
#
#
# Indices 1 2 3 4 5 6 
#
# 1 137.6296 19.1799 8.8974 0.0000 6.2866 0.0000
# 2 19.1799 13.2545 1.8522 0.0000 1.5511 0.0000
# 3 8.8974 1.8522 32.6050 0.0000 -3.2874 0.0000
# 4 0.0000 0.0000 0.0000 9.4659 0.0000 3.0520
# 5 6.2866 1.5511 -3.2874 0.0000 31.1601 0.0000
# 6 0.0000 0.0000 0.0000 3.0520 0.0000 33.5102
#
#
#
# Elastic Compliance Matrix: (Units=1/GPa)
#
#
# Indices 1 2 3 4 5 6 
#
# 1 0.009263 -0.012967 -0.001935 0.000000 -0.001428 0.000000
# 2 -0.012967 0.094772 -0.002079 0.000000 -0.002321 0.000000
# 3 -0.001935 -0.002079 0.031703 0.000000 0.003839 0.000000
# 4 0.000000 0.000000 0.000000 0.108838 0.000000 -0.009913
# 5 -0.001428 -0.002321 0.003839 0.000000 0.032901 0.000000
# 6 0.000000 0.000000 0.000000 -0.009913 0.000000 0.030744
#
#
# Mechanical properties :
#
#
# Convention : Reuss Voigt Hill
#
# Bulk Modulus (GPa) = 9.82552 27.03869 18.43211
# Shear Modulus (GPa) = 13.29398 25.06456 19.17927
#
# Velocity S-wave (km/s) = 2.58629 3.55124 3.10646
# Velocity P-wave (km/s) = 3.72321 5.51540 4.70542
#
# Compressibility (1/GPa) = 0.10177582
#
# Stress axis : x y z
#
# Youngs Moduli (GPa) = 107.95376 10.55164 31.54244
#
# Poissons Ratio (x) = 0.13682 0.06104
# Poissons Ratio (y) = 1.39982 0.06559
# Poissons Ratio (z) = 0.20890 0.02194
#
# Static dielectric constant tensor:
#      x y z
#    x 1.714280 0.000000 -0.041200 
#    y 0.000000 1.673430 0.000000 
#    z -0.041200 0.000000 1.813740 
# 
# From -- ./inp_files/288379.got.cif
#   From: 2010.05.17/outbox.ucp.g08.bks.cvg/sg12_145_cif.got.tgz:288379.got - 2010.06.11 11:47:21.
