data_PCOD9223333
_publ_section_title
;
Structure prediction by ZEFSAII (Michael W. Deem and Ramdas Pophale) SiO2 
 PCOD9223333
Probable space group: C 2/M
;
_chemical_formula_sum "Si O2"
_cell_formula_units_Z 32
_cell_length_a 24.000000
_cell_length_b 9.000000
_cell_length_c 15.000000
_cell_angle_alpha 90.000000
_cell_angle_beta 90.000000
_cell_angle_gamma 90.000000
_cell_volume 3240.000000
_symmetry_space_group_name_H-M "C 2/M"
_symmetry_group_IT_number 12
_symmetry_cell_setting 'monoclinic'
loop_
_space_group_symop_operation_xyz
x,y,z
-x,y,-z
-x,-y,-z
x,-y,z
1/2+x,1/2+y,z
1/2-x,1/2+y,-z
1/2-x,1/2-y,-z
1/2+x,1/2-y,z
loop_
_atom_site_type_symbol
_atom_site_label
_atom_site_fract_x
_atom_site_fract_y
_atom_site_fract_z
Si Si1 0.856723 0.678324 0.578601
Si Si2 0.660736 0.678788 0.084077
Si Si3 0.588719 0.820357 0.238322
Si Si4 0.460668 0.178999 0.233251
Si Si5 0.123423 0.175853 0.887041
Si Si6 0.753478 0.327320 0.375664
Si Si7 0.730255 0.172579 0.825919
Si Si8 0.618595 0.180541 0.608683
O O1 0.854283 0.500000 0.579638
O O2 0.883772 0.730415 0.669685
O O3 0.793809 0.737298 0.574026
O O4 0.893205 0.721913 0.493153
O O5 0.659547 0.500000 0.093604
O O6 0.621379 0.752330 0.156350
O O7 0.724339 0.724203 0.102952
O O8 0.640114 0.718702 0.986642
O O9 0.524408 0.776617 0.238343
O O10 0.592030 0.000000 0.234481
O O11 0.431225 0.242905 0.146517
O O12 0.424463 0.233758 0.317750
O O13 0.458081 0.000000 0.231970
O O14 0.175243 0.230344 0.828055
O O15 0.116817 0.000000 0.881425
O O16 0.752176 0.500000 0.403583
O O17 0.740542 0.320583 0.270102
O O18 0.817175 0.273570 0.379088
O O19 0.714314 0.000000 0.840779
O O20 0.618753 0.000000 0.615729
#
# Coordination Sequence:
#
# PCOD9223333 Si02
#       8
#     8   8   8   8   8   8   8   8
#     4  10  20  34  54  84 114 140 178 230 274 313
#     4  10  22  39  58  81 113 149 180 218 277 337
#     4  10  22  37  57  83 108 142 190 236 272 312
#     4  10  21  40  59  77 108 149 189 227 273 330
#     4  11  23  37  57  86 112 140 182 231 277 321
#     4  10  18  32  56  82 109 148 182 210 268 338
#     4  10  19  35  59  83 111 149 181 213 271 338
#     4   9  18  34  56  80 110 145 181 220 270 328
#
# _framework density 9.8765429999999999
#
# number of rings (size 3 to 8) (size 9 to 14) (size 15 to 20)
#    0.000    2.000    2.500    1.125    0.000    3.500 
#    0.000    5.625    0.000    0.000    0.000    2.625 
#    0.000    0.000    0.000    0.000    0.000    0.000 
#
# Total GULP energy -178496.722691 kJ/mol
# GULP energy per Si atom -5578.022584 kJ/mol
# Density = 0.985406 g / cm^3
# Si number density = 9.876543 Si / 1000 Ang^3
#
#
#
# Elastic Constant Matrix: (Units=GPa)
#
#
# Indices 1 2 3 4 5 6 
#
# 1 70.8257 6.9811 17.6213 0.0000 16.4145 0.0000
# 2 6.9811 -10.0739 9.5595 0.0000 4.7227 0.0000
# 3 17.6213 9.5595 62.1123 0.0000 8.0856 0.0000
# 4 0.0000 0.0000 0.0000 7.6249 0.0000 -4.9162
# 5 16.4145 4.7227 8.0856 0.0000 5.5954 0.0000
# 6 0.0000 0.0000 0.0000 -4.9162 0.0000 24.9373
#
#
#
# Elastic Compliance Matrix: (Units=1/GPa)
#
#
# Indices 1 2 3 4 5 6 
#
# 1 0.040084 -0.018457 0.005848 0.000000 -0.110462 0.000000
# 2 -0.018457 -0.061882 0.001124 0.000000 0.104752 0.000000
# 3 0.005848 0.001124 0.020476 0.000000 -0.047695 0.000000
# 4 0.000000 0.000000 0.000000 0.150247 0.000000 0.029620
# 5 -0.110462 0.104752 -0.047695 0.000000 0.483274 0.000000
# 6 0.000000 0.000000 0.000000 0.029620 0.000000 0.045940
#
#
# Mechanical properties :
#
#
# Convention : Reuss Voigt Hill
#
# Bulk Modulus (GPa) = -41.16721 21.24311 -9.96205
# Shear Modulus (GPa) = 7.21489 13.54500 10.37995
#
# Velocity S-wave (km/s) = 1.91324 2.62146 2.29483
# Velocity P-wave (km/s) = 4.00069 4.46547 1.40265
#
# Compressibility (1/GPa) = -0.02429118
#
# Stress axis : x y z
#
# Youngs Moduli (GPa) = 24.94774 -16.15974 48.83669
#
# Poissons Ratio (x) = -0.29826 -0.28562
# Poissons Ratio (y) = 0.46047 -0.05490
# Poissons Ratio (z) = -0.14591 0.01817
#
# Static dielectric constant tensor:
#      x y z
#    x 1.668300 0.000000 0.036650 
#    y 0.000000 1.672250 0.000000 
#    z 0.036650 0.000000 1.746590 
# 
# From -- ./inp_files/238743.got.cif
#   From: 2010.05.17/outbox.ucp.g08.bks.cvg/sg12_120_cif.got.tgz:238743.got - 2010.06.11 11:47:21.
