data_PCOD9223174
_publ_section_title
;
Structure prediction by ZEFSAII (Michael W. Deem and Ramdas Pophale) SiO2 
 PCOD9223174
Probable space group: C 2/M
;
_chemical_formula_sum "Si O2"
_cell_formula_units_Z 32
_cell_length_a 18.000000
_cell_length_b 24.000000
_cell_length_c 12.000000
_cell_angle_alpha 90.000000
_cell_angle_beta 50.000000
_cell_angle_gamma 90.000000
_cell_volume 3971.174393
_symmetry_space_group_name_H-M "C 2/M"
_symmetry_group_IT_number 12
_symmetry_cell_setting 'monoclinic'
loop_
_space_group_symop_operation_xyz
x,y,z
-x,y,-z
-x,-y,-z
x,-y,z
1/2+x,1/2+y,z
1/2-x,1/2+y,-z
1/2-x,1/2-y,-z
1/2+x,1/2-y,z
loop_
_atom_site_type_symbol
_atom_site_label
_atom_site_fract_x
_atom_site_fract_y
_atom_site_fract_z
Si Si1 0.266756 0.774093 0.635497
Si Si2 0.032350 0.201895 0.339136
Si Si3 0.209951 0.564217 0.648660
Si Si4 0.896153 0.622914 0.045325
Si Si5 0.996092 0.562337 0.752758
Si Si6 0.163348 0.835536 0.560397
Si Si7 0.024943 0.677283 0.604327
Si Si8 0.747536 0.282653 0.118248
O O1 0.179396 0.809026 0.666991
O O2 0.283678 0.712409 0.566616
O O3 0.360357 0.809566 0.505194
O O4 0.257766 0.761715 0.774563
O O5 0.143957 0.185154 0.223118
O O6 0.000000 0.203913 0.500000
O O7 0.950095 0.165504 0.359593
O O8 0.022963 0.265765 0.303498
O O9 0.243627 0.500000 0.631507
O O10 0.174038 0.593824 0.796953
O O11 0.285676 0.605820 0.515557
O O12 0.109318 0.561138 0.677310
O O13 0.836451 0.674811 0.052193
O O14 0.929653 0.576644 0.923476
O O15 0.000000 0.641149 0.000000
O O16 0.972201 0.500000 0.731602
O O17 0.990214 0.619263 0.688153
O O18 0.000000 0.674608 0.500000
O O19 0.750000 0.250000 0.000000
#
# Coordination Sequence:
#
# PCOD9223174 Si02
#       8
#     8   8   8   8   8   8   8   8
#     4  10  19  32  51  78 102 137 171 211 270 312
#     4  10  18  33  52  78 108 138 169 214 279 322
#     4  10  18  32  52  77 103 136 179 226 267 314
#     4  10  21  34  51  72 107 143 181 218 265 322
#     4  10  20  32  48  74 105 141 179 219 264 312
#     4  10  18  32  57  75 104 133 175 217 263 323
#     4  10  17  30  50  70 106 136 170 210 267 319
#     4  12  22  34  52  80 109 142 177 218 272 331
#
# _framework density 8.0580700000000007
#
# number of rings (size 3 to 8) (size 9 to 14) (size 15 to 20)
#    0.000    1.750    6.250    1.125    0.000    2.750 
#    0.000    0.000    0.000    4.125    0.000    0.000 
#    0.000    1.000    0.000    0.000    0.000    0.000 
#
# Total GULP energy -178147.828451 kJ/mol
# GULP energy per Si atom -5567.119639 kJ/mol
# Density = 0.803973 g / cm^3
# Si number density = 8.058070 Si / 1000 Ang^3
#
#
#
# Elastic Constant Matrix: (Units=GPa)
#
#
# Indices 1 2 3 4 5 6 
#
# 1 76.7351 25.0618 24.2307 0.0000 -11.3410 0.0000
# 2 25.0618 90.8597 22.8831 0.0000 -8.3755 0.0000
# 3 24.2307 22.8831 50.5652 0.0000 -3.5993 0.0000
# 4 0.0000 0.0000 0.0000 3.7485 0.0000 -11.4182
# 5 -11.3410 -8.3755 -3.5993 0.0000 23.9858 0.0000
# 6 0.0000 0.0000 0.0000 -11.4182 0.0000 6.5103
#
#
#
# Elastic Compliance Matrix: (Units=1/GPa)
#
#
# Indices 1 2 3 4 5 6 
#
# 1 0.016783 -0.002427 -0.006509 0.000000 0.006111 0.000000
# 2 -0.002427 0.013076 -0.004560 0.000000 0.002734 0.000000
# 3 -0.006509 -0.004560 0.024893 0.000000 -0.000935 0.000000
# 4 0.000000 0.000000 0.000000 -0.061435 0.000000 -0.107748
# 5 0.006111 0.002734 -0.000935 0.000000 0.045395 0.000000
# 6 0.000000 0.000000 0.000000 -0.107748 0.000000 -0.035373
#
#
# Mechanical properties :
#
#
# Convention : Reuss Voigt Hill
#
# Bulk Modulus (GPa) = 36.02307 40.27902 38.15105
# Shear Modulus (GPa) = 126.31155 16.58120 71.44638
#
# Velocity S-wave (km/s) = 8.86262 3.21106 6.66547
# Velocity P-wave (km/s) = 11.27513 6.22857 9.10834
#
# Compressibility (1/GPa) = 0.02775999
#
# Stress axis : x y z
#
# Youngs Moduli (GPa) = 59.58411 76.47725 40.17233
#
# Poissons Ratio (x) = 0.18558 0.26149
# Poissons Ratio (y) = 0.14458 0.18319
# Poissons Ratio (z) = 0.38785 0.34874
#
# Static dielectric constant tensor:
#      x y z
#    x 1.541530 0.000000 0.090540 
#    y 0.000000 1.535210 0.000000 
#    z 0.090540 0.000000 1.476890 
# 
# From -- ./inp_files/159524.got.cif
#   From: 2010.05.17/outbox.ucp.g08.bks.cvg/sg12_80_cif.got.tgz:159524.got - 2010.06.11 11:47:21.
