data_PCOD9223908
_publ_section_title
;
Structure prediction by ZEFSAII (Michael W. Deem and Ramdas Pophale) SiO2 
 PCOD9223908
Probable space group: C 2/M
;
_chemical_formula_sum "Si O2"
_cell_formula_units_Z 28
_cell_length_a 27.000000
_cell_length_b 9.000000
_cell_length_c 18.000000
_cell_angle_alpha 90.000000
_cell_angle_beta 40.000000
_cell_angle_gamma 90.000000
_cell_volume 2811.553005
_symmetry_space_group_name_H-M "C 2/M"
_symmetry_group_IT_number 12
_symmetry_cell_setting 'monoclinic'
loop_
_space_group_symop_operation_xyz
x,y,z
-x,y,-z
-x,-y,-z
x,-y,z
1/2+x,1/2+y,z
1/2-x,1/2+y,-z
1/2-x,1/2-y,-z
1/2+x,1/2-y,z
loop_
_atom_site_type_symbol
_atom_site_label
_atom_site_fract_x
_atom_site_fract_y
_atom_site_fract_z
Si Si1 0.413126 0.322190 0.127843
Si Si2 0.647590 0.672719 0.338186
Si Si3 0.614662 0.324944 0.533708
Si Si4 0.317569 0.177865 0.106479
Si Si5 0.410864 0.822688 0.290251
Si Si6 0.541916 0.822504 0.346601
Si Si7 0.585717 0.821529 0.140470
O O1 0.408099 0.500000 0.138798
O O2 0.355285 0.258996 0.132932
O O3 0.396820 0.250791 0.226966
O O4 0.500000 0.283612 0.000000
O O5 0.623062 0.500000 0.360667
O O6 0.668872 0.697601 0.400279
O O7 0.726835 0.697452 0.205083
O O8 0.582152 0.771645 0.375689
O O9 0.606755 0.500000 0.558215
O O10 0.635021 0.241593 0.586151
O O11 0.536149 0.260328 0.587457
O O12 0.332378 0.000000 0.097664
O O13 0.356512 0.237385 0.986868
O O14 0.499398 0.786691 0.211678
O O15 0.402201 0.000000 0.295755
O O16 0.596070 0.779456 0.214108
O O17 0.528731 0.000000 0.362022
O O18 0.591382 0.000000 0.132933
#
# Coordination Sequence:
#
# PCOD9223908 Si02
#       7
#     8   8   8   8   8   8   8
#     4  11  22  35  55  86 116 140 175 220 271 324
#     4  10  22  37  54  78 109 148 186 225 275 323
#     4  10  20  36  56  80 111 142 181 232 276 315
#     4  10  20  37  57  77 108 148 186 221 269 329
#     4  10  19  34  58  85 108 139 182 223 271 322
#     4  10  20  34  55  82 108 142 187 229 271 323
#     4   8  16  31  52  79 107 135 175 223 266 314
#
# _framework density 9.9589090000000002
#
# number of rings (size 3 to 8) (size 9 to 14) (size 15 to 20)
#    0.000    2.143    1.429    3.000    0.000    4.571 
#    0.000    1.429    0.000    0.000    0.000    0.000 
#    0.000    0.000    0.000    0.000    0.000    0.000 
#
# Total GULP energy -156116.032044 kJ/mol
# GULP energy per Si atom -5575.572573 kJ/mol
# Density = 0.993624 g / cm^3
# Si number density = 9.958909 Si / 1000 Ang^3
#
#
#
# Elastic Constant Matrix: (Units=GPa)
#
#
# Indices 1 2 3 4 5 6 
#
# 1 40.4459 -0.6802 11.5979 0.0078 14.6810 -0.0029
# 2 -0.6802 19.1291 9.2051 0.0087 -14.2722 -0.0024
# 3 11.5979 9.2051 50.5563 0.0092 22.3462 -0.0045
# 4 0.0078 0.0087 0.0092 16.5677 0.0001 10.2386
# 5 14.6810 -14.2722 22.3462 0.0001 19.7699 -0.0005
# 6 -0.0029 -0.0024 -0.0045 10.2386 -0.0005 23.6554
#
#
#
# Elastic Compliance Matrix: (Units=1/GPa)
#
#
# Indices 1 2 3 4 5 6 
#
# 1 0.023803 0.021461 -0.016793 -0.000020 0.016799 0.000011
# 2 0.021461 -0.041071 0.045373 -0.000022 -0.096872 0.000014
# 3 -0.016793 0.045373 -0.009231 -0.000017 0.055660 0.000010
# 4 -0.000020 -0.000022 -0.000017 0.082398 0.000017 -0.035664
# 5 0.016799 -0.096872 0.055660 0.000017 -0.094740 -0.000007
# 6 0.000011 0.000014 0.000010 -0.035664 -0.000007 0.057710
#
#
# Mechanical properties :
#
#
# Convention : Reuss Voigt Hill
#
# Bulk Modulus (GPa) = 13.59015 16.70855 15.14935
# Shear Modulus (GPa) = -88.20598 17.99918 -35.10340
#
# Velocity S-wave (km/s) = -6.66191 3.00938 -4.20266
# Velocity P-wave (km/s) = 7.23442 4.52571 3.99091
#
# Compressibility (1/GPa) = 0.07358269
#
# Stress axis : x y z
#
# Youngs Moduli (GPa) = 42.01128 -24.34816 -108.33070
#
# Poissons Ratio (x) = 0.52254 -1.81924
# Poissons Ratio (y) = -0.90161 4.91528
# Poissons Ratio (z) = 0.70551 1.10475
#
# Static dielectric constant tensor:
#      x y z
#    x 1.650640 0.000000 0.031290 
#    y 0.000000 1.673800 0.000000 
#    z 0.031290 0.000000 1.828820 
# 
# From -- ./inp_files/288179.got.cif
#   From: 2010.05.17/outbox.ucp.g08.bks.cvg/sg12_145_cif.got.tgz:288179.got - 2010.06.11 11:47:21.
