data_PCOD9223493
_publ_section_title
;
Structure prediction by ZEFSAII (Michael W. Deem and Ramdas Pophale) SiO2 
 PCOD9223493
Probable space group: C 2/M
;
_chemical_formula_sum "Si O2"
_cell_formula_units_Z 32
_cell_length_a 21.000000
_cell_length_b 9.000000
_cell_length_c 21.000000
_cell_angle_alpha 90.000000
_cell_angle_beta 60.000000
_cell_angle_gamma 90.000000
_cell_volume 3437.254828
_symmetry_space_group_name_H-M "C 2/M"
_symmetry_group_IT_number 12
_symmetry_cell_setting 'monoclinic'
loop_
_space_group_symop_operation_xyz
x,y,z
-x,y,-z
-x,-y,-z
x,-y,z
1/2+x,1/2+y,z
1/2-x,1/2+y,-z
1/2-x,1/2-y,-z
1/2+x,1/2-y,z
loop_
_atom_site_type_symbol
_atom_site_label
_atom_site_fract_x
_atom_site_fract_y
_atom_site_fract_z
Si Si1 0.171818 0.822583 0.550826
Si Si2 0.255525 0.675492 0.096151
Si Si3 0.730608 0.179254 0.251069
Si Si4 0.349882 0.320527 0.291320
Si Si5 0.866608 0.824757 0.928670
Si Si6 0.954801 0.672567 0.461652
Si Si7 0.498318 0.822225 0.806229
Si Si8 0.072205 0.673336 0.290435
O O1 0.250000 0.750000 0.500000
O O2 0.150172 0.779470 0.634023
O O3 0.115296 0.762810 0.526505
O O4 0.175660 0.000000 0.546165
O O5 0.236127 0.500000 0.101167
O O6 0.268385 0.708464 0.163788
O O7 0.188767 0.767567 0.098867
O O8 0.324645 0.700510 0.016037
O O9 0.778310 0.231378 0.287253
O O10 0.647696 0.237392 0.281397
O O11 0.725535 0.000000 0.261832
O O12 0.353011 0.500000 0.286119
O O13 0.422631 0.250514 0.225286
O O14 0.940720 0.731922 0.887152
O O15 0.880121 0.000000 0.914197
O O16 0.933777 0.500000 0.485037
O O17 0.000000 0.728126 0.500000
O O18 0.010814 0.676352 0.374891
O O19 0.462202 0.765533 0.757361
O O20 0.504775 0.000000 0.800627
O O21 0.088834 0.500000 0.267440
#
# Coordination Sequence:
#
# PCOD9223493 Si02
#       8
#     8   8   8   8   8   8   8   8
#     4  11  24  40  59  83 116 152 188 230 282 340
#     4   9  17  32  53  79 109 144 183 228 279 330
#     4   9  17  33  57  82 107 140 186 230 272 323
#     4  10  22  38  59  83 110 143 185 234 274 322
#     4  10  19  30  51  82 113 141 180 230 279 329
#     4  10  21  37  61  88 114 146 188 232 276 333
#     4  11  20  35  58  80 109 148 186 224 273 334
#     4   9  17  31  56  83 105 138 184 229 267 316
#
# _framework density 9.3097549999999991
#
# number of rings (size 3 to 8) (size 9 to 14) (size 15 to 20)
#    0.000    2.125    2.500    1.125    1.750    1.250 
#    0.000    1.250    0.000    3.750    0.000    0.000 
#    0.000    0.000    0.000    0.000    0.000    0.000 
#
# Total GULP energy -178426.649018 kJ/mol
# GULP energy per Si atom -5575.832782 kJ/mol
# Density = 0.928857 g / cm^3
# Si number density = 9.309755 Si / 1000 Ang^3
#
#
#
# Elastic Constant Matrix: (Units=GPa)
#
#
# Indices 1 2 3 4 5 6 
#
# 1 118.9006 21.8621 15.5447 0.0000 -1.5745 0.0001
# 2 21.8621 15.2442 11.0754 -0.0001 -0.1086 0.0001
# 3 15.5447 11.0754 25.4116 0.0000 -8.2897 0.0000
# 4 0.0000 -0.0001 0.0000 18.7508 0.0000 -2.5033
# 5 -1.5745 -0.1086 -8.2897 0.0000 26.4774 -0.0001
# 6 0.0001 0.0001 0.0000 -2.5033 -0.0001 28.8604
#
#
#
# Elastic Compliance Matrix: (Units=1/GPa)
#
#
# Indices 1 2 3 4 5 6 
#
# 1 0.011438 -0.016834 0.000601 0.000000 0.000799 0.000000
# 2 -0.016834 0.125782 -0.049764 0.000000 -0.016066 -0.000001
# 3 0.000601 -0.049764 0.067514 0.000000 0.020969 0.000000
# 4 0.000000 0.000000 0.000000 0.053956 0.000000 0.004680
# 5 0.000799 -0.016066 0.020969 0.000000 0.044315 0.000000
# 6 0.000000 -0.000001 0.000000 0.004680 0.000000 0.035055
#
#
# Mechanical properties :
#
#
# Convention : Reuss Voigt Hill
#
# Bulk Modulus (GPa) = 13.74764 28.50231 21.12497
# Shear Modulus (GPa) = 10.11533 22.22268 16.16900
#
# Velocity S-wave (km/s) = 2.33333 3.45848 2.95004
# Velocity P-wave (km/s) = 3.82867 5.59366 4.79311
#
# Compressibility (1/GPa) = 0.07273977
#
# Stress axis : x y z
#
# Youngs Moduli (GPa) = 87.43057 7.95029 14.81177
#
# Poissons Ratio (x) = 0.13384 -0.00890
# Poissons Ratio (y) = 1.47182 0.73709
# Poissons Ratio (z) = -0.05256 0.39564
#
# Static dielectric constant tensor:
#      x y z
#    x 1.640480 0.000000 -0.008720 
#    y 0.000000 1.633040 0.000000 
#    z -0.008720 0.000000 1.673060 
# 
# From -- ./inp_files/319893.got.cif
#   From: 2010.05.17/outbox.ucp.g08.bks.cvg/sg12_160_cif.got.tgz:319893.got - 2010.06.11 11:47:21.
