data_PCOD9223801
_publ_section_title
;
Structure prediction by ZEFSAII (Michael W. Deem and Ramdas Pophale) SiO2 
 PCOD9223801
Probable space group: C 2/M
;
_chemical_formula_sum "Si O2"
_cell_formula_units_Z 28
_cell_length_a 24.000000
_cell_length_b 9.000000
_cell_length_c 15.000000
_cell_angle_alpha 90.000000
_cell_angle_beta 110.000000
_cell_angle_gamma 90.000000
_cell_volume 3044.604091
_symmetry_space_group_name_H-M "C 2/M"
_symmetry_group_IT_number 12
_symmetry_cell_setting 'monoclinic'
loop_
_space_group_symop_operation_xyz
x,y,z
-x,y,-z
-x,-y,-z
x,-y,z
1/2+x,1/2+y,z
1/2-x,1/2+y,-z
1/2-x,1/2-y,-z
1/2+x,1/2-y,z
loop_
_atom_site_type_symbol
_atom_site_label
_atom_site_fract_x
_atom_site_fract_y
_atom_site_fract_z
Si Si1 0.511627 0.680865 0.612482
Si Si2 0.846643 0.822234 0.813335
Si Si3 0.628626 0.678822 0.786064
Si Si4 0.687568 0.323867 0.486979
Si Si5 0.813403 0.819320 0.001901
Si Si6 0.087595 0.678677 0.312302
Si Si7 0.226604 0.825123 0.701746
O O1 0.500000 0.721873 0.500000
O O2 0.506227 0.500000 0.611574
O O3 0.575007 0.725611 0.691241
O O4 0.466624 0.751385 0.660453
O O5 0.897271 0.745199 0.778520
O O6 0.785181 0.773742 0.732139
O O7 0.854936 0.000000 0.814661
O O8 0.835934 0.779886 0.913079
O O9 0.623952 0.500000 0.785697
O O10 0.638428 0.724803 0.894647
O O11 0.689204 0.715934 0.767959
O O12 0.684284 0.500000 0.463251
O O13 0.750000 0.250000 0.500000
O O14 0.641158 0.230872 0.405338
O O15 0.684302 0.311019 0.592459
O O16 0.807081 0.000000 0.999517
O O17 0.750000 0.750000 0.000000
O O18 0.083259 0.500000 0.304329
O O19 0.244156 0.000000 0.715285
#
# Coordination Sequence:
#
# PCOD9223801 Si02
#       7
#     8   8   8   8   8   8   8
#     4  10  21  41  67  90 115 154 201 249 298 361
#     4  11  22  35  55  85 119 155 197 244 295 356
#     4   9  18  35  60  87 116 152 195 242 297 359
#     4  11  21  33  53  84 117 151 192 238 294 359
#     4  10  20  35  58  89 122 157 196 244 300 358
#     4  12  25  40  58  82 118 163 201 249 304 354
#     4  10  19  33  56  84 117 152 187 235 296 357
#
# _framework density 9.1965979999999998
#
# number of rings (size 3 to 8) (size 9 to 14) (size 15 to 20)
#    0.000    1.571    2.857    3.000    0.000    3.714 
#    0.000    2.143    0.000    4.286    0.000    0.000 
#    0.000    0.000    0.000    0.000    0.000    0.000 
#
# Total GULP energy -155995.411996 kJ/mol
# GULP energy per Si atom -5571.264714 kJ/mol
# Density = 0.917567 g / cm^3
# Si number density = 9.196598 Si / 1000 Ang^3
#
#
#
# Elastic Constant Matrix: (Units=GPa)
#
#
# Indices 1 2 3 4 5 6 
#
# 1 90.0433 23.8046 45.1816 0.0000 -14.9990 0.0000
# 2 23.8046 63.2466 26.7921 0.0000 -14.8706 0.0000
# 3 45.1816 26.7921 131.4006 0.0000 -24.2769 0.0000
# 4 0.0000 0.0000 0.0000 24.4783 0.0000 -5.5516
# 5 -14.9990 -14.8706 -24.2769 0.0000 39.2475 0.0000
# 6 0.0000 0.0000 0.0000 -5.5516 0.0000 29.0842
#
#
#
# Elastic Compliance Matrix: (Units=1/GPa)
#
#
# Indices 1 2 3 4 5 6 
#
# 1 0.014224 -0.003286 -0.003891 0.000000 0.001784 0.000000
# 2 -0.003286 0.018957 -0.001852 0.000000 0.004781 0.000000
# 3 -0.003891 -0.001852 0.010073 0.000000 0.004042 0.000000
# 4 0.000000 0.000000 0.000000 0.042701 0.000000 0.008151
# 5 0.001784 0.004781 0.004042 0.000000 0.030473 0.000000
# 6 0.000000 0.000000 0.000000 0.008151 0.000000 0.035939
#
#
# Mechanical properties :
#
#
# Convention : Reuss Voigt Hill
#
# Bulk Modulus (GPa) = 39.69034 52.91635 46.30334
# Shear Modulus (GPa) = 27.96068 31.15615 29.55842
#
# Velocity S-wave (km/s) = 3.90316 4.12016 4.01313
# Velocity P-wave (km/s) = 6.47600 7.17400 6.83392
#
# Compressibility (1/GPa) = 0.02519505
#
# Stress axis : x y z
#
# Youngs Moduli (GPa) = 70.30278 52.75227 99.27835
#
# Poissons Ratio (x) = 0.17333 0.38633
# Poissons Ratio (y) = 0.23100 0.18387
# Poissons Ratio (z) = 0.27357 0.09770
#
# Static dielectric constant tensor:
#      x y z
#    x 1.614060 0.000000 -0.057290 
#    y 0.000000 1.614590 0.000000 
#    z -0.057290 0.000000 1.654480 
# 
# From -- ./inp_files/237860.got.cif
#   From: 2010.05.17/outbox.ucp.g08.bks.cvg/sg12_119_cif.got.tgz:237860.got - 2010.06.11 11:47:21.
