data_PCOD9223056
_publ_section_title
;
Structure prediction by ZEFSAII (Michael W. Deem and Ramdas Pophale) SiO2 
 PCOD9223056
Probable space group: C 2/M
;
_chemical_formula_sum "Si O2"
_cell_formula_units_Z 56
_cell_length_a 26.611071
_cell_length_b 7.454134
_cell_length_c 20.021779
_cell_angle_alpha 90.000000
_cell_angle_beta 48.355621
_cell_angle_gamma 90.000000
_cell_volume 2967.889129
_symmetry_space_group_name_H-M "C 2/M"
_symmetry_group_IT_number 12
_symmetry_cell_setting 'monoclinic'
loop_
_space_group_symop_operation_xyz
x,y,z
-x,y,-z
-x,-y,-z
x,-y,z
1/2+x,1/2+y,z
1/2-x,1/2+y,-z
1/2-x,1/2-y,-z
1/2+x,1/2-y,z
loop_
_atom_site_type_symbol
_atom_site_label
_atom_site_fract_x
_atom_site_fract_y
_atom_site_fract_z
Si Si1 0.948610 0.281400 0.602823
Si Si2 0.857345 0.714381 0.900387
Si Si3 0.242263 0.785610 0.900397
Si Si4 0.008645 0.280490 0.285753
Si Si5 0.743821 0.785370 0.398227
Si Si6 0.794450 0.719512 0.714226
Si Si7 0.357937 0.785366 0.398170
O O1 0.948927 0.500000 0.602193
O O2 0.872168 0.226862 0.655595
O O3 0.000000 0.222361 0.500000
O O4 0.972316 0.226861 0.655558
O O5 0.858767 0.500000 0.891261
O O6 0.802355 0.784013 0.895290
O O7 0.931372 0.779405 0.816024
O O8 0.827092 0.749966 1.000000
O O9 0.252616 0.720605 0.816015
O O10 0.249943 0.000000 0.891304
O O11 0.007865 0.500000 0.285599
O O12 0.934100 0.218448 0.332626
O O13 0.733178 0.718437 0.332706
O O14 0.687227 0.716086 0.500030
O O15 0.815564 0.750016 0.368818
O O16 0.735678 0.000000 0.402937
O O17 0.793518 0.500000 0.714377
O O18 0.361365 0.000000 0.402871
#
# Coordination Sequence:
#
# PCOD9223056 Si02
#       7
#     8   8   8   8   8   8   8
#     4   9  14  20  35  62  91 113 135 169 214 259
#     4   9  16  27  43  63  88 114 141 174 213 257
#     4   9  16  27  43  63  88 114 141 174 213 257
#     4   9  15  25  41  63  89 114 140 175 217 256
#     4   9  17  29  45  65  88 115 147 179 211 251
#     4   9  15  25  41  63  89 114 140 175 217 256
#     4   9  17  29  45  65  88 115 147 179 211 251
#
# _framework density 18.86863
#
# number of rings (size 3 to 8) (size 9 to 14) (size 15 to 20)
#    0.000    3.000    1.429    0.857    0.000    3.429 
#    0.000    1.429    0.000    0.857    0.000    6.000 
#    0.000    6.857    0.000    0.000    0.000    0.000 
#
# Total GULP energy -156170.281629 kJ/mol
# GULP energy per Si atom -5577.510058 kJ/mol
# Density = 1.882568 g / cm^3
# Si number density = 18.868630 Si / 1000 Ang^3
#
#
#
# Elastic Constant Matrix: (Units=GPa)
#
#
# Indices 1 2 3 4 5 6 
#
# 1 161.7027 2.3251 123.0934 -0.0067 -0.2090 0.0074
# 2 2.3251 55.2167 3.9721 -0.0274 -0.0606 -0.0184
# 3 123.0934 3.9721 195.2043 -0.0072 -0.8295 0.0170
# 4 -0.0067 -0.0274 -0.0072 11.1687 0.0070 -0.3334
# 5 -0.2090 -0.0606 -0.8295 0.0070 18.3252 0.0126
# 6 0.0074 -0.0184 0.0170 -0.3334 0.0126 -9.5808
#
#
#
# Elastic Compliance Matrix: (Units=1/GPa)
#
#
# Indices 1 2 3 4 5 6 
#
# 1 0.011894 0.000039 -0.007502 0.000002 -0.000204 -0.000005
# 2 0.000039 0.018137 -0.000393 0.000043 0.000043 -0.000037
# 3 -0.007502 -0.000393 0.009863 0.000001 0.000360 0.000013
# 4 0.000002 0.000043 0.000001 0.089443 -0.000032 -0.003113
# 5 -0.000204 0.000043 0.000360 -0.000032 0.054584 0.000073
# 6 -0.000005 -0.000037 0.000013 -0.003113 0.000073 -0.104267
#
#
# Mechanical properties :
#
#
# Convention : Reuss Voigt Hill
#
# Bulk Modulus (GPa) = 41.35447 74.54499 57.94973
# Shear Modulus (GPa) = 48.34297 22.83148 35.58723
#
# Velocity S-wave (km/s) = 5.06719 3.48231 4.34758
# Velocity P-wave (km/s) = 7.49666 7.46738 7.48203
#
# Compressibility (1/GPa) = 0.02418118
#
# Stress axis : x y z
#
# Youngs Moduli (GPa) = 84.07552 55.13533 101.38926
#
# Poissons Ratio (x) = -0.00213 0.76061
# Poissons Ratio (y) = -0.00325 0.03987
# Poissons Ratio (z) = 0.63073 0.02168
#
# Static dielectric constant tensor:
#      x y z
#    x 1.622540 -0.000010 -0.000570 
#    y -0.000010 1.751900 0.000000 
#    z -0.000570 0.000000 1.658440 
# 
# From -- ./inp_files/136730.got.cif
#   From: 2010.05.17/outbox.cif.g08.bks.cpg/sg12_69_cif.got.tgz:136730.got - 2010.06.03 13:09:07.
