data_PCOD9223142
_publ_section_title
;
Structure prediction by ZEFSAII (Michael W. Deem and Ramdas Pophale) SiO2 
 PCOD9223142
Probable space group: C 2/M
;
_chemical_formula_sum "Si O2"
_cell_formula_units_Z 48
_cell_length_a 15.740447
_cell_length_b 7.643663
_cell_length_c 16.300070
_cell_angle_alpha 90.000000
_cell_angle_beta 62.572440
_cell_angle_gamma 90.000000
_cell_volume 1740.693794
_symmetry_space_group_name_H-M "C 2/M"
_symmetry_group_IT_number 12
_symmetry_cell_setting 'monoclinic'
loop_
_space_group_symop_operation_xyz
x,y,z
-x,y,-z
-x,-y,-z
x,-y,z
1/2+x,1/2+y,z
1/2-x,1/2+y,-z
1/2-x,1/2-y,-z
1/2+x,1/2-y,z
loop_
_atom_site_type_symbol
_atom_site_label
_atom_site_fract_x
_atom_site_fract_y
_atom_site_fract_z
Si Si1 0.695063 0.793161 0.439056
Si Si2 0.362842 0.791064 0.933612
Si Si3 0.007323 0.791198 0.607376
Si Si4 0.828325 0.203852 0.770946
Si Si5 0.617109 0.789948 0.897949
Si Si6 0.617065 0.710777 0.721232
O O1 0.750000 0.750000 0.500000
O O2 0.585788 0.732829 0.500761
O O3 0.772663 0.724436 0.338734
O O4 0.690576 0.000000 0.433781
O O5 0.381108 0.710400 0.836341
O O6 0.375371 0.000000 0.920341
O O7 0.250000 0.750000 0.000000
O O8 0.410742 0.727752 0.998246
O O9 0.062458 0.725959 0.664764
O O10 0.900423 0.718254 0.671152
O O11 0.996326 0.000000 0.617998
O O12 0.724450 0.285013 0.833432
O O13 0.811752 0.000000 0.760907
O O14 0.572782 0.762419 0.827848
O O15 0.619689 0.000000 0.907319
O O16 0.618228 0.500000 0.717215
#
# Coordination Sequence:
#
# PCOD9223142 Si02
#       6
#     8   8   8   8   8   8
#     4   9  17  30  48  70  94 123 160 194 229 278
#     4   9  17  30  48  70  94 123 160 194 229 278
#     4   9  18  33  51  71  95 123 158 197 234 276
#     4   9  18  33  51  71  95 123 158 197 234 276
#     4   9  18  31  48  70  94 122 156 193 233 278
#     4   9  18  31  48  70  94 122 156 193 233 278
#
# _framework density 27.575210999999999
#
# number of rings (size 3 to 8) (size 9 to 14) (size 15 to 20)
#    0.000    3.000    0.000    3.000    0.000    7.333 
#    0.000    1.667    0.000   10.000    0.000    0.000 
#    0.000    0.000    0.000    0.000    0.000    0.000 
#
# Total GULP energy -134105.534739 kJ/mol
# GULP energy per Si atom -5587.730614 kJ/mol
# Density = 2.751245 g / cm^3
# Si number density = 27.575211 Si / 1000 Ang^3
#
#
#
# Elastic Constant Matrix: (Units=GPa)
#
#
# Indices 1 2 3 4 5 6 
#
# 1 45.9990 1.1821 -5.3902 0.0000 -10.0452 0.0000
# 2 1.1821 89.8938 -7.3845 0.0000 -0.0408 0.0001
# 3 -5.3902 -7.3845 226.0203 0.0000 -11.7555 0.0000
# 4 0.0000 0.0000 0.0000 29.5702 0.0000 13.2044
# 5 -10.0452 -0.0408 -11.7555 0.0000 57.0997 0.0000
# 6 0.0000 0.0001 0.0000 13.2044 0.0000 17.7814
#
#
#
# Elastic Compliance Matrix: (Units=1/GPa)
#
#
# Indices 1 2 3 4 5 6 
#
# 1 0.022741 -0.000235 0.000751 0.000000 0.004155 0.000000
# 2 -0.000235 0.011157 0.000361 0.000000 0.000041 0.000000
# 3 0.000751 0.000361 0.004509 0.000000 0.001061 0.000000
# 4 0.000000 0.000000 0.000000 0.050595 0.000000 -0.037572
# 5 0.004155 0.000041 0.001061 0.000000 0.018463 0.000000
# 6 0.000000 0.000000 0.000000 -0.037572 0.000000 0.084139
#
#
# Mechanical properties :
#
#
# Convention : Reuss Voigt Hill
#
# Bulk Modulus (GPa) = 24.90049 37.63643 31.26846
# Shear Modulus (GPa) = 24.60163 45.79064 35.19614
#
# Velocity S-wave (km/s) = 2.99015 4.07943 3.57651
# Velocity P-wave (km/s) = 4.57941 5.98893 5.33096
#
# Compressibility (1/GPa) = 0.04015986
#
# Stress axis : x y z
#
# Youngs Moduli (GPa) = 43.97347 89.62973 221.76647
#
# Poissons Ratio (x) = 0.02111 -0.16649
# Poissons Ratio (y) = 0.01035 -0.08006
# Poissons Ratio (z) = -0.03301 -0.03236
#
# Static dielectric constant tensor:
#      x y z
#    x 2.445470 0.000000 0.166530 
#    y 0.000000 1.993140 0.000000 
#    z 0.166530 0.000000 2.556040 
# 
# From -- ./inp_files/273686.got.cif
#   From: 2010.05.17/outbox.cif.g08.bks.cpg/sg12_137_cif.got.tgz:273686.got - 2010.06.03 13:09:07.
