data_PCOD9223790
_publ_section_title
;
Structure prediction by ZEFSAII (Michael W. Deem and Ramdas Pophale) SiO2 
 PCOD9223790
Probable space group: C 2/M
;
_chemical_formula_sum "Si O2"
_cell_formula_units_Z 28
_cell_length_a 15.000000
_cell_length_b 12.000000
_cell_length_c 18.000000
_cell_angle_alpha 90.000000
_cell_angle_beta 120.000000
_cell_angle_gamma 90.000000
_cell_volume 2805.922308
_symmetry_space_group_name_H-M "C 2/M"
_symmetry_group_IT_number 12
_symmetry_cell_setting 'monoclinic'
loop_
_space_group_symop_operation_xyz
x,y,z
-x,y,-z
-x,-y,-z
x,-y,z
1/2+x,1/2+y,z
1/2-x,1/2+y,-z
1/2-x,1/2-y,-z
1/2+x,1/2-y,z
loop_
_atom_site_type_symbol
_atom_site_label
_atom_site_fract_x
_atom_site_fract_y
_atom_site_fract_z
Si Si1 0.453173 0.372662 0.315011
Si Si2 0.414790 0.283346 0.761655
Si Si3 0.097688 0.376044 0.869427
Si Si4 0.761616 0.714996 0.199832
Si Si5 0.710508 0.870056 0.399715
Si Si6 0.910987 0.266945 0.516740
Si Si7 0.622843 0.125100 0.044929
O O1 0.424662 0.500000 0.315984
O O2 0.524547 0.363403 0.270347
O O3 0.351775 0.295191 0.268972
O O4 0.525840 0.322283 0.408448
O O5 0.509980 0.218147 0.838961
O O6 0.320878 0.330765 0.773296
O O7 0.361219 0.186378 0.691284
O O8 0.050351 0.500000 0.845632
O O9 0.172702 0.361431 0.829884
O O10 0.155085 0.369978 0.972089
O O11 0.687133 0.788928 0.118260
O O12 0.817178 0.801614 0.441583
O O13 0.648738 0.849886 0.451835
O O14 0.727873 0.000000 0.395816
O O15 0.000000 0.316314 0.500000
O O16 0.642855 0.000000 0.081101
O O17 0.500000 0.142806 0.000000
#
# Coordination Sequence:
#
# PCOD9223790 Si02
#       7
#     8   8   8   8   8   8   8
#     4  10  22  37  54  79 109 139 175 219 265 314
#     4  10  21  36  54  79 108 139 178 220 260 311
#     4  10  21  36  54  79 109 139 176 220 264 312
#     4  11  21  35  57  80 105 140 179 218 262 314
#     4  10  21  36  56  80 108 142 178 217 261 313
#     4  10  21  37  55  80 110 139 176 219 264 312
#     4  10  19  33  56  81 105 137 176 219 265 310
#
# _framework density 9.9788940000000004
#
# number of rings (size 3 to 8) (size 9 to 14) (size 15 to 20)
#    0.000    1.857    1.429    2.571    0.000    4.857 
#    0.000    0.000    0.000   10.714    0.000    0.000 
#    0.000    0.000    0.000    0.000    0.000    0.000 
#
# Total GULP energy -156080.018799 kJ/mol
# GULP energy per Si atom -5574.286386 kJ/mol
# Density = 0.995618 g / cm^3
# Si number density = 9.978894 Si / 1000 Ang^3
#
#
#
# Elastic Constant Matrix: (Units=GPa)
#
#
# Indices 1 2 3 4 5 6 
#
# 1 118.3663 -21.3777 -12.6617 0.0000 -14.0047 0.0000
# 2 -21.3777 23.7613 5.1884 0.0000 5.0471 0.0000
# 3 -12.6617 5.1884 30.8672 0.0000 -2.7216 0.0000
# 4 0.0000 0.0000 0.0000 30.4467 0.0000 16.8755
# 5 -14.0047 5.0471 -2.7216 0.0000 30.0245 0.0000
# 6 0.0000 0.0000 0.0000 16.8755 0.0000 24.2326
#
#
#
# Elastic Compliance Matrix: (Units=1/GPa)
#
#
# Indices 1 2 3 4 5 6 
#
# 1 0.010739 0.008079 0.003396 0.000000 0.003959 0.000000
# 2 0.008079 0.051799 -0.005875 0.000000 -0.005471 0.000000
# 3 0.003396 -0.005875 0.035286 0.000000 0.005770 0.000000
# 4 0.000000 0.000000 0.000000 0.053491 0.000000 -0.037251
# 5 0.003959 -0.005471 0.005770 0.000000 0.036596 0.000000
# 6 0.000000 0.000000 0.000000 -0.037251 0.000000 0.067208
#
#
# Mechanical properties :
#
#
# Convention : Reuss Voigt Hill
#
# Bulk Modulus (GPa) = 9.17211 12.81030 10.99121
# Shear Modulus (GPa) = 17.84053 30.39715 24.11884
#
# Velocity S-wave (km/s) = 2.99308 3.90689 3.48011
# Velocity P-wave (km/s) = 4.06822 5.17536 4.65483
#
# Compressibility (1/GPa) = 0.10902611
#
# Stress axis : x y z
#
# Youngs Moduli (GPa) = 93.11629 19.30530 28.33958
#
# Poissons Ratio (x) = -0.15598 -0.09625
# Poissons Ratio (y) = -0.75233 0.16650
# Poissons Ratio (z) = -0.31625 0.11342
#
# Static dielectric constant tensor:
#      x y z
#    x 1.740120 0.000000 -0.057070 
#    y 0.000000 1.661600 0.000000 
#    z -0.057070 0.000000 1.744750 
# 
# From -- ./inp_files/262837.got.cif
#   From: 2010.05.17/outbox.ucp.g08.bks.cvg/sg12_132_cif.got.tgz:262837.got - 2010.06.11 11:47:21.
