data_PCOD9223833
_publ_section_title
;
Structure prediction by ZEFSAII (Michael W. Deem and Ramdas Pophale) SiO2 
 PCOD9223833
Probable space group: C 2/M
;
_chemical_formula_sum "Si O2"
_cell_formula_units_Z 32
_cell_length_a 27.000000
_cell_length_b 9.000000
_cell_length_c 15.000000
_cell_angle_alpha 90.000000
_cell_angle_beta 100.000000
_cell_angle_gamma 90.000000
_cell_volume 3589.624260
_symmetry_space_group_name_H-M "C 2/M"
_symmetry_group_IT_number 12
_symmetry_cell_setting 'monoclinic'
loop_
_space_group_symop_operation_xyz
x,y,z
-x,y,-z
-x,-y,-z
x,-y,z
1/2+x,1/2+y,z
1/2-x,1/2+y,-z
1/2-x,1/2-y,-z
1/2+x,1/2-y,z
loop_
_atom_site_type_symbol
_atom_site_label
_atom_site_fract_x
_atom_site_fract_y
_atom_site_fract_z
Si Si1 0.889340 0.831561 0.947920
Si Si2 0.314579 0.174687 0.803066
Si Si3 0.474764 0.835514 0.894648
Si Si4 0.309913 0.323033 0.616072
Si Si5 0.810438 0.322782 0.427833
Si Si6 0.264414 0.825322 0.099431
Si Si7 0.640718 0.824340 0.748686
Si Si8 0.436785 0.327088 0.158961
O O1 0.851681 0.710355 0.897143
O O2 0.936694 0.799047 0.899265
O O3 0.870461 0.000000 0.930818
O O4 0.905504 0.812143 0.055593
O O5 0.330337 0.246065 0.713076
O O6 0.265860 0.255734 0.827162
O O7 0.307270 0.000000 0.789544
O O8 0.516497 0.782907 0.838904
O O9 0.453585 0.000000 0.866362
O O10 0.500000 0.849447 0.000000
O O11 0.318546 0.500000 0.622314
O O12 0.249479 0.295714 0.600903
O O13 0.326872 0.258331 0.524969
O O14 0.817177 0.500000 0.442147
O O15 0.836562 0.282343 0.341384
O O16 0.320570 0.810146 0.155595
O O17 0.253373 0.000000 0.086928
O O18 0.250000 0.750000 0.000000
O O19 0.594988 0.722986 0.766041
O O20 0.627912 0.000000 0.739625
O O21 0.451328 0.500000 0.168357
#
# Coordination Sequence:
#
# PCOD9223833 Si02
#       8
#     8   8   8   8   8   8   8   8
#     4  10  20  34  51  72 102 135 169 213 254 294
#     4  12  23  34  50  73 100 135 173 208 249 302
#     4   9  17  31  51  73  98 129 166 207 252 300
#     4  10  19  34  53  73  97 127 164 212 259 301
#     4   9  18  34  52  72  96 127 165 210 258 303
#     4  11  22  36  49  68  99 137 174 209 248 294
#     4  10  20  34  50  69  99 134 168 206 250 297
#     4  10  20  32  49  74 102 133 170 208 249 296
#
# _framework density 8.9145819999999993
#
# number of rings (size 3 to 8) (size 9 to 14) (size 15 to 20)
#    0.000    1.875    1.250    3.750    0.000    7.000 
#    0.000    0.000    0.000    0.000    0.000    0.875 
#    0.000    7.000    0.000    0.000    0.000    0.000 
#
# Total GULP energy -178245.780652 kJ/mol
# GULP energy per Si atom -5570.180645 kJ/mol
# Density = 0.889429 g / cm^3
# Si number density = 8.914582 Si / 1000 Ang^3
#
#
#
# Elastic Constant Matrix: (Units=GPa)
#
#
# Indices 1 2 3 4 5 6 
#
# 1 38.4631 16.6644 4.1519 0.0000 -25.5929 0.0000
# 2 16.6644 60.9086 23.4161 0.0000 -20.7575 0.0000
# 3 4.1519 23.4161 75.6278 0.0000 -32.0803 0.0000
# 4 0.0000 0.0000 0.0000 29.5730 0.0000 -1.6450
# 5 -25.5929 -20.7575 -32.0803 0.0000 27.0051 0.0000
# 6 0.0000 0.0000 0.0000 -1.6450 0.0000 16.0708
#
#
#
# Elastic Compliance Matrix: (Units=1/GPa)
#
#
# Indices 1 2 3 4 5 6 
#
# 1 -0.222572 -0.019213 -0.156364 0.000000 -0.411450 0.000000
# 2 -0.019213 0.020607 -0.012760 0.000000 -0.017527 0.000000
# 3 -0.156364 -0.012760 -0.083172 0.000000 -0.256798 0.000000
# 4 0.000000 0.000000 0.000000 0.034008 0.000000 0.003481
# 5 -0.411450 -0.017527 -0.256798 0.000000 -0.671434 0.000000
# 6 0.000000 0.000000 0.000000 0.003481 0.000000 0.062581
#
#
# Mechanical properties :
#
#
# Convention : Reuss Voigt Hill
#
# Bulk Modulus (GPa) = -1.51101 29.27380 13.88140
# Shear Modulus (GPa) = -7.10316 23.24760 8.07222
#
# Velocity S-wave (km/s) = -1.99816 3.61488 2.13011
# Velocity P-wave (km/s) = 2.48453 5.82047 3.72190
#
# Compressibility (1/GPa) = -0.66181046
#
# Stress axis : x y z
#
# Youngs Moduli (GPa) = -4.49293 48.52672 -12.02321
#
# Poissons Ratio (x) = 0.93233 -1.87999
# Poissons Ratio (y) = -0.08632 -0.15342
# Poissons Ratio (z) = -0.70253 0.61921
#
# Static dielectric constant tensor:
#      x y z
#    x 1.748330 0.000000 0.035520 
#    y 0.000000 1.603020 0.000000 
#    z 0.035520 0.000000 1.588200 
# 
# From -- ./inp_files/244073.got.cif
#   From: 2010.05.17/outbox.ucp.g08.bks.cvg/sg12_123_cif.got.tgz:244073.got - 2010.06.11 11:47:21.
