data_PCOD9223045
_publ_section_title
;
Structure prediction by ZEFSAII (Michael W. Deem and Ramdas Pophale) SiO2 
 PCOD9223045
Probable space group: C 2/M
;
_chemical_formula_sum "Si O2"
_cell_formula_units_Z 28
_cell_length_a 10.060171
_cell_length_b 13.961458
_cell_length_c 7.950007
_cell_angle_alpha 90.000000
_cell_angle_beta 101.395719
_cell_angle_gamma 90.000000
_cell_volume 1094.602465
_symmetry_space_group_name_H-M "C 2/M"
_symmetry_group_IT_number 12
_symmetry_cell_setting 'monoclinic'
loop_
_space_group_symop_operation_xyz
x,y,z
-x,y,-z
-x,-y,-z
x,-y,z
1/2+x,1/2+y,z
1/2-x,1/2+y,-z
1/2-x,1/2-y,-z
1/2+x,1/2-y,z
loop_
_atom_site_type_symbol
_atom_site_label
_atom_site_fract_x
_atom_site_fract_y
_atom_site_fract_z
Si Si1 0.364449 0.166757 0.648593
Si Si2 0.390524 0.290045 0.204947
Si Si3 0.500000 0.145759 0.000000
Si Si4 0.771124 0.000000 0.537703
Si Si5 0.446046 0.500000 0.230277
O O1 0.471873 0.252836 0.668943
O O2 0.226923 0.210433 0.688022
O O3 0.430054 0.103121 0.818699
O O4 0.324093 0.093835 0.491562
O O5 0.406435 0.398255 0.142927
O O6 0.385552 0.214778 0.051955
O O7 0.891529 0.000000 0.702012
O O8 0.860230 0.000000 0.385611
#
# Coordination Sequence:
#
# PCOD9223045 Si02
#       5
#     8   8   4   4   4
#     4   9  18  32  51  73  98 127 160 198 240 284
#     4   9  18  32  51  73  98 127 160 198 240 284
#     4   8  18  30  52  72 100 124 158 196 242 292
#     4   9  18  33  51  71  95 131 168 193 232 292
#     4   9  18  33  51  71  95 131 168 193 232 292
#
# _framework density 25.580062000000002
#
# number of rings (size 3 to 8) (size 9 to 14) (size 15 to 20)
#    1.714    1.429    0.000    0.857    0.000    2.286 
#    0.000    1.429    0.000    1.714    0.000    0.000 
#    0.000    0.000    0.000    0.000    0.000    0.000 
#
# Total GULP energy -78035.809018 kJ/mol
# GULP energy per Si atom -5573.986358 kJ/mol
# Density = 2.552184 g / cm^3
# Si number density = 25.580062 Si / 1000 Ang^3
#
#
#
# Elastic Constant Matrix: (Units=GPa)
#
#
# Indices 1 2 3 4 5 6 
#
# 1 111.3566 22.3514 -0.6012 0.0000 26.2374 0.0000
# 2 22.3514 140.1071 4.1123 0.0000 7.3620 0.0000
# 3 -0.6012 4.1123 47.7081 0.0000 13.5713 0.0000
# 4 0.0000 0.0000 0.0000 132.5695 0.0000 -19.9010
# 5 26.2374 7.3620 13.5713 0.0000 44.2061 0.0000
# 6 0.0000 0.0000 0.0000 -19.9010 0.0000 11.7130
#
#
#
# Elastic Compliance Matrix: (Units=1/GPa)
#
#
# Indices 1 2 3 4 5 6 
#
# 1 0.010913 -0.001443 0.002231 0.000000 -0.006921 0.000000
# 2 -0.001443 0.007395 -0.000601 0.000000 -0.000191 0.000000
# 3 0.002231 -0.000601 0.023436 0.000000 -0.008419 0.000000
# 4 0.000000 0.000000 0.000000 0.010126 0.000000 0.017204
# 5 -0.006921 -0.000191 -0.008419 0.000000 0.029346 0.000000
# 6 0.000000 0.000000 0.000000 0.017204 0.000000 0.114606
#
#
# Mechanical properties :
#
#
# Convention : Reuss Voigt Hill
#
# Bulk Modulus (GPa) = 23.74346 38.98855 31.36600
# Shear Modulus (GPa) = 23.86785 55.91832 39.89309
#
# Velocity S-wave (km/s) = 3.05792 4.68055 3.95338
# Velocity P-wave (km/s) = 4.66584 6.66970 5.75565
#
# Compressibility (1/GPa) = 0.04211686
#
# Stress axis : x y z
#
# Youngs Moduli (GPa) = 91.63732 135.22246 42.67014
#
# Poissons Ratio (x) = 0.19508 -0.09519
# Poissons Ratio (y) = 0.13220 0.02566
# Poissons Ratio (z) = -0.20442 0.08132
#
# Static dielectric constant tensor:
#      x y z
#    x 2.034430 0.000000 -0.040740 
#    y 0.000000 2.022360 0.000000 
#    z -0.040740 0.000000 2.199710 
# 
# From -- ./inp_files/51636.got.cif
#   From: 2010.05.17/outbox.cif.g08.bks.cpg/sg12_26_cif.got.tgz:51636.got - 2010.06.03 13:09:07.
