data_PCOD9223380
_publ_section_title
;
Structure prediction by ZEFSAII (Michael W. Deem and Ramdas Pophale) SiO2 
 PCOD9223380
Probable space group: C 2/M
;
_chemical_formula_sum "Si O2"
_cell_formula_units_Z 28
_cell_length_a 18.000000
_cell_length_b 21.000000
_cell_length_c 24.000000
_cell_angle_alpha 90.000000
_cell_angle_beta 160.000000
_cell_angle_gamma 90.000000
_cell_volume 3102.806740
_symmetry_space_group_name_H-M "C 2/M"
_symmetry_group_IT_number 12
_symmetry_cell_setting 'monoclinic'
loop_
_space_group_symop_operation_xyz
x,y,z
-x,y,-z
-x,-y,-z
x,-y,z
1/2+x,1/2+y,z
1/2-x,1/2+y,-z
1/2-x,1/2-y,-z
1/2+x,1/2-y,z
loop_
_atom_site_type_symbol
_atom_site_label
_atom_site_fract_x
_atom_site_fract_y
_atom_site_fract_z
Si Si1 0.554288 0.318952 0.899067
Si Si2 0.704879 0.363585 0.185180
Si Si3 0.247146 0.782958 0.807252
Si Si4 0.560502 0.168765 0.284567
Si Si5 0.057708 0.813485 0.305356
Si Si6 0.739270 0.300393 0.682951
Si Si7 0.882670 0.576261 0.572138
O O1 0.398894 0.364526 0.826198
O O2 0.553514 0.327285 0.832471
O O3 0.432819 0.251503 0.822403
O O4 0.800592 0.320794 0.094268
O O5 0.799604 0.292006 0.239441
O O6 0.891356 0.413154 0.301780
O O7 0.500000 0.371450 0.000000
O O8 0.212664 0.823825 0.727112
O O9 0.106339 0.807791 0.758888
O O10 0.500000 0.784567 0.000000
O O11 0.649460 0.239850 0.365133
O O12 0.680652 0.155236 0.310759
O O13 0.590683 0.111318 0.348946
O O14 0.215416 0.873527 0.425920
O O15 0.500000 0.272900 0.500000
O O16 0.831007 0.500000 0.538082
#
# Coordination Sequence:
#
# PCOD9223380 Si02
#       7
#     8   8   8   8   8   8   8
#     4  10  21  34  59  90 117 149 197 244 286 354
#     4  10  19  37  57  83 119 155 196 236 286 346
#     4  10  18  33  59  92 116 145 188 244 298 353
#     4  11  20  40  60  85 114 157 199 244 294 341
#     4  11  21  36  62  88 120 149 190 252 302 336
#     4  10  20  29  53  90 121 141 184 244 300 341
#     4  12  26  39  57  85 122 163 201 234 282 352
#
# _framework density 9.0240880000000008
#
# number of rings (size 3 to 8) (size 9 to 14) (size 15 to 20)
#    0.000    1.429    2.857    5.571    8.000    0.286 
#    0.000    2.143    0.000    4.286    0.000    0.000 
#    0.000    0.000    0.000    0.000    0.000    0.000 
#
# Total GULP energy -156075.876826 kJ/mol
# GULP energy per Si atom -5574.138458 kJ/mol
# Density = 0.900355 g / cm^3
# Si number density = 9.024088 Si / 1000 Ang^3
#
#
#
# Elastic Constant Matrix: (Units=GPa)
#
#
# Indices 1 2 3 4 5 6 
#
# 1 154.4035 27.0529 24.1930 -0.0278 -4.0068 0.0063
# 2 27.0529 93.7251 32.4132 -0.1015 0.0620 -0.0089
# 3 24.1930 32.4132 66.3321 -0.0438 -2.6236 0.0103
# 4 -0.0278 -0.1015 -0.0438 11.3239 -0.0201 4.9249
# 5 -4.0068 0.0620 -2.6236 -0.0201 27.8406 0.0128
# 6 0.0063 -0.0089 0.0103 4.9249 0.0128 17.0487
#
#
#
# Elastic Compliance Matrix: (Units=1/GPa)
#
#
# Indices 1 2 3 4 5 6 
#
# 1 0.007032 -0.001390 -0.001852 0.000000 0.000841 -0.000003
# 2 -0.001390 0.013125 -0.005938 0.000097 -0.000789 -0.000017
# 3 -0.001852 -0.005938 0.018713 0.000027 0.001510 -0.000023
# 4 0.000000 0.000097 0.000027 0.100999 0.000089 -0.029176
# 5 0.000841 -0.000789 0.001510 0.000089 0.036184 -0.000054
# 6 -0.000003 -0.000017 -0.000023 -0.029176 -0.000054 0.067083
#
#
# Mechanical properties :
#
#
# Convention : Reuss Voigt Hill
#
# Bulk Modulus (GPa) = 48.75751 53.53100 51.14426
# Shear Modulus (GPa) = 18.63368 26.62943 22.63155
#
# Velocity S-wave (km/s) = 3.21665 3.84534 3.54496
# Velocity P-wave (km/s) = 6.39294 7.03136 6.71973
#
# Compressibility (1/GPa) = 0.02050966
#
# Stress axis : x y z
#
# Youngs Moduli (GPa) = 142.20529 76.19238 53.44021
#
# Poissons Ratio (x) = 0.10588 0.09900
# Poissons Ratio (y) = 0.19762 0.31731
# Poissons Ratio (z) = 0.26343 0.45241
#
# Static dielectric constant tensor:
#      x y z
#    x 1.702130 0.000000 -0.032440 
#    y 0.000000 1.584290 -0.000030 
#    z -0.032440 -0.000030 1.680230 
# 
# From -- ./inp_files/344788.got.cif
#   From: 2010.05.17/outbox.ucp.g08.bks.cvg/sg12_173_cif.got.tgz:344788.got - 2010.06.11 11:47:21.
