data_PCOD9223381
_publ_section_title
;
Structure prediction by ZEFSAII (Michael W. Deem and Ramdas Pophale) SiO2 
 PCOD9223381
Probable space group: C 2/M
;
_chemical_formula_sum "Si O2"
_cell_formula_units_Z 32
_cell_length_a 27.000000
_cell_length_b 9.000000
_cell_length_c 15.000000
_cell_angle_alpha 90.000000
_cell_angle_beta 110.000000
_cell_angle_gamma 90.000000
_cell_volume 3425.179603
_symmetry_space_group_name_H-M "C 2/M"
_symmetry_group_IT_number 12
_symmetry_cell_setting 'monoclinic'
loop_
_space_group_symop_operation_xyz
x,y,z
-x,y,-z
-x,-y,-z
x,-y,z
1/2+x,1/2+y,z
1/2-x,1/2+y,-z
1/2-x,1/2-y,-z
1/2+x,1/2-y,z
loop_
_atom_site_type_symbol
_atom_site_label
_atom_site_fract_x
_atom_site_fract_y
_atom_site_fract_z
Si Si1 0.437785 0.176886 0.957754
Si Si2 0.599644 0.174126 0.864640
Si Si3 0.868004 0.820790 0.760427
Si Si4 0.222397 0.322283 0.898399
Si Si5 0.544724 0.677857 0.674325
Si Si6 0.575155 0.680616 0.388430
Si Si7 0.244927 0.320154 0.267067
Si Si8 0.361694 0.319472 0.400963
O O1 0.403363 0.265057 0.864772
O O2 0.435796 0.000000 0.935625
O O3 0.500000 0.218637 0.000000
O O4 0.411118 0.198535 0.037888
O O5 0.659747 0.203181 0.872059
O O6 0.561530 0.276330 0.783492
O O7 0.588448 0.000000 0.839350
O O8 0.900997 0.776486 0.692293
O O9 0.809374 0.748964 0.728472
O O10 0.862728 0.000000 0.758709
O O11 0.230943 0.500000 0.899004
O O12 0.246192 0.241778 0.826965
O O13 0.250000 0.250000 0.000000
O O14 0.543455 0.500000 0.662561
O O15 0.484435 0.731611 0.624474
O O16 0.592994 0.732346 0.641153
O O17 0.572835 0.500000 0.387513
O O18 0.616039 0.726246 0.489759
O O19 0.240858 0.500000 0.264934
O O20 0.300892 0.275497 0.347743
O O21 0.361422 0.500000 0.395534
#
# Coordination Sequence:
#
# PCOD9223381 Si02
#       8
#     8   8   8   8   8   8   8   8
#     4  10  21  38  59  83 115 156 196 234 282 345
#     4  10  21  35  53  80 114 148 180 225 285 340
#     4  11  23  38  57  84 117 155 195 242 294 345
#     4  11  22  36  56  82 114 151 191 235 285 341
#     4  10  18  33  60  89 114 146 189 237 287 343
#     4   9  19  35  57  86 117 147 190 243 292 344
#     4  11  22  38  59  83 114 152 197 244 289 343
#     4   9  18  34  58  87 115 148 191 240 292 343
#
# _framework density 9.3425759999999993
#
# number of rings (size 3 to 8) (size 9 to 14) (size 15 to 20)
#    0.000    1.875    1.250    3.000    0.000    4.250 
#    0.000    0.625    0.000    6.750    0.000    0.000 
#    0.000    0.000    0.000    0.000    0.000    0.000 
#
# Total GULP energy -178546.586910 kJ/mol
# GULP energy per Si atom -5579.580841 kJ/mol
# Density = 0.932131 g / cm^3
# Si number density = 9.342576 Si / 1000 Ang^3
#
#
#
# Elastic Constant Matrix: (Units=GPa)
#
#
# Indices 1 2 3 4 5 6 
#
# 1 137.0108 27.6344 40.1579 0.0000 13.1505 0.0000
# 2 27.6344 27.9442 15.5074 0.0000 5.4387 0.0000
# 3 40.1579 15.5074 82.8983 0.0000 13.8038 0.0000
# 4 0.0000 0.0000 0.0000 11.4112 0.0000 4.8034
# 5 13.1505 5.4387 13.8038 0.0000 35.3102 0.0000
# 6 0.0000 0.0000 0.0000 4.8034 0.0000 22.4336
#
#
#
# Elastic Compliance Matrix: (Units=1/GPa)
#
#
# Indices 1 2 3 4 5 6 
#
# 1 0.009915 -0.007822 -0.003129 0.000000 -0.001264 0.000000
# 2 -0.007822 0.046500 -0.004494 0.000000 -0.002492 0.000000
# 3 -0.003129 -0.004494 0.015093 0.000000 -0.004043 0.000000
# 4 0.000000 0.000000 0.000000 0.096314 0.000000 -0.020622
# 5 -0.001264 -0.002492 -0.004043 0.000000 0.030756 0.000000
# 6 0.000000 0.000000 0.000000 -0.020622 0.000000 0.048992
#
#
# Mechanical properties :
#
#
# Convention : Reuss Voigt Hill
#
# Bulk Modulus (GPa) = 24.62072 46.05033 35.33552
# Shear Modulus (GPa) = 17.12329 24.80121 20.96225
#
# Velocity S-wave (km/s) = 3.03051 3.64720 3.35306
# Velocity P-wave (km/s) = 5.04486 6.51421 5.82604
#
# Compressibility (1/GPa) = 0.04061620
#
# Stress axis : x y z
#
# Youngs Moduli (GPa) = 100.85749 21.50520 66.25719
#
# Poissons Ratio (x) = 0.16822 0.20733
# Poissons Ratio (y) = 0.78895 0.29778
# Poissons Ratio (z) = 0.31560 0.09665
#
# Static dielectric constant tensor:
#      x y z
#    x 1.643040 0.000000 0.003640 
#    y 0.000000 1.626150 0.000000 
#    z 0.003640 0.000000 1.660320 
# 
# From -- ./inp_files/244214.got.cif
#   From: 2010.05.17/outbox.ucp.g08.bks.cvg/sg12_123_cif.got.tgz:244214.got - 2010.06.11 11:47:21.
