data_PCOD9223675
_publ_section_title
;
Structure prediction by ZEFSAII (Michael W. Deem and Ramdas Pophale) SiO2 
 PCOD9223675
Probable space group: C 2/M
;
_chemical_formula_sum "Si O2"
_cell_formula_units_Z 28
_cell_length_a 12.000000
_cell_length_b 21.000000
_cell_length_c 12.000000
_cell_angle_alpha 90.000000
_cell_angle_beta 90.000000
_cell_angle_gamma 90.000000
_cell_volume 3024.000000
_symmetry_space_group_name_H-M "C 2/M"
_symmetry_group_IT_number 12
_symmetry_cell_setting 'monoclinic'
loop_
_space_group_symop_operation_xyz
x,y,z
-x,y,-z
-x,-y,-z
x,-y,z
1/2+x,1/2+y,z
1/2-x,1/2+y,-z
1/2-x,1/2-y,-z
1/2+x,1/2-y,z
loop_
_atom_site_type_symbol
_atom_site_label
_atom_site_fract_x
_atom_site_fract_y
_atom_site_fract_z
Si Si1 0.830136 0.839342 0.341084
Si Si2 0.440892 0.072765 0.379305
Si Si3 0.223159 0.849274 0.397609
Si Si4 0.974828 0.068034 0.630874
Si Si5 0.630325 0.172327 0.022503
Si Si6 0.352176 0.924535 0.783146
Si Si7 0.250868 0.230656 0.187833
O O1 0.806372 0.827279 0.474685
O O2 0.735228 0.887391 0.295809
O O3 0.829745 0.779664 0.256897
O O4 0.945901 0.876157 0.328529
O O5 0.500000 0.073404 0.500000
O O6 0.349972 0.128349 0.385406
O O7 0.529013 0.083540 0.279579
O O8 0.396408 0.000000 0.365926
O O9 0.152196 0.911798 0.368871
O O10 0.194619 0.802578 0.295127
O O11 0.000000 0.063184 0.500000
O O12 0.997524 0.000000 0.685038
O O13 0.650767 0.107892 0.094497
O O14 0.671488 0.226934 0.108840
O O15 0.500000 0.177901 0.000000
O O16 0.690919 0.183587 0.902534
O O17 0.328673 0.000000 0.787338
#
# Coordination Sequence:
#
# PCOD9223675 Si02
#       7
#     8   8   8   8   8   8   8
#     4  10  20  36  57  86 117 153 189 234 291 350
#     4  10  19  32  54  87 121 152 177 222 291 348
#     4  11  20  35  56  88 121 150 188 235 287 353
#     4   9  19  33  53  81 116 155 186 224 278 340
#     4  10  22  41  59  78 108 153 195 242 288 328
#     4  10  20  36  61  87 114 148 191 237 288 352
#     4  10  23  38  57  83 110 151 199 237 289 339
#
# _framework density 9.2592590000000001
#
# number of rings (size 3 to 8) (size 9 to 14) (size 15 to 20)
#    0.000    2.000    1.429    2.143    2.000    1.429 
#    0.000    2.143    0.000    0.000    0.000    4.000 
#    0.000    0.000    0.000    0.000    0.000    0.000 
#
# Total GULP energy -155891.698122 kJ/mol
# GULP energy per Si atom -5567.560647 kJ/mol
# Density = 0.923818 g / cm^3
# Si number density = 9.259259 Si / 1000 Ang^3
#
#
#
# Elastic Constant Matrix: (Units=GPa)
#
#
# Indices 1 2 3 4 5 6 
#
# 1 42.1217 7.0634 17.5942 0.0000 2.6670 0.0000
# 2 7.0634 58.2878 40.5806 0.0000 -5.9867 0.0000
# 3 17.5942 40.5806 133.3410 0.0000 -2.0339 0.0000
# 4 0.0000 0.0000 0.0000 11.6444 0.0000 78.5082
# 5 2.6670 -5.9867 -2.0339 0.0000 16.2751 0.0000
# 6 0.0000 0.0000 0.0000 78.5082 0.0000 -637.6978
#
#
#
# Elastic Compliance Matrix: (Units=1/GPa)
#
#
# Indices 1 2 3 4 5 6 
#
# 1 0.025571 -0.001551 -0.002980 0.000000 -0.005133 0.000000
# 2 -0.001551 0.022737 -0.006596 0.000000 0.007793 0.000000
# 3 -0.002980 -0.006596 0.009890 0.000000 -0.000702 0.000000
# 4 0.000000 0.000000 0.000000 0.046927 0.000000 0.005777
# 5 -0.005133 0.007793 -0.000702 0.000000 0.065064 0.000000
# 6 0.000000 0.000000 0.000000 0.005777 0.000000 -0.000857
#
#
# Mechanical properties :
#
#
# Convention : Reuss Voigt Hill
#
# Bulk Modulus (GPa) = 27.82240 40.46966 34.14603
# Shear Modulus (GPa) = 24.56194 -110.72151 -43.07979
#
# Velocity S-wave (km/s) = 3.64585 -7.74076 -4.82841
# Velocity P-wave (km/s) = 5.72536 7.61521 3.55048
#
# Compressibility (1/GPa) = 0.03594226
#
# Stress axis : x y z
#
# Youngs Moduli (GPa) = 39.10726 43.98116 101.11667
#
# Poissons Ratio (x) = 0.06822 0.30136
# Poissons Ratio (y) = 0.06066 0.66698
# Poissons Ratio (z) = 0.11655 0.29011
#
# Static dielectric constant tensor:
#      x y z
#    x 1.724530 0.000000 -0.012930 
#    y 0.000000 1.701160 0.000000 
#    z -0.012930 0.000000 1.615560 
# 
# From -- ./inp_files/133137.got.cif
#   From: 2010.05.17/outbox.ucp.g08.bks.cvg/sg12_67_cif.got.tgz:133137.got - 2010.06.11 11:47:21.
