data_PCOD9223733
_publ_section_title
;
Structure prediction by ZEFSAII (Michael W. Deem and Ramdas Pophale) SiO2 
 PCOD9223733
Probable space group: C 2/M
;
_chemical_formula_sum "Si O2"
_cell_formula_units_Z 32
_cell_length_a 24.000000
_cell_length_b 9.000000
_cell_length_c 30.000000
_cell_angle_alpha 90.000000
_cell_angle_beta 30.000000
_cell_angle_gamma 90.000000
_cell_volume 3240.000000
_symmetry_space_group_name_H-M "C 2/M"
_symmetry_group_IT_number 12
_symmetry_cell_setting 'monoclinic'
loop_
_space_group_symop_operation_xyz
x,y,z
-x,y,-z
-x,-y,-z
x,-y,z
1/2+x,1/2+y,z
1/2-x,1/2+y,-z
1/2-x,1/2-y,-z
1/2+x,1/2-y,z
loop_
_atom_site_type_symbol
_atom_site_label
_atom_site_fract_x
_atom_site_fract_y
_atom_site_fract_z
Si Si1 0.024463 0.163347 0.431286
Si Si2 0.442672 0.179395 0.991691
Si Si3 0.272990 0.676041 0.814790
Si Si4 0.075952 0.678533 0.719336
Si Si5 0.984522 0.180516 0.326597
Si Si6 0.811335 0.174631 0.516979
Si Si7 0.050114 0.826648 0.830120
Si Si8 0.262077 0.167236 0.735870
O O1 0.113177 0.290292 0.362113
O O2 0.000000 0.156740 0.500000
O O3 0.911119 0.183879 0.483304
O O4 0.070809 0.000000 0.385073
O O5 0.492094 0.258044 0.913990
O O6 0.450671 0.000000 0.980651
O O7 0.500000 0.214231 0.000000
O O8 0.313473 0.226992 0.087870
O O9 0.274182 0.500000 0.817258
O O10 0.401371 0.724676 0.727781
O O11 0.225562 0.723647 0.800187
O O12 0.074904 0.500000 0.720902
O O13 0.004773 0.747168 0.728844
O O14 0.200396 0.732276 0.617790
O O15 0.035046 0.739995 0.794727
O O16 0.873026 0.235420 0.429736
O O17 0.979042 0.000000 0.328358
O O18 0.789507 0.000000 0.522917
O O19 0.181963 0.816319 0.749519
O O20 0.020553 0.000000 0.846072
O O21 0.251896 0.000000 0.759748
#
# Coordination Sequence:
#
# PCOD9223733 Si02
#       8
#     8   8   8   8   8   8   8   8
#     4  10  19  33  54  79 112 155 197 234 284 347
#     4  10  20  36  63  94 117 146 193 242 285 341
#     4  10  20  37  62  88 116 150 189 233 285 345
#     4  11  23  39  60  86 115 151 202 250 286 337
#     4  10  20  38  61  84 118 156 193 237 291 350
#     4   9  18  34  57  85 114 151 196 240 288 340
#     4  11  24  40  58  84 121 160 191 233 298 354
#     4  11  22  34  53  83 119 152 187 233 286 342
#
# _framework density 9.8765429999999999
#
# number of rings (size 3 to 8) (size 9 to 14) (size 15 to 20)
#    0.000    1.750    2.500    2.250    0.000    4.000 
#    0.000    2.500    0.000    0.000    0.000    0.000 
#    0.000    0.000    0.000    0.000    0.000    0.000 
#
# Total GULP energy -178329.316159 kJ/mol
# GULP energy per Si atom -5572.791130 kJ/mol
# Density = 0.985406 g / cm^3
# Si number density = 9.876543 Si / 1000 Ang^3
#
#
#
# Elastic Constant Matrix: (Units=GPa)
#
#
# Indices 1 2 3 4 5 6 
#
# 1 66.8985 23.3053 31.8583 0.0568 32.1221 -0.0607
# 2 23.3053 9.2567 20.1078 0.0488 6.3798 -0.0381
# 3 31.8583 20.1078 69.2946 0.0098 18.1416 -0.0096
# 4 0.0568 0.0488 0.0098 4.5331 -0.0205 18.8764
# 5 32.1221 6.3798 18.1416 -0.0205 31.1080 0.0252
# 6 -0.0607 -0.0381 -0.0096 18.8764 0.0252 9.3770
#
#
#
# Elastic Compliance Matrix: (Units=1/GPa)
#
#
# Indices 1 2 3 4 5 6 
#
# 1 -0.050755 0.196331 -0.043450 0.000347 0.037485 -0.000375
# 2 0.196331 -0.463142 0.085375 -0.000277 -0.157537 0.000458
# 3 -0.043450 0.085375 0.002916 0.000036 0.025657 -0.000072
# 4 0.000347 -0.000277 0.000036 -0.029879 -0.000391 0.060151
# 5 0.037485 -0.157537 0.025657 -0.000391 0.010785 0.000387
# 6 -0.000375 0.000458 -0.000072 0.060151 0.000387 -0.014444
#
#
# Mechanical properties :
#
#
# Convention : Reuss Voigt Hill
#
# Bulk Modulus (GPa) = -29.01048 32.88807 1.93879
# Shear Modulus (GPa) = -4.84252 13.68217 4.41983
#
# Velocity S-wave (km/s) = -1.56743 2.63470 1.49746
# Velocity P-wave (km/s) = 4.24196 5.09325 1.99337
#
# Compressibility (1/GPa) = -0.03447030
#
# Stress axis : x y z
#
# Youngs Moduli (GPa) = -19.70251 -2.15916 342.88756
#
# Poissons Ratio (x) = 0.42391 14.89853
# Poissons Ratio (y) = 3.86821 -29.27393
# Poissons Ratio (z) = -0.85608 0.18434
#
# Static dielectric constant tensor:
#      x y z
#    x 1.703700 0.000000 -0.024470 
#    y 0.000000 1.703940 0.000000 
#    z -0.024470 0.000000 1.735750 
# 
# From -- ./inp_files/382261.got.cif
#   From: 2010.05.17/outbox.ucp.g08.bks.cvg/sg12_192_cif.got.tgz:382261.got - 2010.06.11 11:47:21.
