data_PCOD9223694
_publ_section_title
;
Structure prediction by ZEFSAII (Michael W. Deem and Ramdas Pophale) SiO2 
 PCOD9223694
Probable space group: C 2/M
;
_chemical_formula_sum "Si O2"
_cell_formula_units_Z 32
_cell_length_a 30.000000
_cell_length_b 9.000000
_cell_length_c 15.000000
_cell_angle_alpha 90.000000
_cell_angle_beta 60.000000
_cell_angle_gamma 90.000000
_cell_volume 3507.402885
_symmetry_space_group_name_H-M "C 2/M"
_symmetry_group_IT_number 12
_symmetry_cell_setting 'monoclinic'
loop_
_space_group_symop_operation_xyz
x,y,z
-x,y,-z
-x,-y,-z
x,-y,z
1/2+x,1/2+y,z
1/2-x,1/2+y,-z
1/2-x,1/2-y,-z
1/2+x,1/2-y,z
loop_
_atom_site_type_symbol
_atom_site_label
_atom_site_fract_x
_atom_site_fract_y
_atom_site_fract_z
Si Si1 0.888257 0.676659 0.643536
Si Si2 0.541183 0.174656 0.257254
Si Si3 0.070211 0.321356 0.869681
Si Si4 0.179526 0.820164 0.718513
Si Si5 0.164755 0.673681 0.556276
Si Si6 0.217819 0.327805 0.309570
Si Si7 0.934849 0.821525 0.424176
Si Si8 0.529946 0.677972 0.091346
O O1 0.888536 0.500000 0.615478
O O2 0.915832 0.685172 0.709945
O O3 0.829077 0.731186 0.702593
O O4 0.918981 0.770829 0.539599
O O5 0.489075 0.247645 0.346785
O O6 0.556025 0.267201 0.155344
O O7 0.532798 0.000000 0.244753
O O8 0.066360 0.500000 0.868166
O O9 0.126397 0.260528 0.792837
O O10 0.028343 0.241362 0.848362
O O11 0.055239 0.260581 0.982328
O O12 0.192004 0.767062 0.606033
O O13 0.224853 0.766778 0.739260
O O14 0.175197 0.000000 0.726143
O O15 0.158803 0.500000 0.587325
O O16 0.194932 0.678030 0.432774
O O17 0.109714 0.749960 0.592567
O O18 0.224196 0.500000 0.277631
O O19 0.936288 0.000000 0.413781
O O20 0.530117 0.500000 0.080391
#
# Coordination Sequence:
#
# PCOD9223694 Si02
#       8
#     8   8   8   8   8   8   8   8
#     4   9  19  36  54  73 101 139 178 213 253 301
#     4  11  21  34  54  77 103 137 174 210 253 307
#     4  11  22  38  57  79 107 136 167 202 250 309
#     4  11  20  32  52  78 105 134 171 213 258 302
#     4  10  19  33  50  72 104 140 177 212 253 305
#     4   8  17  33  52  73 101 137 175 215 255 297
#     4  11  21  32  48  74 107 139 174 215 257 300
#     4  11  22  38  58  81 107 132 164 207 256 304
#
# _framework density 9.1235599999999994
#
# number of rings (size 3 to 8) (size 9 to 14) (size 15 to 20)
#    0.000    1.750    0.000    7.500    0.000    2.500 
#    0.000    5.625    0.000    0.750    0.000    0.000 
#    0.000    0.000    0.000    0.000    0.000    0.000 
#
# Total GULP energy -178576.560740 kJ/mol
# GULP energy per Si atom -5580.517523 kJ/mol
# Density = 0.910279 g / cm^3
# Si number density = 9.123560 Si / 1000 Ang^3
#
#
#
# Elastic Constant Matrix: (Units=GPa)
#
#
# Indices 1 2 3 4 5 6 
#
# 1 87.0620 26.5199 18.8645 0.0000 3.3628 0.0000
# 2 26.5199 114.1830 9.8765 0.0000 0.0600 0.0000
# 3 18.8645 9.8765 31.7284 0.0000 1.8090 0.0000
# 4 0.0000 0.0000 0.0000 21.6051 0.0000 4.3969
# 5 3.3628 0.0600 1.8090 0.0000 19.9930 0.0000
# 6 0.0000 0.0000 0.0000 4.3969 0.0000 18.3539
#
#
#
# Elastic Compliance Matrix: (Units=1/GPa)
#
#
# Indices 1 2 3 4 5 6 
#
# 1 0.013942 -0.002599 -0.007386 0.000000 -0.001669 0.000000
# 2 -0.002599 0.009486 -0.001438 0.000000 0.000539 0.000000
# 3 -0.007386 -0.001438 0.036474 0.000000 -0.002054 0.000000
# 4 0.000000 0.000000 0.000000 0.048658 0.000000 -0.011657
# 5 -0.001669 0.000539 -0.002054 0.000000 0.050482 0.000000
# 6 0.000000 0.000000 0.000000 -0.011657 0.000000 0.057277
#
#
# Mechanical properties :
#
#
# Convention : Reuss Voigt Hill
#
# Bulk Modulus (GPa) = 26.98588 38.16613 32.57601
# Shear Modulus (GPa) = 19.87950 23.83791 21.85870
#
# Velocity S-wave (km/s) = 3.30428 3.61833 3.46486
# Velocity P-wave (km/s) = 5.42023 6.19823 5.82224
#
# Compressibility (1/GPa) = 0.03705641
#
# Stress axis : x y z
#
# Youngs Moduli (GPa) = 71.72391 105.42370 27.41716
#
# Poissons Ratio (x) = 0.27394 0.20249
# Poissons Ratio (y) = 0.18638 0.03944
# Poissons Ratio (z) = 0.52972 0.15165
#
# Static dielectric constant tensor:
#      x y z
#    x 1.668130 0.000000 0.000650 
#    y 0.000000 1.602870 0.000000 
#    z 0.000650 0.000000 1.663950 
# 
# From -- ./inp_files/249036.got.cif
#   From: 2010.05.17/outbox.ucp.g08.bks.cvg/sg12_125_cif.got.tgz:249036.got - 2010.06.11 11:47:21.
