data_PCOD9223625
_publ_section_title
;
Structure prediction by ZEFSAII (Michael W. Deem and Ramdas Pophale) SiO2 
 PCOD9223625
Probable space group: C 2/M
;
_chemical_formula_sum "Si O2"
_cell_formula_units_Z 32
_cell_length_a 18.000000
_cell_length_b 9.000000
_cell_length_c 30.000000
_cell_angle_alpha 90.000000
_cell_angle_beta 140.000000
_cell_angle_gamma 90.000000
_cell_volume 3123.947783
_symmetry_space_group_name_H-M "C 2/M"
_symmetry_group_IT_number 12
_symmetry_cell_setting 'monoclinic'
loop_
_space_group_symop_operation_xyz
x,y,z
-x,y,-z
-x,-y,-z
x,-y,z
1/2+x,1/2+y,z
1/2-x,1/2+y,-z
1/2-x,1/2-y,-z
1/2+x,1/2-y,z
loop_
_atom_site_type_symbol
_atom_site_label
_atom_site_fract_x
_atom_site_fract_y
_atom_site_fract_z
Si Si1 0.368256 0.679784 0.534875
Si Si2 0.360048 0.674128 0.027027
Si Si3 0.290088 0.821387 0.720714
Si Si4 0.288956 0.679860 0.217736
Si Si5 0.771412 0.179861 0.400797
Si Si6 0.971634 0.678417 0.663767
Si Si7 0.970779 0.825349 0.168530
Si Si8 0.784191 0.677142 0.909466
O O1 0.368217 0.500000 0.539041
O O2 0.250000 0.750000 0.500000
O O3 0.365342 0.720772 0.481368
O O4 0.462787 0.751327 0.610188
O O5 0.337360 0.500000 0.012085
O O6 0.458041 0.693439 0.109134
O O7 0.250000 0.750000 0.000000
O O8 0.370622 0.745403 0.983479
O O9 0.253166 0.769014 0.752877
O O10 0.215134 0.768775 0.643751
O O11 0.420087 0.772285 0.768587
O O12 0.284918 0.000000 0.719966
O O13 0.301549 0.500000 0.224069
O O14 0.412151 0.753007 0.263464
O O15 0.206562 0.716874 0.138160
O O16 0.644656 0.221613 0.362468
O O17 0.771814 0.000000 0.399995
O O18 0.975281 0.500000 0.663597
O O19 0.847477 0.786669 0.134347
O O20 0.991243 0.000000 0.187404
O O21 0.796342 0.500000 0.919925
#
# Coordination Sequence:
#
# PCOD9223625 Si02
#       8
#     8   8   8   8   8   8   8   8
#     4   9  16  29  50  75 102 128 159 204 251 294
#     4   9  17  30  50  76 102 128 161 203 248 292
#     4  10  20  34  51  71  97 130 167 203 242 292
#     4  10  21  35  50  71 100 132 165 204 248 291
#     4   8  16  31  51  75  98 123 161 203 241 288
#     4  10  19  32  52  76 100 128 165 206 247 296
#     4   9  18  32  50  73  99 125 157 199 244 289
#     4   9  18  33  52  75 101 128 163 204 245 293
#
# _framework density 10.243449
#
# number of rings (size 3 to 8) (size 9 to 14) (size 15 to 20)
#    0.000    2.750    0.000    3.375    0.000    3.500 
#    0.000    4.375    0.000    7.500    0.000    0.000 
#    0.000    0.000    0.000    0.000    0.000    0.000 
#
# Total GULP energy -178350.816953 kJ/mol
# GULP energy per Si atom -5573.463030 kJ/mol
# Density = 1.022013 g / cm^3
# Si number density = 10.243449 Si / 1000 Ang^3
#
#
#
# Elastic Constant Matrix: (Units=GPa)
#
#
# Indices 1 2 3 4 5 6 
#
# 1 51.6452 7.3891 24.4870 0.0000 -40.8630 0.0000
# 2 7.3891 13.0390 30.0347 0.0000 -17.6197 0.0000
# 3 24.4870 30.0347 75.8430 0.0000 -44.9251 0.0000
# 4 0.0000 0.0000 0.0000 28.6644 0.0000 -2.2136
# 5 -40.8630 -17.6197 -44.9251 0.0000 42.9385 0.0000
# 6 0.0000 0.0000 0.0000 -2.2136 0.0000 10.4880
#
#
#
# Elastic Compliance Matrix: (Units=1/GPa)
#
#
# Indices 1 2 3 4 5 6 
#
# 1 -0.412625 -0.733397 0.033638 0.000000 -0.658433 0.000000
# 2 -0.733397 -0.428735 -0.292077 0.000000 -1.179465 0.000000
# 3 0.033638 -0.292077 0.173460 0.000000 0.093644 0.000000
# 4 0.000000 0.000000 0.000000 0.035465 0.000000 0.007485
# 5 -0.658433 -1.179465 0.093644 0.000000 -0.989330 0.000000
# 6 0.000000 0.000000 0.000000 0.007485 0.000000 0.096927
#
#
# Mechanical properties :
#
#
# Convention : Reuss Voigt Hill
#
# Bulk Modulus (GPa) = -0.37713 29.37209 14.49748
# Shear Modulus (GPa) = -11.76402 21.65929 4.94763
#
# Velocity S-wave (km/s) = -2.39889 3.25503 1.55572
# Velocity P-wave (km/s) = 2.80310 5.33808 3.21230
#
# Compressibility (1/GPa) = -2.65157178
#
# Stress axis : x y z
#
# Youngs Moduli (GPa) = -2.42351 -2.33244 5.76502
#
# Poissons Ratio (x) = -1.71061 -0.19392
# Poissons Ratio (y) = -1.77739 1.68383
# Poissons Ratio (z) = 0.08152 -0.68125
#
# Static dielectric constant tensor:
#      x y z
#    x 1.748460 0.000000 -0.036420 
#    y 0.000000 1.723600 0.000000 
#    z -0.036420 0.000000 1.893990 
# 
# From -- ./inp_files/319192.got.cif
#   From: 2010.05.17/outbox.ucp.g08.bks.cvg/sg12_160_cif.got.tgz:319192.got - 2010.06.11 11:47:21.
