data_PCOD9223742
_publ_section_title
;
Structure prediction by ZEFSAII (Michael W. Deem and Ramdas Pophale) SiO2 
 PCOD9223742
Probable space group: C 2/M
;
_chemical_formula_sum "Si O2"
_cell_formula_units_Z 24
_cell_length_a 24.000000
_cell_length_b 15.000000
_cell_length_c 21.000000
_cell_angle_alpha 90.000000
_cell_angle_beta 20.000000
_cell_angle_gamma 90.000000
_cell_volume 2585.672284
_symmetry_space_group_name_H-M "C 2/M"
_symmetry_group_IT_number 12
_symmetry_cell_setting 'monoclinic'
loop_
_space_group_symop_operation_xyz
x,y,z
-x,y,-z
-x,-y,-z
x,-y,z
1/2+x,1/2+y,z
1/2-x,1/2+y,-z
1/2-x,1/2-y,-z
1/2+x,1/2-y,z
loop_
_atom_site_type_symbol
_atom_site_label
_atom_site_fract_x
_atom_site_fract_y
_atom_site_fract_z
Si Si1 0.198766 0.894006 0.568094
Si Si2 0.688630 0.898514 0.813931
Si Si3 0.564909 0.105766 0.171722
Si Si4 0.172372 0.105210 0.995755
Si Si5 0.079393 0.896375 0.556981
Si Si6 0.264938 0.709671 0.854341
O O1 0.382396 0.863647 0.390078
O O2 0.178379 0.876993 0.514800
O O3 0.203293 0.000000 0.574061
O O4 0.019126 0.869400 0.788183
O O5 0.799246 0.892656 0.632688
O O6 0.750086 0.831043 0.800592
O O7 0.703566 0.000000 0.823156
O O8 0.500000 0.883319 0.000000
O O9 0.710282 0.112068 0.067797
O O10 0.553375 0.000000 0.166707
O O11 0.623718 0.165491 0.049685
O O12 0.245727 0.183871 0.873855
O O13 0.179227 0.000000 0.969103
O O14 0.932347 0.827963 0.704647
O O15 0.017560 0.000000 0.628862
#
# Coordination Sequence:
#
# PCOD9223742 Si02
#       6
#     8   8   8   8   8   8
#     4   9  18  34  55  80 113 149 177 214 271 327
#     4  10  21  37  56  83 115 143 174 219 278 337
#     4  10  19  33  54  81 114 147 178 218 273 332
#     4  10  22  39  53  76 114 148 187 229 266 315
#     4  10  19  33  55  82 112 141 175 221 274 334
#     4  12  21  33  55  82 109 146 186 223 273 323
#
# _framework density 9.2819190000000003
#
# number of rings (size 3 to 8) (size 9 to 14) (size 15 to 20)
#    0.000    1.833    1.667    3.500    0.000    4.667 
#    3.000    0.000    0.000    2.500    0.000    0.000 
#    0.000    0.000    0.000    0.000    0.000    0.000 
#
# Total GULP energy -133851.281957 kJ/mol
# GULP energy per Si atom -5577.136748 kJ/mol
# Density = 0.926079 g / cm^3
# Si number density = 9.281919 Si / 1000 Ang^3
#
#
#
# Elastic Constant Matrix: (Units=GPa)
#
#
# Indices 1 2 3 4 5 6 
#
# 1 17.6881 5.9766 0.2943 0.0024 -1.8914 0.0019
# 2 5.9766 58.7489 12.7491 0.0005 2.9531 0.0016
# 3 0.2943 12.7491 102.0433 -0.0003 -26.3308 -0.0007
# 4 0.0024 0.0005 -0.0003 23.4483 0.0011 3.8422
# 5 -1.8914 2.9531 -26.3308 0.0011 19.8142 0.0019
# 6 0.0019 0.0016 -0.0007 3.8422 0.0019 -6.9105
#
#
#
# Elastic Compliance Matrix: (Units=1/GPa)
#
#
# Indices 1 2 3 4 5 6 
#
# 1 0.060322 -0.007585 0.003882 -0.000009 0.012048 0.000013
# 2 -0.007585 0.019417 -0.005079 0.000001 -0.010368 0.000000
# 3 0.003882 -0.005079 0.016305 -0.000002 0.022795 0.000004
# 4 -0.000009 0.000001 -0.000002 0.039086 -0.000007 0.021731
# 5 0.012048 -0.010368 0.022795 -0.000007 0.083456 0.000017
# 6 0.000013 0.000000 0.000004 0.021731 0.000017 -0.132625
#
#
# Mechanical properties :
#
#
# Convention : Reuss Voigt Hill
#
# Bulk Modulus (GPa) = 12.74202 24.05781 18.39992
# Shear Modulus (GPa) = 38.55521 17.90110 28.22815
#
# Velocity S-wave (km/s) = 4.56224 3.10869 3.90372
# Velocity P-wave (km/s) = 5.88480 5.08654 5.50017
#
# Compressibility (1/GPa) = 0.07848051
#
# Stress axis : x y z
#
# Youngs Moduli (GPa) = 16.57775 51.50241 61.33039
#
# Poissons Ratio (x) = 0.39063 -0.23811
# Poissons Ratio (y) = 0.12574 0.31151
# Poissons Ratio (z) = -0.06436 0.26159
#
# Static dielectric constant tensor:
#      x y z
#    x 1.632190 0.000000 -0.020050 
#    y 0.000000 1.663180 0.000000 
#    z -0.020050 0.000000 1.684480 
# 
# From -- ./inp_files/111755.got.cif
#   From: 2010.05.17/outbox.ucp.g08.bks.cvg/sg12_56_cif.got.tgz:111755.got - 2010.06.11 11:47:21.
