data_PCOD9223533
_publ_section_title
;
Structure prediction by ZEFSAII (Michael W. Deem and Ramdas Pophale) SiO2 
 PCOD9223533
Probable space group: C 2/M
;
_chemical_formula_sum "Si O2"
_cell_formula_units_Z 28
_cell_length_a 30.000000
_cell_length_b 9.000000
_cell_length_c 18.000000
_cell_angle_alpha 90.000000
_cell_angle_beta 40.000000
_cell_angle_gamma 90.000000
_cell_volume 3123.947783
_symmetry_space_group_name_H-M "C 2/M"
_symmetry_group_IT_number 12
_symmetry_cell_setting 'monoclinic'
loop_
_space_group_symop_operation_xyz
x,y,z
-x,y,-z
-x,-y,-z
x,-y,z
1/2+x,1/2+y,z
1/2-x,1/2+y,-z
1/2-x,1/2-y,-z
1/2+x,1/2-y,z
loop_
_atom_site_type_symbol
_atom_site_label
_atom_site_fract_x
_atom_site_fract_y
_atom_site_fract_z
Si Si1 0.918671 0.328530 0.669124
Si Si2 0.268389 0.823512 0.203890
Si Si3 0.485176 0.820159 0.317859
Si Si4 0.490753 0.819244 0.139215
Si Si5 0.891266 0.175540 0.552392
Si Si6 0.755765 0.669282 0.914336
Si Si7 0.396321 0.819523 0.129357
O O1 0.939581 0.500000 0.631054
O O2 0.956384 0.273470 0.696075
O O3 0.926852 0.241016 0.581440
O O4 0.836996 0.328123 0.790352
O O5 0.190137 0.799864 0.330277
O O6 0.281041 0.747897 0.108193
O O7 0.320753 0.771010 0.200502
O O8 0.278115 0.000000 0.180629
O O9 0.494019 0.768981 0.220929
O O10 0.417241 0.757412 0.445401
O O11 0.484370 0.000000 0.317585
O O12 0.424824 0.770506 0.173161
O O13 0.490750 0.000000 0.142606
O O14 0.553745 0.777504 0.003566
O O15 0.904867 0.000000 0.529858
O O16 0.732096 0.500000 0.951451
O O17 0.750000 0.750000 0.000000
O O18 0.398075 0.000000 0.130040
#
# Coordination Sequence:
#
# PCOD9223533 Si02
#       7
#     8   8   8   8   8   8   8
#     4   9  19  33  49  69  95 129 165 201 241 282
#     4   9  18  32  52  71  95 131 164 198 244 291
#     4  10  19  31  50  73  97 125 162 206 245 282
#     4   8  15  27  48  78  99 117 157 209 250 283
#     4  10  20  33  47  69  99 132 165 197 238 293
#     4  10  20  32  47  71 102 130 161 200 239 289
#     4   8  14  28  51  75  98 122 156 205 250 288
#
# _framework density 8.9630179999999999
#
# number of rings (size 3 to 8) (size 9 to 14) (size 15 to 20)
#    0.000    2.857    0.000    2.143    2.000    3.429 
#    0.000    0.714    0.000    0.857    0.000    2.000 
#    0.000    0.000    0.000    0.000    0.000    0.000 
#
# Total GULP energy -155882.969775 kJ/mol
# GULP energy per Si atom -5567.248921 kJ/mol
# Density = 0.894262 g / cm^3
# Si number density = 8.963018 Si / 1000 Ang^3
#
#
#
# Elastic Constant Matrix: (Units=GPa)
#
#
# Indices 1 2 3 4 5 6 
#
# 1 142.4372 22.6095 42.8235 -0.0017 15.3202 -0.0002
# 2 22.6095 6.8646 18.5929 -0.0056 -0.6817 0.0012
# 3 42.8235 18.5929 45.8815 -0.0062 24.8178 0.0002
# 4 -0.0017 -0.0056 -0.0062 20.7381 0.0005 5.6719
# 5 15.3202 -0.6817 24.8178 0.0005 33.9597 0.0002
# 6 -0.0002 0.0012 0.0002 5.6719 0.0002 13.9130
#
#
#
# Elastic Compliance Matrix: (Units=1/GPa)
#
#
# Indices 1 2 3 4 5 6 
#
# 1 0.010032 0.001842 -0.012703 -0.000003 0.004795 0.000001
# 2 0.001842 -0.158751 0.107138 -0.000014 -0.082314 0.000018
# 3 -0.012703 0.107138 -0.023198 0.000026 0.024834 -0.000020
# 4 -0.000003 -0.000014 0.000026 0.054272 -0.000019 -0.022125
# 5 0.004795 -0.082314 0.024834 -0.000019 0.007482 0.000014
# 6 0.000001 0.000018 -0.000020 -0.022125 0.000014 0.080895
#
#
# Mechanical properties :
#
#
# Convention : Reuss Voigt Hill
#
# Bulk Modulus (GPa) = 48.45993 40.35944 44.40969
# Shear Modulus (GPa) = -23.26198 21.13267 -1.06466
#
# Velocity S-wave (km/s) = -3.60622 3.43721 -0.77150
# Velocity P-wave (km/s) = 3.12285 6.18998 4.90245
#
# Compressibility (1/GPa) = 0.02063561
#
# Stress axis : x y z
#
# Youngs Moduli (GPa) = 99.68398 -6.29917 -43.10759
#
# Poissons Ratio (x) = 0.01160 -0.54760
# Poissons Ratio (y) = -0.18360 4.61844
# Poissons Ratio (z) = 1.26629 0.67488
#
# Static dielectric constant tensor:
#      x y z
#    x 1.646700 0.000000 -0.047060 
#    y 0.000000 1.612010 0.000000 
#    z -0.047060 0.000000 1.620950 
# 
# From -- ./inp_files/295062.got.cif
#   From: 2010.05.17/outbox.ucp.g08.bks.cvg/sg12_148_cif.got.tgz:295062.got - 2010.06.11 11:47:21.
