data_PCOD9223640
_publ_section_title
;
Structure prediction by ZEFSAII (Michael W. Deem and Ramdas Pophale) SiO2 
 PCOD9223640
Probable space group: C 2/M
;
_chemical_formula_sum "Si O2"
_cell_formula_units_Z 28
_cell_length_a 27.000000
_cell_length_b 9.000000
_cell_length_c 12.000000
_cell_angle_alpha 90.000000
_cell_angle_beta 70.000000
_cell_angle_gamma 90.000000
_cell_volume 2740.143682
_symmetry_space_group_name_H-M "C 2/M"
_symmetry_group_IT_number 12
_symmetry_cell_setting 'monoclinic'
loop_
_space_group_symop_operation_xyz
x,y,z
-x,y,-z
-x,-y,-z
x,-y,z
1/2+x,1/2+y,z
1/2-x,1/2+y,-z
1/2-x,1/2-y,-z
1/2+x,1/2-y,z
loop_
_atom_site_type_symbol
_atom_site_label
_atom_site_fract_x
_atom_site_fract_y
_atom_site_fract_z
Si Si1 0.877347 0.824221 0.198563
Si Si2 0.223441 0.844857 0.167947
Si Si3 0.834895 0.739309 0.997632
Si Si4 0.073962 0.665164 0.233248
Si Si5 0.851929 0.676203 0.627569
Si Si6 0.306995 0.321526 0.447947
Si Si7 0.508341 0.320952 0.863328
O O1 0.867721 0.802848 0.075366
O O2 0.830474 0.769999 0.311599
O O3 0.932452 0.764168 0.201374
O O4 0.880223 0.000000 0.213301
O O5 0.284837 0.837153 0.093434
O O6 0.200598 0.712305 0.259143
O O7 0.210684 0.000000 0.236611
O O8 0.193532 0.842161 0.072236
O O9 0.876331 0.654379 0.889179
O O10 0.053104 0.500000 0.270563
O O11 0.099488 0.723911 0.329143
O O12 0.031569 0.758779 0.197435
O O13 0.855874 0.500000 0.606765
O O14 0.844186 0.762522 0.518717
O O15 0.303336 0.500000 0.454511
O O16 0.250000 0.250000 0.500000
O O17 0.505197 0.500000 0.861049
O O18 0.500000 0.279981 0.000000
#
# Coordination Sequence:
#
# PCOD9223640 Si02
#       7
#     8   8   8   8   8   8   8
#     4  10  21  37  57  84 115 149 188 234 288 343
#     4  10  20  32  53  83 114 150 194 236 285 349
#     4  10  19  32  52  81 118 151 183 231 290 352
#     4  10  21  37  57  83 115 151 190 238 292 340
#     4  10  22  40  58  79 114 155 197 243 290 340
#     4  11  23  40  63  88 118 154 196 240 286 342
#     4  10  20  37  60  86 116 150 190 234 286 350
#
# _framework density 10.218442
#
# number of rings (size 3 to 8) (size 9 to 14) (size 15 to 20)
#    0.000    1.857    1.429    2.571    0.000    8.286 
#    0.000    4.286    0.000    4.286    0.000    0.000 
#    0.000    0.000    0.000    0.000    0.000    0.000 
#
# Total GULP energy -155963.136746 kJ/mol
# GULP energy per Si atom -5570.112027 kJ/mol
# Density = 1.019518 g / cm^3
# Si number density = 10.218442 Si / 1000 Ang^3
#
#
#
# Elastic Constant Matrix: (Units=GPa)
#
#
# Indices 1 2 3 4 5 6 
#
# 1 103.4906 21.4945 5.9730 0.0000 12.4432 0.0000
# 2 21.4945 45.5855 8.3197 0.0000 -1.2174 0.0000
# 3 5.9730 8.3197 51.7275 0.0000 17.0368 0.0000
# 4 0.0000 0.0000 0.0000 30.5030 0.0000 39.6323
# 5 12.4432 -1.2174 17.0368 0.0000 26.4856 0.0000
# 6 0.0000 0.0000 0.0000 39.6323 0.0000 78.3731
#
#
#
# Elastic Compliance Matrix: (Units=1/GPa)
#
#
# Indices 1 2 3 4 5 6 
#
# 1 0.011644 -0.006028 0.001926 0.000000 -0.006986 0.000000
# 2 -0.006028 0.026111 -0.006130 0.000000 0.007976 0.000000
# 3 0.001926 -0.006130 0.025993 0.000000 -0.017907 0.000000
# 4 0.000000 0.000000 0.000000 0.095588 0.000000 -0.048338
# 5 -0.006986 0.007976 -0.017907 0.000000 0.052924 0.000000
# 6 0.000000 0.000000 0.000000 -0.048338 0.000000 0.037203
#
#
# Mechanical properties :
#
#
# Convention : Reuss Voigt Hill
#
# Bulk Modulus (GPa) = 23.10381 30.26421 26.68401
# Shear Modulus (GPa) = 17.58357 38.07344 27.82850
#
# Velocity S-wave (km/s) = 2.93641 4.32090 3.69410
# Velocity P-wave (km/s) = 4.77768 6.30352 5.59288
#
# Compressibility (1/GPa) = 0.04328290
#
# Stress axis : x y z
#
# Youngs Moduli (GPa) = 85.88410 38.29785 38.47129
#
# Poissons Ratio (x) = 0.23087 -0.07410
# Poissons Ratio (y) = 0.51773 0.23584
# Poissons Ratio (z) = -0.16542 0.23478
#
# Static dielectric constant tensor:
#      x y z
#    x 1.737990 0.000000 -0.032140 
#    y 0.000000 1.728330 0.000000 
#    z -0.032140 0.000000 1.730570 
# 
# From -- ./inp_files/180680.got.cif
#   From: 2010.05.17/outbox.ucp.g08.bks.cvg/sg12_91_cif.got.tgz:180680.got - 2010.06.11 11:47:21.
