data_PCOD9223906
_publ_section_title
;
Structure prediction by ZEFSAII (Michael W. Deem and Ramdas Pophale) SiO2 
 PCOD9223906
Probable space group: C 2/M
;
_chemical_formula_sum "Si O2"
_cell_formula_units_Z 32
_cell_length_a 30.000000
_cell_length_b 9.000000
_cell_length_c 24.000000
_cell_angle_alpha 90.000000
_cell_angle_beta 30.000000
_cell_angle_gamma 90.000000
_cell_volume 3240.000000
_symmetry_space_group_name_H-M "C 2/M"
_symmetry_group_IT_number 12
_symmetry_cell_setting 'monoclinic'
loop_
_space_group_symop_operation_xyz
x,y,z
-x,y,-z
-x,-y,-z
x,-y,z
1/2+x,1/2+y,z
1/2-x,1/2+y,-z
1/2-x,1/2-y,-z
1/2+x,1/2-y,z
loop_
_atom_site_type_symbol
_atom_site_label
_atom_site_fract_x
_atom_site_fract_y
_atom_site_fract_z
Si Si1 0.100777 0.320710 0.901320
Si Si2 0.818074 0.171398 0.385719
Si Si3 0.991854 0.177769 0.250910
Si Si4 0.565295 0.676405 0.562380
Si Si5 0.426014 0.679895 0.623587
Si Si6 0.229431 0.319747 0.854984
Si Si7 0.816999 0.322216 0.970454
Si Si8 0.752492 0.671997 0.663053
O O1 0.099065 0.500000 0.899260
O O2 0.141532 0.275064 0.916627
O O3 0.177352 0.260510 0.777831
O O4 0.000000 0.267040 0.000000
O O5 0.750000 0.250000 0.500000
O O6 0.780996 0.179642 0.364200
O O7 0.919253 0.225714 0.283558
O O8 0.821523 0.000000 0.399636
O O9 0.083658 0.263182 0.146071
O O10 0.945589 0.208868 0.360673
O O11 0.009337 0.000000 0.229119
O O12 0.580891 0.500000 0.538705
O O13 0.471497 0.710634 0.633888
O O14 0.648741 0.758419 0.444069
O O15 0.500000 0.734968 0.500000
O O16 0.421748 0.500000 0.621696
O O17 0.324782 0.735223 0.728402
O O18 0.233023 0.500000 0.848251
O O19 0.217747 0.277599 0.931110
O O20 0.815397 0.500000 0.968069
O O21 0.750000 0.250000 0.000000
O O22 0.755337 0.500000 0.677693
#
# Coordination Sequence:
#
# PCOD9223906 Si02
#       8
#     8   8   8   8   8   8   8   8
#     4  10  22  40  63  87 112 150 203 251 289 342
#     4  10  21  37  57  84 118 156 195 242 294 353
#     4  10  21  37  57  83 114 151 199 244 290 349
#     4  10  19  34  58  83 109 150 193 236 285 344
#     4   9  16  28  53  83 107 135 179 234 287 333
#     4   9  19  37  58  85 117 150 195 246 290 343
#     4  11  23  39  61  87 120 159 197 244 297 352
#     4  11  23  37  56  85 121 155 188 238 302 357
#
# _framework density 9.8765429999999999
#
# number of rings (size 3 to 8) (size 9 to 14) (size 15 to 20)
#    0.000    2.000    1.250    2.250    1.750    5.750 
#    0.000    1.250    0.000    3.375    0.000    0.000 
#    0.000    0.000    0.000    0.000    0.000    0.000 
#
# Total GULP energy -178520.260715 kJ/mol
# GULP energy per Si atom -5578.758147 kJ/mol
# Density = 0.985406 g / cm^3
# Si number density = 9.876543 Si / 1000 Ang^3
#
#
#
# Elastic Constant Matrix: (Units=GPa)
#
#
# Indices 1 2 3 4 5 6 
#
# 1 92.6529 25.7191 54.0120 0.0008 -24.5009 -0.0002
# 2 25.7191 16.4550 25.6987 0.0042 -2.0650 0.0012
# 3 54.0120 25.6987 125.0697 0.0052 -28.5936 -0.0011
# 4 0.0008 0.0042 0.0052 29.0318 0.0006 -4.0423
# 5 -24.5009 -2.0650 -28.5936 0.0006 35.2034 -0.0011
# 6 -0.0002 0.0012 -0.0011 -4.0423 -0.0011 15.1153
#
#
#
# Elastic Compliance Matrix: (Units=1/GPa)
#
#
# Indices 1 2 3 4 5 6 
#
# 1 0.025339 -0.038564 0.000609 0.000005 0.015868 0.000006
# 2 -0.038564 0.152430 -0.023036 -0.000019 -0.036610 -0.000022
# 3 0.000609 -0.023036 0.015048 0.000001 0.011295 0.000004
# 4 0.000005 -0.000019 0.000001 0.035777 0.000003 0.009568
# 5 0.015868 -0.036610 0.011295 0.000003 0.046477 0.000008
# 6 0.000006 -0.000022 0.000004 0.009568 0.000008 0.068717
#
#
# Mechanical properties :
#
#
# Convention : Reuss Voigt Hill
#
# Bulk Modulus (GPa) = 14.11744 49.44856 31.78300
# Shear Modulus (GPa) = 10.21693 24.45328 17.33510
#
# Velocity S-wave (km/s) = 2.27674 3.52226 2.96563
# Velocity P-wave (km/s) = 3.75152 6.45209 5.27747
#
# Compressibility (1/GPa) = 0.07083438
#
# Stress axis : x y z
#
# Youngs Moduli (GPa) = 39.46494 6.56038 66.45295
#
# Poissons Ratio (x) = 0.25300 -0.04047
# Poissons Ratio (y) = 1.52195 1.53082
# Poissons Ratio (z) = -0.02404 0.15113
#
# Static dielectric constant tensor:
#      x y z
#    x 1.754220 0.000000 0.003210 
#    y 0.000000 1.687560 0.000000 
#    z 0.003210 0.000000 1.657480 
# 
# From -- ./inp_files/353358.got.cif
#   From: 2010.05.17/outbox.ucp.g08.bks.cvg/sg12_177_cif.got.tgz:353358.got - 2010.06.11 11:47:21.
