data_PCOD9223146
_publ_section_title
;
Structure prediction by ZEFSAII (Michael W. Deem and Ramdas Pophale) SiO2 
 PCOD9223146
Probable space group: C 2/M
;
_chemical_formula_sum "Si O2"
_cell_formula_units_Z 56
_cell_length_a 25.980843
_cell_length_b 12.899870
_cell_length_c 7.340989
_cell_angle_alpha 90.000000
_cell_angle_beta 106.412610
_cell_angle_gamma 90.000000
_cell_volume 2360.074833
_symmetry_space_group_name_H-M "C 2/M"
_symmetry_group_IT_number 12
_symmetry_cell_setting 'monoclinic'
loop_
_space_group_symop_operation_xyz
x,y,z
-x,y,-z
-x,-y,-z
x,-y,z
1/2+x,1/2+y,z
1/2-x,1/2+y,-z
1/2-x,1/2-y,-z
1/2+x,1/2-y,z
loop_
_atom_site_type_symbol
_atom_site_label
_atom_site_fract_x
_atom_site_fract_y
_atom_site_fract_z
Si Si1 0.709569 0.387270 0.931565
Si Si2 0.061420 0.708636 0.280948
Si Si3 0.063325 0.113273 0.563325
Si Si4 0.327473 0.841075 0.034402
Si Si5 0.561420 0.208636 0.841891
Si Si6 0.790431 0.112730 0.512427
Si Si7 0.827473 0.658925 0.620544
O O1 0.687721 0.500000 0.961814
O O2 0.771801 0.382049 0.057877
O O3 0.708763 0.379787 0.708763
O O4 0.681456 0.283634 0.972648
O O5 0.072578 0.816588 0.395605
O O6 0.112531 0.639326 0.390766
O O7 0.000000 0.676207 0.265308
O O8 0.063633 0.719242 0.063633
O O9 0.072578 0.183412 0.749551
O O10 0.000000 0.099122 0.500000
O O11 0.089307 0.000000 0.589307
O O12 0.327827 0.878546 0.827827
O O13 0.387469 0.860674 0.165704
O O14 0.818544 0.216366 0.609734
O O15 0.728199 0.117951 0.514275
O O16 0.812279 0.000000 0.586372
#
# Coordination Sequence:
#
# PCOD9223146 Si02
#       7
#     8   8   8   8   8   8   8
#     4   9  18  32  50  71  95 125 160 200 245 289
#     4   9  18  32  49  69  95 129 163 197 241 292
#     4   9  18  30  44  66  95 127 163 199 237 286
#     4   9  18  32  49  70  97 126 159 200 242 292
#     4   9  18  32  49  69  95 129 163 197 241 292
#     4   9  18  32  50  71  95 125 160 200 245 289
#     4   9  18  32  49  70  97 126 159 200 242 292
#
# _framework density 23.728059999999999
#
# number of rings (size 3 to 8) (size 9 to 14) (size 15 to 20)
#    0.000    3.000    0.000    0.000    2.000    2.286 
#    0.000    5.714    0.000    0.857    0.000    6.000 
#    0.000    3.429    0.000    0.286    0.000    0.000 
#
# Total GULP energy -156026.635111 kJ/mol
# GULP energy per Si atom -5572.379825 kJ/mol
# Density = 2.367405 g / cm^3
# Si number density = 23.728060 Si / 1000 Ang^3
#
#
#
# Elastic Constant Matrix: (Units=GPa)
#
#
# Indices 1 2 3 4 5 6 
#
# 1 139.4449 4.9219 32.1342 0.0000 43.4918 0.0000
# 2 4.9219 81.7164 -0.6409 0.0000 2.2942 0.0000
# 3 32.1342 -0.6409 77.9590 0.0000 -18.1316 0.0000
# 4 0.0000 0.0000 0.0000 -13.8306 0.0000 5.7134
# 5 43.4918 2.2942 -18.1316 0.0000 26.3487 0.0000
# 6 0.0000 0.0000 0.0000 5.7134 0.0000 0.0204
#
#
#
# Elastic Compliance Matrix: (Units=1/GPa)
#
#
# Indices 1 2 3 4 5 6 
#
# 1 0.113208 -0.000342 -0.107292 0.000000 -0.260667 0.000000
# 2 -0.000342 0.012270 0.000148 0.000000 -0.000402 0.000000
# 3 -0.107292 0.000148 0.116959 0.000000 0.257570 0.000000
# 4 0.000000 0.000000 0.000000 -0.000620 0.000000 0.173526
# 5 -0.260667 -0.000402 0.257570 0.000000 0.645496 0.000000
# 6 0.000000 0.000000 0.000000 0.173526 0.000000 0.420059
#
#
# Mechanical properties :
#
#
# Convention : Reuss Voigt Hill
#
# Bulk Modulus (GPa) = 36.40815 41.32787 38.86801
# Shear Modulus (GPa) = 3.26477 20.02138 11.64308
#
# Velocity S-wave (km/s) = 1.17427 2.90795 2.21755
# Velocity P-wave (km/s) = 4.14919 5.36004 4.79300
#
# Compressibility (1/GPa) = 0.02746638
#
# Stress axis : x y z
#
# Youngs Moduli (GPa) = 8.83328 81.49638 8.55001
#
# Poissons Ratio (x) = 0.02785 0.91735
# Poissons Ratio (y) = 0.00302 -0.00127
# Poissons Ratio (z) = 0.94774 -0.01207
#
# Static dielectric constant tensor:
#      x y z
#    x 1.951130 0.000000 0.017350 
#    y 0.000000 1.881830 0.000000 
#    z 0.017350 0.000000 1.909060 
# 
# From -- ./inp_files/104001.got.cif
#   From: 2010.05.17/outbox.cif.g08.bks.cpg/sg12_53_cif.got.tgz:104001.got - 2010.06.03 13:09:07.
