data_PCOD9223298
_publ_section_title
;
Structure prediction by ZEFSAII (Michael W. Deem and Ramdas Pophale) SiO2 
 PCOD9223298
Probable space group: C 2/M
;
_chemical_formula_sum "Si O2"
_cell_formula_units_Z 28
_cell_length_a 9.000000
_cell_length_b 18.000000
_cell_length_c 24.000000
_cell_angle_alpha 90.000000
_cell_angle_beta 120.000000
_cell_angle_gamma 90.000000
_cell_volume 3367.106770
_symmetry_space_group_name_H-M "C 2/M"
_symmetry_group_IT_number 12
_symmetry_cell_setting 'monoclinic'
loop_
_space_group_symop_operation_xyz
x,y,z
-x,y,-z
-x,-y,-z
x,-y,z
1/2+x,1/2+y,z
1/2-x,1/2+y,-z
1/2-x,1/2-y,-z
1/2+x,1/2-y,z
loop_
_atom_site_type_symbol
_atom_site_label
_atom_site_fract_x
_atom_site_fract_y
_atom_site_fract_z
Si Si1 0.699644 0.199664 0.044364
Si Si2 0.381816 0.238451 0.742428
Si Si3 0.117250 0.912735 0.468342
Si Si4 0.755490 0.197568 0.836710
Si Si5 0.511657 0.412015 0.935720
Si Si6 0.490588 0.299593 0.349916
Si Si7 0.601022 0.809508 0.461476
O O1 0.721343 0.242842 0.107724
O O2 0.827159 0.130138 0.061836
O O3 0.500000 0.179986 0.000000
O O4 0.750000 0.250000 0.000000
O O5 0.554625 0.192611 0.785748
O O6 0.342516 0.279188 0.794095
O O7 0.420839 0.288180 0.694058
O O8 0.212000 0.191121 0.697643
O O9 0.306558 0.888550 0.523930
O O10 0.000000 0.893554 0.500000
O O11 0.064759 0.864225 0.404036
O O12 0.103568 0.000000 0.454464
O O13 0.844687 0.123666 0.875990
O O14 0.522651 0.500000 0.930875
O O15 0.500000 0.395540 0.000000
O O16 0.509998 0.222823 0.389628
O O17 0.500000 0.808202 0.500000
O O18 0.750000 0.750000 0.500000
#
# Coordination Sequence:
#
# PCOD9223298 Si02
#       7
#     8   8   8   8   8   8   8
#     4  12  19  34  63  88 111 146 188 236 285 334
#     4  10  21  31  57  79 103 143 202 217 265 318
#     4  10  20  34  54  79 110 145 179 225 289 340
#     4  11  19  36  56  83 107 149 190 232 263 343
#     4  11  23  38  58  88 120 145 178 241 303 335
#     4  10  18  34  51  80 108 139 180 239 263 320
#     4  10  18  31  55  79 105 133 172 226 283 320
#
# _framework density 8.3157449999999997
#
# number of rings (size 3 to 8) (size 9 to 14) (size 15 to 20)
#    0.000    1.429    4.286    4.286    0.000    0.571 
#    0.000    1.429    0.000    3.429    0.000    0.000 
#    0.000    0.000    0.000    0.000    0.000    0.000 
#
# Total GULP energy -155978.026809 kJ/mol
# GULP energy per Si atom -5570.643815 kJ/mol
# Density = 0.829682 g / cm^3
# Si number density = 8.315745 Si / 1000 Ang^3
#
#
#
# Elastic Constant Matrix: (Units=GPa)
#
#
# Indices 1 2 3 4 5 6 
#
# 1 118.5385 36.2472 41.9128 0.0000 -8.2288 0.0000
# 2 36.2472 78.9052 41.8742 0.0000 -5.4448 0.0000
# 3 41.9128 41.8742 112.3873 0.0000 -9.1089 0.0000
# 4 0.0000 0.0000 0.0000 21.5739 0.0000 -1.3538
# 5 -8.2288 -5.4448 -9.1089 0.0000 47.3126 0.0000
# 6 0.0000 0.0000 0.0000 -1.3538 0.0000 21.1087
#
#
#
# Elastic Compliance Matrix: (Units=1/GPa)
#
#
# Indices 1 2 3 4 5 6 
#
# 1 0.010437 -0.003371 -0.002561 0.000000 0.000934 0.000000
# 2 -0.003371 0.016908 -0.005011 0.000000 0.000395 0.000000
# 3 -0.002561 -0.005011 0.011821 0.000000 0.001254 0.000000
# 4 0.000000 0.000000 0.000000 0.046540 0.000000 0.002985
# 5 0.000934 0.000395 0.001254 0.000000 0.021585 0.000000
# 6 0.000000 0.000000 0.000000 0.002985 0.000000 0.047565
#
#
# Mechanical properties :
#
#
# Convention : Reuss Voigt Hill
#
# Bulk Modulus (GPa) = 57.86371 61.09992 59.48181
# Shear Modulus (GPa) = 27.39684 30.65215 29.02450
#
# Velocity S-wave (km/s) = 4.06308 4.29770 4.18204
# Velocity P-wave (km/s) = 7.54180 7.83863 7.69165
#
# Compressibility (1/GPa) = 0.01728199
#
# Stress axis : x y z
#
# Youngs Moduli (GPa) = 95.81138 59.14201 84.59348
#
# Poissons Ratio (x) = 0.19938 0.21660
# Poissons Ratio (y) = 0.32301 0.42387
# Poissons Ratio (z) = 0.24533 0.29634
#
# Static dielectric constant tensor:
#      x y z
#    x 1.574990 0.000000 0.025220 
#    y 0.000000 1.559460 0.000000 
#    z 0.025220 0.000000 1.572430 
# 
# From -- ./inp_files/301463.got.cif
#   From: 2010.05.17/outbox.ucp.g08.bks.cvg/sg12_151_cif.got.tgz:301463.got - 2010.06.11 11:47:21.
