data_PCOD9223831
_publ_section_title
;
Structure prediction by ZEFSAII (Michael W. Deem and Ramdas Pophale) SiO2 
 PCOD9223831
Probable space group: C 2/M
;
_chemical_formula_sum "Si O2"
_cell_formula_units_Z 28
_cell_length_a 30.000000
_cell_length_b 9.000000
_cell_length_c 12.000000
_cell_angle_alpha 90.000000
_cell_angle_beta 120.000000
_cell_angle_gamma 90.000000
_cell_volume 2805.922308
_symmetry_space_group_name_H-M "C 2/M"
_symmetry_group_IT_number 12
_symmetry_cell_setting 'monoclinic'
loop_
_space_group_symop_operation_xyz
x,y,z
-x,y,-z
-x,-y,-z
x,-y,z
1/2+x,1/2+y,z
1/2-x,1/2+y,-z
1/2-x,1/2-y,-z
1/2+x,1/2-y,z
loop_
_atom_site_type_symbol
_atom_site_label
_atom_site_fract_x
_atom_site_fract_y
_atom_site_fract_z
Si Si1 0.837271 0.671447 0.371876
Si Si2 0.248526 0.324550 0.120732
Si Si3 0.941386 0.819319 0.918511
Si Si4 0.353363 0.326976 0.977835
Si Si5 0.510757 0.168570 0.383789
Si Si6 0.400953 0.675352 0.630530
Si Si7 0.606067 0.165163 0.777858
O O1 0.822407 0.500000 0.365894
O O2 0.793216 0.761262 0.254360
O O3 0.855653 0.741164 0.509832
O O4 0.884558 0.677102 0.342201
O O5 0.252068 0.500000 0.112579
O O6 0.195232 0.273439 0.110158
O O7 0.250000 0.250000 0.000000
O O8 0.904079 0.782214 0.973433
O O9 0.913318 0.771704 0.770293
O O10 0.944358 0.000000 0.918403
O O11 0.000000 0.763906 0.000000
O O12 0.342352 0.500000 0.944685
O O13 0.365264 0.294214 0.121678
O O14 0.500000 0.194699 0.500000
O O15 0.547380 0.286827 0.373458
O O16 0.453304 0.171287 0.263894
O O17 0.531768 0.000000 0.395917
O O18 0.391161 0.500000 0.618821
O O19 0.626578 0.000000 0.834632
#
# Coordination Sequence:
#
# PCOD9223831 Si02
#       7
#     8   8   8   8   8   8   8
#     4  11  22  39  60  86 122 160 197 246 307 364
#     4  12  24  40  62  92 126 160 202 252 307 366
#     4   9  20  40  63  89 124 164 206 255 302 354
#     4  11  22  38  63  90 120 160 206 253 307 362
#     4  10  19  34  52  77 116 158 194 238 302 364
#     4  11  22  37  59  88 121 159 206 256 305 364
#     4  10  20  34  55  82 118 157 196 247 303 361
#
# _framework density 9.9788940000000004
#
# number of rings (size 3 to 8) (size 9 to 14) (size 15 to 20)
#    0.000    1.429    2.857    3.429    0.000    2.571 
#    0.000    3.571    0.000    5.143    0.000    0.000 
#    0.000    0.000    0.000    0.000    0.000    0.000 
#
# Total GULP energy -156254.832075 kJ/mol
# GULP energy per Si atom -5580.529717 kJ/mol
# Density = 0.995618 g / cm^3
# Si number density = 9.978894 Si / 1000 Ang^3
#
#
#
# Elastic Constant Matrix: (Units=GPa)
#
#
# Indices 1 2 3 4 5 6 
#
# 1 61.9658 29.8352 37.0373 0.0000 10.6700 0.0000
# 2 29.8352 92.0747 48.6933 0.0000 4.6995 0.0000
# 3 37.0373 48.6933 126.0239 0.0000 4.4969 0.0000
# 4 0.0000 0.0000 0.0000 24.5529 0.0000 8.8484
# 5 10.6700 4.6995 4.4969 0.0000 23.6184 0.0000
# 6 0.0000 0.0000 0.0000 8.8484 0.0000 23.7340
#
#
#
# Elastic Compliance Matrix: (Units=1/GPa)
#
#
# Indices 1 2 3 4 5 6 
#
# 1 0.022456 -0.004419 -0.004593 0.000000 -0.008391 0.000000
# 2 -0.004419 0.014590 -0.004336 0.000000 -0.000081 0.000000
# 3 -0.004593 -0.004336 0.010929 0.000000 0.000856 0.000000
# 4 0.000000 0.000000 0.000000 0.047050 0.000000 -0.017541
# 5 -0.008391 -0.000081 0.000856 0.000000 0.045984 0.000000
# 6 0.000000 0.000000 0.000000 -0.017541 0.000000 0.048673
#
#
# Mechanical properties :
#
#
# Convention : Reuss Voigt Hill
#
# Bulk Modulus (GPa) = 46.99280 56.79956 51.89618
# Shear Modulus (GPa) = 22.37444 25.34763 23.86104
#
# Velocity S-wave (km/s) = 3.35190 3.56766 3.46146
# Velocity P-wave (km/s) = 6.21108 6.74482 6.48344
#
# Compressibility (1/GPa) = 0.02127986
#
# Stress axis : x y z
#
# Youngs Moduli (GPa) = 44.53241 68.54149 91.49714
#
# Poissons Ratio (x) = 0.30291 0.42020
# Poissons Ratio (y) = 0.19680 0.39669
# Poissons Ratio (z) = 0.20452 0.29716
#
# Static dielectric constant tensor:
#      x y z
#    x 1.730510 0.000000 0.034830 
#    y 0.000000 1.689250 0.000000 
#    z 0.034830 0.000000 1.735780 
# 
# From -- ./inp_files/186406.got.cif
#   From: 2010.05.17/outbox.ucp.g08.bks.cvg/sg12_94_cif.got.tgz:186406.got - 2010.06.11 11:47:21.
