data_PCOD9223990
_publ_section_title
;
Structure prediction by ZEFSAII (Michael W. Deem and Ramdas Pophale) SiO2 
 PCOD9223990
Probable space group: C 2/M
;
_chemical_formula_sum "Si O2"
_cell_formula_units_Z 28
_cell_length_a 21.000000
_cell_length_b 18.000000
_cell_length_c 21.000000
_cell_angle_alpha 90.000000
_cell_angle_beta 20.000000
_cell_angle_gamma 90.000000
_cell_volume 2714.955898
_symmetry_space_group_name_H-M "C 2/M"
_symmetry_group_IT_number 12
_symmetry_cell_setting 'monoclinic'
loop_
_space_group_symop_operation_xyz
x,y,z
-x,y,-z
-x,-y,-z
x,-y,z
1/2+x,1/2+y,z
1/2-x,1/2+y,-z
1/2-x,1/2-y,-z
1/2+x,1/2-y,z
loop_
_atom_site_type_symbol
_atom_site_label
_atom_site_fract_x
_atom_site_fract_y
_atom_site_fract_z
Si Si1 0.390462 0.418997 0.668959
Si Si2 0.311817 0.253149 0.747057
Si Si3 0.251144 0.583866 0.992120
Si Si4 0.385147 0.239125 0.198835
Si Si5 0.492088 0.189717 0.696503
Si Si6 0.604763 0.670773 0.676400
Si Si7 0.017952 0.418482 0.080682
O O1 0.500000 0.423184 0.500000
O O2 0.435240 0.500000 0.659522
O O3 0.412353 0.332353 0.667024
O O4 0.163330 0.418696 0.884830
O O5 0.267866 0.241555 0.712532
O O6 0.427247 0.198027 0.684288
O O7 0.098680 0.252690 0.973412
O O8 0.212267 0.500000 0.050198
O O9 0.468401 0.602168 0.793790
O O10 0.164647 0.647447 0.117323
O O11 0.159194 0.590953 0.008485
O O12 0.384703 0.285853 0.264850
O O13 0.376693 0.149877 0.216633
O O14 0.535508 0.268871 0.689321
O O15 0.682805 0.146348 0.530264
O O16 0.929647 0.500000 0.168029
#
# Coordination Sequence:
#
# PCOD9223990 Si02
#       7
#     8   8   8   8   8   8   8
#     4   9  18  31  47  76 120 162 200 242 289 358
#     4  10  21  34  57  84 119 162 209 251 309 366
#     4  11  22  41  67  91 125 167 207 262 320 371
#     4  10  19  35  58  86 118 160 203 254 304 371
#     4  11  23  39  63  93 125 163 208 265 312 370
#     4  11  22  38  64  91 123 160 208 259 315 368
#     4   9  18  34  58  87 122 169 209 246 305 369
#
# _framework density 10.313243
#
# number of rings (size 3 to 8) (size 9 to 14) (size 15 to 20)
#    0.000    1.857    2.857    2.143    2.000    1.143 
#    0.000    2.857    0.000    2.571    0.000    2.000 
#    0.000    0.000    0.000    0.000    0.000    0.000 
#
# Total GULP energy -156046.907055 kJ/mol
# GULP energy per Si atom -5573.103823 kJ/mol
# Density = 1.028977 g / cm^3
# Si number density = 10.313243 Si / 1000 Ang^3
#
#
#
# Elastic Constant Matrix: (Units=GPa)
#
#
# Indices 1 2 3 4 5 6 
#
# 1 123.2151 14.5741 11.5321 0.0018 -17.5801 0.0059
# 2 14.5741 20.8059 -1.2883 0.0075 -13.4780 0.0333
# 3 11.5321 -1.2883 42.1204 0.0152 -13.6775 0.0341
# 4 0.0018 0.0075 0.0152 2.3194 0.0025 -11.3724
# 5 -17.5801 -13.4780 -13.6775 0.0025 30.6807 -0.0012
# 6 0.0059 0.0333 0.0341 -11.3724 -0.0012 20.3562
#
#
#
# Elastic Compliance Matrix: (Units=1/GPa)
#
#
# Indices 1 2 3 4 5 6 
#
# 1 0.009220 -0.005226 -0.002004 -0.000038 0.002094 -0.000012
# 2 -0.005226 0.077549 0.016244 0.000650 0.038314 0.000213
# 3 -0.002004 0.016244 0.031256 0.000377 0.019921 0.000133
# 4 -0.000038 0.000650 0.000377 -0.247887 0.000446 -0.138488
# 5 0.002094 0.038314 0.019921 0.000446 0.059506 0.000156
# 6 -0.000012 0.000213 0.000133 -0.138488 0.000156 -0.028245
#
#
# Mechanical properties :
#
#
# Convention : Reuss Voigt Hill
#
# Bulk Modulus (GPa) = 7.35016 26.19745 16.77381
# Shear Modulus (GPa) = -70.14959 21.42617 -24.36171
#
# Velocity S-wave (km/s) = -5.83809 3.22649 -3.44043
# Velocity P-wave (km/s) = 6.47095 5.15837 2.76265
#
# Compressibility (1/GPa) = 0.13605150
#
# Stress axis : x y z
#
# Youngs Moduli (GPa) = 108.45502 12.89505 31.99415
#
# Poissons Ratio (x) = 0.06739 0.06413
# Poissons Ratio (y) = 0.56683 -0.51971
# Poissons Ratio (z) = 0.21738 -0.20947
#
# Static dielectric constant tensor:
#      x y z
#    x 1.749820 0.000000 0.033440 
#    y 0.000000 1.738400 0.000020 
#    z 0.033440 0.000020 1.820770 
# 
# From -- ./inp_files/322622.got.cif
#   From: 2010.05.17/outbox.ucp.g08.bks.cvg/sg12_162_cif.got.tgz:322622.got - 2010.06.11 11:47:21.
