data_PCOD9223976
_publ_section_title
;
Structure prediction by ZEFSAII (Michael W. Deem and Ramdas Pophale) SiO2 
 PCOD9223976
Probable space group: C 2/M
;
_chemical_formula_sum "Si O2"
_cell_formula_units_Z 32
_cell_length_a 12.000000
_cell_length_b 30.000000
_cell_length_c 18.000000
_cell_angle_alpha 90.000000
_cell_angle_beta 30.000000
_cell_angle_gamma 90.000000
_cell_volume 3240.000000
_symmetry_space_group_name_H-M "C 2/M"
_symmetry_group_IT_number 12
_symmetry_cell_setting 'monoclinic'
loop_
_space_group_symop_operation_xyz
x,y,z
-x,y,-z
-x,-y,-z
x,-y,z
1/2+x,1/2+y,z
1/2-x,1/2+y,-z
1/2-x,1/2-y,-z
1/2+x,1/2-y,z
loop_
_atom_site_type_symbol
_atom_site_label
_atom_site_fract_x
_atom_site_fract_y
_atom_site_fract_z
Si Si1 0.999688 0.398400 0.689033
Si Si2 0.769974 0.303281 0.852680
Si Si3 0.660802 0.290454 0.233838
Si Si4 0.879630 0.687235 0.956344
Si Si5 0.548347 0.911795 0.827757
Si Si6 0.672273 0.551296 0.127438
Si Si7 0.009570 0.113584 0.355500
Si Si8 0.392686 0.446994 0.140034
O O1 0.994167 0.421509 0.773585
O O2 0.255385 0.397461 0.517993
O O3 0.889647 0.349425 0.761997
O O4 0.847708 0.424627 0.718854
O O5 0.888224 0.262088 0.741576
O O6 0.807329 0.295511 0.918604
O O7 0.500000 0.304785 0.000000
O O8 0.522137 0.332307 0.344370
O O9 0.890703 0.292099 0.147141
O O10 0.708488 0.304552 0.121200
O O11 0.932515 0.635103 0.915878
O O12 0.810370 0.903513 0.688001
O O13 0.430788 0.945113 0.952852
O O14 0.622476 0.500000 0.178210
O O15 0.598623 0.587506 0.230897
O O16 0.539218 0.562179 0.127838
O O17 0.371137 0.500000 0.146843
O O18 0.500000 0.430630 0.000000
#
# Coordination Sequence:
#
# PCOD9223976 Si02
#       8
#     8   8   8   8   8   8   8   8
#     4  11  24  39  60  92 124 161 202 249 302 367
#     4  11  22  33  59  90 117 154 209 259 288 348
#     4  10  19  35  58  81 118 159 194 245 309 347
#     4   9  18  34  54  86 110 144 197 246 294 345
#     4  10  20  39  65  86 116 160 202 245 294 358
#     4  11  23  40  66  95 118 153 205 261 301 350
#     4  11  24  40  59  88 130 164 196 243 314 372
#     4  10  21  41  66  88 117 157 202 250 305 362
#
# _framework density 9.8765429999999999
#
# number of rings (size 3 to 8) (size 9 to 14) (size 15 to 20)
#    0.000    1.625    3.750    1.500    1.750    2.500 
#    0.000    1.250    0.000    2.250    0.000    0.000 
#    0.000    0.000    0.000    0.000    0.000    0.000 
#
# Total GULP energy -178486.920683 kJ/mol
# GULP energy per Si atom -5577.716271 kJ/mol
# Density = 0.985406 g / cm^3
# Si number density = 9.876543 Si / 1000 Ang^3
#
#
#
# Elastic Constant Matrix: (Units=GPa)
#
#
# Indices 1 2 3 4 5 6 
#
# 1 52.5280 20.5455 -0.2116 0.0003 -4.8427 0.0001
# 2 20.5455 40.8481 8.5047 -0.0003 -6.6705 0.0000
# 3 -0.2116 8.5047 74.4098 -0.0002 -19.3150 -0.0001
# 4 0.0003 -0.0003 -0.0002 14.3900 -0.0001 -1.3316
# 5 -4.8427 -6.6705 -19.3150 -0.0001 21.2935 0.0000
# 6 0.0001 0.0000 -0.0001 -1.3316 0.0000 21.4167
#
#
#
# Elastic Compliance Matrix: (Units=1/GPa)
#
#
# Indices 1 2 3 4 5 6 
#
# 1 0.024102 -0.011989 0.002468 -0.000001 0.003964 0.000000
# 2 -0.011989 0.031835 -0.002344 0.000001 0.005120 0.000000
# 3 0.002468 -0.002344 0.017879 0.000000 0.016045 0.000000
# 4 -0.000001 0.000001 0.000000 0.069895 0.000001 0.004346
# 5 0.003964 0.005120 0.016045 0.000001 0.064022 0.000000
# 6 0.000000 0.000000 0.000000 0.004346 0.000000 0.046963
#
#
# Mechanical properties :
#
#
# Convention : Reuss Voigt Hill
#
# Bulk Modulus (GPa) = 19.96548 25.05146 22.50847
# Shear Modulus (GPa) = 16.94218 20.68320 18.81269
#
# Velocity S-wave (km/s) = 2.93182 3.23938 3.08943
# Velocity P-wave (km/s) = 4.64653 5.16733 4.91384
#
# Compressibility (1/GPa) = 0.05008646
#
# Stress axis : x y z
#
# Youngs Moduli (GPa) = 41.48977 31.41164 55.93221
#
# Poissons Ratio (x) = 0.37660 -0.13804
# Poissons Ratio (y) = 0.49743 0.13108
# Poissons Ratio (z) = -0.10239 0.07362
#
# Static dielectric constant tensor:
#      x y z
#    x 1.701500 0.000000 -0.001740 
#    y 0.000000 1.739740 0.000000 
#    z -0.001740 0.000000 1.683580 
# 
# From -- ./inp_files/266281.got.cif
#   From: 2010.05.17/outbox.ucp.g08.bks.cvg/sg12_134_cif.got.tgz:266281.got - 2010.06.11 11:47:21.
