data_PCOD9223105
_publ_section_title
;
Structure prediction by ZEFSAII (Michael W. Deem and Ramdas Pophale) SiO2 
 PCOD9223105
Probable space group: C 2/M
;
_chemical_formula_sum "Si O2"
_cell_formula_units_Z 64
_cell_length_a 23.370946
_cell_length_b 7.481473
_cell_length_c 27.842678
_cell_angle_alpha 90.000000
_cell_angle_beta 141.125229
_cell_angle_gamma 90.000000
_cell_volume 3055.423407
_symmetry_space_group_name_H-M "C 2/M"
_symmetry_group_IT_number 12
_symmetry_cell_setting 'monoclinic'
loop_
_space_group_symop_operation_xyz
x,y,z
-x,y,-z
-x,-y,-z
x,-y,z
1/2+x,1/2+y,z
1/2-x,1/2+y,-z
1/2-x,1/2-y,-z
1/2+x,1/2-y,z
loop_
_atom_site_type_symbol
_atom_site_label
_atom_site_fract_x
_atom_site_fract_y
_atom_site_fract_z
Si Si1 0.556422 0.710258 0.829993
Si Si2 0.896403 0.786803 0.588811
Si Si3 0.290707 0.218815 0.875202
Si Si4 0.881225 0.715273 0.029226
Si Si5 0.739898 0.285921 0.416815
Si Si6 0.139456 0.783090 0.259210
Si Si7 0.575456 0.206876 0.117168
Si Si8 0.908008 0.781182 0.254297
O O1 0.542697 0.500000 0.813795
O O2 0.625018 0.730731 0.919390
O O3 0.458273 0.780049 0.783456
O O4 0.583896 0.778588 0.795992
O O5 0.838654 0.753550 0.503131
O O6 0.834667 0.717450 0.593014
O O7 0.999952 0.720984 0.659124
O O8 0.900915 0.000000 0.598090
O O9 0.372725 0.282903 0.894902
O O10 0.191195 0.276209 0.792636
O O11 0.292922 0.000000 0.875256
O O12 0.307829 0.270538 0.941713
O O13 0.883113 0.500000 0.031135
O O14 0.979118 0.782739 0.072497
O O15 0.730488 0.500000 0.409985
O O16 0.714747 0.224554 0.346984
O O17 0.142408 0.716650 0.206766
O O18 0.138897 0.000000 0.256473
O O19 0.555756 0.000000 0.092943
O O20 0.906957 0.000000 0.254775
#
# Coordination Sequence:
#
# PCOD9223105 Si02
#       8
#     8   8   8   8   8   8   8   8
#     4   9  16  28  45  65  89 117 146 177 217 263
#     4   9  16  27  44  67  91 114 142 177 213 256
#     4   9  17  29  46  65  86 118 153 183 219 260
#     4   9  17  29  45  66  90 114 145 187 227 258
#     4   9  16  27  44  67  92 115 140 172 217 265
#     4   9  16  28  46  66  90 117 143 176 220 266
#     4   9  17  29  46  67  88 112 149 192 223 249
#     4   9  16  28  46  65  89 120 150 177 212 265
#
# _framework density 20.946361
#
# number of rings (size 3 to 8) (size 9 to 14) (size 15 to 20)
#    0.000    3.000    1.250    0.375    0.000    2.500 
#    0.000    1.250    0.000    6.000    0.000    5.250 
#    0.000    0.000    0.000    0.000    0.000    0.000 
#
# Total GULP energy -178429.087865 kJ/mol
# GULP energy per Si atom -5575.908996 kJ/mol
# Density = 2.089869 g / cm^3
# Si number density = 20.946361 Si / 1000 Ang^3
#
#
#
# Elastic Constant Matrix: (Units=GPa)
#
#
# Indices 1 2 3 4 5 6 
#
# 1 9.7128 -2.3399 -1.0784 0.0002 4.6328 0.0003
# 2 -2.3399 55.5107 -9.9618 -0.0030 2.2191 0.0021
# 3 -1.0784 -9.9618 112.2366 0.0005 9.9069 -0.0002
# 4 0.0002 -0.0030 0.0005 16.5415 -0.0002 -6.2729
# 5 4.6328 2.2191 9.9069 -0.0002 26.5859 -0.0001
# 6 0.0003 0.0021 -0.0002 -6.2729 -0.0001 1.1546
#
#
#
# Elastic Compliance Matrix: (Units=1/GPa)
#
#
# Indices 1 2 3 4 5 6 
#
# 1 0.115387 0.006392 0.003617 0.000016 -0.021988 0.000044
# 2 0.006392 0.018786 0.002032 0.000009 -0.003439 0.000017
# 3 0.003617 0.002032 0.009508 0.000001 -0.004343 0.000003
# 4 0.000016 0.000009 0.000001 -0.057021 -0.000005 -0.309781
# 5 -0.021988 -0.003439 -0.004343 -0.000005 0.043351 -0.000014
# 6 0.000044 0.000017 0.000003 -0.309781 -0.000014 -0.816891
#
#
# Mechanical properties :
#
#
# Convention : Reuss Voigt Hill
#
# Bulk Modulus (GPa) = 5.96078 16.74444 11.35261
# Shear Modulus (GPa) = -7.63311 21.57909 6.97299
#
# Velocity S-wave (km/s) = -1.91103 3.21317 1.82653
# Velocity P-wave (km/s) = 1.42038 4.66661 3.14323
#
# Compressibility (1/GPa) = 0.16776332
#
# Stress axis : x y z
#
# Youngs Moduli (GPa) = 8.66651 53.23059 105.17192
#
# Poissons Ratio (x) = -0.34024 -0.38039
# Poissons Ratio (y) = -0.05539 -0.21375
# Poissons Ratio (z) = -0.03135 -0.10819
#
# Static dielectric constant tensor:
#      x y z
#    x 1.734710 0.000000 0.007750 
#    y 0.000000 1.704220 0.000000 
#    z 0.007750 0.000000 1.776320 
# 
# From -- ./inp_files/239660.got.cif
#   From: 2010.05.17/outbox.cif.g08.bks.cpg/sg12_120_cif.got.tgz:239660.got - 2010.06.03 13:09:07.
