data_PCOD9223213
_publ_section_title
;
Structure prediction by ZEFSAII (Michael W. Deem and Ramdas Pophale) SiO2 
 PCOD9223213
Probable space group: C 2/M
;
_chemical_formula_sum "Si O2"
_cell_formula_units_Z 28
_cell_length_a 30.000000
_cell_length_b 9.000000
_cell_length_c 21.000000
_cell_angle_alpha 90.000000
_cell_angle_beta 30.000000
_cell_angle_gamma 90.000000
_cell_volume 2835.000000
_symmetry_space_group_name_H-M "C 2/M"
_symmetry_group_IT_number 12
_symmetry_cell_setting 'monoclinic'
loop_
_space_group_symop_operation_xyz
x,y,z
-x,y,-z
-x,-y,-z
x,-y,z
1/2+x,1/2+y,z
1/2-x,1/2+y,-z
1/2-x,1/2-y,-z
1/2+x,1/2-y,z
loop_
_atom_site_type_symbol
_atom_site_label
_atom_site_fract_x
_atom_site_fract_y
_atom_site_fract_z
Si Si1 0.132506 0.318848 0.036013
Si Si2 0.537557 0.321361 0.269994
Si Si3 0.955964 0.331775 0.486348
Si Si4 0.644809 0.821476 0.557536
Si Si5 0.770519 0.177249 0.757172
Si Si6 0.552541 0.178027 0.799442
Si Si7 0.191294 0.678497 0.721777
O O1 0.131781 0.500000 0.043130
O O2 0.113581 0.247514 0.129273
O O3 0.043930 0.269837 0.105461
O O4 0.220434 0.278570 0.885324
O O5 0.542259 0.500000 0.263091
O O6 0.526127 0.259149 0.355730
O O7 0.442786 0.259283 0.361624
O O8 0.942812 0.500000 0.476484
O O9 0.860739 0.254827 0.619598
O O10 0.000000 0.344307 0.500000
O O11 0.629749 0.791228 0.651221
O O12 0.729594 0.757431 0.415622
O O13 0.641421 0.000000 0.554560
O O14 0.702091 0.202934 0.783455
O O15 0.787949 0.000000 0.740175
O O16 0.596114 0.227796 0.811413
O O17 0.542059 0.000000 0.815453
O O18 0.200763 0.500000 0.699844
#
# Coordination Sequence:
#
# PCOD9223213 Si02
#       7
#     8   8   8   8   8   8   8
#     4   9  19  37  57  81 118 160 196 231 277 332
#     4  11  21  36  60  87 113 147 190 236 283 335
#     4  11  24  42  65  90 115 144 180 226 284 349
#     4  10  18  30  49  75 110 153 193 236 285 331
#     4  10  21  36  58  87 118 152 190 235 285 336
#     4   8  16  29  47  74 111 154 197 235 272 324
#     4  10  18  29  48  78 113 151 195 238 280 327
#
# _framework density 9.8765429999999999
#
# number of rings (size 3 to 8) (size 9 to 14) (size 15 to 20)
#    0.000    2.143    1.429    3.429    0.000    2.286 
#    0.000    6.429    0.000    0.000    0.000    6.000 
#    0.000    0.000    0.000    0.000    0.000    0.000 
#
# Total GULP energy -155980.364842 kJ/mol
# GULP energy per Si atom -5570.727316 kJ/mol
# Density = 0.985406 g / cm^3
# Si number density = 9.876543 Si / 1000 Ang^3
#
#
#
# Elastic Constant Matrix: (Units=GPa)
#
#
# Indices 1 2 3 4 5 6 
#
# 1 56.6734 11.8816 0.0100 0.0020 18.9540 0.0010
# 2 11.8816 77.1277 31.9112 0.0123 20.3165 -0.0005
# 3 0.0100 31.9112 80.2401 0.0159 23.7801 0.0030
# 4 0.0020 0.0123 0.0159 29.2477 -0.0002 3.9206
# 5 18.9540 20.3165 23.7801 -0.0002 20.2990 -0.0003
# 6 0.0010 -0.0005 0.0030 3.9206 -0.0003 12.3683
#
#
#
# Elastic Compliance Matrix: (Units=1/GPa)
#
#
# Indices 1 2 3 4 5 6 
#
# 1 0.034093 0.002242 0.014098 -0.000011 -0.050593 -0.000004
# 2 0.002242 0.018153 -0.001861 -0.000007 -0.018082 0.000003
# 3 0.014098 -0.001861 0.025352 -0.000014 -0.041001 -0.000004
# 4 -0.000011 -0.000007 -0.000014 0.035708 0.000034 -0.011319
# 5 -0.050593 -0.018082 -0.041001 0.000034 0.162634 0.000006
# 6 -0.000004 0.000003 -0.000004 -0.011319 0.000006 0.084440
#
#
# Mechanical properties :
#
#
# Convention : Reuss Voigt Hill
#
# Bulk Modulus (GPa) = 9.38470 33.51632 21.45051
# Shear Modulus (GPa) = 13.62617 23.73224 18.67921
#
# Velocity S-wave (km/s) = 2.62930 3.46995 3.07845
# Velocity P-wave (km/s) = 3.73884 5.74965 4.84961
#
# Compressibility (1/GPa) = 0.10655647
#
# Stress axis : x y z
#
# Youngs Moduli (GPa) = 29.33153 55.08684 39.44466
#
# Poissons Ratio (x) = -0.12350 -0.55609
# Poissons Ratio (y) = -0.06576 0.07340
# Poissons Ratio (z) = -0.41352 0.10251
#
# Static dielectric constant tensor:
#      x y z
#    x 1.804220 0.000000 0.026870 
#    y 0.000000 1.680070 0.000000 
#    z 0.026870 0.000000 1.696120 
# 
# From -- ./inp_files/329491.got.cif
#   From: 2010.05.17/outbox.ucp.g08.bks.cvg/sg12_165_cif.got.tgz:329491.got - 2010.06.11 11:47:21.
