data_PCOD9223054
_publ_section_title
;
Structure prediction by ZEFSAII (Michael W. Deem and Ramdas Pophale) SiO2 
 PCOD9223054
Probable space group: C 2/M
;
_chemical_formula_sum "Si O2"
_cell_formula_units_Z 56
_cell_length_a 35.983127
_cell_length_b 7.318941
_cell_length_c 10.644036
_cell_angle_alpha 90.000000
_cell_angle_beta 105.265346
_cell_angle_gamma 90.000000
_cell_volume 2704.290496
_symmetry_space_group_name_H-M "C 2/M"
_symmetry_group_IT_number 12
_symmetry_cell_setting 'monoclinic'
loop_
_space_group_symop_operation_xyz
x,y,z
-x,y,-z
-x,-y,-z
x,-y,z
1/2+x,1/2+y,z
1/2-x,1/2+y,-z
1/2-x,1/2-y,-z
1/2+x,1/2-y,z
loop_
_atom_site_type_symbol
_atom_site_label
_atom_site_fract_x
_atom_site_fract_y
_atom_site_fract_z
Si Si1 0.913767 0.723130 0.156459
Si Si2 0.121153 0.723196 0.610303
Si Si3 0.502214 0.777405 0.856153
Si Si4 0.711727 0.218887 0.310450
Si Si5 0.297366 0.783890 0.411694
Si Si6 0.420251 0.777573 0.682186
Si Si7 0.632934 0.222694 0.130014
O O1 0.913842 0.500000 0.156257
O O2 0.897214 0.783062 0.275247
O O3 0.957608 0.780570 0.169052
O O4 0.887021 0.781484 0.016383
O O5 0.120767 0.500000 0.612318
O O6 0.165238 0.784001 0.628044
O O7 0.096837 0.779824 0.466442
O O8 0.463764 0.719108 0.749692
O O9 0.502149 0.000000 0.856214
O O10 0.500000 0.721601 0.000000
O O11 0.705385 0.288840 0.447703
O O12 0.755614 0.258905 0.312675
O O13 0.676819 0.282468 0.192223
O O14 0.708851 0.000000 0.313028
O O15 0.303295 0.000000 0.430190
O O16 0.392646 0.722105 0.772608
O O17 0.420030 0.000000 0.681932
O O18 0.632576 0.000000 0.128188
#
# Coordination Sequence:
#
# PCOD9223054 Si02
#       7
#     8   8   8   8   8   8   8
#     4   9  16  23  33  50  74 103 134 166 199 240
#     4   9  16  25  35  51  75 104 134 162 202 250
#     4   9  14  20  31  48  70  99 135 169 197 229
#     4   9  16  26  43  63  79 104 143 176 202 242
#     4   9  16  27  42  60  83 109 135 171 213 246
#     4   9  14  21  34  48  69 101 134 164 195 239
#     4   9  14  23  37  53  72 100 135 165 196 240
#
# _framework density 20.707833999999998
#
# number of rings (size 3 to 8) (size 9 to 14) (size 15 to 20)
#    0.000    3.000    2.857    0.000    0.000    0.571 
#    0.000    3.571    0.000    0.000    0.000    0.000 
#    0.000    0.000    0.000    7.714    0.000    9.000 
#
# Total GULP energy -156290.048096 kJ/mol
# GULP energy per Si atom -5581.787432 kJ/mol
# Density = 2.066070 g / cm^3
# Si number density = 20.707834 Si / 1000 Ang^3
#
#
#
# Elastic Constant Matrix: (Units=GPa)
#
#
# Indices 1 2 3 4 5 6 
#
# 1 233.2629 3.1279 138.9667 0.0000 16.4680 0.0000
# 2 3.1279 80.7007 1.3422 0.0000 -3.2912 0.0000
# 3 138.9667 1.3422 181.1568 0.0000 6.4157 0.0000
# 4 0.0000 0.0000 0.0000 -15.5344 0.0000 10.0386
# 5 16.4680 -3.2912 6.4157 0.0000 37.9716 0.0000
# 6 0.0000 0.0000 0.0000 10.0386 0.0000 0.0354
#
#
#
# Elastic Compliance Matrix: (Units=1/GPa)
#
#
# Indices 1 2 3 4 5 6 
#
# 1 0.008130 -0.000315 -0.006145 0.000000 -0.002515 0.000000
# 2 -0.000315 0.012451 0.000107 0.000000 0.001198 0.000000
# 3 -0.006145 0.000107 0.010199 0.000000 0.000951 0.000000
# 4 0.000000 0.000000 0.000000 -0.000349 0.000000 0.099075
# 5 -0.002515 0.001198 0.000951 0.000000 0.027369 0.000000
# 6 0.000000 0.000000 0.000000 0.099075 0.000000 0.153314
#
#
# Mechanical properties :
#
#
# Convention : Reuss Voigt Hill
#
# Bulk Modulus (GPa) = 55.32898 86.88822 71.10860
# Shear Modulus (GPa) = 21.75382 27.94010 24.84696
#
# Velocity S-wave (km/s) = 3.24468 3.67720 3.46769
# Velocity P-wave (km/s) = 6.38859 7.75108 7.10258
#
# Compressibility (1/GPa) = 0.01807371
#
# Stress axis : x y z
#
# Youngs Moduli (GPa) = 123.00742 80.31641 98.04522
#
# Poissons Ratio (x) = 0.02534 0.60247
# Poissons Ratio (y) = 0.03880 -0.01052
# Poissons Ratio (z) = 0.75586 -0.00862
#
# Static dielectric constant tensor:
#      x y z
#    x 1.716560 0.000000 0.020330 
#    y 0.000000 1.898360 0.000000 
#    z 0.020330 0.000000 1.692690 
# 
# From -- ./inp_files/181642.got.cif
#   From: 2010.05.17/outbox.cif.g08.bks.cpg/sg12_91_cif.got.tgz:181642.got - 2010.06.03 13:09:07.
