data_PCOD9223719
_publ_section_title
;
Structure prediction by ZEFSAII (Michael W. Deem and Ramdas Pophale) SiO2 
 PCOD9223719
Probable space group: C 2/M
;
_chemical_formula_sum "Si O2"
_cell_formula_units_Z 24
_cell_length_a 24.000000
_cell_length_b 12.000000
_cell_length_c 9.000000
_cell_angle_alpha 90.000000
_cell_angle_beta 110.000000
_cell_angle_gamma 90.000000
_cell_volume 2435.683273
_symmetry_space_group_name_H-M "C 2/M"
_symmetry_group_IT_number 12
_symmetry_cell_setting 'monoclinic'
loop_
_space_group_symop_operation_xyz
x,y,z
-x,y,-z
-x,-y,-z
x,-y,z
1/2+x,1/2+y,z
1/2-x,1/2+y,-z
1/2-x,1/2-y,-z
1/2+x,1/2-y,z
loop_
_atom_site_type_symbol
_atom_site_label
_atom_site_fract_x
_atom_site_fract_y
_atom_site_fract_z
Si Si1 0.249922 0.203706 0.267402
Si Si2 0.957847 0.368999 0.821639
Si Si3 0.822734 0.121898 0.532016
Si Si4 0.055199 0.789907 0.458923
Si Si5 0.872012 0.375865 0.266247
Si Si6 0.655198 0.127887 0.087956
O O1 0.204127 0.134117 0.327057
O O2 0.288643 0.283781 0.409319
O O3 0.301084 0.136584 0.229639
O O4 0.208399 0.285032 0.134665
O O5 0.965128 0.500000 0.792064
O O6 0.969235 0.291112 0.692145
O O7 0.889954 0.352419 0.816761
O O8 0.000000 0.344242 0.000000
O O9 0.893289 0.136974 0.572521
O O10 0.806174 0.000000 0.459862
O O11 0.091577 0.713607 0.608331
O O12 0.000000 0.841820 0.500000
O O13 0.889961 0.500000 0.329618
O O14 0.880739 0.363528 0.098345
O O15 0.676278 0.000000 0.118215
#
# Coordination Sequence:
#
# PCOD9223719 Si02
#       6
#     8   8   8   8   8   8
#     4  10  19  35  56  82 111 147 179 221 272 324
#     4  10  20  34  54  80 110 145 182 223 273 325
#     4  10  21  36  56  82 110 143 185 229 272 321
#     4  11  22  37  56  80 108 147 184 229 273 320
#     4  10  21  34  54  85 116 143 177 221 271 325
#     4  10  19  33  53  81 114 145 177 218 269 327
#
# _framework density 9.8534980000000001
#
# number of rings (size 3 to 8) (size 9 to 14) (size 15 to 20)
#    0.000    1.833    1.667    3.000    0.000    3.000 
#    0.000    0.000    0.000    1.500    0.000    0.000 
#    0.000    0.000    0.000    0.000    0.000    0.000 
#
# Total GULP energy -133881.019227 kJ/mol
# GULP energy per Si atom -5578.375801 kJ/mol
# Density = 0.983107 g / cm^3
# Si number density = 9.853498 Si / 1000 Ang^3
#
#
#
# Elastic Constant Matrix: (Units=GPa)
#
#
# Indices 1 2 3 4 5 6 
#
# 1 103.6680 16.1216 9.6356 0.0000 -10.9903 0.0000
# 2 16.1216 42.8679 4.6137 0.0000 -5.0701 0.0000
# 3 9.6356 4.6137 42.2141 0.0000 -5.5377 0.0000
# 4 0.0000 0.0000 0.0000 19.8208 0.0000 4.5452
# 5 -10.9903 -5.0701 -5.5377 0.0000 32.9750 0.0000
# 6 0.0000 0.0000 0.0000 4.5452 0.0000 13.4867
#
#
#
# Elastic Compliance Matrix: (Units=1/GPa)
#
#
# Indices 1 2 3 4 5 6 
#
# 1 0.010636 -0.003496 -0.001688 0.000000 0.002724 0.000000
# 2 -0.003496 0.025104 -0.001628 0.000000 0.002421 0.000000
# 3 -0.001688 -0.001628 0.024689 0.000000 0.003333 0.000000
# 4 0.000000 0.000000 0.000000 0.054678 0.000000 -0.018427
# 5 0.002724 0.002421 0.003333 0.000000 0.032166 0.000000
# 6 0.000000 0.000000 0.000000 -0.018427 0.000000 0.080357
#
#
# Mechanical properties :
#
#
# Convention : Reuss Voigt Hill
#
# Bulk Modulus (GPa) = 21.36565 27.72132 24.54348
# Shear Modulus (GPa) = 19.46623 23.81511 21.64067
#
# Velocity S-wave (km/s) = 3.14631 3.48006 3.31739
# Velocity P-wave (km/s) = 4.90553 5.49955 5.21101
#
# Compressibility (1/GPa) = 0.04680410
#
# Stress axis : x y z
#
# Youngs Moduli (GPa) = 94.02471 39.83462 40.50338
#
# Poissons Ratio (x) = 0.13926 0.06838
# Poissons Ratio (y) = 0.32870 0.06594
# Poissons Ratio (z) = 0.15874 0.06485
#
# Static dielectric constant tensor:
#      x y z
#    x 1.731520 0.000000 -0.012400 
#    y 0.000000 1.672270 0.000000 
#    z -0.012400 0.000000 1.678780 
# 
# From -- ./inp_files/94333.got.cif
#   From: 2010.05.17/outbox.ucp.g08.bks.cvg/sg12_48_cif.got.tgz:94333.got - 2010.06.11 11:47:21.
