data_PCOD9223535
_publ_section_title
;
Structure prediction by ZEFSAII (Michael W. Deem and Ramdas Pophale) SiO2 
 PCOD9223535
Probable space group: C 2/M
;
_chemical_formula_sum "Si O2"
_cell_formula_units_Z 28
_cell_length_a 18.000000
_cell_length_b 9.000000
_cell_length_c 27.000000
_cell_angle_alpha 90.000000
_cell_angle_beta 40.000000
_cell_angle_gamma 90.000000
_cell_volume 2811.553005
_symmetry_space_group_name_H-M "C 2/M"
_symmetry_group_IT_number 12
_symmetry_cell_setting 'monoclinic'
loop_
_space_group_symop_operation_xyz
x,y,z
-x,y,-z
-x,-y,-z
x,-y,z
1/2+x,1/2+y,z
1/2-x,1/2+y,-z
1/2-x,1/2-y,-z
1/2+x,1/2-y,z
loop_
_atom_site_type_symbol
_atom_site_label
_atom_site_fract_x
_atom_site_fract_y
_atom_site_fract_z
Si Si1 0.728005 0.328624 0.154865
Si Si2 0.912989 0.328617 0.132276
Si Si3 0.553965 0.328652 0.418513
Si Si4 0.630684 0.667964 0.558897
Si Si5 0.304870 0.168500 0.295479
Si Si6 0.336072 0.168671 0.991692
Si Si7 0.977633 0.167811 0.277823
O O1 0.708802 0.500000 0.183349
O O2 0.819697 0.256083 0.144347
O O3 0.782890 0.335807 0.073136
O O4 0.602810 0.257929 0.216031
O O5 0.930837 0.500000 0.104304
O O6 0.860343 0.335849 0.213279
O O7 0.038369 0.258128 0.069874
O O8 0.500000 0.335274 0.500000
O O9 0.571260 0.500000 0.390893
O O10 0.461354 0.256337 0.430083
O O11 0.679372 0.258564 0.356285
O O12 0.652429 0.500000 0.529386
O O13 0.750000 0.750000 0.500000
O O14 0.573865 0.661170 0.641405
O O15 0.389682 0.249691 0.288294
O O16 0.288803 0.000000 0.322258
O O17 0.350960 0.000000 0.965423
O O18 0.250000 0.250000 0.000000
O O19 0.992514 0.000000 0.250588
#
# Coordination Sequence:
#
# PCOD9223535 Si02
#       7
#     8   8   8   8   8   8   8
#     4   9  17  31  51  73  98 130 166 202 242 287
#     4   9  17  30  50  75  97 123 167 211 240 278
#     4   9  17  30  49  71  93 121 159 198 235 280
#     4  10  20  34  52  74  99 127 161 200 242 288
#     4  10  19  32  52  74  97 127 163 205 245 283
#     4  10  19  31  50  74 100 130 163 202 245 290
#     4  10  20  33  50  73 101 130 159 196 243 294
#
# _framework density 9.9589090000000002
#
# number of rings (size 3 to 8) (size 9 to 14) (size 15 to 20)
#    0.000    2.429    0.000    3.000    0.000    6.857 
#    0.000    0.714    0.000    8.571    0.000    0.000 
#    0.000    0.000    0.000    0.000    0.000    0.000 
#
# Total GULP energy -155933.867802 kJ/mol
# GULP energy per Si atom -5569.066707 kJ/mol
# Density = 0.993624 g / cm^3
# Si number density = 9.958909 Si / 1000 Ang^3
#
#
#
# Elastic Constant Matrix: (Units=GPa)
#
#
# Indices 1 2 3 4 5 6 
#
# 1 201.0035 39.5209 63.6572 0.0000 -47.2053 0.0002
# 2 39.5209 9.6648 10.7734 0.0002 -10.4324 0.0005
# 3 63.6572 10.7734 88.1506 0.0000 -39.0922 0.0000
# 4 0.0000 0.0002 0.0000 55.2144 0.0000 66.5207
# 5 -47.2053 -10.4324 -39.0922 0.0000 43.8144 0.0000
# 6 0.0002 0.0005 0.0000 66.5207 0.0000 126.2652
#
#
#
# Elastic Compliance Matrix: (Units=1/GPa)
#
#
# Indices 1 2 3 4 5 6 
#
# 1 0.029353 -0.113821 -0.008737 -0.000001 -0.003272 0.000001
# 2 -0.113821 0.581408 0.030028 0.000003 0.042597 -0.000004
# 3 -0.008737 0.030028 0.021478 0.000000 0.016900 0.000000
# 4 -0.000001 0.000003 0.000000 0.049581 0.000000 -0.026121
# 5 -0.003272 0.042597 0.016900 0.000000 0.044519 0.000000
# 6 0.000001 -0.000004 0.000000 -0.026121 0.000000 0.021681
#
#
# Mechanical properties :
#
#
# Convention : Reuss Voigt Hill
#
# Bulk Modulus (GPa) = 2.23624 58.52464 30.38044
# Shear Modulus (GPa) = 4.62047 57.38328 31.00187
#
# Velocity S-wave (km/s) = 1.52473 5.37332 3.94952
# Velocity P-wave (km/s) = 2.05546 8.24279 6.00702
#
# Compressibility (1/GPa) = 0.44717884
#
# Stress axis : x y z
#
# Youngs Moduli (GPa) = 34.06818 1.71996 46.55822
#
# Poissons Ratio (x) = 0.19577 0.40679
# Poissons Ratio (y) = 3.87768 -1.39805
# Poissons Ratio (z) = 0.29767 -0.05165
#
# Static dielectric constant tensor:
#      x y z
#    x 1.739320 0.000000 -0.048430 
#    y 0.000000 1.719560 0.000000 
#    z -0.048430 0.000000 1.699130 
# 
# From -- ./inp_files/268881.got.cif
#   From: 2010.05.17/outbox.ucp.g08.bks.cvg/sg12_135_cif.got.tgz:268881.got - 2010.06.11 11:47:21.
