data_PCOD9223667
_publ_section_title
;
Structure prediction by ZEFSAII (Michael W. Deem and Ramdas Pophale) SiO2 
 PCOD9223667
Probable space group: C 2/M
;
_chemical_formula_sum "Si O2"
_cell_formula_units_Z 28
_cell_length_a 30.000000
_cell_length_b 9.000000
_cell_length_c 21.000000
_cell_angle_alpha 90.000000
_cell_angle_beta 150.000000
_cell_angle_gamma 90.000000
_cell_volume 2835.000000
_symmetry_space_group_name_H-M "C 2/M"
_symmetry_group_IT_number 12
_symmetry_cell_setting 'monoclinic'
loop_
_space_group_symop_operation_xyz
x,y,z
-x,y,-z
-x,-y,-z
x,-y,z
1/2+x,1/2+y,z
1/2-x,1/2+y,-z
1/2-x,1/2-y,-z
1/2+x,1/2-y,z
loop_
_atom_site_type_symbol
_atom_site_label
_atom_site_fract_x
_atom_site_fract_y
_atom_site_fract_z
Si Si1 0.761754 0.669692 0.115800
Si Si2 0.647084 0.666861 0.092349
Si Si3 0.116140 0.832475 0.822961
Si Si4 0.024161 0.667077 0.121924
Si Si5 0.194203 0.833479 0.484116
Si Si6 0.200497 0.835341 0.297091
Si Si7 0.476952 0.834463 0.731494
O O1 0.791300 0.500000 0.166379
O O2 0.705478 0.726233 0.106541
O O3 0.840523 0.773788 0.188519
O O4 0.693363 0.660367 0.972111
O O5 0.615932 0.500000 0.034524
O O6 0.703499 0.654760 0.225606
O O7 0.563270 0.758916 0.013959
O O8 0.049206 0.712064 0.769508
O O9 0.079578 0.000000 0.771630
O O10 0.042195 0.500000 0.122898
O O11 0.110455 0.764553 0.214369
O O12 0.995332 0.660055 0.160523
O O13 0.250000 0.750000 0.500000
O O14 0.220087 0.766359 0.583008
O O15 0.092132 0.799382 0.350534
O O16 0.221361 0.000000 0.514061
O O17 0.208013 0.000000 0.333986
O O18 0.439746 0.000000 0.671465
#
# Coordination Sequence:
#
# PCOD9223667 Si02
#       7
#     8   8   8   8   8   8   8
#     4   9  18  33  53  78 112 145 180 222 270 328
#     4  10  21  37  56  80 112 152 188 223 273 332
#     4  10  19  32  54  82 111 143 182 225 275 326
#     4  11  22  34  53  81 114 149 185 226 274 326
#     4  12  24  39  59  81 108 144 186 232 277 322
#     4  11  23  38  57  79 110 150 190 228 272 328
#     4  11  22  36  56  82 113 146 183 226 276 327
#
# _framework density 9.8765429999999999
#
# number of rings (size 3 to 8) (size 9 to 14) (size 15 to 20)
#    0.000    1.429    2.857    3.429    0.000    5.143 
#    0.000    0.000    0.000    0.857    0.000    6.000 
#    0.000    0.000    0.000    0.000    0.000    0.000 
#
# Total GULP energy -155873.191383 kJ/mol
# GULP energy per Si atom -5566.899692 kJ/mol
# Density = 0.985406 g / cm^3
# Si number density = 9.876543 Si / 1000 Ang^3
#
#
#
# Elastic Constant Matrix: (Units=GPa)
#
#
# Indices 1 2 3 4 5 6 
#
# 1 64.4681 9.5798 -2.7341 0.0000 1.3920 0.0000
# 2 9.5798 79.4193 3.1891 0.0000 -10.2377 0.0000
# 3 -2.7341 3.1891 19.2688 0.0000 -14.9345 0.0000
# 4 0.0000 0.0000 0.0000 -40.9773 0.0000 92.2738
# 5 1.3920 -10.2377 -14.9345 0.0000 9.4646 0.0000
# 6 0.0000 0.0000 0.0000 92.2738 0.0000 -105.8550
#
#
#
# Elastic Compliance Matrix: (Units=1/GPa)
#
#
# Indices 1 2 3 4 5 6 
#
# 1 0.015916 -0.001882 0.003687 0.000000 0.001442 0.000000
# 2 -0.001882 0.009528 -0.028514 0.000000 -0.034410 0.000000
# 3 0.003687 -0.028514 -0.147156 0.000000 -0.263586 0.000000
# 4 0.000000 0.000000 0.000000 0.025344 0.000000 0.022092
# 5 0.001442 -0.034410 -0.263586 0.000000 -0.347695 0.000000
# 6 0.000000 0.000000 0.000000 0.022092 0.000000 0.009811
#
#
# Mechanical properties :
#
#
# Convention : Reuss Voigt Hill
#
# Bulk Modulus (GPa) = -5.71011 20.35843 7.32416
# Shear Modulus (GPa) = -11.38405 -17.26545 -14.32475
#
# Velocity S-wave (km/s) = -2.40327 -2.95966 -2.69586
# Velocity P-wave (km/s) = 3.25545 1.16218 2.44424
#
# Compressibility (1/GPa) = -0.17512800
#
# Stress axis : x y z
#
# Youngs Moduli (GPa) = 62.82792 104.95655 -6.79553
#
# Poissons Ratio (x) = 0.19754 0.02506
# Poissons Ratio (y) = 0.11825 -0.19377
# Poissons Ratio (z) = -0.23167 2.99270
#
# Static dielectric constant tensor:
#      x y z
#    x 1.856580 0.000000 0.029650 
#    y 0.000000 1.809680 0.000000 
#    z 0.029650 0.000000 1.580850 
# 
# From -- ./inp_files/237782.got.cif
#   From: 2010.05.17/outbox.ucp.g08.bks.cvg/sg12_119_cif.got.tgz:237782.got - 2010.06.11 11:47:21.
