data_PCOD9223522
_publ_section_title
;
Structure prediction by ZEFSAII (Michael W. Deem and Ramdas Pophale) SiO2 
 PCOD9223522
Probable space group: C 2/M
;
_chemical_formula_sum "Si O2"
_cell_formula_units_Z 32
_cell_length_a 24.000000
_cell_length_b 9.000000
_cell_length_c 21.000000
_cell_angle_alpha 90.000000
_cell_angle_beta 50.000000
_cell_angle_gamma 90.000000
_cell_volume 3474.777594
_symmetry_space_group_name_H-M "C 2/M"
_symmetry_group_IT_number 12
_symmetry_cell_setting 'monoclinic'
loop_
_space_group_symop_operation_xyz
x,y,z
-x,y,-z
-x,-y,-z
x,-y,z
1/2+x,1/2+y,z
1/2-x,1/2+y,-z
1/2-x,1/2-y,-z
1/2+x,1/2-y,z
loop_
_atom_site_type_symbol
_atom_site_label
_atom_site_fract_x
_atom_site_fract_y
_atom_site_fract_z
Si Si1 0.649207 0.324422 0.120715
Si Si2 0.750587 0.678034 0.597296
Si Si3 0.053960 0.324399 0.845901
Si Si4 0.913421 0.828237 0.968775
Si Si5 0.637853 0.177606 0.586769
Si Si6 0.757783 0.828813 0.129897
Si Si7 0.707796 0.680145 0.764925
Si Si8 0.507714 0.176192 0.251250
O O1 0.657331 0.500000 0.111450
O O2 0.624980 0.272940 0.068212
O O3 0.719927 0.256319 0.100638
O O4 0.579204 0.270575 0.210988
O O5 0.743876 0.500000 0.599005
O O6 0.682628 0.747081 0.610369
O O7 0.822254 0.722754 0.506746
O O8 0.749337 0.723119 0.670607
O O9 0.063858 0.500000 0.844288
O O10 0.126644 0.243015 0.814597
O O11 0.030232 0.291186 0.789728
O O12 0.982598 0.267941 0.935334
O O13 0.936872 0.000000 0.942312
O O14 0.845472 0.826245 0.065081
O O15 0.553721 0.212032 0.652695
O O16 0.644559 0.000000 0.590284
O O17 0.745189 0.767443 0.209311
O O18 0.734823 0.000000 0.140067
O O19 0.703064 0.500000 0.772953
O O20 0.524914 0.000000 0.238364
#
# Coordination Sequence:
#
# PCOD9223522 Si02
#       8
#     8   8   8   8   8   8   8   8
#     4  10  20  33  52  75  95 118 159 210 250 283
#     4   9  17  28  46  72 101 129 158 196 234 278
#     4  10  19  31  49  73 100 130 161 198 243 286
#     4   9  19  35  53  72  95 124 159 204 250 291
#     4   9  16  28  47  73 101 127 158 194 238 284
#     4  10  21  36  52  69  94 131 167 197 241 295
#     4  10  20  33  49  70 100 135 165 194 233 290
#     4   9  17  30  49  72  99 128 157 193 241 291
#
# _framework density 9.2092220000000005
#
# number of rings (size 3 to 8) (size 9 to 14) (size 15 to 20)
#    0.000    2.500    1.250    1.125    0.000    3.000 
#    0.000    2.500    0.000    0.750    0.000    5.250 
#    0.000    0.000    0.000    0.000    0.000    0.000 
#
# Total GULP energy -178155.503426 kJ/mol
# GULP energy per Si atom -5567.359482 kJ/mol
# Density = 0.918826 g / cm^3
# Si number density = 9.209222 Si / 1000 Ang^3
#
#
#
# Elastic Constant Matrix: (Units=GPa)
#
#
# Indices 1 2 3 4 5 6 
#
# 1 -20.9768 5.7267 5.8137 0.0002 5.9438 -0.0010
# 2 5.7267 -1.8997 0.4485 0.0012 6.3930 -0.0024
# 3 5.8137 0.4485 49.1954 0.0002 7.0626 -0.0005
# 4 0.0002 0.0012 0.0002 8.9754 -0.0003 -8.8232
# 5 5.9438 6.3930 7.0626 -0.0003 16.1753 0.0005
# 6 -0.0010 -0.0024 -0.0005 -8.8232 0.0005 21.7771
#
#
#
# Elastic Compliance Matrix: (Units=1/GPa)
#
#
# Indices 1 2 3 4 5 6 
#
# 1 -0.048480 -0.037768 0.001465 0.000001 0.032102 -0.000007
# 2 -0.037768 -0.249423 -0.010037 0.000010 0.116841 -0.000028
# 3 0.001465 -0.010037 0.021074 0.000000 -0.005773 0.000000
# 4 0.000001 0.000010 0.000000 0.185166 -0.000003 0.075022
# 5 0.032102 0.116841 -0.005773 -0.000003 0.006368 0.000013
# 6 -0.000007 -0.000028 0.000000 0.075022 0.000013 0.076316
#
#
# Mechanical properties :
#
#
# Convention : Reuss Voigt Hill
#
# Bulk Modulus (GPa) = -2.70630 5.58854 1.44112
# Shear Modulus (GPa) = -126.67869 10.34090 -58.16889
#
# Velocity S-wave (km/s) = -8.30226 2.37205 -5.62587
# Velocity P-wave (km/s) = 9.66312 3.24699 6.43556
#
# Compressibility (1/GPa) = -0.36950782
#
# Stress axis : x y z
#
# Youngs Moduli (GPa) = -20.62693 -4.00926 47.45124
#
# Poissons Ratio (x) = -0.15142 -0.06951
# Poissons Ratio (y) = -0.77904 0.47625
# Poissons Ratio (z) = 0.03022 -0.04024
#
# Static dielectric constant tensor:
#      x y z
#    x 1.595530 0.000000 0.011600 
#    y 0.000000 1.614860 0.000000 
#    z 0.011600 0.000000 1.797070 
# 
# From -- ./inp_files/319851.got.cif
#   From: 2010.05.17/outbox.ucp.g08.bks.cvg/sg12_160_cif.got.tgz:319851.got - 2010.06.11 11:47:21.
