data_PCOD9223794
_publ_section_title
;
Structure prediction by ZEFSAII (Michael W. Deem and Ramdas Pophale) SiO2 
 PCOD9223794
Probable space group: C 2/M
;
_chemical_formula_sum "Si O2"
_cell_formula_units_Z 24
_cell_length_a 21.000000
_cell_length_b 9.000000
_cell_length_c 15.000000
_cell_angle_alpha 90.000000
_cell_angle_beta 110.000000
_cell_angle_gamma 90.000000
_cell_volume 2664.028580
_symmetry_space_group_name_H-M "C 2/M"
_symmetry_group_IT_number 12
_symmetry_cell_setting 'monoclinic'
loop_
_space_group_symop_operation_xyz
x,y,z
-x,y,-z
-x,-y,-z
x,-y,z
1/2+x,1/2+y,z
1/2-x,1/2+y,-z
1/2-x,1/2-y,-z
1/2+x,1/2-y,z
loop_
_atom_site_type_symbol
_atom_site_label
_atom_site_fract_x
_atom_site_fract_y
_atom_site_fract_z
Si Si1 0.421860 0.177959 0.448125
Si Si2 0.824075 0.319528 0.758392
Si Si3 0.179886 0.677815 0.934382
Si Si4 0.678794 0.822020 0.441103
Si Si5 0.076736 0.319306 0.040405
Si Si6 0.328352 0.677855 0.258457
O O1 0.500000 0.215487 0.500000
O O2 0.378602 0.212489 0.515313
O O3 0.385635 0.266172 0.352388
O O4 0.417316 0.000000 0.428975
O O5 0.825275 0.500000 0.762865
O O6 0.841306 0.272792 0.667139
O O7 0.878562 0.264590 0.855350
O O8 0.746774 0.277096 0.743109
O O9 0.187626 0.500000 0.935820
O O10 0.162339 0.743620 0.830874
O O11 0.250000 0.750000 0.000000
O O12 0.120127 0.715238 0.974091
O O13 0.750000 0.750000 0.500000
O O14 0.687964 0.000000 0.444267
O O15 0.073777 0.500000 0.045397
O O16 0.000000 0.264359 0.000000
O O17 0.329075 0.500000 0.250430
#
# Coordination Sequence:
#
# PCOD9223794 Si02
#       6
#     8   8   8   8   8   8
#     4  10  22  38  56  85 119 147 183 235 290 339
#     4   9  17  31  52  80 108 140 183 228 273 326
#     4  11  21  35  58  88 116 148 190 234 281 335
#     4  10  19  33  56  81 109 143 183 232 279 332
#     4   9  18  33  55  83 112 143 183 229 277 330
#     4  11  21  36  58  83 113 150 193 235 280 337
#
# _framework density 9.0089120000000005
#
# number of rings (size 3 to 8) (size 9 to 14) (size 15 to 20)
#    0.000    2.000    3.333    1.000    0.000    1.667 
#    0.000    5.000    0.000    2.000    0.000    0.000 
#    0.000    0.000    0.000    0.000    0.000    0.000 
#
# Total GULP energy -133886.039587 kJ/mol
# GULP energy per Si atom -5578.584983 kJ/mol
# Density = 0.898841 g / cm^3
# Si number density = 9.008912 Si / 1000 Ang^3
#
#
#
# Elastic Constant Matrix: (Units=GPa)
#
#
# Indices 1 2 3 4 5 6 
#
# 1 162.4817 53.9447 99.2458 0.0000 8.4863 0.0000
# 2 53.9447 26.8825 52.4633 0.0000 -5.3868 0.0000
# 3 99.2458 52.4633 167.8299 0.0000 -10.0058 0.0000
# 4 0.0000 0.0000 0.0000 25.3985 0.0000 2.6659
# 5 8.4863 -5.3868 -10.0058 0.0000 26.4202 0.0000
# 6 0.0000 0.0000 0.0000 2.6659 0.0000 19.2378
#
#
#
# Elastic Compliance Matrix: (Units=1/GPa)
#
#
# Indices 1 2 3 4 5 6 
#
# 1 0.025701 -0.060423 0.002521 0.000000 -0.019620 0.000000
# 2 -0.060423 0.239287 -0.035812 0.000000 0.054634 0.000000
# 3 0.002521 -0.035812 0.015530 0.000000 -0.002230 0.000000
# 4 0.000000 0.000000 0.000000 0.039954 0.000000 -0.005537
# 5 -0.019620 0.054634 -0.002230 0.000000 0.054447 0.000000
# 6 0.000000 0.000000 0.000000 -0.005537 0.000000 0.052748
#
#
# Mechanical properties :
#
#
# Convention : Reuss Voigt Hill
#
# Bulk Modulus (GPa) = 10.74260 85.38907 48.06583
# Shear Modulus (GPa) = 7.73843 24.31399 16.02621
#
# Velocity S-wave (km/s) = 2.07466 3.67746 2.98562
# Velocity P-wave (km/s) = 3.42258 8.09481 6.21450
#
# Compressibility (1/GPa) = 0.09308738
#
# Stress axis : x y z
#
# Youngs Moduli (GPa) = 38.90960 4.17908 64.39225
#
# Poissons Ratio (x) = 0.25251 -0.16230
# Poissons Ratio (y) = 2.35105 2.30604
# Poissons Ratio (z) = -0.09807 0.14966
#
# Static dielectric constant tensor:
#      x y z
#    x 1.594190 0.000000 0.012180 
#    y 0.000000 1.604440 0.000000 
#    z 0.012180 0.000000 1.794140 
# 
# From -- ./inp_files/230358.got.cif
#   From: 2010.05.17/outbox.ucp.g08.bks.cvg/sg12_116_cif.got.tgz:230358.got - 2010.06.11 11:47:21.
