data_PCOD9223566
_publ_section_title
;
Structure prediction by ZEFSAII (Michael W. Deem and Ramdas Pophale) SiO2 
 PCOD9223566
Probable space group: C 2/M
;
_chemical_formula_sum "Si O2"
_cell_formula_units_Z 32
_cell_length_a 24.000000
_cell_length_b 9.000000
_cell_length_c 21.000000
_cell_angle_alpha 90.000000
_cell_angle_beta 50.000000
_cell_angle_gamma 90.000000
_cell_volume 3474.777594
_symmetry_space_group_name_H-M "C 2/M"
_symmetry_group_IT_number 12
_symmetry_cell_setting 'monoclinic'
loop_
_space_group_symop_operation_xyz
x,y,z
-x,y,-z
-x,-y,-z
x,-y,z
1/2+x,1/2+y,z
1/2-x,1/2+y,-z
1/2-x,1/2-y,-z
1/2+x,1/2-y,z
loop_
_atom_site_type_symbol
_atom_site_label
_atom_site_fract_x
_atom_site_fract_y
_atom_site_fract_z
Si Si1 0.402820 0.170065 0.620185
Si Si2 0.521713 0.323326 0.621064
Si Si3 0.631483 0.321534 0.091706
Si Si4 0.258218 0.825720 0.085999
Si Si5 0.666345 0.324670 0.451075
Si Si6 0.524572 0.680171 0.765504
Si Si7 0.314573 0.677546 0.313186
Si Si8 0.241042 0.167828 0.788107
O O1 0.469442 0.236887 0.610989
O O2 0.378363 0.265991 0.577461
O O3 0.328073 0.167850 0.714905
O O4 0.418177 0.000000 0.589706
O O5 0.510037 0.500000 0.619092
O O6 0.607732 0.294838 0.548933
O O7 0.507015 0.287138 0.704894
O O8 0.628143 0.500000 0.091620
O O9 0.676187 0.283154 0.123640
O O10 0.548761 0.266131 0.145855
O O11 0.684266 0.261519 0.998844
O O12 0.273970 0.784999 0.146615
O O13 0.265886 0.000000 0.068623
O O14 0.677865 0.500000 0.436604
O O15 0.744615 0.248018 0.399315
O O16 0.527855 0.500000 0.769317
O O17 0.604833 0.732919 0.727370
O O18 0.312011 0.500000 0.326011
O O19 0.296919 0.701514 0.251328
O O20 0.219406 0.000000 0.823083
#
# Coordination Sequence:
#
# PCOD9223566 Si02
#       8
#     8   8   8   8   8   8   8   8
#     4  10  20  33  51  76 105 135 169 211 255 301
#     4  10  20  33  51  76 104 134 169 210 257 308
#     4   9  18  33  53  76 102 131 162 200 247 299
#     4  10  19  31  52  80 105 130 160 197 247 304
#     4  10  20  33  50  74 104 136 169 209 258 306
#     4   9  18  35  56  74  97 134 176 212 251 301
#     4   9  19  36  55  73  97 133 176 217 251 292
#     4   9  18  32  50  73  99 129 167 207 247 293
#
# _framework density 9.2092220000000005
#
# number of rings (size 3 to 8) (size 9 to 14) (size 15 to 20)
#    0.000    2.500    0.000    3.000    0.000    7.000 
#    0.000    2.500    0.000    3.750    0.000    0.000 
#    0.000    0.000    0.000    0.000    0.000    0.000 
#
# Total GULP energy -178265.798778 kJ/mol
# GULP energy per Si atom -5570.806212 kJ/mol
# Density = 0.918826 g / cm^3
# Si number density = 9.209222 Si / 1000 Ang^3
#
#
#
# Elastic Constant Matrix: (Units=GPa)
#
#
# Indices 1 2 3 4 5 6 
#
# 1 64.4586 14.4150 37.8267 0.0004 -46.7744 -0.0004
# 2 14.4150 6.2498 19.3686 0.0010 -12.5047 -0.0020
# 3 37.8267 19.3686 53.1410 0.0001 -24.6845 -0.0003
# 4 0.0004 0.0010 0.0001 18.7498 -0.0002 -7.7498
# 5 -46.7744 -12.5047 -24.6845 -0.0002 23.0373 0.0004
# 6 -0.0004 -0.0020 -0.0003 -7.7498 0.0004 18.5849
#
#
#
# Elastic Compliance Matrix: (Units=1/GPa)
#
#
# Indices 1 2 3 4 5 6 
#
# 1 -18.801551 82.563619-27.124722 -0.000697-22.422662 0.008103
# 2 82.563619**********119.232733 0.003065 98.303224 -0.035633
# 3 -27.124722119.232733-39.121681 -0.001006-32.272503 0.011701
# 4 -0.000697 0.003065 -0.001006 0.064441 -0.000829 0.026872
# 5 -22.422662 98.303224-32.272503 -0.000829-26.703831 0.009648
# 6 0.008103 -0.035633 0.011701 0.026872 0.009648 0.065009
#
#
# Mechanical properties :
#
#
# Convention : Reuss Voigt Hill
#
# Bulk Modulus (GPa) = -0.01395 29.67445 14.83025
# Shear Modulus (GPa) = -0.00609 15.55699 7.77545
#
# Velocity S-wave (km/s) = -0.05757 2.90943 2.05687
# Velocity P-wave (km/s) = 0.10959 5.23761 3.70274
#
# Compressibility (1/GPa) = -71.67710316
#
# Stress axis : x y z
#
# Youngs Moduli (GPa) = -0.05319 -0.00275 -0.02556
#
# Poissons Ratio (x) = 0.22739 -0.69334
# Poissons Ratio (y) = 4.39132 3.04774
# Poissons Ratio (z) = -1.44269 0.32838
#
# Static dielectric constant tensor:
#      x y z
#    x 1.612750 0.000000 -0.003210 
#    y 0.000000 1.630260 0.000000 
#    z -0.003210 0.000000 1.675940 
# 
# From -- ./inp_files/324166.got.cif
#   From: 2010.05.17/outbox.ucp.g08.bks.cvg/sg12_163_cif.got.tgz:324166.got - 2010.06.11 11:47:21.
