data_PCOD9223942
_publ_section_title
;
Structure prediction by ZEFSAII (Michael W. Deem and Ramdas Pophale) SiO2 
 PCOD9223942
Probable space group: C 2/M
;
_chemical_formula_sum "Si O2"
_cell_formula_units_Z 32
_cell_length_a 15.000000
_cell_length_b 27.000000
_cell_length_c 12.000000
_cell_angle_alpha 90.000000
_cell_angle_beta 40.000000
_cell_angle_gamma 90.000000
_cell_volume 3123.947783
_symmetry_space_group_name_H-M "C 2/M"
_symmetry_group_IT_number 12
_symmetry_cell_setting 'monoclinic'
loop_
_space_group_symop_operation_xyz
x,y,z
-x,y,-z
-x,-y,-z
x,-y,z
1/2+x,1/2+y,z
1/2-x,1/2+y,-z
1/2-x,1/2-y,-z
1/2+x,1/2-y,z
loop_
_atom_site_type_symbol
_atom_site_label
_atom_site_fract_x
_atom_site_fract_y
_atom_site_fract_z
Si Si1 0.370852 0.296771 0.041034
Si Si2 0.485264 0.663944 0.702021
Si Si3 0.310725 0.151459 0.377803
Si Si4 0.714476 0.183289 0.845270
Si Si5 0.453812 0.556029 0.832452
Si Si6 0.726281 0.056456 0.440452
Si Si7 0.673405 0.942512 0.237561
Si Si8 0.097791 0.654692 0.197354
O O1 0.336895 0.240157 0.104400
O O2 0.215003 0.321638 0.170020
O O3 0.500000 0.314081 0.000000
O O4 0.434637 0.304846 0.857628
O O5 0.651723 0.671078 0.539353
O O6 0.381862 0.679799 0.701346
O O7 0.453874 0.605046 0.754665
O O8 0.336584 0.158050 0.220574
O O9 0.302204 0.095655 0.434761
O O10 0.438560 0.174007 0.329910
O O11 0.658516 0.159126 0.013846
O O12 0.436583 0.500000 0.798806
O O13 0.606943 0.556898 0.737611
O O14 0.331452 0.561622 0.039752
O O15 0.666090 0.068677 0.376042
O O16 0.688123 0.000000 0.506603
O O17 0.591703 0.902055 0.244344
O O18 0.632010 0.000000 0.261672
#
# Coordination Sequence:
#
# PCOD9223942 Si02
#       8
#     8   8   8   8   8   8   8   8
#     4  11  24  43  69  90 122 164 217 266 324 382
#     4  10  21  40  67  95 128 164 216 262 318 377
#     4  11  24  40  66  94 135 168 212 259 321 381
#     4  11  23  47  66  88 120 175 216 268 319 378
#     4   9  16  31  60  96 128 162 208 259 307 370
#     4   9  20  36  59  94 136 174 207 256 321 378
#     4  10  19  34  61  95 131 169 212 260 314 378
#     4  11  23  40  66  95 128 170 214 261 319 380
#
# _framework density 10.243449
#
# number of rings (size 3 to 8) (size 9 to 14) (size 15 to 20)
#    0.000    1.750    2.500    3.375    3.500    2.500 
#    0.000    9.375    0.000    4.500    0.000    0.000 
#    0.000    0.000    0.000    0.000    0.000    0.000 
#
# Total GULP energy -178378.130643 kJ/mol
# GULP energy per Si atom -5574.316583 kJ/mol
# Density = 1.022013 g / cm^3
# Si number density = 10.243449 Si / 1000 Ang^3
#
#
#
# Elastic Constant Matrix: (Units=GPa)
#
#
# Indices 1 2 3 4 5 6 
#
# 1 160.3459 41.6678 32.9885 0.0000 -22.3701 0.0000
# 2 41.6678 76.2808 36.1276 0.0000 3.0211 0.0000
# 3 32.9885 36.1276 76.7176 0.0000 -17.5709 0.0000
# 4 0.0000 0.0000 0.0000 19.5400 0.0000 -4.1653
# 5 -22.3701 3.0211 -17.5709 0.0000 41.0025 0.0000
# 6 0.0000 0.0000 0.0000 -4.1653 0.0000 29.4941
#
#
#
# Elastic Compliance Matrix: (Units=1/GPa)
#
#
# Indices 1 2 3 4 5 6 
#
# 1 0.008105 -0.004452 -0.000334 0.000000 0.004607 0.000000
# 2 -0.004452 0.020361 -0.009507 0.000000 -0.008003 0.000000
# 3 -0.000334 -0.009507 0.019708 0.000000 0.008964 0.000000
# 4 0.000000 0.000000 0.000000 0.052766 0.000000 0.007452
# 5 0.004607 -0.008003 0.008964 0.000000 0.031333 0.000000
# 6 0.000000 0.000000 0.000000 0.007452 0.000000 0.034957
#
#
# Mechanical properties :
#
#
# Convention : Reuss Voigt Hill
#
# Bulk Modulus (GPa) = 51.04782 59.43467 55.24124
# Shear Modulus (GPa) = 24.71043 31.51135 28.11089
#
# Velocity S-wave (km/s) = 3.47675 3.92614 3.70826
# Velocity P-wave (km/s) = 6.41002 7.04463 6.73481
#
# Compressibility (1/GPa) = 0.01958948
#
# Stress axis : x y z
#
# Youngs Moduli (GPa) = 123.38638 49.11435 50.74001
#
# Poissons Ratio (x) = 0.21863 0.01693
# Poissons Ratio (y) = 0.54926 0.48238
# Poissons Ratio (z) = 0.04116 0.46693
#
# Static dielectric constant tensor:
#      x y z
#    x 1.750290 0.000000 -0.069660 
#    y 0.000000 1.744870 0.000000 
#    z -0.069660 0.000000 1.794010 
# 
# From -- ./inp_files/149715.got.cif
#   From: 2010.05.17/outbox.ucp.g08.bks.cvg/sg12_75_cif.got.tgz:149715.got - 2010.06.11 11:47:21.
