data_PCOD9223769
_publ_section_title
;
Structure prediction by ZEFSAII (Michael W. Deem and Ramdas Pophale) SiO2 
 PCOD9223769
Probable space group: C 2/M
;
_chemical_formula_sum "Si O2"
_cell_formula_units_Z 28
_cell_length_a 30.000000
_cell_length_b 9.000000
_cell_length_c 12.000000
_cell_angle_alpha 90.000000
_cell_angle_beta 120.000000
_cell_angle_gamma 90.000000
_cell_volume 2805.922308
_symmetry_space_group_name_H-M "C 2/M"
_symmetry_group_IT_number 12
_symmetry_cell_setting 'monoclinic'
loop_
_space_group_symop_operation_xyz
x,y,z
-x,y,-z
-x,-y,-z
x,-y,z
1/2+x,1/2+y,z
1/2-x,1/2+y,-z
1/2-x,1/2-y,-z
1/2+x,1/2-y,z
loop_
_atom_site_type_symbol
_atom_site_label
_atom_site_fract_x
_atom_site_fract_y
_atom_site_fract_z
Si Si1 0.347309 0.327095 0.131656
Si Si2 0.546715 0.327223 0.875476
Si Si3 0.406570 0.822746 0.857301
Si Si4 0.553134 0.178748 0.334584
Si Si5 0.866627 0.679789 0.392798
Si Si6 0.223710 0.670690 0.570882
Si Si7 0.812219 0.172763 0.859168
O O1 0.337185 0.500000 0.144690
O O2 0.401180 0.314397 0.131673
O O3 0.352170 0.241749 0.253928
O O4 0.308459 0.277650 0.983573
O O5 0.535293 0.500000 0.878159
O O6 0.502178 0.248518 0.751693
O O7 0.554601 0.249637 0.004911
O O8 0.416164 0.778280 0.741030
O O9 0.351988 0.768491 0.836852
O O10 0.410538 0.000000 0.868932
O O11 0.578666 0.220804 0.484388
O O12 0.550477 0.000000 0.329681
O O13 0.862745 0.500000 0.382726
O O14 0.828464 0.733781 0.443375
O O15 0.214451 0.500000 0.525271
O O16 0.250000 0.750000 0.500000
O O17 0.260470 0.672928 0.724576
O O18 0.830873 0.000000 0.885648
#
# Coordination Sequence:
#
# PCOD9223769 Si02
#       7
#     8   8   8   8   8   8   8
#     4   9  20  38  55  76 106 139 179 224 269 318
#     4  10  21  36  55  79 108 141 179 224 270 319
#     4  10  19  33  55  82 111 141 177 221 268 322
#     4  10  21  35  51  76 110 144 179 222 271 319
#     4  10  22  38  55  78 109 143 180 224 268 314
#     4  10  21  38  59  84 113 143 177 218 267 320
#     4   9  19  36  57  80 110 145 178 220 269 316
#
# _framework density 9.9788940000000004
#
# number of rings (size 3 to 8) (size 9 to 14) (size 15 to 20)
#    0.000    2.286    0.000    3.000    0.000    9.714 
#    0.000    2.857    0.000    0.000    0.000    0.000 
#    0.000    0.000    0.000    0.000    0.000    0.000 
#
# Total GULP energy -156132.151226 kJ/mol
# GULP energy per Si atom -5576.148258 kJ/mol
# Density = 0.995618 g / cm^3
# Si number density = 9.978894 Si / 1000 Ang^3
#
#
#
# Elastic Constant Matrix: (Units=GPa)
#
#
# Indices 1 2 3 4 5 6 
#
# 1 21.1047 6.0725 12.7715 0.0000 -3.4639 0.0000
# 2 6.0725 26.2874 27.4960 0.0000 -9.5697 0.0000
# 3 12.7715 27.4960 109.5695 0.0000 -13.8212 0.0000
# 4 0.0000 0.0000 0.0000 31.3128 0.0000 -8.0531
# 5 -3.4639 -9.5697 -13.8212 0.0000 26.1524 0.0000
# 6 0.0000 0.0000 0.0000 -8.0531 0.0000 22.0102
#
#
#
# Elastic Compliance Matrix: (Units=1/GPa)
#
#
# Indices 1 2 3 4 5 6 
#
# 1 0.052215 -0.007028 -0.004044 0.000000 0.002207 0.000000
# 2 -0.007028 0.056930 -0.011739 0.000000 0.013697 0.000000
# 3 -0.004044 -0.011739 0.012787 0.000000 0.001926 0.000000
# 4 0.000000 0.000000 0.000000 0.035253 0.000000 0.012898
# 5 0.002207 0.013697 0.001926 0.000000 0.044560 0.000000
# 6 0.000000 0.000000 0.000000 0.012898 0.000000 0.050153
#
#
# Mechanical properties :
#
#
# Convention : Reuss Voigt Hill
#
# Bulk Modulus (GPa) = 13.10481 27.73795 20.42138
# Shear Modulus (GPa) = 15.48197 23.26985 19.37591
#
# Velocity S-wave (km/s) = 2.78823 3.41831 3.11922
# Velocity P-wave (km/s) = 4.11657 5.43215 4.81946
#
# Compressibility (1/GPa) = 0.07630785
#
# Stress axis : x y z
#
# Youngs Moduli (GPa) = 19.15174 17.56552 78.20482
#
# Poissons Ratio (x) = 0.12346 0.31627
# Poissons Ratio (y) = 0.13460 0.91807
# Poissons Ratio (z) = 0.07745 0.20621
#
# Static dielectric constant tensor:
#      x y z
#    x 1.744780 0.000000 0.066880 
#    y 0.000000 1.684110 0.000000 
#    z 0.066880 0.000000 1.731360 
# 
# From -- ./inp_files/187745.got.cif
#   From: 2010.05.17/outbox.ucp.g08.bks.cvg/sg12_94_cif.got.tgz:187745.got - 2010.06.11 11:47:21.
