data_PCOD9223151
_publ_section_title
;
Structure prediction by ZEFSAII (Michael W. Deem and Ramdas Pophale) SiO2 
 PCOD9223151
Probable space group: C 2/M
;
_chemical_formula_sum "Si O2"
_cell_formula_units_Z 40
_cell_length_a 8.431455
_cell_length_b 28.882496
_cell_length_c 9.531887
_cell_angle_alpha 90.000000
_cell_angle_beta 131.396199
_cell_angle_gamma 90.000000
_cell_volume 1741.273965
_symmetry_space_group_name_H-M "C 2/M"
_symmetry_group_IT_number 12
_symmetry_cell_setting 'monoclinic'
loop_
_space_group_symop_operation_xyz
x,y,z
-x,y,-z
-x,-y,-z
x,-y,z
1/2+x,1/2+y,z
1/2-x,1/2+y,-z
1/2-x,1/2-y,-z
1/2+x,1/2-y,z
loop_
_atom_site_type_symbol
_atom_site_label
_atom_site_fract_x
_atom_site_fract_y
_atom_site_fract_z
Si Si1 0.700744 0.362744 0.296062
Si Si2 0.728559 0.323205 0.866600
Si Si3 0.741699 0.223675 0.836394
Si Si4 0.398319 0.949426 0.284192
Si Si5 0.251509 0.894989 0.637626
O O1 0.453474 0.352660 0.166096
O O2 0.798444 0.315360 0.299540
O O3 0.747592 0.405465 0.220437
O O4 0.774757 0.372736 0.497133
O O5 0.653626 0.274681 0.752319
O O6 0.805649 0.358697 0.792570
O O7 0.842952 0.298416 0.066504
O O8 0.000000 0.226088 0.000000
O O9 0.500000 0.953184 0.500000
O O10 0.579376 0.936362 0.276651
O O11 0.304690 0.000000 0.197026
O O12 0.000000 0.907578 0.500000
#
# Coordination Sequence:
#
# PCOD9223151 Si02
#       5
#     8   8   8   8   8
#     4   9  18  33  51  73 100 132 167 203 248 297
#     4   9  18  32  50  75 103 132 166 202 243 293
#     4   9  18  32  51  73 100 137 169 194 241 303
#     4   9  18  33  53  75 100 132 167 205 255 308
#     4   9  18  32  51  76 102 127 164 211 250 284
#
# _framework density 22.971688
#
# number of rings (size 3 to 8) (size 9 to 14) (size 15 to 20)
#    0.000    3.000    0.000    0.000    0.000    6.000 
#    0.000   10.000    0.000    7.800    0.000    0.000 
#    0.000    0.000    0.000    0.000    0.000    0.000 
#
# Total GULP energy -111361.646520 kJ/mol
# GULP energy per Si atom -5568.082326 kJ/mol
# Density = 2.291940 g / cm^3
# Si number density = 22.971688 Si / 1000 Ang^3
#
#
#
# Elastic Constant Matrix: (Units=GPa)
#
#
# Indices 1 2 3 4 5 6 
#
# 1 128.0994 89.3360 23.6121 0.0000 -2.9400 0.0000
# 2 89.3360 162.3491 17.2288 0.0000 4.6396 0.0000
# 3 23.6121 17.2288 41.5420 0.0000 -5.6205 0.0000
# 4 0.0000 0.0000 0.0000 16.2182 0.0000 6.6139
# 5 -2.9400 4.6396 -5.6205 0.0000 34.9660 0.0000
# 6 0.0000 0.0000 0.0000 6.6139 0.0000 37.2134
#
#
#
# Elastic Compliance Matrix: (Units=1/GPa)
#
#
# Indices 1 2 3 4 5 6 
#
# 1 0.013589 -0.007024 -0.004631 0.000000 0.001330 0.000000
# 2 -0.007024 0.010134 -0.000482 0.000000 -0.002013 0.000000
# 3 -0.004631 -0.000482 0.027457 0.000000 0.004088 0.000000
# 4 0.000000 0.000000 0.000000 0.066477 0.000000 -0.011815
# 5 0.001330 -0.002013 0.004088 0.000000 0.029635 0.000000
# 6 0.000000 0.000000 0.000000 -0.011815 0.000000 0.028972
#
#
# Mechanical properties :
#
#
# Convention : Reuss Voigt Hill
#
# Bulk Modulus (GPa) = 37.16791 65.81603 51.49197
# Shear Modulus (GPa) = 23.86537 31.13376 27.49956
#
# Velocity S-wave (km/s) = 3.22670 3.68545 3.46368
# Velocity P-wave (km/s) = 5.48608 6.84275 6.20162
#
# Compressibility (1/GPa) = 0.02690493
#
# Stress axis : x y z
#
# Youngs Moduli (GPa) = 73.58706 98.68152 36.42015
#
# Poissons Ratio (x) = 0.69318 0.16866
# Poissons Ratio (y) = 0.51691 0.01757
# Poissons Ratio (z) = 0.34077 0.04761
#
# Static dielectric constant tensor:
#      x y z
#    x 1.953000 0.000000 0.043330 
#    y 0.000000 1.904700 0.000000 
#    z 0.043330 0.000000 1.933280 
# 
# From -- ./inp_files/122184.got.cif
#   From: 2010.05.17/outbox.cif.g08.bks.cpg/sg12_62_cif.got.tgz:122184.got - 2010.06.03 13:09:07.
