data_PCOD9223329
_publ_section_title
;
Structure prediction by ZEFSAII (Michael W. Deem and Ramdas Pophale) SiO2 
 PCOD9223329
Probable space group: C 2/M
;
_chemical_formula_sum "Si O2"
_cell_formula_units_Z 20
_cell_length_a 18.000000
_cell_length_b 9.000000
_cell_length_c 27.000000
_cell_angle_alpha 90.000000
_cell_angle_beta 150.000000
_cell_angle_gamma 90.000000
_cell_volume 2187.000000
_symmetry_space_group_name_H-M "C 2/M"
_symmetry_group_IT_number 12
_symmetry_cell_setting 'monoclinic'
loop_
_space_group_symop_operation_xyz
x,y,z
-x,y,-z
-x,-y,-z
x,-y,z
1/2+x,1/2+y,z
1/2-x,1/2+y,-z
1/2-x,1/2-y,-z
1/2+x,1/2-y,z
loop_
_atom_site_type_symbol
_atom_site_label
_atom_site_fract_x
_atom_site_fract_y
_atom_site_fract_z
Si Si1 0.594028 0.824530 0.604153
Si Si2 0.836680 0.818365 0.002339
Si Si3 0.086979 0.320408 0.206357
Si Si4 0.586986 0.177692 0.397755
Si Si5 0.419765 0.318289 0.205578
O O1 0.500000 0.789277 0.500000
O O2 0.740663 0.724707 0.693688
O O3 0.497859 0.807012 0.598638
O O4 0.636538 0.000000 0.624837
O O5 0.000822 0.754014 0.109510
O O6 0.834187 0.000000 0.000605
O O7 0.750000 0.750000 0.000000
O O8 0.744161 0.750907 0.902313
O O9 0.065467 0.500000 0.194314
O O10 0.018424 0.245974 0.216757
O O11 0.750000 0.250000 0.500000
O O12 0.494714 0.257291 0.299742
O O13 0.599774 0.000000 0.394325
O O14 0.416086 0.500000 0.202772
#
# Coordination Sequence:
#
# PCOD9223329 Si02
#       5
#     8   8   8   8   8
#     4  10  22  40  60  83 113 149 187 231 285 340
#     4  10  18  32  55  83 115 149 189 232 279 334
#     4  11  21  35  58  87 117 149 190 235 281 335
#     4  11  23  39  60  86 116 149 188 233 284 341
#     4  11  21  36  58  84 117 153 192 235 280 331
#
# _framework density 9.1449470000000002
#
# number of rings (size 3 to 8) (size 9 to 14) (size 15 to 20)
#    0.000    1.400    0.000    9.600    0.000    3.600 
#    0.000    1.000    0.000    6.000    0.000    0.000 
#    0.000    0.000    0.000    0.000    0.000    0.000 
#
# Total GULP energy -111639.484731 kJ/mol
# GULP energy per Si atom -5581.974237 kJ/mol
# Density = 0.912413 g / cm^3
# Si number density = 9.144947 Si / 1000 Ang^3
#
#
#
# Elastic Constant Matrix: (Units=GPa)
#
#
# Indices 1 2 3 4 5 6 
#
# 1 63.7389 41.7358 51.3853 0.0000 -13.3999 0.0000
# 2 41.7358 203.6522 90.6242 0.0000 -8.5723 0.0000
# 3 51.3853 90.6242 196.9065 0.0002 -23.3904 0.0001
# 4 0.0000 0.0000 0.0002 46.6030 0.0000 -1.8099
# 5 -13.3999 -8.5723 -23.3904 0.0000 37.3907 0.0000
# 6 0.0000 0.0000 0.0001 -1.8099 0.0000 27.7636
#
#
#
# Elastic Compliance Matrix: (Units=1/GPa)
#
#
# Indices 1 2 3 4 5 6 
#
# 1 0.021429 -0.002457 -0.003907 0.000000 0.004673 0.000000
# 2 -0.002457 0.006462 -0.002443 0.000000 -0.000927 0.000000
# 3 -0.003907 -0.002443 0.007551 0.000000 0.002763 0.000000
# 4 0.000000 0.000000 0.000000 0.021512 0.000000 0.001402
# 5 0.004673 -0.000927 0.002763 0.000000 0.029935 0.000000
# 6 0.000000 0.000000 0.000000 0.001402 0.000000 0.036110
#
#
# Mechanical properties :
#
#
# Convention : Reuss Voigt Hill
#
# Bulk Modulus (GPa) = 56.08701 92.42090 74.25395
# Shear Modulus (GPa) = 34.11688 41.05494 37.58591
#
# Velocity S-wave (km/s) = 4.32364 4.74294 4.53814
# Velocity P-wave (km/s) = 7.46038 8.97969 8.25506
#
# Compressibility (1/GPa) = 0.01782944
#
# Stress axis : x y z
#
# Youngs Moduli (GPa) = 46.66502 154.75305 132.43825
#
# Poissons Ratio (x) = 0.38016 0.51738
# Poissons Ratio (y) = 0.11464 0.32356
# Poissons Ratio (z) = 0.18230 0.37808
#
# Static dielectric constant tensor:
#      x y z
#    x 1.633920 0.000000 0.023810 
#    y 0.000000 1.620380 0.000000 
#    z 0.023810 0.000000 1.668920 
# 
# From -- ./inp_files/292327.got.cif
#   From: 2010.05.17/outbox.ucp.g08.bks.cvg/sg12_147_cif.got.tgz:292327.got - 2010.06.11 11:47:21.
