data_PCOD9223005
_publ_section_title
;
Structure prediction by ZEFSAII (Michael W. Deem and Ramdas Pophale) SiO2 
 PCOD9223005
Probable space group: C 2/M
;
_chemical_formula_sum "Si O2"
_cell_formula_units_Z 48
_cell_length_a 14.272721
_cell_length_b 21.439570
_cell_length_c 16.182148
_cell_angle_alpha 90.000000
_cell_angle_beta 29.806055
_cell_angle_gamma 90.000000
_cell_volume 2461.346632
_symmetry_space_group_name_H-M "C 2/M"
_symmetry_group_IT_number 12
_symmetry_cell_setting 'monoclinic'
loop_
_space_group_symop_operation_xyz
x,y,z
-x,y,-z
-x,-y,-z
x,-y,z
1/2+x,1/2+y,z
1/2-x,1/2+y,-z
1/2-x,1/2-y,-z
1/2+x,1/2-y,z
loop_
_atom_site_type_symbol
_atom_site_label
_atom_site_fract_x
_atom_site_fract_y
_atom_site_fract_z
Si Si1 0.277646 0.338643 0.316810
Si Si2 0.718058 0.307141 0.333049
Si Si3 0.764984 0.833875 0.042684
Si Si4 0.269096 0.571045 0.176146
Si Si5 0.279294 0.303241 0.851544
Si Si6 0.782539 0.176555 0.489864
O O1 0.216952 0.267935 0.344747
O O2 0.213780 0.386718 0.296537
O O3 0.215240 0.356005 0.457560
O O4 0.506343 0.334884 0.138141
O O5 0.500000 0.327293 0.500000
O O6 0.802127 0.316484 0.177366
O O7 0.796711 0.336117 0.358248
O O8 0.708843 0.893416 0.139004
O O9 0.713787 0.771106 0.133160
O O10 0.695770 0.829663 0.000977
O O11 0.204067 0.500000 0.230751
O O12 0.500000 0.570253 0.000000
O O13 0.491566 0.329188 0.682599
O O14 0.750000 0.250000 0.500000
#
# Coordination Sequence:
#
# PCOD9223005 Si02
#       6
#     8   8   8   8   8   8
#     4   9  15  25  37  52  76  99 125 156 187 221
#     4   9  15  23  36  54  74 101 125 147 184 231
#     4   9  16  24  36  55  77  99 121 157 194 225
#     4   9  16  25  38  55  74 101 131 155 186 224
#     4   9  15  23  36  55  76  98 121 150 196 229
#     4   8  15  24  35  53  72 100 126 146 181 229
#
# _framework density 19.501521
#
# number of rings (size 3 to 8) (size 9 to 14) (size 15 to 20)
#    0.000    3.167    1.667    0.000    0.000    0.000 
#    0.000    0.000    0.000    0.500    0.000    1.167 
#    0.000    9.333    0.000   31.667    0.333   35.833 
#
# Total GULP energy -133644.171224 kJ/mol
# GULP energy per Si atom -5568.507134 kJ/mol
# Density = 1.945713 g / cm^3
# Si number density = 19.501521 Si / 1000 Ang^3
#
#
#
# Elastic Constant Matrix: (Units=GPa)
#
#
# Indices 1 2 3 4 5 6 
#
# 1 92.5513 27.0554 59.9612 -0.0153 58.5743 0.0286
# 2 27.0554 60.5023 13.8650 -0.0321 27.7774 0.0385
# 3 59.9612 13.8650 104.3482 -0.0421 28.0190 0.0274
# 4 -0.0153 -0.0321 -0.0421 10.5468 0.0274 3.6745
# 5 58.5743 27.7774 28.0190 0.0274 58.8124 -0.0158
# 6 0.0286 0.0385 0.0274 3.6745 -0.0158 13.1150
#
#
#
# Elastic Compliance Matrix: (Units=1/GPa)
#
#
# Indices 1 2 3 4 5 6 
#
# 1 0.043654 0.000767 -0.015383 0.000152 -0.036511 -0.000152
# 2 0.000767 0.021120 -0.000417 0.000130 -0.010541 -0.000112
# 3 -0.015383 -0.000417 0.016411 0.000021 0.007699 0.000004
# 4 0.000152 0.000130 0.000021 0.105074 -0.000279 -0.029440
# 5 -0.036511 -0.010541 0.007699 -0.000279 0.054677 0.000239
# 6 -0.000152 -0.000112 0.000004 -0.029440 0.000239 0.084498
#
#
# Mechanical properties :
#
#
# Convention : Reuss Voigt Hill
#
# Bulk Modulus (GPa) = 19.56185 51.01833 35.29009
# Shear Modulus (GPa) = 13.42143 26.92952 20.17548
#
# Velocity S-wave (km/s) = 2.62625 3.72007 3.21995
# Velocity P-wave (km/s) = 4.38736 6.68355 5.65327
#
# Compressibility (1/GPa) = 0.05111990
#
# Stress axis : x y z
#
# Youngs Moduli (GPa) = 22.90749 47.34773 60.93576
#
# Poissons Ratio (x) = -0.03631 0.93736
# Poissons Ratio (y) = -0.01757 0.02538
# Poissons Ratio (z) = 0.35238 0.01972
#
# Static dielectric constant tensor:
#      x y z
#    x 1.788150 -0.000010 -0.016310 
#    y -0.000010 1.610000 0.000010 
#    z -0.016310 0.000010 1.813040 
# 
# From -- ./inp_files/62755.got.cif
#   From: 2010.05.17/outbox.cif.g08.bks.cpg/sg12_32_cif.got.tgz:62755.got - 2010.06.03 13:09:07.
