data_PCOD9223306
_publ_section_title
;
Structure prediction by ZEFSAII (Michael W. Deem and Ramdas Pophale) SiO2 
 PCOD9223306
Probable space group: C 2/M
;
_chemical_formula_sum "Si O2"
_cell_formula_units_Z 28
_cell_length_a 18.000000
_cell_length_b 9.000000
_cell_length_c 18.000000
_cell_angle_alpha 90.000000
_cell_angle_beta 70.000000
_cell_angle_gamma 90.000000
_cell_volume 2740.143682
_symmetry_space_group_name_H-M "C 2/M"
_symmetry_group_IT_number 12
_symmetry_cell_setting 'monoclinic'
loop_
_space_group_symop_operation_xyz
x,y,z
-x,y,-z
-x,-y,-z
x,-y,z
1/2+x,1/2+y,z
1/2-x,1/2+y,-z
1/2-x,1/2-y,-z
1/2+x,1/2-y,z
loop_
_atom_site_type_symbol
_atom_site_label
_atom_site_fract_x
_atom_site_fract_y
_atom_site_fract_z
Si Si1 0.912990 0.832639 0.566395
Si Si2 0.598275 0.662541 0.683983
Si Si3 0.903584 0.166539 0.028850
Si Si4 0.668017 0.831040 0.526570
Si Si5 0.091788 0.665759 0.117580
Si Si6 0.101662 0.333915 0.824040
Si Si7 0.410635 0.662909 0.741945
O O1 0.868207 0.703451 0.540348
O O2 0.908057 0.807591 0.655586
O O3 0.000000 0.833935 0.500000
O O4 0.880810 0.000000 0.562311
O O5 0.631205 0.500000 0.657223
O O6 0.612925 0.763562 0.608645
O O7 0.631565 0.729934 0.747999
O O8 0.504384 0.651450 0.726065
O O9 0.876049 0.274530 0.103161
O O10 0.876744 0.000000 0.052443
O O11 0.881509 0.222156 0.955147
O O12 0.000000 0.166355 0.000000
O O13 0.750000 0.750000 0.500000
O O14 0.678907 0.000000 0.538405
O O15 0.118112 0.500000 0.091344
O O16 0.118762 0.717322 0.189508
O O17 0.994994 0.664429 0.147063
O O18 0.129465 0.500000 0.801828
O O19 0.375145 0.500000 0.768467
#
# Coordination Sequence:
#
# PCOD9223306 Si02
#       7
#     8   8   8   8   8   8   8
#     4  10  19  36  57  78 103 134 170 212 259 310
#     4  10  18  32  50  70  96 129 167 207 253 304
#     4   9  15  23  35  53  81 121 163 198 241 297
#     4  12  25  39  55  76 103 136 173 216 263 310
#     4   9  16  24  36  57  89 123 158 202 246 290
#     4   9  16  25  38  60  88 121 160 202 246 294
#     4   9  17  29  48  70  96 129 164 202 249 303
#
# _framework density 10.218442
#
# number of rings (size 3 to 8) (size 9 to 14) (size 15 to 20)
#    0.000    2.286    1.429    3.000    0.000    6.571 
#    0.000    0.000    0.000    0.000    0.000    0.000 
#    0.000    1.143    0.000    4.286    0.000    7.143 
#
# Total GULP energy -155972.333632 kJ/mol
# GULP energy per Si atom -5570.440487 kJ/mol
# Density = 1.019518 g / cm^3
# Si number density = 10.218442 Si / 1000 Ang^3
#
#
#
# Elastic Constant Matrix: (Units=GPa)
#
#
# Indices 1 2 3 4 5 6 
#
# 1 -2.3247 15.4159 1.5559 0.0000 4.7055 0.0000
# 2 15.4159 109.1050 35.6397 0.0000 12.4628 0.0000
# 3 1.5559 35.6397 59.8218 0.0000 31.4305 0.0000
# 4 0.0000 0.0000 0.0000 52.3302 0.0000 1.6816
# 5 4.7055 12.4628 31.4305 0.0000 5.5061 0.0000
# 6 0.0000 0.0000 0.0000 1.6816 0.0000 8.8180
#
#
#
# Elastic Compliance Matrix: (Units=1/GPa)
#
#
# Indices 1 2 3 4 5 6 
#
# 1 -0.378738 0.050853 0.065040 0.000000 -0.162706 0.000000
# 2 0.050853 0.004109 -0.011980 0.000000 0.015624 0.000000
# 3 0.065040 -0.011980 -0.018567 0.000000 0.077520 0.000000
# 4 0.000000 0.000000 0.000000 0.019227 0.000000 -0.003667
# 5 -0.162706 0.015624 0.077520 0.000000 -0.157206 0.000000
# 6 0.000000 0.000000 0.000000 -0.003667 0.000000 0.114104
#
#
# Mechanical properties :
#
#
# Convention : Reuss Voigt Hill
#
# Bulk Modulus (GPa) = -5.39465 30.20278 12.40407
# Shear Modulus (GPa) = -7.28132 20.93023 6.82445
#
# Velocity S-wave (km/s) = -1.88959 3.20369 1.82935
# Velocity P-wave (km/s) = 2.72142 5.33812 3.24726
#
# Compressibility (1/GPa) = -0.18536893
#
# Stress axis : x y z
#
# Youngs Moduli (GPa) = -2.64035 243.38473 -53.85833
#
# Poissons Ratio (x) = -12.37685 3.50296
# Poissons Ratio (y) = 0.13427 -0.64520
# Poissons Ratio (z) = 0.17173 2.91564
#
# Static dielectric constant tensor:
#      x y z
#    x 1.715360 0.000000 0.024740 
#    y 0.000000 1.731450 0.000000 
#    z 0.024740 0.000000 1.677170 
# 
# From -- ./inp_files/275194.got.cif
#   From: 2010.05.17/outbox.ucp.g08.bks.cvg/sg12_138_cif.got.tgz:275194.got - 2010.06.11 11:47:21.
