data_PCOD9223570
_publ_section_title
;
Structure prediction by ZEFSAII (Michael W. Deem and Ramdas Pophale) SiO2 
 PCOD9223570
Probable space group: C 2/M
;
_chemical_formula_sum "Si O2"
_cell_formula_units_Z 28
_cell_length_a 24.000000
_cell_length_b 9.000000
_cell_length_c 18.000000
_cell_angle_alpha 90.000000
_cell_angle_beta 60.000000
_cell_angle_gamma 90.000000
_cell_volume 3367.106770
_symmetry_space_group_name_H-M "C 2/M"
_symmetry_group_IT_number 12
_symmetry_cell_setting 'monoclinic'
loop_
_space_group_symop_operation_xyz
x,y,z
-x,y,-z
-x,-y,-z
x,-y,z
1/2+x,1/2+y,z
1/2-x,1/2+y,-z
1/2-x,1/2-y,-z
1/2+x,1/2-y,z
loop_
_atom_site_type_symbol
_atom_site_label
_atom_site_fract_x
_atom_site_fract_y
_atom_site_fract_z
Si Si1 0.762364 0.678173 0.279122
Si Si2 0.079669 0.174836 0.570023
Si Si3 0.153046 0.678439 0.102043
Si Si4 0.721595 0.821241 0.904551
Si Si5 0.623198 0.177979 0.388586
Si Si6 0.307640 0.177882 0.413089
Si Si7 0.933723 0.174875 0.721396
O O1 0.749483 0.500000 0.287153
O O2 0.787608 0.714093 0.177842
O O3 0.696852 0.766739 0.338995
O O4 0.803657 0.707812 0.326678
O O5 0.086648 0.250105 0.483901
O O6 0.129051 0.255262 0.591871
O O7 0.009541 0.185395 0.653973
O O8 0.095686 0.000000 0.550706
O O9 0.148508 0.500000 0.111823
O O10 0.214892 0.738240 0.107221
O O11 0.092732 0.754681 0.184155
O O12 0.167531 0.712828 0.004572
O O13 0.731656 0.000000 0.901869
O O14 0.596884 0.238844 0.327957
O O15 0.618922 0.000000 0.395474
O O16 0.250000 0.250000 0.500000
O O17 0.304941 0.000000 0.424289
O O18 0.915416 0.000000 0.731584
#
# Coordination Sequence:
#
# PCOD9223570 Si02
#       7
#     8   8   8   8   8   8   8
#     4  10  20  35  56  79 110 147 178 215 270 326
#     4  11  24  40  56  75 106 149 189 222 269 326
#     4  10  19  31  52  82 110 138 178 224 268 320
#     4   9  18  33  53  78 110 144 176 216 270 328
#     4  12  23  34  54  83 111 141 179 224 271 321
#     4  11  22  36  57  81 108 142 183 229 270 315
#     4  11  23  38  55  76 109 150 183 219 272 332
#
# _framework density 8.3157449999999997
#
# number of rings (size 3 to 8) (size 9 to 14) (size 15 to 20)
#    0.000    1.429    2.857    3.429    0.000    5.143 
#    0.000    0.000    0.000    0.857    0.000    6.000 
#    0.000    0.000    0.000    0.000    0.000    0.000 
#
# Total GULP energy -156182.006078 kJ/mol
# GULP energy per Si atom -5577.928789 kJ/mol
# Density = 0.829682 g / cm^3
# Si number density = 8.315745 Si / 1000 Ang^3
#
#
#
# Elastic Constant Matrix: (Units=GPa)
#
#
# Indices 1 2 3 4 5 6 
#
# 1 44.5483 27.6037 27.5149 0.0000 5.5339 0.0001
# 2 27.6037 91.0712 55.0916 0.0000 0.9882 0.0002
# 3 27.5149 55.0916 165.3132 0.0000 11.8079 0.0000
# 4 0.0000 0.0000 0.0000 35.4433 0.0000 0.2593
# 5 5.5339 0.9882 11.8079 0.0000 25.8935 0.0000
# 6 0.0001 0.0002 0.0000 0.2593 0.0000 23.8109
#
#
#
# Elastic Compliance Matrix: (Units=1/GPa)
#
#
# Indices 1 2 3 4 5 6 
#
# 1 0.028945 -0.007541 -0.001947 0.000000 -0.005011 0.000000
# 2 -0.007541 0.015784 -0.004214 0.000000 0.002931 0.000000
# 3 -0.001947 -0.004214 0.007997 0.000000 -0.003070 0.000000
# 4 0.000000 0.000000 0.000000 0.028216 0.000000 -0.000307
# 5 -0.005011 0.002931 -0.003070 0.000000 0.040979 0.000000
# 6 0.000000 0.000000 0.000000 -0.000307 0.000000 0.042001
#
#
# Mechanical properties :
#
#
# Convention : Reuss Voigt Hill
#
# Bulk Modulus (GPa) = 39.49227 57.92811 48.71019
# Shear Modulus (GPa) = 25.02925 29.74436 27.38681
#
# Velocity S-wave (km/s) = 3.88355 4.23358 4.06234
# Velocity P-wave (km/s) = 6.62619 7.66835 7.16624
#
# Compressibility (1/GPa) = 0.02532141
#
# Stress axis : x y z
#
# Youngs Moduli (GPa) = 34.54811 63.35660 125.05040
#
# Poissons Ratio (x) = 0.47780 0.24342
# Poissons Ratio (y) = 0.26054 0.52698
# Poissons Ratio (z) = 0.06725 0.26700
#
# Static dielectric constant tensor:
#      x y z
#    x 1.572300 0.000000 -0.005590 
#    y 0.000000 1.556080 0.000000 
#    z -0.005590 0.000000 1.570650 
# 
# From -- ./inp_files/287375.got.cif
#   From: 2010.05.17/outbox.ucp.g08.bks.cvg/sg12_144_cif.got.tgz:287375.got - 2010.06.11 11:47:21.
