data_PCOD9223495
_publ_section_title
;
Structure prediction by ZEFSAII (Michael W. Deem and Ramdas Pophale) SiO2 
 PCOD9223495
Probable space group: C 2/M
;
_chemical_formula_sum "Si O2"
_cell_formula_units_Z 32
_cell_length_a 21.000000
_cell_length_b 9.000000
_cell_length_c 18.000000
_cell_angle_alpha 90.000000
_cell_angle_beta 90.000000
_cell_angle_gamma 90.000000
_cell_volume 3402.000000
_symmetry_space_group_name_H-M "C 2/M"
_symmetry_group_IT_number 12
_symmetry_cell_setting 'monoclinic'
loop_
_space_group_symop_operation_xyz
x,y,z
-x,y,-z
-x,-y,-z
x,-y,z
1/2+x,1/2+y,z
1/2-x,1/2+y,-z
1/2-x,1/2-y,-z
1/2+x,1/2-y,z
loop_
_atom_site_type_symbol
_atom_site_label
_atom_site_fract_x
_atom_site_fract_y
_atom_site_fract_z
Si Si1 0.577291 0.835656 0.310809
Si Si2 0.587935 0.329591 0.171103
Si Si3 0.340625 0.322506 0.061571
Si Si4 0.196935 0.672673 0.417200
Si Si5 0.835435 0.175037 0.429016
Si Si6 0.525174 0.829352 0.915470
Si Si7 0.299822 0.176881 0.905316
Si Si8 0.535325 0.830365 0.571608
O O1 0.572000 0.699141 0.256054
O O2 0.642490 0.822153 0.356239
O O3 0.517669 0.834232 0.365551
O O4 0.577514 0.000000 0.273281
O O5 0.597273 0.500000 0.151039
O O6 0.528637 0.261398 0.127224
O O7 0.652364 0.238421 0.155697
O O8 0.350018 0.500000 0.057566
O O9 0.405214 0.244997 0.088396
O O10 0.275198 0.293323 0.106951
O O11 0.323366 0.257749 0.980432
O O12 0.200782 0.500000 0.443262
O O13 0.176552 0.773974 0.486054
O O14 0.267985 0.713865 0.390483
O O15 0.899920 0.253047 0.404122
O O16 0.844619 0.000000 0.423972
O O17 0.528532 0.000000 0.889569
O O18 0.500000 0.830627 0.000000
O O19 0.307319 0.000000 0.914722
O O20 0.500000 0.760796 0.500000
O O21 0.552714 0.000000 0.550075
#
# Coordination Sequence:
#
# PCOD9223495 Si02
#       8
#     8   8   8   8   8   8   8   8
#     4  10  21  39  60  78 108 154 197 233 282 348
#     4  12  25  39  58  84 117 153 194 241 290 344
#     4  10  20  34  58  89 117 145 185 239 287 328
#     4   9  18  35  55  78 109 148 187 224 276 341
#     4  10  19  30  53  86 115 140 178 237 286 323
#     4  11  22  37  60  87 116 153 194 236 286 345
#     4  10  20  36  57  84 116 150 188 229 283 344
#     4  10  19  35  58  82 110 150 192 230 280 343
#
# _framework density 9.4062319999999993
#
# number of rings (size 3 to 8) (size 9 to 14) (size 15 to 20)
#    0.000    1.750    2.500    2.625    0.000    3.750 
#    0.000    1.250    0.000    4.500    0.000    0.000 
#    0.000    0.000    0.000    0.000    0.000    0.000 
#
# Total GULP energy -178453.656761 kJ/mol
# GULP energy per Si atom -5576.676774 kJ/mol
# Density = 0.938482 g / cm^3
# Si number density = 9.406232 Si / 1000 Ang^3
#
#
#
# Elastic Constant Matrix: (Units=GPa)
#
#
# Indices 1 2 3 4 5 6 
#
# 1 150.1566 56.6556 25.5164 0.0000 -0.6896 0.0000
# 2 56.6556 69.0850 12.0441 0.0000 1.9443 0.0000
# 3 25.5164 12.0441 21.9296 0.0000 -4.7546 0.0000
# 4 0.0000 0.0000 0.0000 19.1912 0.0000 -0.4835
# 5 -0.6896 1.9443 -4.7546 0.0000 13.1382 0.0000
# 6 0.0000 0.0000 0.0000 -0.4835 0.0000 21.8879
#
#
#
# Elastic Compliance Matrix: (Units=1/GPa)
#
#
# Indices 1 2 3 4 5 6 
#
# 1 0.010976 -0.007375 -0.009072 0.000000 -0.001615 0.000000
# 2 -0.007375 0.021414 -0.004288 0.000000 -0.005108 0.000000
# 3 -0.009072 -0.004288 0.063530 0.000000 0.023149 0.000000
# 4 0.000000 0.000000 0.000000 0.052136 0.000000 0.001152
# 5 -0.001615 -0.005108 0.023149 0.000000 0.085162 0.000000
# 6 0.000000 0.000000 0.000000 0.001152 0.000000 0.045713
#
#
# Mechanical properties :
#
#
# Convention : Reuss Voigt Hill
#
# Bulk Modulus (GPa) = 18.36468 47.73371 33.04920
# Shear Modulus (GPa) = 14.76890 20.64048 17.70469
#
# Velocity S-wave (km/s) = 2.80493 3.31595 3.07109
# Velocity P-wave (km/s) = 4.50259 6.33161 5.49375
#
# Compressibility (1/GPa) = 0.05445235
#
# Stress axis : x y z
#
# Youngs Moduli (GPa) = 91.10496 46.69865 15.74072
#
# Poissons Ratio (x) = 0.34438 0.14279
# Poissons Ratio (y) = 0.67186 0.06749
# Poissons Ratio (z) = 0.82647 0.20022
#
# Static dielectric constant tensor:
#      x y z
#    x 1.634270 0.000000 -0.013550 
#    y 0.000000 1.661370 0.000000 
#    z -0.013550 0.000000 1.666120 
# 
# From -- ./inp_files/281408.got.cif
#   From: 2010.05.17/outbox.ucp.g08.bks.cvg/sg12_141_cif.got.tgz:281408.got - 2010.06.11 11:47:21.
