data_PCOD9223823
_publ_section_title
;
Structure prediction by ZEFSAII (Michael W. Deem and Ramdas Pophale) SiO2 
 PCOD9223823
Probable space group: C 2/M
;
_chemical_formula_sum "Si O2"
_cell_formula_units_Z 32
_cell_length_a 30.000000
_cell_length_b 9.000000
_cell_length_c 18.000000
_cell_angle_alpha 90.000000
_cell_angle_beta 40.000000
_cell_angle_gamma 90.000000
_cell_volume 3123.947783
_symmetry_space_group_name_H-M "C 2/M"
_symmetry_group_IT_number 12
_symmetry_cell_setting 'monoclinic'
loop_
_space_group_symop_operation_xyz
x,y,z
-x,y,-z
-x,-y,-z
x,-y,z
1/2+x,1/2+y,z
1/2-x,1/2+y,-z
1/2-x,1/2-y,-z
1/2+x,1/2-y,z
loop_
_atom_site_type_symbol
_atom_site_label
_atom_site_fract_x
_atom_site_fract_y
_atom_site_fract_z
Si Si1 0.549725 0.179415 0.271718
Si Si2 0.950065 0.176521 0.886044
Si Si3 0.414131 0.178177 0.522688
Si Si4 0.905601 0.823589 0.236633
Si Si5 0.792716 0.323694 0.295219
Si Si6 0.835670 0.319338 0.770375
Si Si7 0.333585 0.822316 0.470831
Si Si8 0.299039 0.679274 0.131466
O O1 0.534597 0.243228 0.210711
O O2 0.491878 0.228243 0.405356
O O3 0.623857 0.229397 0.208375
O O4 0.546946 0.000000 0.270952
O O5 0.012548 0.201459 0.862863
O O6 0.946952 0.000000 0.875699
O O7 0.876138 0.224072 0.011600
O O8 0.376641 0.234680 0.644329
O O9 0.372227 0.203656 0.500107
O O10 0.417413 0.000000 0.528304
O O11 0.868938 0.733159 0.218611
O O12 0.873403 0.761126 0.354456
O O13 0.892071 0.000000 0.246694
O O14 0.786240 0.500000 0.306671
O O15 0.741930 0.246458 0.419460
O O16 0.775960 0.258850 0.236032
O O17 0.839024 0.500000 0.765733
O O18 0.755827 0.280392 0.862141
O O19 0.169059 0.500000 0.539665
O O20 0.296746 0.500000 0.146271
#
# Coordination Sequence:
#
# PCOD9223823 Si02
#       8
#     8   8   8   8   8   8   8   8
#     4  10  19  33  58  89 118 149 193 241 285 340
#     4  10  23  40  59  82 115 155 197 243 291 340
#     4   9  16  29  55  87 115 147 186 232 282 334
#     4  11  23  40  60  85 117 155 193 237 289 347
#     4  12  25  40  60  89 118 148 187 240 295 349
#     4   9  17  32  58  88 115 149 193 238 284 340
#     4  11  20  36  62  89 117 155 190 232 287 345
#     4  10  21  41  62  82 112 156 202 240 284 343
#
# _framework density 10.243449
#
# number of rings (size 3 to 8) (size 9 to 14) (size 15 to 20)
#    0.000    1.750    2.500    2.625    0.000    3.500 
#    0.000    3.125    0.000    0.750    0.000    0.000 
#    0.000    0.000    0.000    0.000    0.000    0.000 
#
# Total GULP energy -178661.339323 kJ/mol
# GULP energy per Si atom -5583.166854 kJ/mol
# Density = 1.022013 g / cm^3
# Si number density = 10.243449 Si / 1000 Ang^3
#
#
#
# Elastic Constant Matrix: (Units=GPa)
#
#
# Indices 1 2 3 4 5 6 
#
# 1 71.4257 14.3392 7.7216 0.0001 -27.1790 -0.0006
# 2 14.3392 15.8690 -4.7521 0.0146 -12.8410 -0.0003
# 3 7.7216 -4.7521 36.8295 0.0100 -25.9779 -0.0023
# 4 0.0001 0.0146 0.0100 14.6360 -0.0037 3.0461
# 5 -27.1790 -12.8410 -25.9779 -0.0037 26.0560 -0.0014
# 6 -0.0006 -0.0003 -0.0023 3.0461 -0.0014 14.6247
#
#
#
# Elastic Compliance Matrix: (Units=1/GPa)
#
#
# Indices 1 2 3 4 5 6 
#
# 1 0.017380 -0.028113 -0.014344 0.000038 -0.010027 -0.000011
# 2 -0.028113 -0.008129 -0.062896 0.000033 -0.096039 -0.000027
# 3 -0.014344 -0.062896 -0.034955 0.000073 -0.080809 -0.000030
# 4 0.000038 0.000033 0.000073 0.071421 0.000137 -0.014876
# 5 -0.010027 -0.096039 -0.080809 0.000137 -0.099977 -0.000053
# 6 -0.000011 -0.000027 -0.000030 -0.014876 -0.000053 0.071476
#
#
# Mechanical properties :
#
#
# Convention : Reuss Voigt Hill
#
# Bulk Modulus (GPa) = -4.22991 17.63795 6.70402
# Shear Modulus (GPa) = 33.53039 18.18436 25.85738
#
# Velocity S-wave (km/s) = 4.04997 2.98251 3.55652
# Velocity P-wave (km/s) = 4.44978 4.52643 4.48827
#
# Compressibility (1/GPa) = -0.23641179
#
# Stress axis : x y z
#
# Youngs Moduli (GPa) = 57.53853 -123.01792 -28.60805
#
# Poissons Ratio (x) = -3.45846 -0.41035
# Poissons Ratio (y) = 1.61761 -1.79934
# Poissons Ratio (z) = 0.82533 -7.73737
#
# Static dielectric constant tensor:
#      x y z
#    x 1.794390 0.000000 -0.054300 
#    y 0.000000 1.678320 0.000000 
#    z -0.054300 0.000000 1.738880 
# 
# From -- ./inp_files/295475.got.cif
#   From: 2010.05.17/outbox.ucp.g08.bks.cvg/sg12_148_cif.got.tgz:295475.got - 2010.06.11 11:47:21.
