data_PCOD9223015
_publ_section_title
;
Structure prediction by ZEFSAII (Michael W. Deem and Ramdas Pophale) SiO2 
 PCOD9223015
Probable space group: C 2/M
;
_chemical_formula_sum "Si O2"
_cell_formula_units_Z 56
_cell_length_a 21.628545
_cell_length_b 18.216878
_cell_length_c 6.824778
_cell_angle_alpha 90.000000
_cell_angle_beta 120.138793
_cell_angle_gamma 90.000000
_cell_volume 2325.473116
_symmetry_space_group_name_H-M "C 2/M"
_symmetry_group_IT_number 12
_symmetry_cell_setting 'monoclinic'
loop_
_space_group_symop_operation_xyz
x,y,z
-x,y,-z
-x,-y,-z
x,-y,z
1/2+x,1/2+y,z
1/2-x,1/2+y,-z
1/2-x,1/2-y,-z
1/2+x,1/2-y,z
loop_
_atom_site_type_symbol
_atom_site_label
_atom_site_fract_x
_atom_site_fract_y
_atom_site_fract_z
Si Si1 0.976850 0.351051 0.744238
Si Si2 0.366740 0.829210 0.063265
Si Si3 0.764885 0.917339 0.036949
Si Si4 0.685230 0.583523 0.423516
Si Si5 0.840487 0.585450 0.619619
Si Si6 0.942815 0.179235 0.676230
Si Si7 0.400721 0.661394 0.152894
O O1 0.906836 0.397822 0.583876
O O2 0.951646 0.266303 0.719551
O O3 0.051897 0.351255 0.747783
O O4 0.000000 0.376095 0.000000
O O5 0.369373 0.741579 0.054371
O O6 0.300405 0.860092 0.081229
O O7 0.353762 0.863732 0.829078
O O8 0.789213 0.915879 0.306237
O O9 0.837769 0.897316 0.040266
O O10 0.740137 0.000000 0.953206
O O11 0.661623 0.500000 0.346122
O O12 0.759070 0.600226 0.427471
O O13 0.621125 0.641361 0.306270
O O14 0.842618 0.500000 0.679752
O O15 0.921373 0.167495 0.415928
O O16 0.022969 0.147961 0.827732
#
# Coordination Sequence:
#
# PCOD9223015 Si02
#       7
#     8   8   8   8   8   8   8
#     4   9  18  29  44  66  86 110 144 181 215 251
#     4   9  16  27  43  64  89 113 138 172 214 253
#     4   9  16  26  42  65  89 114 146 177 207 248
#     4   8  15  27  43  64  88 113 142 177 215 251
#     4   9  17  29  46  68  88 108 142 182 213 246
#     4   9  17  29  44  64  88 114 143 175 214 256
#     4   9  17  28  43  64  91 116 140 174 213 255
#
# _framework density 24.081122000000001
#
# number of rings (size 3 to 8) (size 9 to 14) (size 15 to 20)
#    0.000    3.143    0.000    1.714    0.000    4.286 
#    0.000    2.857    0.000    2.143    0.000   24.000 
#    0.000    0.000    0.000    0.000    0.000    0.000 
#
# Total GULP energy -156471.331049 kJ/mol
# GULP energy per Si atom -5588.261823 kJ/mol
# Density = 2.402631 g / cm^3
# Si number density = 24.081122 Si / 1000 Ang^3
#
#
#
# Elastic Constant Matrix: (Units=GPa)
#
#
# Indices 1 2 3 4 5 6 
#
# 1 155.3682 64.0547 19.7582 0.0000 39.3396 0.0000
# 2 64.0547 77.8326 44.7405 0.0000 41.1110 0.0000
# 3 19.7582 44.7405 107.0730 0.0000 24.5728 0.0000
# 4 0.0000 0.0000 0.0000 0.5014 0.0000 -21.9940
# 5 39.3396 41.1110 24.5728 0.0000 50.3403 0.0000
# 6 0.0000 0.0000 0.0000 -21.9940 0.0000 5.5178
#
#
#
# Elastic Compliance Matrix: (Units=1/GPa)
#
#
# Indices 1 2 3 4 5 6 
#
# 1 0.010211 -0.008573 0.002165 0.000000 -0.002035 0.000000
# 2 -0.008573 0.033613 -0.008673 0.000000 -0.016518 0.000000
# 3 0.002165 -0.008673 0.012756 0.000000 -0.000836 0.000000
# 4 0.000000 0.000000 0.000000 -0.011472 0.000000 -0.045729
# 5 -0.002035 -0.016518 -0.000836 0.000000 0.035353 0.000000
# 6 0.000000 0.000000 0.000000 -0.045729 0.000000 -0.001043
#
#
# Mechanical properties :
#
#
# Convention : Reuss Voigt Hill
#
# Bulk Modulus (GPa) = 37.85174 66.37561 52.11368
# Shear Modulus (GPa) = 42.23534 25.38658 33.81096
#
# Velocity S-wave (km/s) = 4.19248 3.25038 3.75112
# Velocity P-wave (km/s) = 6.26006 6.45832 6.35996
#
# Compressibility (1/GPa) = 0.02641886
#
# Stress axis : x y z
#
# Youngs Moduli (GPa) = 97.93715 29.75019 78.39715
#
# Poissons Ratio (x) = 0.25504 -0.16973
# Poissons Ratio (y) = 0.83958 0.67991
# Poissons Ratio (z) = -0.21203 0.25801
#
# Static dielectric constant tensor:
#      x y z
#    x 1.999820 0.000000 -0.049690 
#    y 0.000000 1.806680 0.000000 
#    z -0.049690 0.000000 1.977110 
# 
# From -- ./inp_files/176794.got.cif
#   From: 2010.05.17/outbox.cif.g08.bks.cpg/sg12_89_cif.got.tgz:176794.got - 2010.06.03 13:09:07.
