data_PCOD9223895
_publ_section_title
;
Structure prediction by ZEFSAII (Michael W. Deem and Ramdas Pophale) SiO2 
 PCOD9223895
Probable space group: C 2/M
;
_chemical_formula_sum "Si O2"
_cell_formula_units_Z 32
_cell_length_a 30.000000
_cell_length_b 9.000000
_cell_length_c 24.000000
_cell_angle_alpha 90.000000
_cell_angle_beta 30.000000
_cell_angle_gamma 90.000000
_cell_volume 3240.000000
_symmetry_space_group_name_H-M "C 2/M"
_symmetry_group_IT_number 12
_symmetry_cell_setting 'monoclinic'
loop_
_space_group_symop_operation_xyz
x,y,z
-x,y,-z
-x,-y,-z
x,-y,z
1/2+x,1/2+y,z
1/2-x,1/2+y,-z
1/2-x,1/2-y,-z
1/2+x,1/2-y,z
loop_
_atom_site_type_symbol
_atom_site_label
_atom_site_fract_x
_atom_site_fract_y
_atom_site_fract_z
Si Si1 0.741487 0.821822 0.343475
Si Si2 0.684799 0.322102 0.615010
Si Si3 0.098940 0.820797 0.912135
Si Si4 0.991376 0.178979 0.251462
Si Si5 0.776361 0.674725 0.142167
Si Si6 0.558646 0.322126 0.569552
Si Si7 0.922252 0.819908 0.626464
Si Si8 0.317154 0.173490 0.969522
O O1 0.780373 0.784315 0.361974
O O2 0.819892 0.775173 0.216678
O O3 0.644084 0.748636 0.446703
O O4 0.731270 0.000000 0.349682
O O5 0.688689 0.500000 0.604383
O O6 0.750000 0.250000 0.500000
O O7 0.582967 0.278303 0.713364
O O8 0.136599 0.757414 0.928928
O O9 0.096373 0.000000 0.916716
O O10 0.000000 0.771621 0.000000
O O11 0.950512 0.221462 0.356066
O O12 0.085928 0.252748 0.139103
O O13 0.002116 0.000000 0.239920
O O14 0.782687 0.500000 0.150191
O O15 0.679704 0.733694 0.268365
O O16 0.777816 0.686941 0.074159
O O17 0.569935 0.500000 0.554421
O O18 0.466138 0.285584 0.638722
O O19 0.000000 0.769191 0.500000
O O20 0.917115 0.000000 0.626773
O O21 0.325268 0.000000 0.947492
O O22 0.250000 0.250000 0.000000
#
# Coordination Sequence:
#
# PCOD9223895 Si02
#       8
#     8   8   8   8   8   8   8   8
#     4  10  21  36  55  83 118 153 193 244 296 349
#     4  10  20  35  56  83 117 154 193 244 298 351
#     4  10  23  41  61  84 115 158 202 244 298 359
#     4  10  21  36  57  84 114 153 200 243 292 354
#     4  10  22  41  62  87 118 151 196 250 292 343
#     4  10  19  34  57  84 112 149 190 234 289 352
#     4   9  17  31  55  82 108 140 179 226 284 340
#     4  11  24  41  62  89 122 160 199 246 300 355
#
# _framework density 9.8765429999999999
#
# number of rings (size 3 to 8) (size 9 to 14) (size 15 to 20)
#    0.000    2.000    1.250    1.875    1.750    5.750 
#    0.000    0.625    0.000    2.250    0.000    0.000 
#    0.000    0.000    0.000    0.000    0.000    0.000 
#
# Total GULP energy -178583.001146 kJ/mol
# GULP energy per Si atom -5580.718786 kJ/mol
# Density = 0.985406 g / cm^3
# Si number density = 9.876543 Si / 1000 Ang^3
#
#
#
# Elastic Constant Matrix: (Units=GPa)
#
#
# Indices 1 2 3 4 5 6 
#
# 1 85.4226 24.5224 25.1882 0.0011 -32.0335 -0.0011
# 2 24.5224 9.2463 25.9804 0.0072 -4.9514 -0.0002
# 3 25.1882 25.9804 99.4300 0.0202 -35.9567 -0.0023
# 4 0.0011 0.0072 0.0202 31.6617 -0.0039 -8.6015
# 5 -32.0335 -4.9514 -35.9567 -0.0039 39.6157 -0.0005
# 6 -0.0011 -0.0002 -0.0023 -8.6015 -0.0005 15.4111
#
#
#
# Elastic Compliance Matrix: (Units=1/GPa)
#
#
# Indices 1 2 3 4 5 6 
#
# 1 -0.004611 0.058495 -0.019085 -0.000004 -0.013739 -0.000005
# 2 0.058495 -0.159329 0.054656 0.000014 0.076994 0.000021
# 3 -0.019085 0.054656 -0.003721 -0.000013 -0.011978 -0.000009
# 4 -0.000004 0.000014 -0.000013 0.037229 -0.000010 0.020779
# 5 -0.013739 0.076994 -0.011978 -0.000010 0.012884 -0.000007
# 6 -0.000005 0.000021 -0.000009 0.020779 -0.000007 0.076486
#
#
# Mechanical properties :
#
#
# Convention : Reuss Voigt Hill
#
# Bulk Modulus (GPa) = 48.84496 38.38674 43.61585
# Shear Modulus (GPa) = -22.48494 25.23155 1.37330
#
# Velocity S-wave (km/s) = -3.37753 3.57788 0.83471
# Velocity P-wave (km/s) = 3.09373 6.04514 4.80182
#
# Compressibility (1/GPa) = 0.02047294
#
# Stress axis : x y z
#
# Youngs Moduli (GPa) = -216.89601 -6.27631 -268.74825
#
# Poissons Ratio (x) = 0.36713 -5.12904
# Poissons Ratio (y) = 12.68739 14.68882
# Poissons Ratio (z) = -4.13944 0.34304
#
# Static dielectric constant tensor:
#      x y z
#    x 1.737970 -0.000030 0.031700 
#    y -0.000030 1.721560 -0.000020 
#    z 0.031700 -0.000020 1.685280 
# 
# From -- ./inp_files/353375.got.cif
#   From: 2010.05.17/outbox.ucp.g08.bks.cvg/sg12_177_cif.got.tgz:353375.got - 2010.06.11 11:47:21.
