data_PCOD9223980
_publ_section_title
;
Structure prediction by ZEFSAII (Michael W. Deem and Ramdas Pophale) SiO2 
 PCOD9223980
Probable space group: C 2/M
;
_chemical_formula_sum "Si O2"
_cell_formula_units_Z 28
_cell_length_a 21.000000
_cell_length_b 9.000000
_cell_length_c 18.000000
_cell_angle_alpha 90.000000
_cell_angle_beta 60.000000
_cell_angle_gamma 90.000000
_cell_volume 2946.218424
_symmetry_space_group_name_H-M "C 2/M"
_symmetry_group_IT_number 12
_symmetry_cell_setting 'monoclinic'
loop_
_space_group_symop_operation_xyz
x,y,z
-x,y,-z
-x,-y,-z
x,-y,z
1/2+x,1/2+y,z
1/2-x,1/2+y,-z
1/2-x,1/2-y,-z
1/2+x,1/2-y,z
loop_
_atom_site_type_symbol
_atom_site_label
_atom_site_fract_x
_atom_site_fract_y
_atom_site_fract_z
Si Si1 0.728553 0.332950 0.626448
Si Si2 0.355185 0.332792 0.481208
Si Si3 0.080673 0.681166 0.974040
Si Si4 0.171039 0.678977 0.063149
Si Si5 0.199986 0.676487 0.784346
Si Si6 0.501944 0.826983 0.410019
Si Si7 0.651616 0.821662 0.244560
O O1 0.732438 0.500000 0.653261
O O2 0.688076 0.333443 0.571224
O O3 0.809944 0.271134 0.563498
O O4 0.686810 0.230224 0.708695
O O5 0.356539 0.500000 0.510115
O O6 0.435382 0.271006 0.420299
O O7 0.078671 0.500000 0.975607
O O8 0.137923 0.727758 0.877567
O O9 0.112606 0.727081 0.034993
O O10 0.000000 0.734628 0.000000
O O11 0.178485 0.500000 0.054072
O O12 0.146282 0.716566 0.160678
O O13 0.250000 0.750000 0.000000
O O14 0.203778 0.500000 0.785106
O O15 0.276898 0.745062 0.764372
O O16 0.500000 0.816801 0.500000
O O17 0.579207 0.777990 0.331584
O O18 0.490510 0.000000 0.396256
O O19 0.659361 0.000000 0.245933
#
# Coordination Sequence:
#
# PCOD9223980 Si02
#       7
#     8   8   8   8   8   8   8
#     4  10  21  37  57  80 112 149 184 228 283 345
#     4  10  21  37  57  82 110 146 188 232 281 333
#     4   9  19  35  55  82 115 148 186 238 293 342
#     4  10  19  35  58  82 111 149 193 241 289 341
#     4  11  21  34  57  85 110 144 191 238 283 337
#     4  10  21  36  54  80 116 153 188 231 285 340
#     4  10  21  35  56  83 112 154 197 235 288 350
#
# _framework density 9.5037079999999996
#
# number of rings (size 3 to 8) (size 9 to 14) (size 15 to 20)
#    0.000    2.000    1.429    2.143    0.000    4.857 
#    0.000    2.857    0.000    3.857    0.000    0.000 
#    0.000    0.000    0.000    0.000    0.000    0.000 
#
# Total GULP energy -156274.400861 kJ/mol
# GULP energy per Si atom -5581.228602 kJ/mol
# Density = 0.948208 g / cm^3
# Si number density = 9.503708 Si / 1000 Ang^3
#
#
#
# Elastic Constant Matrix: (Units=GPa)
#
#
# Indices 1 2 3 4 5 6 
#
# 1 82.5025 35.1758 24.4736 0.0000 -18.7972 0.0000
# 2 35.1758 25.6776 27.4536 0.0001 -13.9244 -0.0001
# 3 24.4736 27.4536 84.5051 0.0000 -9.8038 0.0000
# 4 0.0000 0.0001 0.0000 29.7011 0.0000 0.4945
# 5 -18.7972 -13.9244 -9.8038 0.0000 27.8447 0.0000
# 6 0.0000 -0.0001 0.0000 0.4945 0.0000 25.7556
#
#
#
# Elastic Compliance Matrix: (Units=1/GPa)
#
#
# Indices 1 2 3 4 5 6 
#
# 1 0.032180 -0.053827 0.007887 0.000000 -0.002416 0.000000
# 2 -0.053827 0.170419 -0.035557 0.000000 0.036366 0.000001
# 3 0.007887 -0.035557 0.020493 0.000000 -0.005242 0.000000
# 4 0.000000 0.000000 0.000000 0.033680 0.000000 -0.000647
# 5 -0.002416 0.036366 -0.005242 0.000000 0.050622 0.000000
# 6 0.000000 0.000001 0.000000 -0.000647 0.000000 0.038839
#
#
# Mechanical properties :
#
#
# Convention : Reuss Voigt Hill
#
# Bulk Modulus (GPa) = 16.63941 40.76570 28.70255
# Shear Modulus (GPa) = 9.44715 23.69912 16.57313
#
# Velocity S-wave (km/s) = 2.23182 3.53489 2.95605
# Velocity P-wave (km/s) = 3.92614 6.17692 5.17537
#
# Compressibility (1/GPa) = 0.06009830
#
# Stress axis : x y z
#
# Youngs Moduli (GPa) = 31.07484 5.86789 48.79715
#
# Poissons Ratio (x) = 0.31585 -0.38486
# Poissons Ratio (y) = 1.67266 1.73509
# Poissons Ratio (z) = -0.24508 0.20865
#
# Static dielectric constant tensor:
#      x y z
#    x 1.654040 0.000000 0.028960 
#    y 0.000000 1.658440 0.000000 
#    z 0.028960 0.000000 1.687130 
# 
# From -- ./inp_files/280855.got.cif
#   From: 2010.05.17/outbox.ucp.g08.bks.cvg/sg12_141_cif.got.tgz:280855.got - 2010.06.11 11:47:21.
