data_PCOD9223332
_publ_section_title
;
Structure prediction by ZEFSAII (Michael W. Deem and Ramdas Pophale) SiO2 
 PCOD9223332
Probable space group: C 2/M
;
_chemical_formula_sum "Si O2"
_cell_formula_units_Z 32
_cell_length_a 24.000000
_cell_length_b 9.000000
_cell_length_c 30.000000
_cell_angle_alpha 90.000000
_cell_angle_beta 30.000000
_cell_angle_gamma 90.000000
_cell_volume 3240.000000
_symmetry_space_group_name_H-M "C 2/M"
_symmetry_group_IT_number 12
_symmetry_cell_setting 'monoclinic'
loop_
_space_group_symop_operation_xyz
x,y,z
-x,y,-z
-x,-y,-z
x,-y,z
1/2+x,1/2+y,z
1/2-x,1/2+y,-z
1/2-x,1/2-y,-z
1/2+x,1/2-y,z
loop_
_atom_site_type_symbol
_atom_site_label
_atom_site_fract_x
_atom_site_fract_y
_atom_site_fract_z
Si Si1 0.131359 0.323087 0.356643
Si Si2 0.766876 0.679838 0.623851
Si Si3 0.572498 0.177113 0.057945
Si Si4 0.975807 0.680615 0.718665
Si Si5 0.029734 0.679356 0.780863
Si Si6 0.926259 0.681443 0.438468
Si Si7 0.722262 0.321403 0.885028
Si Si8 0.128874 0.176700 0.856147
O O1 0.110381 0.500000 0.374461
O O2 0.149115 0.271080 0.394956
O O3 0.250360 0.304463 0.250281
O O4 0.031534 0.265488 0.395239
O O5 0.757963 0.500000 0.632475
O O6 0.647365 0.751432 0.713148
O O7 0.816798 0.723289 0.541506
O O8 0.557442 0.218805 0.120075
O O9 0.464182 0.234812 0.106053
O O10 0.579343 0.000000 0.049789
O O11 0.675897 0.252369 0.962100
O O12 0.979791 0.500000 0.717193
O O13 0.851037 0.720172 0.789738
O O14 0.999221 0.732169 0.752450
O O15 0.059641 0.732052 0.622009
O O16 0.038792 0.500000 0.774022
O O17 0.929769 0.500000 0.435379
O O18 0.717250 0.500000 0.890653
O O19 0.646806 0.276980 0.895041
O O20 0.101470 0.000000 0.873985
#
# Coordination Sequence:
#
# PCOD9223332 Si02
#       8
#     8   8   8   8   8   8   8   8
#     4   9  15  27  50  81 110 130 159 210 262 304
#     4  10  19  31  54  84 109 133 167 213 261 305
#     4  11  23  36  51  75 108 142 172 206 258 315
#     4   9  18  35  55  75 102 137 176 216 257 302
#     4  10  22  38  53  71 103 145 180 210 251 306
#     4   9  16  29  53  84 108 130 167 216 263 304
#     4  10  20  35  58  82 101 129 174 220 260 305
#     4  10  18  32  56  82 105 131 168 213 259 309
#
# _framework density 9.8765429999999999
#
# number of rings (size 3 to 8) (size 9 to 14) (size 15 to 20)
#    0.000    2.250    2.500    1.125    0.000    5.000 
#    0.000    0.625    0.000    3.000    0.000    0.000 
#    0.000    0.000    0.000    0.000    0.000    0.000 
#
# Total GULP energy -178508.645915 kJ/mol
# GULP energy per Si atom -5578.395185 kJ/mol
# Density = 0.985406 g / cm^3
# Si number density = 9.876543 Si / 1000 Ang^3
#
#
#
# Elastic Constant Matrix: (Units=GPa)
#
#
# Indices 1 2 3 4 5 6 
#
# 1 58.4268 4.4496 22.0293 0.0060 36.8923 0.0014
# 2 4.4496 -3.0173 5.2097 0.0073 8.3105 0.0007
# 3 22.0293 5.2097 62.8219 0.0007 38.8960 0.0006
# 4 0.0060 0.0073 0.0007 5.6171 -0.0018 8.4064
# 5 36.8923 8.3105 38.8960 -0.0018 36.5078 -0.0006
# 6 0.0014 0.0007 0.0006 8.4064 -0.0006 11.6458
#
#
#
# Elastic Compliance Matrix: (Units=1/GPa)
#
#
# Indices 1 2 3 4 5 6 
#
# 1 0.063376 -0.078997 0.037743 -0.000207 -0.086273 0.000140
# 2 -0.078997 -0.082361 -0.077868 -0.002699 0.181539 0.001977
# 3 0.037743 -0.077868 0.063994 -0.000453 -0.088595 0.000320
# 4 -0.000207 -0.002699 -0.000453 -2.217960 0.001225 1.600999
# 5 -0.086273 0.181539 -0.088595 0.001225 0.167639 -0.000872
# 6 0.000140 0.001977 0.000320 1.600999 -0.000872 -1.069788
#
#
# Mechanical properties :
#
#
# Convention : Reuss Voigt Hill
#
# Bulk Modulus (GPa) = -5.17509 20.17872 7.50181
# Shear Modulus (GPa) = -1.72338 16.52368 7.40015
#
# Velocity S-wave (km/s) = -0.93507 2.89539 1.93764
# Velocity P-wave (km/s) = 1.94715 4.62767 2.96850
#
# Compressibility (1/GPa) = -0.19323321
#
# Stress axis : x y z
#
# Youngs Moduli (GPa) = 15.77880 -12.14168 15.62649
#
# Poissons Ratio (x) = -0.95915 -0.58980
# Poissons Ratio (y) = 1.24647 1.21680
# Poissons Ratio (z) = -0.59555 -0.94545
#
# Static dielectric constant tensor:
#      x y z
#    x 1.707380 0.000000 0.034510 
#    y 0.000000 1.655880 0.000000 
#    z 0.034510 0.000000 1.713920 
# 
# From -- ./inp_files/382392.got.cif
#   From: 2010.05.17/outbox.ucp.g08.bks.cvg/sg12_192_cif.got.tgz:382392.got - 2010.06.11 11:47:21.
