data_PCOD9223358
_publ_section_title
;
Structure prediction by ZEFSAII (Michael W. Deem and Ramdas Pophale) SiO2 
 PCOD9223358
Probable space group: C 2/M
;
_chemical_formula_sum "Si O2"
_cell_formula_units_Z 28
_cell_length_a 21.000000
_cell_length_b 18.000000
_cell_length_c 9.000000
_cell_angle_alpha 90.000000
_cell_angle_beta 60.000000
_cell_angle_gamma 90.000000
_cell_volume 2946.218424
_symmetry_space_group_name_H-M "C 2/M"
_symmetry_group_IT_number 12
_symmetry_cell_setting 'monoclinic'
loop_
_space_group_symop_operation_xyz
x,y,z
-x,y,-z
-x,-y,-z
x,-y,z
1/2+x,1/2+y,z
1/2-x,1/2+y,-z
1/2-x,1/2-y,-z
1/2+x,1/2-y,z
loop_
_atom_site_type_symbol
_atom_site_label
_atom_site_fract_x
_atom_site_fract_y
_atom_site_fract_z
Si Si1 0.043025 0.317083 0.802040
Si Si2 0.319650 0.088712 0.238912
Si Si3 0.052347 0.582526 0.298005
Si Si4 0.481834 0.674033 0.344752
Si Si5 0.693677 0.849337 0.083939
Si Si6 0.352256 0.323617 0.871545
Si Si7 0.345166 0.412744 0.571299
O O1 0.116098 0.363637 0.757891
O O2 0.055344 0.246736 0.681967
O O3 0.984198 0.366988 0.783385
O O4 0.000000 0.292392 0.000000
O O5 0.236563 0.100094 0.400497
O O6 0.335440 0.000000 0.225144
O O7 0.313903 0.116456 0.073738
O O8 0.056206 0.500000 0.232796
O O9 0.133522 0.607610 0.249055
O O10 0.000000 0.585032 0.500000
O O11 0.500000 0.684822 0.500000
O O12 0.563336 0.663645 0.177390
O O13 0.420415 0.610022 0.400101
O O14 0.665438 0.764174 0.115184
O O15 0.778285 0.854294 0.037353
O O16 0.347835 0.362075 0.715502
O O17 0.348214 0.500000 0.606502
#
# Coordination Sequence:
#
# PCOD9223358 Si02
#       7
#     8   8   8   8   8   8   8
#     4  12  22  34  57  83 114 150 195 225 275 340
#     4  10  20  35  55  83 116 150 191 233 273 333
#     4  11  23  36  54  82 115 151 188 231 282 334
#     4  10  20  36  58  84 117 144 183 238 286 328
#     4  10  18  33  54  79 113 149 184 224 282 330
#     4   9  18  31  54  82 108 146 180 231 275 333
#     4   9  20  36  57  84 112 144 188 240 289 331
#
# _framework density 9.5037079999999996
#
# number of rings (size 3 to 8) (size 9 to 14) (size 15 to 20)
#    0.000    1.857    2.857    1.286    2.000    4.286 
#    0.000    0.000    3.143    0.429    0.000    1.000 
#    0.000    0.000    0.000    0.000    0.000    0.000 
#
# Total GULP energy -155955.573002 kJ/mol
# GULP energy per Si atom -5569.841893 kJ/mol
# Density = 0.948208 g / cm^3
# Si number density = 9.503708 Si / 1000 Ang^3
#
#
#
# Elastic Constant Matrix: (Units=GPa)
#
#
# Indices 1 2 3 4 5 6 
#
# 1 112.3831 36.6411 33.7388 0.0000 -40.3851 0.0000
# 2 36.6411 36.0653 16.8372 0.0000 0.3565 0.0000
# 3 33.7388 16.8372 42.8120 0.0000 -29.4403 0.0000
# 4 0.0000 0.0000 0.0000 18.8006 0.0000 -12.2056
# 5 -40.3851 0.3565 -29.4403 0.0000 41.9393 0.0000
# 6 0.0000 0.0000 0.0000 -12.2056 0.0000 29.6741
#
#
#
# Elastic Compliance Matrix: (Units=1/GPa)
#
#
# Indices 1 2 3 4 5 6 
#
# 1 0.039868 -0.057204 0.034436 0.000000 0.063050 0.000000
# 2 -0.057204 0.125790 -0.083137 0.000000 -0.114513 0.000000
# 3 0.034436 -0.083137 0.100923 0.000000 0.104712 0.000000
# 4 0.000000 0.000000 0.000000 0.072568 0.000000 0.029849
# 5 0.063050 -0.114513 0.104712 0.000000 0.159035 0.000000
# 6 0.000000 0.000000 0.000000 0.029849 0.000000 0.045977
#
#
# Mechanical properties :
#
#
# Convention : Reuss Voigt Hill
#
# Bulk Modulus (GPa) = 18.25820 40.63274 29.44547
# Shear Modulus (GPa) = 6.45805 25.01903 15.73854
#
# Velocity S-wave (km/s) = 1.84527 3.63199 2.88066
# Velocity P-wave (km/s) = 3.76387 6.24597 5.15650
#
# Compressibility (1/GPa) = 0.05476992
#
# Stress axis : x y z
#
# Youngs Moduli (GPa) = 25.08290 7.94978 9.90857
#
# Poissons Ratio (x) = 0.45476 -0.34121
# Poissons Ratio (y) = 1.43484 0.82377
# Poissons Ratio (z) = -0.86375 0.66092
#
# Static dielectric constant tensor:
#      x y z
#    x 1.678750 0.000000 -0.055000 
#    y 0.000000 1.666590 0.000000 
#    z -0.055000 0.000000 1.732990 
# 
# From -- ./inp_files/87826.got.cif
#   From: 2010.05.17/outbox.ucp.g08.bks.cvg/sg12_44_cif.got.tgz:87826.got - 2010.06.11 11:47:21.
