data_PCOD9223011
_publ_section_title
;
Structure prediction by ZEFSAII (Michael W. Deem and Ramdas Pophale) SiO2 
 PCOD9223011
Probable space group: C 2/M
;
_chemical_formula_sum "Si O2"
_cell_formula_units_Z 56
_cell_length_a 15.858908
_cell_length_b 7.534691
_cell_length_c 19.224461
_cell_angle_alpha 90.000000
_cell_angle_beta 61.618171
_cell_angle_gamma 90.000000
_cell_volume 2021.047613
_symmetry_space_group_name_H-M "C 2/M"
_symmetry_group_IT_number 12
_symmetry_cell_setting 'monoclinic'
loop_
_space_group_symop_operation_xyz
x,y,z
-x,y,-z
-x,-y,-z
x,-y,z
1/2+x,1/2+y,z
1/2-x,1/2+y,-z
1/2-x,1/2-y,-z
1/2+x,1/2-y,z
loop_
_atom_site_type_symbol
_atom_site_label
_atom_site_fract_x
_atom_site_fract_y
_atom_site_fract_z
Si Si1 0.196457 0.209077 0.447745
Si Si2 0.173782 0.291710 0.267284
Si Si3 0.615076 0.288747 0.838734
Si Si4 0.114551 0.714054 0.689517
Si Si5 0.492899 0.788728 0.407278
Si Si6 0.342494 0.285294 0.879580
Si Si7 0.616140 0.291556 0.987904
O O1 0.250000 0.250000 0.500000
O O2 0.274829 0.280422 0.362168
O O3 0.086354 0.266438 0.501254
O O4 0.193169 0.000000 0.441602
O O5 0.187689 0.500000 0.275328
O O6 0.278524 0.209063 0.215919
O O7 0.126691 0.278260 0.208711
O O8 0.100309 0.215455 0.353137
O O9 0.622517 0.500000 0.846895
O O10 0.570167 0.267471 0.780385
O O11 0.578004 0.221415 0.927964
O O12 0.115280 0.500000 0.686561
O O13 0.060755 0.777493 0.641675
O O14 0.503807 0.000000 0.397810
O O15 0.343900 0.500000 0.879232
O O16 0.231699 0.222637 0.930998
O O17 0.395088 0.219005 0.929272
O O18 0.590794 0.500000 0.003705
#
# Coordination Sequence:
#
# PCOD9223011 Si02
#       7
#     8   8   8   8   8   8   8
#     4   9  17  30  48  69  91 116 150 189 224 262
#     4   9  18  32  47  66  94 122 149 185 227 268
#     4   9  17  29  46  67  91 120 150 182 223 269
#     4   9  18  31  47  68  91 115 146 186 227 264
#     4   9  18  33  51  68  89 119 153 188 224 264
#     4   9  15  24  42  66  89 115 150 189 224 261
#     4   8  15  27  41  61  90 120 151 185 220 261
#
# _framework density 27.708403000000001
#
# number of rings (size 3 to 8) (size 9 to 14) (size 15 to 20)
#    0.000    3.143    0.000    2.571    0.000    6.286 
#    0.000    0.714    0.000    5.143    0.000    6.000 
#    0.000    0.000    0.000    0.000    0.000    0.000 
#
# Total GULP energy -156468.392983 kJ/mol
# GULP energy per Si atom -5588.156892 kJ/mol
# Density = 2.764534 g / cm^3
# Si number density = 27.708403 Si / 1000 Ang^3
#
#
#
# Elastic Constant Matrix: (Units=GPa)
#
#
# Indices 1 2 3 4 5 6 
#
# 1 69.2964 8.7072 20.1522 0.0000 -7.1470 0.0001
# 2 8.7072 102.1995 -6.1424 0.0000 -2.7251 0.0002
# 3 20.1522 -6.1424 242.8585 0.0000 -10.2523 0.0000
# 4 0.0000 0.0000 0.0000 21.4155 0.0000 14.5669
# 5 -7.1470 -2.7251 -10.2523 0.0000 63.4063 0.0000
# 6 0.0001 0.0002 0.0000 14.5669 0.0000 12.7733
#
#
#
# Elastic Compliance Matrix: (Units=1/GPa)
#
#
# Indices 1 2 3 4 5 6 
#
# 1 0.015103 -0.001322 -0.001226 0.000000 0.001447 0.000000
# 2 -0.001322 0.009929 0.000375 0.000000 0.000338 -0.000001
# 3 -0.001226 0.000375 0.004253 0.000000 0.000566 0.000000
# 4 0.000000 0.000000 0.000000 0.208199 0.000000 -0.237434
# 5 0.001447 0.000338 0.000566 0.000000 0.016040 0.000000
# 6 0.000000 -0.000001 0.000000 -0.237434 0.000000 0.349062
#
#
# Mechanical properties :
#
#
# Convention : Reuss Voigt Hill
#
# Bulk Modulus (GPa) = 40.09665 51.08761 45.59213
# Shear Modulus (GPa) = 8.12687 45.62818 26.87752
#
# Velocity S-wave (km/s) = 1.71446 4.06239 3.11788
# Velocity P-wave (km/s) = 4.29203 6.36252 5.42693
#
# Compressibility (1/GPa) = 0.02493974
#
# Stress axis : x y z
#
# Youngs Moduli (GPa) = 66.21415 100.71550 235.14576
#
# Poissons Ratio (x) = 0.13312 0.28818
# Poissons Ratio (y) = 0.08752 -0.08820
# Poissons Ratio (z) = 0.08115 -0.03778
#
# Static dielectric constant tensor:
#      x y z
#    x 2.323000 0.000000 -0.036980 
#    y 0.000000 1.920430 0.000000 
#    z -0.036980 0.000000 1.865320 
# 
# From -- ./inp_files/319001.got.cif
#   From: 2010.05.17/outbox.cif.g08.bks.cpg/sg12_160_cif.got.tgz:319001.got - 2010.06.03 13:09:07.
