data_PCOD9223262
_publ_section_title
;
Structure prediction by ZEFSAII (Michael W. Deem and Ramdas Pophale) SiO2 
 PCOD9223262
Probable space group: C 2/M
;
_chemical_formula_sum "Si O2"
_cell_formula_units_Z 32
_cell_length_a 21.000000
_cell_length_b 9.000000
_cell_length_c 21.000000
_cell_angle_alpha 90.000000
_cell_angle_beta 60.000000
_cell_angle_gamma 90.000000
_cell_volume 3437.254828
_symmetry_space_group_name_H-M "C 2/M"
_symmetry_group_IT_number 12
_symmetry_cell_setting 'monoclinic'
loop_
_space_group_symop_operation_xyz
x,y,z
-x,y,-z
-x,-y,-z
x,-y,z
1/2+x,1/2+y,z
1/2-x,1/2+y,-z
1/2-x,1/2-y,-z
1/2+x,1/2-y,z
loop_
_atom_site_type_symbol
_atom_site_label
_atom_site_fract_x
_atom_site_fract_y
_atom_site_fract_z
Si Si1 0.880119 0.827461 0.072981
Si Si2 0.331904 0.820533 0.967708
Si Si3 0.952151 0.823873 0.290235
Si Si4 0.795848 0.823583 0.420376
Si Si5 0.078038 0.669367 0.826087
Si Si6 0.723480 0.160765 0.221905
Si Si7 0.757218 0.664189 0.315027
Si Si8 0.586161 0.168213 0.200547
O O1 0.929737 0.751718 0.102707
O O2 0.799609 0.822428 0.146253
O O3 0.899492 0.000000 0.052426
O O4 0.869570 0.737984 0.013324
O O5 0.386116 0.778780 0.882480
O O6 0.324507 0.000000 0.971718
O O7 0.250000 0.750000 0.000000
O O8 0.881059 0.772142 0.366070
O O9 0.953897 0.758683 0.217470
O O10 0.031117 0.765001 0.270831
O O11 0.947741 0.000000 0.289499
O O12 0.750000 0.750000 0.500000
O O13 0.759147 0.777384 0.371996
O O14 0.796317 0.000000 0.428919
O O15 0.052069 0.500000 0.844992
O O16 0.163182 0.662801 0.759715
O O17 0.706905 0.282890 0.282860
O O18 0.661456 0.159210 0.201014
O O19 0.728424 0.000000 0.252709
O O20 0.741499 0.500000 0.347093
O O21 0.555923 0.000000 0.210422
#
# Coordination Sequence:
#
# PCOD9223262 Si02
#       8
#     8   8   8   8   8   8   8   8
#     4  10  18  31  50  74 102 133 173 225 271 310
#     4  11  21  34  50  73 103 137 179 224 269 313
#     4  10  21  36  54  79 107 137 172 213 258 309
#     4  10  20  35  57  84 111 137 167 206 254 305
#     4   9  17  31  51  74 100 135 173 214 261 313
#     4   9  17  31  49  72 103 138 175 214 259 305
#     4   9  17  29  49  79 107 133 170 211 253 301
#     4  10  21  36  52  73 104 143 179 215 262 315
#
# _framework density 9.3097549999999991
#
# number of rings (size 3 to 8) (size 9 to 14) (size 15 to 20)
#    0.000    2.250    1.250    2.250    0.000    6.500 
#    0.000    0.625    0.000    4.500    0.000    5.250 
#    0.000    0.000    0.000    0.000    0.000    0.000 
#
# Total GULP energy -178179.896678 kJ/mol
# GULP energy per Si atom -5568.121771 kJ/mol
# Density = 0.928857 g / cm^3
# Si number density = 9.309755 Si / 1000 Ang^3
#
#
#
# Elastic Constant Matrix: (Units=GPa)
#
#
# Indices 1 2 3 4 5 6 
#
# 1 23.2429 14.8256 8.9807 0.0000 -3.4859 -0.0001
# 2 14.8256 56.2062 35.7542 -0.0002 -8.9505 0.0000
# 3 8.9807 35.7542 70.1412 0.0000 -7.7298 0.0000
# 4 0.0000 -0.0002 0.0000 29.4264 0.0000 5.9574
# 5 -3.4859 -8.9505 -7.7298 0.0000 21.7944 0.0000
# 6 -0.0001 0.0000 0.0000 5.9574 0.0000 21.8194
#
#
#
# Elastic Compliance Matrix: (Units=1/GPa)
#
#
# Indices 1 2 3 4 5 6 
#
# 1 0.051912 -0.013620 0.000619 0.000000 0.002929 0.000000
# 2 -0.013620 0.030761 -0.013304 0.000000 0.005736 0.000000
# 3 0.000619 -0.013304 0.021197 0.000000 0.002153 0.000000
# 4 0.000000 0.000000 0.000000 0.035971 0.000000 -0.009821
# 5 0.002929 0.005736 0.002153 0.000000 0.049471 0.000000
# 6 0.000000 0.000000 0.000000 -0.009821 0.000000 0.048512
#
#
# Mechanical properties :
#
#
# Convention : Reuss Voigt Hill
#
# Bulk Modulus (GPa) = 19.50900 29.85680 24.68290
# Shear Modulus (GPa) = 16.25909 20.61004 18.43457
#
# Velocity S-wave (km/s) = 2.95825 3.33063 3.14995
# Velocity P-wave (km/s) = 4.70837 5.55525 5.14925
#
# Compressibility (1/GPa) = 0.05125839
#
# Stress axis : x y z
#
# Youngs Moduli (GPa) = 19.26352 32.50906 47.17718
#
# Poissons Ratio (x) = 0.44277 -0.02920
# Poissons Ratio (y) = 0.26237 0.62765
# Poissons Ratio (z) = -0.01192 0.43250
#
# Static dielectric constant tensor:
#      x y z
#    x 1.773050 0.000000 -0.012900 
#    y 0.000000 1.659780 0.000000 
#    z -0.012900 0.000000 1.612830 
# 
# From -- ./inp_files/295741.got.cif
#   From: 2010.05.17/outbox.ucp.g08.bks.cvg/sg12_148_cif.got.tgz:295741.got - 2010.06.11 11:47:21.
