data_PCOD9223681
_publ_section_title
;
Structure prediction by ZEFSAII (Michael W. Deem and Ramdas Pophale) SiO2 
 PCOD9223681
Probable space group: C 2/M
;
_chemical_formula_sum "Si O2"
_cell_formula_units_Z 28
_cell_length_a 30.000000
_cell_length_b 9.000000
_cell_length_c 21.000000
_cell_angle_alpha 90.000000
_cell_angle_beta 30.000000
_cell_angle_gamma 90.000000
_cell_volume 2835.000000
_symmetry_space_group_name_H-M "C 2/M"
_symmetry_group_IT_number 12
_symmetry_cell_setting 'monoclinic'
loop_
_space_group_symop_operation_xyz
x,y,z
-x,y,-z
-x,-y,-z
x,-y,z
1/2+x,1/2+y,z
1/2-x,1/2+y,-z
1/2-x,1/2-y,-z
1/2+x,1/2-y,z
loop_
_atom_site_type_symbol
_atom_site_label
_atom_site_fract_x
_atom_site_fract_y
_atom_site_fract_z
Si Si1 0.372633 0.325388 0.450394
Si Si2 0.238065 0.823297 0.803187
Si Si3 0.691050 0.321066 0.722617
Si Si4 0.401360 0.328738 0.650687
Si Si5 0.555497 0.178134 0.270602
Si Si6 0.058493 0.174992 0.775297
Si Si7 0.380682 0.824006 0.947036
O O1 0.375989 0.500000 0.462289
O O2 0.281434 0.253099 0.586124
O O3 0.457616 0.244911 0.376898
O O4 0.381272 0.312332 0.362889
O O5 0.183558 0.782549 0.806670
O O6 0.335689 0.752165 0.682884
O O7 0.244148 0.000000 0.797953
O O8 0.193741 0.761694 0.921815
O O9 0.699632 0.500000 0.707699
O O10 0.611037 0.280319 0.773933
O O11 0.500000 0.324929 0.500000
O O12 0.373810 0.500000 0.692717
O O13 0.404611 0.248273 0.714965
O O14 0.611958 0.213537 0.136895
O O15 0.549702 0.000000 0.283801
O O16 0.972951 0.273314 0.865665
O O17 0.032566 0.000000 0.812961
O O18 0.368735 0.000000 0.967572
#
# Coordination Sequence:
#
# PCOD9223681 Si02
#       7
#     8   8   8   8   8   8   8
#     4  10  19  32  55  86 117 149 186 232 284 334
#     4  11  24  40  59  82 112 152 192 231 277 332
#     4  10  21  36  55  81 114 153 193 233 279 333
#     4  11  24  41  62  89 118 146 180 226 279 333
#     4  10  21  38  61  85 112 149 188 229 280 336
#     4   9  19  36  57  82 114 151 190 232 280 335
#     4  10  22  40  60  84 113 146 189 237 281 328
#
# _framework density 9.8765429999999999
#
# number of rings (size 3 to 8) (size 9 to 14) (size 15 to 20)
#    0.000    1.857    0.000    3.429    0.000    8.571 
#    0.000    2.857    0.000    0.000    0.000    0.000 
#    0.000    0.000    0.000    0.000    0.000    0.000 
#
# Total GULP energy -156452.236567 kJ/mol
# GULP energy per Si atom -5587.579877 kJ/mol
# Density = 0.985406 g / cm^3
# Si number density = 9.876543 Si / 1000 Ang^3
#
#
#
# Elastic Constant Matrix: (Units=GPa)
#
#
# Indices 1 2 3 4 5 6 
#
# 1 109.0987 32.4830 -0.3200 0.0018 15.3785 -0.0002
# 2 32.4830 47.8452 16.4104 -0.0006 12.5231 0.0014
# 3 -0.3200 16.4104 37.4653 0.0035 5.8120 0.0014
# 4 0.0018 -0.0006 0.0035 26.6556 0.0003 -8.7423
# 5 15.3785 12.5231 5.8120 0.0003 13.8516 -0.0002
# 6 -0.0002 0.0014 0.0014 -8.7423 -0.0002 23.9975
#
#
#
# Elastic Compliance Matrix: (Units=1/GPa)
#
#
# Indices 1 2 3 4 5 6 
#
# 1 0.012874 -0.008097 0.005068 -0.000002 -0.009099 0.000000
# 2 -0.008097 0.035423 -0.012848 0.000003 -0.017645 0.000000
# 3 0.005068 -0.012848 0.033622 -0.000006 -0.008119 -0.000003
# 4 -0.000002 0.000003 -0.000006 0.042606 0.000001 0.015522
# 5 -0.009099 -0.017645 -0.008119 0.000001 0.101655 0.000002
# 6 0.000000 0.000000 -0.000003 0.015522 0.000002 0.047326
#
#
# Mechanical properties :
#
#
# Convention : Reuss Voigt Hill
#
# Bulk Modulus (GPa) = 19.93398 32.39512 26.16455
# Shear Modulus (GPa) = 15.52880 22.62333 19.07607
#
# Velocity S-wave (km/s) = 2.80687 3.38791 3.11098
# Velocity P-wave (km/s) = 4.54072 5.63379 5.11653
#
# Compressibility (1/GPa) = 0.05016559
#
# Stress axis : x y z
#
# Youngs Moduli (GPa) = 77.67322 28.22995 29.74266
#
# Poissons Ratio (x) = 0.22859 -0.15075
# Poissons Ratio (y) = 0.62895 0.38213
# Poissons Ratio (z) = -0.39368 0.36270
#
# Static dielectric constant tensor:
#      x y z
#    x 1.679080 0.000000 0.001870 
#    y 0.000000 1.657740 0.000000 
#    z 0.001870 0.000000 1.720940 
# 
# From -- ./inp_files/238321.got.cif
#   From: 2010.05.17/outbox.ucp.g08.bks.cvg/sg12_120_cif.got.tgz:238321.got - 2010.06.11 11:47:21.
