data_PCOD9223243
_publ_section_title
;
Structure prediction by ZEFSAII (Michael W. Deem and Ramdas Pophale) SiO2 
 PCOD9223243
Probable space group: C 2/M
;
_chemical_formula_sum "Si O2"
_cell_formula_units_Z 24
_cell_length_a 15.000000
_cell_length_b 24.000000
_cell_length_c 15.000000
_cell_angle_alpha 90.000000
_cell_angle_beta 30.000000
_cell_angle_gamma 90.000000
_cell_volume 2700.000000
_symmetry_space_group_name_H-M "C 2/M"
_symmetry_group_IT_number 12
_symmetry_cell_setting 'monoclinic'
loop_
_space_group_symop_operation_xyz
x,y,z
-x,y,-z
-x,-y,-z
x,-y,z
1/2+x,1/2+y,z
1/2-x,1/2+y,-z
1/2-x,1/2-y,-z
1/2+x,1/2-y,z
loop_
_atom_site_type_symbol
_atom_site_label
_atom_site_fract_x
_atom_site_fract_y
_atom_site_fract_z
Si Si1 0.360044 0.875786 0.850878
Si Si2 0.428142 0.824240 0.964302
Si Si3 0.223069 0.232050 0.674805
Si Si4 0.969242 0.882975 0.133892
Si Si5 0.896381 0.565310 0.502430
Si Si6 0.385014 0.759737 0.732262
O O1 0.410553 0.874051 0.910250
O O2 0.513614 0.903759 0.658555
O O3 0.346377 0.811685 0.829307
O O4 0.162183 0.899033 0.005130
O O5 0.578118 0.781025 0.798916
O O6 0.500000 0.839418 0.000000
O O7 0.235500 0.793105 0.135550
O O8 0.110748 0.175410 0.758837
O O9 0.399519 0.244564 0.462902
O O10 0.304700 0.226677 0.703958
O O11 0.811211 0.924726 0.297775
O O12 0.000000 0.878363 0.000000
O O13 0.932396 0.500000 0.462276
O O14 0.000000 0.587529 0.500000
#
# Coordination Sequence:
#
# PCOD9223243 Si02
#       6
#     8   8   8   8   8   8
#     4  12  22  35  58  81 112 152 188 225 279 331
#     4  10  22  37  51  81 116 151 192 230 261 319
#     4  10  18  31  51  77 116 149 180 221 265 321
#     4  12  20  33  56  83 114 146 180 224 272 334
#     4  11  24  40  58  84 114 143 180 229 288 345
#     4  10  18  30  51  79 111 148 185 219 264 326
#
# _framework density 8.8888890000000007
#
# number of rings (size 3 to 8) (size 9 to 14) (size 15 to 20)
#    0.000    1.167    6.667    1.000    0.000    3.000 
#    0.000    0.000    0.000    0.500    0.000    1.167 
#    0.000    0.000    0.000    0.000    0.000    0.000 
#
# Total GULP energy -133953.081404 kJ/mol
# GULP energy per Si atom -5581.378392 kJ/mol
# Density = 0.886866 g / cm^3
# Si number density = 8.888889 Si / 1000 Ang^3
#
#
#
# Elastic Constant Matrix: (Units=GPa)
#
#
# Indices 1 2 3 4 5 6 
#
# 1 53.1033 27.2395 36.8101 -0.0230 -1.4255 -0.0079
# 2 27.2395 27.0595 17.9847 -0.0278 10.3778 -0.0023
# 3 36.8101 17.9847 130.6529 -0.0675 -2.2708 0.0091
# 4 -0.0230 -0.0278 -0.0675 13.4167 0.0169 -0.5599
# 5 -1.4255 10.3778 -2.2708 0.0169 22.6196 0.0035
# 6 -0.0079 -0.0023 0.0091 -0.5599 0.0035 6.6447
#
#
#
# Elastic Compliance Matrix: (Units=1/GPa)
#
#
# Indices 1 2 3 4 5 6 
#
# 1 0.059985 -0.069270 -0.006759 -0.000118 0.034882 0.000028
# 2 -0.069270 0.131215 0.000333 0.000237 -0.064533 0.000017
# 3 -0.006759 0.000333 0.009519 0.000036 0.000377 -0.000018
# 4 -0.000118 0.000237 0.000036 0.074798 -0.000170 0.006303
# 5 0.034882 -0.064533 0.000377 -0.000170 0.076053 -0.000035
# 6 0.000028 0.000017 -0.000018 0.006303 -0.000035 0.151028
#
#
# Mechanical properties :
#
#
# Convention : Reuss Voigt Hill
#
# Bulk Modulus (GPa) = 20.27311 41.65382 30.96346
# Shear Modulus (GPa) = 7.45789 17.12161 12.28975
#
# Velocity S-wave (km/s) = 2.05041 3.10674 2.63211
# Velocity P-wave (km/s) = 4.12722 6.02911 5.16644
#
# Compressibility (1/GPa) = 0.04932642
#
# Stress axis : x y z
#
# Youngs Moduli (GPa) = 16.67094 7.62110 105.05450
#
# Poissons Ratio (x) = 0.52791 0.71003
# Poissons Ratio (y) = 1.15479 -0.03493
# Poissons Ratio (z) = 0.11267 -0.00253
#
# Static dielectric constant tensor:
#      x y z
#    x 1.656900 0.000010 -0.000160 
#    y 0.000010 1.598750 0.000010 
#    z -0.000160 0.000010 1.613820 
# 
# From -- ./inp_files/218404.got.cif
#   From: 2010.05.17/outbox.ucp.g08.bks.cvg/sg12_110_cif.got.tgz:218404.got - 2010.06.11 11:47:21.
