data_PCOD9223264
_publ_section_title
;
Structure prediction by ZEFSAII (Michael W. Deem and Ramdas Pophale) SiO2 
 PCOD9223264
Probable space group: C 2/M
;
_chemical_formula_sum "Si O2"
_cell_formula_units_Z 32
_cell_length_a 30.000000
_cell_length_b 9.000000
_cell_length_c 24.000000
_cell_angle_alpha 90.000000
_cell_angle_beta 150.000000
_cell_angle_gamma 90.000000
_cell_volume 3240.000000
_symmetry_space_group_name_H-M "C 2/M"
_symmetry_group_IT_number 12
_symmetry_cell_setting 'monoclinic'
loop_
_space_group_symop_operation_xyz
x,y,z
-x,y,-z
-x,-y,-z
x,-y,z
1/2+x,1/2+y,z
1/2-x,1/2+y,-z
1/2-x,1/2-y,-z
1/2+x,1/2-y,z
loop_
_atom_site_type_symbol
_atom_site_label
_atom_site_fract_x
_atom_site_fract_y
_atom_site_fract_z
Si Si1 0.719667 0.178454 0.524683
Si Si2 0.474048 0.822388 0.716585
Si Si3 0.962562 0.172936 0.522386
Si Si4 0.599933 0.820848 0.756791
Si Si5 0.273516 0.319493 0.888760
Si Si6 0.142957 0.819645 0.230822
Si Si7 0.781188 0.679212 0.293267
Si Si8 0.523007 0.679710 0.883849
O O1 0.750000 0.250000 0.500000
O O2 0.614564 0.212834 0.415267
O O3 0.785605 0.228549 0.644850
O O4 0.727510 0.000000 0.530212
O O5 0.560344 0.783152 0.773945
O O6 0.477454 0.735492 0.777860
O O7 0.472922 0.000000 0.725899
O O8 0.865926 0.250008 0.415295
O O9 0.000000 0.182725 0.500000
O O10 0.032915 0.252068 0.638943
O O11 0.954017 0.000000 0.528410
O O12 0.701683 0.772755 0.857110
O O13 0.595714 0.000000 0.746112
O O14 0.278401 0.500000 0.894742
O O15 0.228072 0.277540 0.780986
O O16 0.375062 0.265740 0.002905
O O17 0.188597 0.777250 0.222565
O O18 0.043635 0.770752 0.138964
O O19 0.140959 0.000000 0.229427
O O20 0.790739 0.500000 0.306864
O O21 0.525075 0.500000 0.886150
#
# Coordination Sequence:
#
# PCOD9223264 Si02
#       8
#     8   8   8   8   8   8   8   8
#     4  10  18  31  50  75 103 135 170 211 264 319
#     4  10  21  35  54  79 108 141 183 225 266 322
#     4  11  22  35  54  84 116 141 172 218 273 325
#     4  10  20  37  58  80 108 143 183 222 264 320
#     4   9  19  34  56  82 104 138 186 229 264 313
#     4   9  18  32  54  81 108 138 175 222 268 315
#     4  10  19  35  58  81 107 144 184 217 265 323
#     4  10  20  36  55  78 110 142 181 229 272 313
#
# _framework density 9.8765429999999999
#
# number of rings (size 3 to 8) (size 9 to 14) (size 15 to 20)
#    0.000    2.125    2.500    1.125    0.000    4.000 
#    0.000    6.250    0.000    0.000    0.000    1.750 
#    0.000    0.000    0.000    0.000    0.000    0.000 
#
# Total GULP energy -178484.253423 kJ/mol
# GULP energy per Si atom -5577.632919 kJ/mol
# Density = 0.985406 g / cm^3
# Si number density = 9.876543 Si / 1000 Ang^3
#
#
#
# Elastic Constant Matrix: (Units=GPa)
#
#
# Indices 1 2 3 4 5 6 
#
# 1 92.0132 10.2843 10.2448 0.0000 38.3808 0.0000
# 2 10.2843 4.2899 1.7675 0.0000 7.7078 0.0000
# 3 10.2448 1.7675 60.1014 0.0000 37.1608 0.0000
# 4 0.0000 0.0000 0.0000 14.0233 0.0000 -1.2984
# 5 38.3808 7.7078 37.1608 0.0000 36.4595 0.0000
# 6 0.0000 0.0000 0.0000 -1.2984 0.0000 15.1682
#
#
#
# Elastic Compliance Matrix: (Units=1/GPa)
#
#
# Indices 1 2 3 4 5 6 
#
# 1 -0.052366 -0.302851 -0.150996 0.000000 0.273052 0.000000
# 2 -0.302851 -0.743879 -0.597227 0.000000 1.084788 0.000000
# 3 -0.150996 -0.597227 -0.314779 0.000000 0.606046 0.000000
# 4 0.000000 0.000000 0.000000 0.071879 0.000000 0.006153
# 5 0.273052 1.084788 0.606046 0.000000 -1.107051 0.000000
# 6 0.000000 0.000000 0.000000 0.006153 0.000000 0.066454
#
#
# Mechanical properties :
#
#
# Convention : Reuss Voigt Hill
#
# Bulk Modulus (GPa) = -0.31122 22.33308 11.01093
# Shear Modulus (GPa) = -4.76803 22.07073 8.65135
#
# Velocity S-wave (km/s) = -1.55533 3.34628 2.09505
# Velocity P-wave (km/s) = 1.83938 5.12452 3.38212
#
# Compressibility (1/GPa) = -3.21317129
#
# Stress axis : x y z
#
# Youngs Moduli (GPa) = -19.09623 -1.34431 -3.17683
#
# Poissons Ratio (x) = -0.40712 -0.47969
# Poissons Ratio (y) = -5.78330 -1.89729
# Poissons Ratio (z) = -2.88345 -0.80286
#
# Static dielectric constant tensor:
#      x y z
#    x 1.737530 0.000000 0.033470 
#    y 0.000000 1.655370 0.000000 
#    z 0.033470 0.000000 1.677080 
# 
# From -- ./inp_files/353552.got.cif
#   From: 2010.05.17/outbox.ucp.g08.bks.cvg/sg12_177_cif.got.tgz:353552.got - 2010.06.11 11:47:21.
