data_PCOD9223559
_publ_section_title
;
Structure prediction by ZEFSAII (Michael W. Deem and Ramdas Pophale) SiO2 
 PCOD9223559
Probable space group: C 2/M
;
_chemical_formula_sum "Si O2"
_cell_formula_units_Z 28
_cell_length_a 18.000000
_cell_length_b 9.000000
_cell_length_c 27.000000
_cell_angle_alpha 90.000000
_cell_angle_beta 140.000000
_cell_angle_gamma 90.000000
_cell_volume 2811.553005
_symmetry_space_group_name_H-M "C 2/M"
_symmetry_group_IT_number 12
_symmetry_cell_setting 'monoclinic'
loop_
_space_group_symop_operation_xyz
x,y,z
-x,y,-z
-x,-y,-z
x,-y,z
1/2+x,1/2+y,z
1/2-x,1/2+y,-z
1/2-x,1/2-y,-z
1/2+x,1/2-y,z
loop_
_atom_site_type_symbol
_atom_site_label
_atom_site_fract_x
_atom_site_fract_y
_atom_site_fract_z
Si Si1 0.027801 0.830084 0.243090
Si Si2 0.409174 0.666782 0.910882
Si Si3 0.397483 0.172586 0.805384
Si Si4 0.148912 0.337704 0.790339
Si Si5 0.822971 0.674411 0.603187
Si Si6 0.426659 0.675167 0.558171
Si Si7 0.156558 0.669265 0.675177
O O1 0.012983 0.766174 0.181136
O O2 0.123116 0.730574 0.318974
O O3 0.915903 0.797694 0.218396
O O4 0.061122 0.000000 0.260033
O O5 0.420641 0.500000 0.894100
O O6 0.415306 0.787755 0.871524
O O7 0.283012 0.670219 0.870200
O O8 0.500000 0.685834 0.000000
O O9 0.270866 0.234828 0.726349
O O10 0.405959 0.000000 0.799957
O O11 0.102740 0.500000 0.783274
O O12 0.139872 0.334075 0.726404
O O13 0.842540 0.500000 0.604538
O O14 0.686382 0.700362 0.532609
O O15 0.884913 0.762996 0.590285
O O16 0.449769 0.500000 0.574285
O O17 0.539330 0.757919 0.596224
O O18 0.172699 0.500000 0.666545
#
# Coordination Sequence:
#
# PCOD9223559 Si02
#       7
#     8   8   8   8   8   8   8
#     4  12  23  36  55  80 112 148 191 233 278 333
#     4   9  19  39  65  90 116 145 179 221 270 327
#     4  11  23  38  58  82 114 148 184 228 278 334
#     4   9  18  33  56  84 112 144 181 223 272 325
#     4  10  20  33  50  76 111 147 185 234 285 328
#     4  10  19  31  51  79 108 143 189 235 280 329
#     4  10  19  34  56  80 110 145 187 235 279 329
#
# _framework density 9.9589090000000002
#
# number of rings (size 3 to 8) (size 9 to 14) (size 15 to 20)
#    0.000    1.857    1.429    4.714    0.000    4.286 
#    0.000    1.429    0.000    4.286    0.000    0.000 
#    0.000    0.000    0.000    0.000    0.000    0.000 
#
# Total GULP energy -156195.545921 kJ/mol
# GULP energy per Si atom -5578.412354 kJ/mol
# Density = 0.993624 g / cm^3
# Si number density = 9.958909 Si / 1000 Ang^3
#
#
#
# Elastic Constant Matrix: (Units=GPa)
#
#
# Indices 1 2 3 4 5 6 
#
# 1 29.6352 -0.8499 10.1330 0.0000 -9.6068 0.0000
# 2 -0.8499 17.7322 15.9686 0.0000 -1.8533 0.0000
# 3 10.1330 15.9686 74.2405 0.0000 18.8016 0.0000
# 4 0.0000 0.0000 0.0000 8.4512 0.0000 -4.7288
# 5 -9.6068 -1.8533 18.8016 0.0000 -3.4596 0.0000
# 6 0.0000 0.0000 0.0000 -4.7288 0.0000 20.4361
#
#
#
# Elastic Compliance Matrix: (Units=1/GPa)
#
#
# Indices 1 2 3 4 5 6 
#
# 1 0.022461 -0.006913 0.005588 0.000000 -0.028299 0.000000
# 2 -0.006913 0.056100 -0.003524 0.000000 -0.030007 0.000000
# 3 0.005588 -0.003524 0.007119 0.000000 0.025059 0.000000
# 4 0.000000 0.000000 0.000000 0.135925 0.000000 0.031452
# 5 -0.028299 -0.030007 0.025059 0.000000 -0.058211 0.000000
# 6 0.000000 0.000000 0.000000 0.031452 0.000000 0.056211
#
#
# Mechanical properties :
#
#
# Convention : Reuss Voigt Hill
#
# Bulk Modulus (GPa) = 13.16105 19.12348 16.14226
# Shear Modulus (GPa) = 19.63622 11.50929 15.57276
#
# Velocity S-wave (km/s) = 3.14325 2.40644 2.79919
# Velocity P-wave (km/s) = 4.44920 4.16453 4.30922
#
# Compressibility (1/GPa) = 0.07598181
#
# Stress axis : x y z
#
# Youngs Moduli (GPa) = 44.52148 17.82519 140.47308
#
# Poissons Ratio (x) = 0.12323 -0.78497
# Poissons Ratio (y) = 0.30780 0.49501
# Poissons Ratio (z) = -0.24879 0.06281
#
# Static dielectric constant tensor:
#      x y z
#    x 1.758180 0.000000 -0.010200 
#    y 0.000000 1.698650 0.000000 
#    z -0.010200 0.000000 1.752540 
# 
# From -- ./inp_files/363233.got.cif
#   From: 2010.05.17/outbox.ucp.g08.bks.cvg/sg12_182_cif.got.tgz:363233.got - 2010.06.11 11:47:21.
