data_PCOD9223106
_publ_section_title
;
Structure prediction by ZEFSAII (Michael W. Deem and Ramdas Pophale) SiO2 
 PCOD9223106
Probable space group: C 2/M
;
_chemical_formula_sum "Si O2"
_cell_formula_units_Z 40
_cell_length_a 28.899165
_cell_length_b 11.055845
_cell_length_c 11.586024
_cell_angle_alpha 90.000000
_cell_angle_beta 28.035553
_cell_angle_gamma 90.000000
_cell_volume 1739.912480
_symmetry_space_group_name_H-M "C 2/M"
_symmetry_group_IT_number 12
_symmetry_cell_setting 'monoclinic'
loop_
_space_group_symop_operation_xyz
x,y,z
-x,y,-z
-x,-y,-z
x,-y,z
1/2+x,1/2+y,z
1/2-x,1/2+y,-z
1/2-x,1/2-y,-z
1/2+x,1/2-y,z
loop_
_atom_site_type_symbol
_atom_site_label
_atom_site_fract_x
_atom_site_fract_y
_atom_site_fract_z
Si Si1 0.618333 0.130857 0.665354
Si Si2 0.180757 0.863980 0.921894
Si Si3 0.163146 0.368456 0.836785
Si Si4 0.109626 0.136638 0.580058
Si Si5 0.398016 0.644876 0.669649
O O1 0.714707 0.127997 0.371613
O O2 0.651823 0.139466 0.724147
O O3 0.561716 0.251552 0.753524
O O4 0.568986 0.000000 0.756476
O O5 0.125506 0.753128 0.981549
O O6 0.136219 0.000000 0.009499
O O7 0.183015 0.832860 0.052864
O O8 0.123456 0.500000 0.963386
O O9 0.279453 0.371775 0.612827
O O10 0.116356 0.176768 0.431482
O O11 0.067784 0.000000 0.682540
O O12 0.500000 0.692211 0.500000
O O13 0.405579 0.500000 0.646876
#
# Coordination Sequence:
#
# PCOD9223106 Si02
#       5
#     8   8   8   8   8
#     4   9  17  28  44  69  96 115 135 174 226 269
#     4   9  16  27  45  66  88 116 147 177 214 261
#     4   9  17  28  44  69  96 115 135 174 226 269
#     4   9  16  27  45  66  88 116 147 177 214 261
#     4   9  18  31  45  63  89 119 150 185 218 246
#
# _framework density 22.989661999999999
#
# number of rings (size 3 to 8) (size 9 to 14) (size 15 to 20)
#    0.000    3.000    0.000    2.400    0.000    5.600 
#    0.000    3.000    0.000    7.200    0.000   28.000 
#    0.000    0.000    0.000    0.000    0.000    0.000 
#
# Total GULP energy -111454.467981 kJ/mol
# GULP energy per Si atom -5572.723399 kJ/mol
# Density = 2.293734 g / cm^3
# Si number density = 22.989662 Si / 1000 Ang^3
#
#
#
# Elastic Constant Matrix: (Units=GPa)
#
#
# Indices 1 2 3 4 5 6 
#
# 1 105.1161 38.7490 44.2994 0.0000 17.0557 0.0000
# 2 38.7490 222.7519 36.4225 0.0000 34.5967 0.0000
# 3 44.2994 36.4225 110.9296 0.0000 27.7831 0.0000
# 4 0.0000 0.0000 0.0000 4.2616 0.0000 32.0304
# 5 17.0557 34.5967 27.7831 0.0000 34.6276 0.0000
# 6 0.0000 0.0000 0.0000 32.0304 0.0000 7.4906
#
#
#
# Elastic Compliance Matrix: (Units=1/GPa)
#
#
# Indices 1 2 3 4 5 6 
#
# 1 0.011866 -0.001186 -0.003983 0.000000 -0.001465 0.000000
# 2 -0.001186 0.005456 -0.000124 0.000000 -0.004768 0.000000
# 3 -0.003983 -0.000124 0.012670 0.000000 -0.008080 0.000000
# 4 0.000000 0.000000 0.000000 -0.007536 0.000000 0.032223
# 5 -0.001465 -0.004768 -0.008080 0.000000 0.040847 0.000000
# 6 0.000000 0.000000 0.000000 0.032223 0.000000 -0.004287
#
#
# Mechanical properties :
#
#
# Convention : Reuss Voigt Hill
#
# Bulk Modulus (GPa) = 51.52476 75.30437 63.41457
# Shear Modulus (GPa) = 65.72906 30.56441 48.14674
#
# Velocity S-wave (km/s) = 5.35283 3.65017 4.58129
# Velocity P-wave (km/s) = 7.78874 7.11279 7.45843
#
# Compressibility (1/GPa) = 0.01940814
#
# Stress axis : x y z
#
# Youngs Moduli (GPa) = 84.27139 183.27275 78.92956
#
# Poissons Ratio (x) = 0.21727 0.31435
# Poissons Ratio (y) = 0.09990 0.00978
# Poissons Ratio (z) = 0.33563 0.02270
#
# Static dielectric constant tensor:
#      x y z
#    x 1.876980 0.000000 -0.034940 
#    y 0.000000 1.983150 0.000000 
#    z -0.034940 0.000000 1.843640 
# 
# From -- ./inp_files/48605.got.cif
#   From: 2010.05.17/outbox.cif.g08.bks.cpg/sg12_25_cif.got.tgz:48605.got - 2010.06.03 13:09:07.
