data_PCOD9223528
_publ_section_title
;
Structure prediction by ZEFSAII (Michael W. Deem and Ramdas Pophale) SiO2 
 PCOD9223528
Probable space group: C 2/M
;
_chemical_formula_sum "Si O2"
_cell_formula_units_Z 32
_cell_length_a 30.000000
_cell_length_b 9.000000
_cell_length_c 15.000000
_cell_angle_alpha 90.000000
_cell_angle_beta 130.000000
_cell_angle_gamma 90.000000
_cell_volume 3102.479995
_symmetry_space_group_name_H-M "C 2/M"
_symmetry_group_IT_number 12
_symmetry_cell_setting 'monoclinic'
loop_
_space_group_symop_operation_xyz
x,y,z
-x,y,-z
-x,-y,-z
x,-y,z
1/2+x,1/2+y,z
1/2-x,1/2+y,-z
1/2-x,1/2-y,-z
1/2+x,1/2-y,z
loop_
_atom_site_type_symbol
_atom_site_label
_atom_site_fract_x
_atom_site_fract_y
_atom_site_fract_z
Si Si1 0.939970 0.327633 0.713984
Si Si2 0.643591 0.330559 0.065543
Si Si3 0.568975 0.164225 0.095630
Si Si4 0.295649 0.668516 0.120938
Si Si5 0.910739 0.675165 0.331988
Si Si6 0.881234 0.823094 0.474435
Si Si7 0.253593 0.665271 0.268009
Si Si8 0.567779 0.823716 0.827935
O O1 0.934413 0.500000 0.678029
O O2 0.914794 0.315263 0.780521
O O3 0.910301 0.225783 0.602895
O O4 0.008900 0.296368 0.806569
O O5 0.654955 0.500000 0.060889
O O6 0.590913 0.297140 0.064094
O O7 0.696868 0.264295 0.190642
O O8 0.622404 0.252659 0.946655
O O9 0.591088 0.000000 0.092436
O O10 0.500000 0.156053 0.000000
O O11 0.312097 0.500000 0.112820
O O12 0.348900 0.778001 0.210069
O O13 0.267244 0.650572 0.180988
O O14 0.250000 0.750000 0.000000
O O15 0.916289 0.500000 0.354777
O O16 0.913977 0.756756 0.430170
O O17 0.948940 0.719929 0.295411
O O18 0.813457 0.772078 0.385506
O O19 0.879679 0.000000 0.461597
O O20 0.242509 0.500000 0.290980
O O21 0.579575 0.000000 0.841485
#
# Coordination Sequence:
#
# PCOD9223528 Si02
#       8
#     8   8   8   8   8   8   8   8
#     4  10  21  39  64  87 110 150 198 238 279 341
#     4  12  24  35  57  92 123 147 183 244 298 340
#     4  10  20  40  66  87 114 153 191 228 282 353
#     4  10  19  31  49  75 109 148 192 240 289 341
#     4  10  20  34  55  80 111 153 198 242 280 334
#     4  10  22  40  60  83 117 156 194 241 290 339
#     4   9  20  38  56  75 108 156 196 228 279 346
#     4  10  21  38  58  84 118 156 198 236 283 347
#
# _framework density 10.314329000000001
#
# number of rings (size 3 to 8) (size 9 to 14) (size 15 to 20)
#    0.000    1.875    1.250    3.750    0.000    8.750 
#    0.000    3.125    0.000    0.000    0.000    0.000 
#    0.000    0.000    0.000    0.000    0.000    0.000 
#
# Total GULP energy -178354.837325 kJ/mol
# GULP energy per Si atom -5573.588666 kJ/mol
# Density = 1.029085 g / cm^3
# Si number density = 10.314329 Si / 1000 Ang^3
#
#
#
# Elastic Constant Matrix: (Units=GPa)
#
#
# Indices 1 2 3 4 5 6 
#
# 1 33.8688 9.6142 9.5921 0.0000 -2.9243 0.0000
# 2 9.6142 37.0672 26.5781 0.0000 0.4471 0.0000
# 3 9.5921 26.5781 65.5864 0.0000 -18.0021 0.0000
# 4 0.0000 0.0000 0.0000 17.8997 0.0000 -0.8682
# 5 -2.9243 0.4471 -18.0021 0.0000 20.3893 0.0000
# 6 0.0000 0.0000 0.0000 -0.8682 0.0000 10.8641
#
#
#
# Elastic Compliance Matrix: (Units=1/GPa)
#
#
# Indices 1 2 3 4 5 6 
#
# 1 0.032340 -0.008473 0.000037 0.000000 0.004857 0.000000
# 2 -0.008473 0.046830 -0.024224 0.000000 -0.023630 0.000000
# 3 0.000037 -0.024224 0.033268 0.000000 0.029909 0.000000
# 4 0.000000 0.000000 0.000000 0.056084 0.000000 0.004482
# 5 0.004857 -0.023630 0.029909 0.000000 0.076667 0.000000
# 6 0.000000 0.000000 0.000000 0.004482 0.000000 0.092404
#
#
# Mechanical properties :
#
#
# Convention : Reuss Voigt Hill
#
# Bulk Modulus (GPa) = 21.22379 25.34347 23.28363
# Shear Modulus (GPa) = 11.94403 15.87982 13.91192
#
# Velocity S-wave (km/s) = 2.40886 2.77753 2.59973
# Velocity P-wave (km/s) = 4.24825 4.75378 4.50811
#
# Compressibility (1/GPa) = 0.04711694
#
# Stress axis : x y z
#
# Youngs Moduli (GPa) = 30.92168 21.35382 30.05931
#
# Poissons Ratio (x) = 0.18093 -0.00111
# Poissons Ratio (y) = 0.26200 0.72816
# Poissons Ratio (z) = -0.00114 0.51728
#
# Static dielectric constant tensor:
#      x y z
#    x 1.883090 0.000000 0.018220 
#    y 0.000000 1.741230 0.000000 
#    z 0.018220 0.000000 1.729870 
# 
# From -- ./inp_files/249939.got.cif
#   From: 2010.05.17/outbox.ucp.g08.bks.cvg/sg12_125_cif.got.tgz:249939.got - 2010.06.11 11:47:21.
