data_PCOD9223671
_publ_section_title
;
Structure prediction by ZEFSAII (Michael W. Deem and Ramdas Pophale) SiO2 
 PCOD9223671
Probable space group: C 2/M
;
_chemical_formula_sum "Si O2"
_cell_formula_units_Z 32
_cell_length_a 18.000000
_cell_length_b 9.000000
_cell_length_c 30.000000
_cell_angle_alpha 90.000000
_cell_angle_beta 40.000000
_cell_angle_gamma 90.000000
_cell_volume 3123.947783
_symmetry_space_group_name_H-M "C 2/M"
_symmetry_group_IT_number 12
_symmetry_cell_setting 'monoclinic'
loop_
_space_group_symop_operation_xyz
x,y,z
-x,y,-z
-x,-y,-z
x,-y,z
1/2+x,1/2+y,z
1/2-x,1/2+y,-z
1/2-x,1/2-y,-z
1/2+x,1/2-y,z
loop_
_atom_site_type_symbol
_atom_site_label
_atom_site_fract_x
_atom_site_fract_y
_atom_site_fract_z
Si Si1 0.363301 0.834959 0.056970
Si Si2 0.457886 0.174255 0.262173
Si Si3 0.067208 0.680176 0.824028
Si Si4 0.667407 0.667281 0.312476
Si Si5 0.214157 0.320897 0.584282
Si Si6 0.639053 0.326377 0.028861
Si Si7 0.430676 0.177408 0.439636
Si Si8 0.154951 0.838007 0.213844
O O1 0.286459 0.818391 0.136718
O O2 0.332937 0.000000 0.052358
O O3 0.500000 0.835681 0.000000
O O4 0.340204 0.706223 0.032702
O O5 0.484085 0.224911 0.200284
O O6 0.350056 0.233015 0.341089
O O7 0.574070 0.208094 0.234803
O O8 0.435677 0.000000 0.268746
O O9 0.068376 0.500000 0.830835
O O10 0.200954 0.725945 0.752921
O O11 0.982177 0.752014 0.899426
O O12 0.673125 0.500000 0.329587
O O13 0.560339 0.756237 0.382886
O O14 0.639210 0.654878 0.273381
O O15 0.228644 0.500000 0.579296
O O16 0.337237 0.246782 0.516796
O O17 0.127052 0.289985 0.582642
O O18 0.635155 0.500000 0.040420
O O19 0.750000 0.250000 0.000000
O O20 0.435182 0.000000 0.442523
O O21 0.116436 0.000000 0.213281
#
# Coordination Sequence:
#
# PCOD9223671 Si02
#       8
#     8   8   8   8   8   8   8   8
#     4  10  21  39  61  85 116 150 188 237 292 349
#     4  10  20  36  57  82 109 141 183 234 281 326
#     4  10  22  40  61  83 112 150 190 233 285 343
#     4  10  20  36  57  83 114 149 185 223 277 341
#     4   9  18  33  53  80 112 144 183 230 278 328
#     4  12  25  41  61  85 115 154 198 242 289 345
#     4  10  19  32  54  83 113 146 184 229 276 325
#     4  10  20  33  55  83 109 141 181 226 277 334
#
# _framework density 10.243449
#
# number of rings (size 3 to 8) (size 9 to 14) (size 15 to 20)
#    0.000    1.875    1.250    3.000    0.000    6.750 
#    0.000    1.875    0.000    3.750    0.000    0.000 
#    0.000    0.000    0.000    0.000    0.000    0.000 
#
# Total GULP energy -178297.635418 kJ/mol
# GULP energy per Si atom -5571.801107 kJ/mol
# Density = 1.022013 g / cm^3
# Si number density = 10.243449 Si / 1000 Ang^3
#
#
#
# Elastic Constant Matrix: (Units=GPa)
#
#
# Indices 1 2 3 4 5 6 
#
# 1 16.3277 8.4366 -12.4486 0.0000 -11.3305 0.0004
# 2 8.4366 49.9418 33.3216 0.0001 -9.7297 0.0014
# 3 -12.4486 33.3216 121.4364 -0.0001 -20.9700 0.0001
# 4 0.0000 0.0001 -0.0001 33.4564 0.0000 -3.8743
# 5 -11.3305 -9.7297 -20.9700 0.0000 33.8852 0.0001
# 6 0.0004 0.0014 0.0001 -3.8743 0.0001 13.8346
#
#
#
# Elastic Compliance Matrix: (Units=1/GPa)
#
#
# Indices 1 2 3 4 5 6 
#
# 1 0.153287 -0.038370 0.037162 0.000000 0.063237 0.000000
# 2 -0.038370 0.034433 -0.015552 0.000000 -0.012567 -0.000002
# 3 0.037162 -0.015552 0.019802 0.000000 0.020216 0.000000
# 4 0.000000 0.000000 0.000000 0.030891 0.000000 0.008651
# 5 0.063237 -0.012567 0.020216 0.000000 0.059558 -0.000001
# 6 0.000000 -0.000002 0.000000 0.008651 -0.000001 0.074705
#
#
# Mechanical properties :
#
#
# Convention : Reuss Voigt Hill
#
# Bulk Modulus (GPa) = 5.74699 27.36945 16.55822
# Shear Modulus (GPa) = 10.77129 26.79501 18.78315
#
# Velocity S-wave (km/s) = 2.29544 3.62043 3.03122
# Velocity P-wave (km/s) = 3.13635 5.55564 4.51120
#
# Compressibility (1/GPa) = 0.17400412
#
# Stress axis : x y z
#
# Youngs Moduli (GPa) = 6.52370 29.04205 50.49868
#
# Poissons Ratio (x) = 1.11433 -1.87663
# Poissons Ratio (y) = 0.25031 0.78534
# Poissons Ratio (z) = -0.24243 0.45165
#
# Static dielectric constant tensor:
#      x y z
#    x 1.824960 0.000000 0.014460 
#    y 0.000000 1.740720 0.000000 
#    z 0.014460 0.000000 1.695150 
# 
# From -- ./inp_files/378125.got.cif
#   From: 2010.05.17/outbox.ucp.g08.bks.cvg/sg12_190_cif.got.tgz:378125.got - 2010.06.11 11:47:21.
