data_PCOD9223081
_publ_section_title
;
Structure prediction by ZEFSAII (Michael W. Deem and Ramdas Pophale) SiO2 
 PCOD9223081
Probable space group: C 2/M
;
_chemical_formula_sum "Si O2"
_cell_formula_units_Z 48
_cell_length_a 21.889603
_cell_length_b 28.763342
_cell_length_c 15.439296
_cell_angle_alpha 90.000000
_cell_angle_beta 168.484301
_cell_angle_gamma 90.000000
_cell_volume 1940.637901
_symmetry_space_group_name_H-M "C 2/M"
_symmetry_group_IT_number 12
_symmetry_cell_setting 'monoclinic'
loop_
_space_group_symop_operation_xyz
x,y,z
-x,y,-z
-x,-y,-z
x,-y,z
1/2+x,1/2+y,z
1/2-x,1/2+y,-z
1/2-x,1/2-y,-z
1/2+x,1/2-y,z
loop_
_atom_site_type_symbol
_atom_site_label
_atom_site_fract_x
_atom_site_fract_y
_atom_site_fract_z
Si Si1 0.768303 0.447391 0.938616
Si Si2 0.658464 0.548899 0.486306
Si Si3 0.328184 0.701169 0.906520
Si Si4 0.168594 0.305807 0.087615
Si Si5 0.062392 0.356969 0.392608
Si Si6 0.908705 0.148894 0.583494
O O1 0.500000 0.430838 0.500000
O O2 0.858935 0.500000 0.037715
O O3 0.588365 0.451781 0.779076
O O4 0.039215 0.410021 0.325133
O O5 0.614858 0.500000 0.376015
O O6 0.624969 0.601397 0.408231
O O7 0.000000 0.547581 0.000000
O O8 0.371310 0.753454 0.934066
O O9 0.000000 0.701100 0.500000
O O10 0.298872 0.661514 0.792648
O O11 0.567094 0.690180 0.314593
O O12 0.500000 0.306485 0.500000
O O13 0.190774 0.341543 0.198537
O O14 0.953426 0.322240 0.710498
O O15 0.738463 0.353348 0.993877
#
# Coordination Sequence:
#
# PCOD9223081 Si02
#       6
#     8   8   8   8   8   8
#     4   9  16  27  44  66  89 111 141 182 220 255
#     4   9  17  29  45  64  85 112 146 181 217 258
#     4   9  16  24  37  60  90 117 140 172 215 258
#     4   9  15  24  39  60  86 115 145 175 208 250
#     4   9  15  24  38  60  88 114 140 173 215 257
#     4   9  16  26  40  60  84 111 144 179 212 250
#
# _framework density 24.734135999999999
#
# number of rings (size 3 to 8) (size 9 to 14) (size 15 to 20)
#    0.000    3.000    0.000    3.500    0.000    4.000 
#    0.000    0.833    0.000    6.000    0.000    4.667 
#    0.000   13.333    0.000    0.667    0.000    0.000 
#
# Total GULP energy -133965.090776 kJ/mol
# GULP energy per Si atom -5581.878782 kJ/mol
# Density = 2.467784 g / cm^3
# Si number density = 24.734136 Si / 1000 Ang^3
#
#
#
# Elastic Constant Matrix: (Units=GPa)
#
#
# Indices 1 2 3 4 5 6 
#
# 1 80.3697 40.3189 13.7824 -0.0006 -0.4254 0.0109
# 2 40.3189 171.0932 31.6881 0.0027 -27.1294 0.0046
# 3 13.7824 31.6881 94.7485 0.0622 -28.8594 0.0522
# 4 -0.0006 0.0027 0.0622 20.2310 0.0107 -3.8767
# 5 -0.4254 -27.1294 -28.8594 0.0107 37.2961 0.0191
# 6 0.0109 0.0046 0.0522 -3.8767 0.0191 20.4172
#
#
#
# Elastic Compliance Matrix: (Units=1/GPa)
#
#
# Indices 1 2 3 4 5 6 
#
# 1 0.014660 -0.003722 -0.002174 0.000011 -0.004222 0.000005
# 2 -0.003722 0.007621 -0.000434 -0.000003 0.005165 -0.000004
# 3 -0.002174 -0.000434 0.014277 -0.000060 0.010707 -0.000057
# 4 0.000011 -0.000003 -0.000060 0.051296 -0.000069 0.009740
# 5 -0.004222 0.005165 0.010707 -0.000069 0.038806 -0.000076
# 6 0.000005 -0.000004 -0.000057 0.009740 -0.000076 0.050828
#
#
# Mechanical properties :
#
#
# Convention : Reuss Voigt Hill
#
# Bulk Modulus (GPa) = 41.84283 57.53224 49.68754
# Shear Modulus (GPa) = 25.23807 32.95032 29.09420
#
# Velocity S-wave (km/s) = 3.19780 3.65386 3.43341
# Velocity P-wave (km/s) = 5.53067 6.41184 5.98749
#
# Compressibility (1/GPa) = 0.02389896
#
# Stress axis : x y z
#
# Youngs Moduli (GPa) = 68.21329 131.21265 70.04310
#
# Poissons Ratio (x) = 0.48831 0.15226
# Poissons Ratio (y) = 0.25386 0.03042
# Poissons Ratio (z) = 0.14828 0.05698
#
# Static dielectric constant tensor:
#      x y z
#    x 1.963080 -0.000010 0.122340 
#    y -0.000010 1.998160 -0.000040 
#    z 0.122340 -0.000040 1.993780 
# 
# From -- ./inp_files/294349.got.cif
#   From: 2010.05.17/outbox.cif.g08.bks.cpg/sg12_148_cif.got.tgz:294349.got - 2010.06.03 13:09:07.
