data_PCOD9223280
_publ_section_title
;
Structure prediction by ZEFSAII (Michael W. Deem and Ramdas Pophale) SiO2 
 PCOD9223280
Probable space group: C 2/M
;
_chemical_formula_sum "Si O2"
_cell_formula_units_Z 28
_cell_length_a 24.000000
_cell_length_b 9.000000
_cell_length_c 24.000000
_cell_angle_alpha 90.000000
_cell_angle_beta 40.000000
_cell_angle_gamma 90.000000
_cell_volume 3332.210969
_symmetry_space_group_name_H-M "C 2/M"
_symmetry_group_IT_number 12
_symmetry_cell_setting 'monoclinic'
loop_
_space_group_symop_operation_xyz
x,y,z
-x,y,-z
-x,-y,-z
x,-y,z
1/2+x,1/2+y,z
1/2-x,1/2+y,-z
1/2-x,1/2-y,-z
1/2+x,1/2-y,z
loop_
_atom_site_type_symbol
_atom_site_label
_atom_site_fract_x
_atom_site_fract_y
_atom_site_fract_z
Si Si1 0.830297 0.177016 0.736104
Si Si2 0.143025 0.177500 0.707463
Si Si3 0.470877 0.820743 0.109129
Si Si4 0.030346 0.820399 0.586432
Si Si5 0.844654 0.322026 0.418165
Si Si6 0.680597 0.674857 0.387999
Si Si7 0.641780 0.178861 0.916257
O O1 0.817073 0.194345 0.680028
O O2 0.741937 0.234857 0.834476
O O3 0.929827 0.230427 0.668825
O O4 0.832529 0.000000 0.746011
O O5 0.075291 0.235072 0.805496
O O6 0.122890 0.261989 0.665817
O O7 0.241428 0.227385 0.647329
O O8 0.139320 0.000000 0.704357
O O9 0.408967 0.793814 0.102901
O O10 0.470439 0.000000 0.119032
O O11 0.570022 0.774142 0.017588
O O12 0.089577 0.739522 0.586278
O O13 0.085397 0.793925 0.487022
O O14 0.030764 0.000000 0.593661
O O15 0.838016 0.500000 0.424706
O O16 0.750000 0.250000 0.500000
O O17 0.699273 0.500000 0.385907
O O18 0.647770 0.000000 0.917220
#
# Coordination Sequence:
#
# PCOD9223280 Si02
#       7
#     8   8   8   8   8   8   8
#     4   9  16  29  52  82 111 142 179 212 252 312
#     4  12  23  34  52  78 108 139 174 220 269 312
#     4   9  16  30  52  78 106 138 178 218 260 310
#     4  10  20  33  53  80 109 142 179 216 255 308
#     4  12  24  39  57  76 102 137 178 222 264 310
#     4  10  18  31  52  77 109 145 178 210 252 309
#     4   8  14  26  51  81 107 138 176 216 255 309
#
# _framework density 8.4028290000000005
#
# number of rings (size 3 to 8) (size 9 to 14) (size 15 to 20)
#    0.000    2.000    2.857    3.857    0.000    1.714 
#    0.000    2.143    0.000    2.571    0.000    0.000 
#    0.000    0.000    0.000    0.000    0.000    0.000 
#
# Total GULP energy -155988.712878 kJ/mol
# GULP energy per Si atom -5571.025460 kJ/mol
# Density = 0.838370 g / cm^3
# Si number density = 8.402829 Si / 1000 Ang^3
#
#
#
# Elastic Constant Matrix: (Units=GPa)
#
#
# Indices 1 2 3 4 5 6 
#
# 1 40.3694 15.5062 42.5574 0.0002 -19.5636 -0.0001
# 2 15.5062 50.2122 32.4300 0.0005 -4.5477 -0.0004
# 3 42.5574 32.4300 152.9307 0.0001 -25.6141 -0.0001
# 4 0.0002 0.0005 0.0001 20.7839 -0.0001 -0.6168
# 5 -19.5636 -4.5477 -25.6141 -0.0001 32.5543 0.0001
# 6 -0.0001 -0.0004 -0.0001 -0.6168 0.0001 20.3872
#
#
#
# Elastic Compliance Matrix: (Units=1/GPa)
#
#
# Indices 1 2 3 4 5 6 
#
# 1 0.045527 -0.007223 -0.007745 0.000000 0.020257 0.000000
# 2 -0.007223 0.024236 -0.003789 -0.000001 -0.003936 0.000000
# 3 -0.007745 -0.003789 0.009939 0.000000 0.002637 0.000000
# 4 0.000000 -0.000001 0.000000 0.048157 0.000000 0.001457
# 5 0.020257 -0.003936 0.002637 0.000000 0.044416 0.000000
# 6 0.000000 0.000000 0.000000 0.001457 0.000000 0.049094
#
#
# Mechanical properties :
#
#
# Convention : Reuss Voigt Hill
#
# Bulk Modulus (GPa) = 23.70227 47.16661 35.43444
# Shear Modulus (GPa) = 18.31865 24.94633 21.63249
#
# Velocity S-wave (km/s) = 3.30514 3.85697 3.59167
# Velocity P-wave (km/s) = 5.35720 6.92545 6.19118
#
# Compressibility (1/GPa) = 0.04219005
#
# Stress axis : x y z
#
# Youngs Moduli (GPa) = 21.96515 41.26012 100.61182
#
# Poissons Ratio (x) = 0.29800 0.77921
# Poissons Ratio (y) = 0.15864 0.38120
# Poissons Ratio (z) = 0.17011 0.15633
#
# Static dielectric constant tensor:
#      x y z
#    x 1.584560 0.000000 0.006440 
#    y 0.000000 1.550790 0.000000 
#    z 0.006440 0.000000 1.611090 
# 
# From -- ./inp_files/348460.got.cif
#   From: 2010.05.17/outbox.ucp.g08.bks.cvg/sg12_175_cif.got.tgz:348460.got - 2010.06.11 11:47:21.
