data_PCOD9223591
_publ_section_title
;
Structure prediction by ZEFSAII (Michael W. Deem and Ramdas Pophale) SiO2 
 PCOD9223591
Probable space group: C 2/M
;
_chemical_formula_sum "Si O2"
_cell_formula_units_Z 32
_cell_length_a 30.000000
_cell_length_b 9.000000
_cell_length_c 12.000000
_cell_angle_alpha 90.000000
_cell_angle_beta 90.000000
_cell_angle_gamma 90.000000
_cell_volume 3240.000000
_symmetry_space_group_name_H-M "C 2/M"
_symmetry_group_IT_number 12
_symmetry_cell_setting 'monoclinic'
loop_
_space_group_symop_operation_xyz
x,y,z
-x,y,-z
-x,-y,-z
x,-y,z
1/2+x,1/2+y,z
1/2-x,1/2+y,-z
1/2-x,1/2-y,-z
1/2+x,1/2-y,z
loop_
_atom_site_type_symbol
_atom_site_label
_atom_site_fract_x
_atom_site_fract_y
_atom_site_fract_z
Si Si1 0.309028 0.672612 0.457287
Si Si2 0.448095 0.165648 0.491668
Si Si3 0.950164 0.681734 0.959684
Si Si4 0.601726 0.666381 0.671196
Si Si5 0.808279 0.679067 0.700042
Si Si6 0.633358 0.175935 0.886098
Si Si7 0.410653 0.820058 0.728274
Si Si8 0.276942 0.179445 0.225480
O O1 0.361105 0.668876 0.425881
O O2 0.301943 0.755248 0.574406
O O3 0.290568 0.757508 0.348171
O O4 0.206784 0.000000 0.537524
O O5 0.500000 0.145776 0.500000
O O6 0.441244 0.277457 0.390847
O O7 0.428927 0.224805 0.608009
O O8 0.427482 0.000000 0.469947
O O9 0.950487 0.500000 0.965034
O O10 0.905666 0.730145 0.029535
O O11 0.939984 0.729443 0.833006
O O12 0.000000 0.728598 0.000000
O O13 0.600271 0.500000 0.717488
O O14 0.613780 0.782917 0.765737
O O15 0.803814 0.500000 0.696909
O O16 0.858486 0.718470 0.737222
O O17 0.772068 0.749747 0.783716
O O18 0.685297 0.226649 0.865934
O O19 0.636561 0.000000 0.905173
O O20 0.412776 0.000000 0.728775
O O21 0.275387 0.000000 0.228204
#
# Coordination Sequence:
#
# PCOD9223591 Si02
#       8
#     8   8   8   8   8   8   8   8
#     4  10  19  32  50  75 108 146 185 221 266 322
#     4  10  20  33  54  81 112 144 182 224 272 333
#     4   9  18  34  60  88 109 134 179 235 284 326
#     4  10  20  33  52  78 112 148 180 220 272 332
#     4  11  20  32  51  75 110 148 182 222 272 328
#     4   9  19  35  57  82 109 141 183 234 277 319
#     4   9  19  34  52  82 115 142 177 229 281 324
#     4  10  20  33  50  76 110 145 185 225 269 323
#
# _framework density 9.8765429999999999
#
# number of rings (size 3 to 8) (size 9 to 14) (size 15 to 20)
#    0.000    2.250    1.250    1.875    1.750    1.750 
#    0.000    0.625    0.000    2.625    0.000    0.000 
#    0.000    0.000    0.000    0.000    0.000    0.000 
#
# Total GULP energy -178160.462215 kJ/mol
# GULP energy per Si atom -5567.514444 kJ/mol
# Density = 0.985406 g / cm^3
# Si number density = 9.876543 Si / 1000 Ang^3
#
#
#
# Elastic Constant Matrix: (Units=GPa)
#
#
# Indices 1 2 3 4 5 6 
#
# 1 70.5782 7.1235 6.2848 0.0000 5.3891 0.0000
# 2 7.1235 24.9200 -9.6114 0.0000 -3.5905 0.0000
# 3 6.2848 -9.6114 33.6828 0.0000 -4.3605 0.0000
# 4 0.0000 0.0000 0.0000 8.9103 0.0000 -5.5892
# 5 5.3891 -3.5905 -4.3605 0.0000 19.7439 0.0000
# 6 0.0000 0.0000 0.0000 -5.5892 0.0000 23.4541
#
#
#
# Elastic Compliance Matrix: (Units=1/GPa)
#
#
# Indices 1 2 3 4 5 6 
#
# 1 0.016088 -0.008045 -0.006233 0.000000 -0.007231 0.000000
# 2 -0.008045 0.051736 0.018289 0.000000 0.015643 0.000000
# 3 -0.006233 0.018289 0.037802 0.000000 0.013376 0.000000
# 4 0.000000 0.000000 0.000000 0.131954 0.000000 0.031445
# 5 -0.007231 0.015643 0.013376 0.000000 0.058421 0.000000
# 6 0.000000 0.000000 0.000000 0.031445 0.000000 0.050130
#
#
# Mechanical properties :
#
#
# Convention : Reuss Voigt Hill
#
# Bulk Modulus (GPa) = 8.79912 15.19720 11.99816
# Shear Modulus (GPa) = 13.29815 18.78060 16.03937
#
# Velocity S-wave (km/s) = 2.59746 3.08680 2.85264
# Velocity P-wave (km/s) = 3.66878 4.51826 4.11550
#
# Compressibility (1/GPa) = 0.11364770
#
# Stress axis : x y z
#
# Youngs Moduli (GPa) = 62.15869 19.32890 26.45345
#
# Poissons Ratio (x) = 0.15550 0.16490
# Poissons Ratio (y) = 0.50006 -0.48381
# Poissons Ratio (z) = 0.38747 -0.35351
#
# Static dielectric constant tensor:
#      x y z
#    x 1.783770 0.000000 0.005620 
#    y 0.000000 1.692410 0.000000 
#    z 0.005620 0.000000 1.683860 
# 
# From -- ./inp_files/187578.got.cif
#   From: 2010.05.17/outbox.ucp.g08.bks.cvg/sg12_94_cif.got.tgz:187578.got - 2010.06.11 11:47:21.
