data_PCOD9223242
_publ_section_title
;
Structure prediction by ZEFSAII (Michael W. Deem and Ramdas Pophale) SiO2 
 PCOD9223242
Probable space group: C 2/M
;
_chemical_formula_sum "Si O2"
_cell_formula_units_Z 24
_cell_length_a 21.000000
_cell_length_b 9.000000
_cell_length_c 15.000000
_cell_angle_alpha 90.000000
_cell_angle_beta 70.000000
_cell_angle_gamma 90.000000
_cell_volume 2664.028580
_symmetry_space_group_name_H-M "C 2/M"
_symmetry_group_IT_number 12
_symmetry_cell_setting 'monoclinic'
loop_
_space_group_symop_operation_xyz
x,y,z
-x,y,-z
-x,-y,-z
x,-y,z
1/2+x,1/2+y,z
1/2-x,1/2+y,-z
1/2-x,1/2-y,-z
1/2+x,1/2-y,z
loop_
_atom_site_type_symbol
_atom_site_label
_atom_site_fract_x
_atom_site_fract_y
_atom_site_fract_z
Si Si1 0.035943 0.677765 0.610688
Si Si2 0.107308 0.320913 0.101939
Si Si3 0.045881 0.319658 0.809618
Si Si4 0.188382 0.823500 0.221741
Si Si5 0.161478 0.318480 0.887235
Si Si6 0.593069 0.675769 0.422250
O O1 0.025529 0.500000 0.610653
O O2 0.054744 0.719146 0.701988
O O3 0.091126 0.732946 0.513960
O O4 0.968170 0.760630 0.609418
O O5 0.108010 0.500000 0.107779
O O6 0.140390 0.255766 0.174010
O O7 0.029598 0.273069 0.128026
O O8 0.147475 0.274050 0.995082
O O9 0.047048 0.500000 0.813756
O O10 0.103247 0.264733 0.848624
O O11 0.264553 0.769195 0.176363
O O12 0.160330 0.801984 0.333756
O O13 0.186248 0.000000 0.203925
O O14 0.160041 0.500000 0.885754
O O15 0.582735 0.500000 0.442530
#
# Coordination Sequence:
#
# PCOD9223242 Si02
#       6
#     8   8   8   8   8   8
#     4  10  18  30  51  76  97 120 160 210 248 279
#     4  10  18  31  54  77  97 127 169 211 242 280
#     4   9  17  30  50  77 101 125 162 208 249 284
#     4  10  20  33  50  73 102 135 164 198 244 296
#     4   9  18  32  50  73 102 133 165 200 244 295
#     4  10  19  31  48  71  99 130 162 196 241 297
#
# _framework density 9.0089120000000005
#
# number of rings (size 3 to 8) (size 9 to 14) (size 15 to 20)
#    0.000    2.333    1.667    3.000    0.000    2.667 
#    0.000    0.833    0.000    7.000    0.000    0.000 
#    0.000    0.000    0.000    0.000    0.000    0.000 
#
# Total GULP energy -133771.396534 kJ/mol
# GULP energy per Si atom -5573.808189 kJ/mol
# Density = 0.898841 g / cm^3
# Si number density = 9.008912 Si / 1000 Ang^3
#
#
#
# Elastic Constant Matrix: (Units=GPa)
#
#
# Indices 1 2 3 4 5 6 
#
# 1 25.8218 -8.4614 -4.9071 0.0000 -42.8427 0.0000
# 2 -8.4614 14.6708 6.0630 0.0000 -11.1925 0.0000
# 3 -4.9071 6.0630 63.5255 0.0000 -37.4449 0.0000
# 4 0.0000 0.0000 0.0000 0.2985 0.0000 -7.6568
# 5 -42.8427 -11.1925 -37.4449 0.0000 13.4412 0.0000
# 6 0.0000 0.0000 0.0000 -7.6568 0.0000 7.9645
#
#
#
# Elastic Compliance Matrix: (Units=1/GPa)
#
#
# Indices 1 2 3 4 5 6 
#
# 1 0.004599 -0.007153 -0.009605 0.000000 -0.018056 0.000000
# 2 -0.007153 0.059163 -0.014640 0.000000 -0.014319 0.000000
# 3 -0.009605 -0.014640 0.013760 0.000000 -0.004474 0.000000
# 4 0.000000 0.000000 0.000000 -0.141594 0.000000 -0.136122
# 5 -0.018056 -0.014319 -0.004474 0.000000 -0.007542 0.000000
# 6 0.000000 0.000000 0.000000 -0.136122 0.000000 -0.005306
#
#
# Mechanical properties :
#
#
# Convention : Reuss Voigt Hill
#
# Bulk Modulus (GPa) = 67.91147 9.93413 38.92280
# Shear Modulus (GPa) = -542.55091 11.76242 -265.39425
#
# Velocity S-wave (km/s) = -17.37161 2.55781 -12.14970
# Velocity P-wave (km/s) = 19.09425 3.77474 13.23522
#
# Compressibility (1/GPa) = 0.01472505
#
# Stress axis : x y z
#
# Youngs Moduli (GPa) = 217.43824 16.90258 72.67534
#
# Poissons Ratio (x) = 0.12091 0.69807
# Poissons Ratio (y) = 1.55540 1.06394
# Poissons Ratio (z) = 2.08856 0.24745
#
# Static dielectric constant tensor:
#      x y z
#    x 1.595780 0.000000 -0.039810 
#    y 0.000000 1.608570 0.000000 
#    z -0.039810 0.000000 1.641950 
# 
# From -- ./inp_files/229931.got.cif
#   From: 2010.05.17/outbox.ucp.g08.bks.cvg/sg12_115_cif.got.tgz:229931.got - 2010.06.11 11:47:21.
