data_PCOD9223785
_publ_section_title
;
Structure prediction by ZEFSAII (Michael W. Deem and Ramdas Pophale) SiO2 
 PCOD9223785
Probable space group: C 2/M
;
_chemical_formula_sum "Si O2"
_cell_formula_units_Z 32
_cell_length_a 24.000000
_cell_length_b 15.000000
_cell_length_c 9.000000
_cell_angle_alpha 90.000000
_cell_angle_beta 90.000000
_cell_angle_gamma 90.000000
_cell_volume 3240.000000
_symmetry_space_group_name_H-M "C 2/M"
_symmetry_group_IT_number 12
_symmetry_cell_setting 'monoclinic'
loop_
_space_group_symop_operation_xyz
x,y,z
-x,y,-z
-x,-y,-z
x,-y,z
1/2+x,1/2+y,z
1/2-x,1/2+y,-z
1/2-x,1/2-y,-z
1/2+x,1/2-y,z
loop_
_atom_site_type_symbol
_atom_site_label
_atom_site_fract_x
_atom_site_fract_y
_atom_site_fract_z
Si Si1 0.836052 0.397078 0.952778
Si Si2 0.764685 0.607598 0.427301
Si Si3 0.856228 0.103355 0.505625
Si Si4 0.450425 0.606769 0.256330
Si Si5 0.875132 0.393510 0.608887
Si Si6 0.719743 0.394007 0.097747
Si Si7 0.059883 0.777017 0.317139
Si Si8 0.109899 0.217444 0.001857
O O1 0.848909 0.500000 0.000014
O O2 0.850979 0.389726 0.777882
O O3 0.868520 0.317576 0.038555
O O4 0.770268 0.383695 0.980808
O O5 0.769151 0.500000 0.430206
O O6 0.708078 0.632217 0.517965
O O7 0.823994 0.636014 0.498811
O O8 0.747282 0.631996 0.257810
O O9 0.897085 0.106884 0.365357
O O10 0.889220 0.161869 0.624651
O O11 0.853920 0.000000 0.555532
O O12 0.465535 0.500000 0.233676
O O13 0.501807 0.665827 0.325781
O O14 0.426038 0.659039 0.113595
O O15 0.888907 0.500000 0.581522
O O16 0.926062 0.320484 0.607777
O O17 0.705481 0.500000 0.104750
O O18 0.665644 0.337297 0.051295
O O19 0.070237 0.766701 0.142636
#
# Coordination Sequence:
#
# PCOD9223785 Si02
#       8
#     8   8   8   8   8   8   8   8
#     4   9  20  37  56  80 117 158 191 236 291 343
#     4   9  18  34  57  86 117 150 187 232 289 347
#     4  10  21  38  58  84 118 153 191 234 287 350
#     4  11  25  40  60  86 117 155 195 241 288 344
#     4   9  20  38  60  86 117 151 193 242 290 344
#     4  10  19  33  55  85 122 155 188 235 290 348
#     4  11  22  39  59  83 115 157 196 241 288 340
#     4  11  22  37  56  86 116 153 198 241 285 343
#
# _framework density 9.8765429999999999
#
# number of rings (size 3 to 8) (size 9 to 14) (size 15 to 20)
#    0.000    2.000    1.250    1.875    1.750    4.500 
#    0.000    0.625    0.000    4.500    0.000    0.000 
#    0.000    0.000    0.000    0.000    0.000    0.000 
#
# Total GULP energy -178410.408806 kJ/mol
# GULP energy per Si atom -5575.325275 kJ/mol
# Density = 0.985406 g / cm^3
# Si number density = 9.876543 Si / 1000 Ang^3
#
#
#
# Elastic Constant Matrix: (Units=GPa)
#
#
# Indices 1 2 3 4 5 6 
#
# 1 78.5165 41.6186 23.1579 0.0000 24.8868 0.0000
# 2 41.6186 122.0107 25.4232 0.0000 22.0480 0.0000
# 3 23.1579 25.4232 45.2894 0.0000 18.4013 0.0000
# 4 0.0000 0.0000 0.0000 24.8404 0.0000 7.0615
# 5 24.8868 22.0480 18.4013 0.0000 35.7077 0.0000
# 6 0.0000 0.0000 0.0000 7.0615 0.0000 38.7236
#
#
#
# Elastic Compliance Matrix: (Units=1/GPa)
#
#
# Indices 1 2 3 4 5 6 
#
# 1 0.018726 -0.004040 -0.003817 0.000000 -0.008590 0.000000
# 2 -0.004040 0.010592 -0.002994 0.000000 -0.002182 0.000000
# 3 -0.003817 -0.002994 0.030205 0.000000 -0.011057 0.000000
# 4 0.000000 0.000000 0.000000 0.042458 0.000000 -0.007743
# 5 -0.008590 -0.002182 -0.011057 0.000000 0.041037 0.000000
# 6 0.000000 0.000000 0.000000 -0.007743 0.000000 0.027236
#
#
# Mechanical properties :
#
#
# Convention : Reuss Voigt Hill
#
# Bulk Modulus (GPa) = 26.44023 47.35733 36.89878
# Shear Modulus (GPa) = 24.44233 30.22880 27.33557
#
# Velocity S-wave (km/s) = 3.52148 3.91619 3.72407
# Velocity P-wave (km/s) = 5.47255 6.66899 6.10017
#
# Compressibility (1/GPa) = 0.03782116
#
# Stress axis : x y z
#
# Youngs Moduli (GPa) = 53.40135 94.41003 33.10703
#
# Poissons Ratio (x) = 0.38141 0.12638
# Poissons Ratio (y) = 0.21574 0.09911
# Poissons Ratio (z) = 0.20386 0.28263
#
# Static dielectric constant tensor:
#      x y z
#    x 1.684690 0.000000 -0.031860 
#    y 0.000000 1.734030 0.000000 
#    z -0.031860 0.000000 1.746640 
# 
# From -- ./inp_files/96862.got.cif
#   From: 2010.05.17/outbox.ucp.g08.bks.cvg/sg12_49_cif.got.tgz:96862.got - 2010.06.11 11:47:21.
