data_PCOD9223342
_publ_section_title
;
Structure prediction by ZEFSAII (Michael W. Deem and Ramdas Pophale) SiO2 
 PCOD9223342
Probable space group: C 2/M
;
_chemical_formula_sum "Si O2"
_cell_formula_units_Z 32
_cell_length_a 15.000000
_cell_length_b 9.000000
_cell_length_c 30.000000
_cell_angle_alpha 90.000000
_cell_angle_beta 50.000000
_cell_angle_gamma 90.000000
_cell_volume 3102.479995
_symmetry_space_group_name_H-M "C 2/M"
_symmetry_group_IT_number 12
_symmetry_cell_setting 'monoclinic'
loop_
_space_group_symop_operation_xyz
x,y,z
-x,y,-z
-x,-y,-z
x,-y,z
1/2+x,1/2+y,z
1/2-x,1/2+y,-z
1/2-x,1/2-y,-z
1/2+x,1/2-y,z
loop_
_atom_site_type_symbol
_atom_site_label
_atom_site_fract_x
_atom_site_fract_y
_atom_site_fract_z
Si Si1 0.995846 0.322894 0.695354
Si Si2 0.755936 0.680850 0.362148
Si Si3 0.081842 0.824383 0.016660
Si Si4 0.674405 0.676529 0.485585
Si Si5 0.759254 0.822568 0.804282
Si Si6 0.533015 0.323293 0.386455
Si Si7 0.489723 0.178477 0.136056
Si Si8 0.285693 0.821443 0.888628
O O1 0.985627 0.500000 0.701308
O O2 0.877385 0.248992 0.749170
O O3 0.017205 0.270973 0.637829
O O4 0.110357 0.275218 0.685832
O O5 0.752765 0.500000 0.363756
O O6 0.708168 0.731888 0.425771
O O7 0.664787 0.724777 0.353830
O O8 0.209870 0.787423 0.956904
O O9 0.077504 0.000000 0.028212
O O10 0.000000 0.798368 0.000000
O O11 0.037960 0.737843 0.073598
O O12 0.696546 0.500000 0.478682
O O13 0.750000 0.750000 0.500000
O O14 0.541890 0.696771 0.544530
O O15 0.643500 0.775120 0.814892
O O16 0.740512 0.766237 0.860668
O O17 0.768785 0.000000 0.799550
O O18 0.529240 0.500000 0.376692
O O19 0.581209 0.220528 0.144621
O O20 0.491346 0.000000 0.133470
O O21 0.275926 0.000000 0.883940
#
# Coordination Sequence:
#
# PCOD9223342 Si02
#       8
#     8   8   8   8   8   8   8   8
#     4  11  23  40  60  81 111 149 188 236 286 334
#     4   9  19  36  58  84 114 149 187 224 277 341
#     4  10  19  33  58  89 119 148 181 227 280 336
#     4  10  18  32  57  86 116 148 184 225 275 334
#     4  11  24  41  59  82 111 147 194 239 277 328
#     4  10  20  36  60  86 113 148 187 231 276 331
#     4  10  22  38  59  85 115 151 188 229 277 335
#     4  10  21  39  60  85 116 150 186 227 282 337
#
# _framework density 10.314329000000001
#
# number of rings (size 3 to 8) (size 9 to 14) (size 15 to 20)
#    0.000    1.875    2.500    1.500    0.000    4.250 
#    0.000    6.875    0.000    1.500    0.000    0.000 
#    0.000    0.000    0.000    0.000    0.000    0.000 
#
# Total GULP energy -178660.472058 kJ/mol
# GULP energy per Si atom -5583.139752 kJ/mol
# Density = 1.029085 g / cm^3
# Si number density = 10.314329 Si / 1000 Ang^3
#
#
#
# Elastic Constant Matrix: (Units=GPa)
#
#
# Indices 1 2 3 4 5 6 
#
# 1 97.0812 17.6296 2.2001 0.0000 -37.5792 0.0001
# 2 17.6296 11.9228 9.8586 0.0001 -16.3177 0.0001
# 3 2.2001 9.8586 37.8466 0.0000 -23.0020 0.0001
# 4 0.0000 0.0001 0.0000 30.4816 0.0000 0.9911
# 5 -37.5792 -16.3177 -23.0020 0.0000 30.7745 0.0000
# 6 0.0001 0.0001 0.0001 0.9911 0.0000 19.9735
#
#
#
# Elastic Compliance Matrix: (Units=1/GPa)
#
#
# Indices 1 2 3 4 5 6 
#
# 1 0.103553 0.180050 0.150175 -0.000001 0.334166 -0.000002
# 2 0.180050 0.645731 0.298769 -0.000002 0.785561 -0.000006
# 3 0.150175 0.298769 0.270467 -0.000001 0.543956 -0.000004
# 4 -0.000001 -0.000002 -0.000001 0.032860 -0.000003 -0.001630
# 5 0.334166 0.785561 0.543956 -0.000003 1.263654 -0.000009
# 6 -0.000002 -0.000006 -0.000004 -0.001630 -0.000009 0.050147
#
#
# Mechanical properties :
#
#
# Convention : Reuss Voigt Hill
#
# Bulk Modulus (GPa) = 0.43903 22.91412 11.67658
# Shear Modulus (GPa) = 2.67713 24.05675 13.36694
#
# Velocity S-wave (km/s) = 1.14043 3.41864 2.54831
# Velocity P-wave (km/s) = 1.39550 5.16864 3.78565
#
# Compressibility (1/GPa) = 2.27774031
#
# Stress axis : x y z
#
# Youngs Moduli (GPa) = 9.65686 1.54863 3.69731
#
# Poissons Ratio (x) = -0.27883 -0.55524
# Poissons Ratio (y) = -1.73872 -1.10464
# Poissons Ratio (z) = -1.45022 -0.46268
#
# Static dielectric constant tensor:
#      x y z
#    x 1.777920 0.000000 -0.045330 
#    y 0.000000 1.682650 0.000000 
#    z -0.045330 0.000000 1.759390 
# 
# From -- ./inp_files/375378.got.cif
#   From: 2010.05.17/outbox.ucp.g08.bks.cvg/sg12_188_cif.got.tgz:375378.got - 2010.06.11 11:47:21.
