data_PCOD9223499
_publ_section_title
;
Structure prediction by ZEFSAII (Michael W. Deem and Ramdas Pophale) SiO2 
 PCOD9223499
Probable space group: C 2/M
;
_chemical_formula_sum "Si O2"
_cell_formula_units_Z 28
_cell_length_a 27.000000
_cell_length_b 9.000000
_cell_length_c 18.000000
_cell_angle_alpha 90.000000
_cell_angle_beta 130.000000
_cell_angle_gamma 90.000000
_cell_volume 3350.678394
_symmetry_space_group_name_H-M "C 2/M"
_symmetry_group_IT_number 12
_symmetry_cell_setting 'monoclinic'
loop_
_space_group_symop_operation_xyz
x,y,z
-x,y,-z
-x,-y,-z
x,-y,z
1/2+x,1/2+y,z
1/2-x,1/2+y,-z
1/2-x,1/2-y,-z
1/2+x,1/2-y,z
loop_
_atom_site_type_symbol
_atom_site_label
_atom_site_fract_x
_atom_site_fract_y
_atom_site_fract_z
Si Si1 0.398997 0.170716 0.375175
Si Si2 0.725303 0.675681 0.097627
Si Si3 0.917801 0.328761 0.563418
Si Si4 0.280139 0.677478 0.456312
Si Si5 0.261916 0.676065 0.274126
Si Si6 0.544107 0.326255 0.710133
Si Si7 0.343316 0.825264 0.102899
O O1 0.430321 0.168889 0.486743
O O2 0.327035 0.230839 0.320928
O O3 0.433200 0.278428 0.350406
O O4 0.397823 0.000000 0.345579
O O5 0.721217 0.500000 0.106783
O O6 0.716202 0.765591 0.164755
O O7 0.794755 0.707789 0.125051
O O8 0.677283 0.730723 0.987815
O O9 0.920899 0.500000 0.591767
O O10 0.848470 0.257597 0.510241
O O11 0.970820 0.222610 0.649414
O O12 0.287278 0.500000 0.472222
O O13 0.250000 0.750000 0.500000
O O14 0.242959 0.701654 0.341757
O O15 0.274301 0.500000 0.277622
O O16 0.554922 0.500000 0.732054
O O17 0.587009 0.225540 0.804806
O O18 0.337646 0.000000 0.081969
#
# Coordination Sequence:
#
# PCOD9223499 Si02
#       7
#     8   8   8   8   8   8   8
#     4  10  19  31  46  67  96 133 171 205 243 291
#     4  10  19  31  48  70  98 133 172 210 250 293
#     4  10  21  35  51  70  97 131 168 207 249 299
#     4  10  21  37  56  79 103 129 164 207 256 303
#     4  10  19  31  50  74 101 132 167 207 250 298
#     4  12  22  31  46  69 100 135 171 207 246 293
#     4  10  20  32  47  67  98 136 174 211 247 289
#
# _framework density 8.3565170000000002
#
# number of rings (size 3 to 8) (size 9 to 14) (size 15 to 20)
#    0.000    1.714    1.429    4.286    0.000    6.286 
#    0.000    0.000    0.000    0.000    0.000    1.000 
#    0.000    8.000    0.000    0.000    0.000    0.000 
#
# Total GULP energy -156138.959777 kJ/mol
# GULP energy per Si atom -5576.391421 kJ/mol
# Density = 0.833750 g / cm^3
# Si number density = 8.356517 Si / 1000 Ang^3
#
#
#
# Elastic Constant Matrix: (Units=GPa)
#
#
# Indices 1 2 3 4 5 6 
#
# 1 43.4302 6.6620 23.8425 0.0000 -15.2750 0.0000
# 2 6.6620 37.0440 -4.0805 0.0000 -14.1431 0.0000
# 3 23.8425 -4.0805 54.2558 0.0000 -11.1926 0.0000
# 4 0.0000 0.0000 0.0000 26.2320 0.0000 -3.9212
# 5 -15.2750 -14.1431 -11.1926 0.0000 18.0678 0.0000
# 6 0.0000 0.0000 0.0000 -3.9212 0.0000 23.6181
#
#
#
# Elastic Compliance Matrix: (Units=1/GPa)
#
#
# Indices 1 2 3 4 5 6 
#
# 1 0.038372 0.002376 -0.011016 0.000000 0.027478 0.000000
# 2 0.002376 0.044615 0.011385 0.000000 0.043986 0.000000
# 3 -0.011016 0.011385 0.027569 0.000000 0.016677 0.000000
# 4 0.000000 0.000000 0.000000 0.039091 0.000000 0.006490
# 5 0.027478 0.043986 0.016677 0.000000 0.123340 0.000000
# 6 0.000000 0.000000 0.000000 0.006490 0.000000 0.043418
#
#
# Mechanical properties :
#
#
# Convention : Reuss Voigt Hill
#
# Bulk Modulus (GPa) = 8.61711 20.84202 14.72956
# Shear Modulus (GPa) = 14.30219 20.80397 17.55308
#
# Velocity S-wave (km/s) = 2.92850 3.53196 3.24429
# Velocity P-wave (km/s) = 4.07454 5.39728 4.78187
#
# Compressibility (1/GPa) = 0.11604823
#
# Stress axis : x y z
#
# Youngs Moduli (GPa) = 26.06035 22.41387 36.27317
#
# Poissons Ratio (x) = -0.05326 0.39957
# Poissons Ratio (y) = -0.06193 -0.41297
# Poissons Ratio (z) = 0.28707 -0.25518
#
# Static dielectric constant tensor:
#      x y z
#    x 1.614770 0.000000 0.016140 
#    y 0.000000 1.542270 0.000000 
#    z 0.016140 0.000000 1.623460 
# 
# From -- ./inp_files/291834.got.cif
#   From: 2010.05.17/outbox.ucp.g08.bks.cvg/sg12_146_cif.got.tgz:291834.got - 2010.06.11 11:47:21.
