data_PCOD9223031
_publ_section_title
;
Structure prediction by ZEFSAII (Michael W. Deem and Ramdas Pophale) SiO2 
 PCOD9223031
Probable space group: C 2/M
;
_chemical_formula_sum "Si O2"
_cell_formula_units_Z 64
_cell_length_a 19.411281
_cell_length_b 7.499087
_cell_length_c 21.570692
_cell_angle_alpha 90.000000
_cell_angle_beta 92.565588
_cell_angle_gamma 90.000000
_cell_volume 3136.831036
_symmetry_space_group_name_H-M "C 2/M"
_symmetry_group_IT_number 12
_symmetry_cell_setting 'monoclinic'
loop_
_space_group_symop_operation_xyz
x,y,z
-x,y,-z
-x,-y,-z
x,-y,z
1/2+x,1/2+y,z
1/2-x,1/2+y,-z
1/2-x,1/2-y,-z
1/2+x,1/2-y,z
loop_
_atom_site_type_symbol
_atom_site_label
_atom_site_fract_x
_atom_site_fract_y
_atom_site_fract_z
Si Si1 0.799789 0.789064 0.560502
Si Si2 0.378995 0.718268 0.899627
Si Si3 0.133381 0.709673 0.763484
Si Si4 0.487664 0.715314 0.157699
Si Si5 0.278166 0.783533 0.116063
Si Si6 0.424009 0.207773 0.485806
Si Si7 0.326342 0.780608 0.370354
Si Si8 0.400075 0.292538 0.037293
O O1 0.750000 0.750000 0.500000
O O2 0.874235 0.716620 0.543941
O O3 0.751924 0.725341 0.615290
O O4 0.808534 0.000000 0.567138
O O5 0.378117 0.500000 0.901194
O O6 0.433742 0.771262 0.849561
O O7 0.300677 0.775403 0.886912
O O8 0.404921 0.780325 0.968353
O O9 0.148679 0.500000 0.760928
O O10 0.055059 0.729296 0.783887
O O11 0.181061 0.781304 0.821161
O O12 0.149726 0.780652 0.696168
O O13 0.485471 0.500000 0.156967
O O14 0.445785 0.782745 0.095209
O O15 0.321763 0.721073 0.058533
O O16 0.279706 0.000000 0.115154
O O17 0.500000 0.285683 0.500000
O O18 0.379240 0.281141 0.426281
O O19 0.434348 0.000000 0.470969
O O20 0.326411 0.000000 0.372261
O O21 0.419803 0.500000 0.033545
#
# Coordination Sequence:
#
# PCOD9223031 Si02
#       8
#     8   8   8   8   8   8   8   8
#     4   9  16  28  47  70  94 120 151 184 218 258
#     4   9  16  27  43  62  83 108 138 173 217 262
#     4   9  17  31  47  61  82 115 149 174 206 256
#     4   9  17  29  44  62  84 110 142 178 213 253
#     4   9  17  28  43  62  83 108 139 176 212 249
#     4   9  17  30  48  70  95 120 146 181 226 268
#     4   8  15  29  48  65  84 116 150 175 207 259
#     4   9  16  27  44  62  81 108 139 172 214 262
#
# _framework density 20.402757999999999
#
# number of rings (size 3 to 8) (size 9 to 14) (size 15 to 20)
#    0.000    3.125    0.000    1.875    0.000    1.750 
#    0.000    5.625    0.000    4.500    0.000    0.000 
#    0.000    0.000    0.000    0.000    0.000    0.000 
#
# Total GULP energy -178331.575769 kJ/mol
# GULP energy per Si atom -5572.861743 kJ/mol
# Density = 2.035632 g / cm^3
# Si number density = 20.402758 Si / 1000 Ang^3
#
#
#
# Elastic Constant Matrix: (Units=GPa)
#
#
# Indices 1 2 3 4 5 6 
#
# 1 118.7837 -11.0795 38.1559 0.0000 -32.0541 0.0000
# 2 -11.0795 51.6511 -3.0395 0.0000 5.4855 0.0000
# 3 38.1559 -3.0395 99.9647 0.0000 -37.1951 0.0000
# 4 0.0000 0.0000 0.0000 4.2500 0.0000 -9.7930
# 5 -32.0541 5.4855 -37.1951 0.0000 27.8279 0.0000
# 6 0.0000 0.0000 0.0000 -9.7930 0.0000 14.9084
#
#
#
# Elastic Compliance Matrix: (Units=1/GPa)
#
#
# Indices 1 2 3 4 5 6 
#
# 1 0.012339 0.001072 0.001060 0.000000 0.015418 0.000000
# 2 0.001072 0.020012 -0.001609 0.000000 -0.004862 0.000000
# 3 0.001060 -0.001609 0.020137 0.000000 0.028453 0.000000
# 4 0.000000 0.000000 0.000000 -0.458138 0.000000 -0.300940
# 5 0.015418 -0.004862 0.028453 0.000000 0.092684 0.000000
# 6 0.000000 0.000000 0.000000 -0.300940 0.000000 -0.130605
#
#
# Mechanical properties :
#
#
# Convention : Reuss Voigt Hill
#
# Bulk Modulus (GPa) = 18.68053 35.38592 27.03323
# Shear Modulus (GPa) = -11.71590 25.82145 7.05277
#
# Velocity S-wave (km/s) = -2.39891 3.56137 1.86126
# Velocity P-wave (km/s) = 1.22586 5.85598 4.23055
#
# Compressibility (1/GPa) = 0.05353167
#
# Stress axis : x y z
#
# Youngs Moduli (GPa) = 81.04555 49.96962 49.65946
#
# Poissons Ratio (x) = -0.05355 -0.05262
# Poissons Ratio (y) = -0.08686 0.07993
# Poissons Ratio (z) = -0.08587 0.08043
#
# Static dielectric constant tensor:
#      x y z
#    x 1.744950 0.000000 -0.012380 
#    y 0.000000 1.798370 0.000000 
#    z -0.012380 0.000000 1.716920 
# 
# From -- ./inp_files/341981.got.cif
#   From: 2010.05.17/outbox.cif.g08.bks.cpg/sg12_171_cif.got.tgz:341981.got - 2010.06.03 13:09:07.
