data_PCOD9223077
_publ_section_title
;
Structure prediction by ZEFSAII (Michael W. Deem and Ramdas Pophale) SiO2 
 PCOD9223077
Probable space group: C 2/M
;
_chemical_formula_sum "Si O2"
_cell_formula_units_Z 56
_cell_length_a 14.241024
_cell_length_b 9.367941
_cell_length_c 24.508540
_cell_angle_alpha 90.000000
_cell_angle_beta 129.842281
_cell_angle_gamma 90.000000
_cell_volume 2510.481974
_symmetry_space_group_name_H-M "C 2/M"
_symmetry_group_IT_number 12
_symmetry_cell_setting 'monoclinic'
loop_
_space_group_symop_operation_xyz
x,y,z
-x,y,-z
-x,-y,-z
x,-y,z
1/2+x,1/2+y,z
1/2-x,1/2+y,-z
1/2-x,1/2-y,-z
1/2+x,1/2-y,z
loop_
_atom_site_type_symbol
_atom_site_label
_atom_site_fract_x
_atom_site_fract_y
_atom_site_fract_z
Si Si1 0.401225 0.661578 0.247952
Si Si2 0.016315 0.663265 0.380431
Si Si3 0.247884 0.336537 0.655092
Si Si4 0.852942 0.659051 0.785305
Si Si5 0.868520 0.836178 0.482432
Si Si6 0.071747 0.328778 0.941939
Si Si7 0.226925 0.171881 0.907768
O O1 0.445614 0.500000 0.254458
O O2 0.496229 0.756398 0.316046
O O3 0.284664 0.648654 0.244535
O O4 0.340502 0.726986 0.171182
O O5 0.051746 0.500000 0.385864
O O6 0.107522 0.746051 0.454285
O O7 0.883604 0.662353 0.361941
O O8 0.273166 0.500000 0.649659
O O9 0.347577 0.272112 0.734364
O O10 0.224316 0.238070 0.593951
O O11 0.890533 0.500000 0.780018
O O12 0.934797 0.694575 0.868998
O O13 0.000000 0.837020 0.500000
O O14 0.837802 0.000000 0.482749
O O15 0.093041 0.500000 0.943388
O O16 0.148611 0.235026 0.927971
O O17 0.131995 0.294578 0.023369
O O18 0.220393 0.000000 0.901466
#
# Coordination Sequence:
#
# PCOD9223077 Si02
#       7
#     8   8   8   8   8   8   8
#     4   9  17  29  45  66  92 120 151 188 229 271
#     4   9  16  25  38  59  88 119 150 185 225 267
#     4   9  16  25  38  59  88 119 150 185 225 267
#     4   9  17  29  45  66  92 120 151 188 229 271
#     4   9  15  23  37  57  84 119 154 185 220 263
#     4   9  18  32  49  68  90 118 152 189 228 271
#     4   9  18  32  49  68  90 118 152 189 228 271
#
# _framework density 22.306474999999999
#
# number of rings (size 3 to 8) (size 9 to 14) (size 15 to 20)
#    0.000    3.000    0.000    1.286    0.000    6.857 
#    0.000    2.857    0.000    0.000    0.000    9.000 
#    0.000    0.000    0.000    0.000    0.000    0.000 
#
# Total GULP energy -156213.086555 kJ/mol
# GULP energy per Si atom -5579.038806 kJ/mol
# Density = 2.225570 g / cm^3
# Si number density = 22.306475 Si / 1000 Ang^3
#
#
#
# Elastic Constant Matrix: (Units=GPa)
#
#
# Indices 1 2 3 4 5 6 
#
# 1 34.0699 2.3670 24.7695 0.0000 12.8027 0.0000
# 2 2.3670 109.1244 102.9194 0.0000 -13.6296 0.0000
# 3 24.7695 102.9194 221.5189 0.0000 -16.0501 0.0000
# 4 0.0000 0.0000 0.0000 27.6383 0.0000 -4.9177
# 5 12.8027 -13.6296 -16.0501 0.0000 41.8461 0.0000
# 6 0.0000 0.0000 0.0000 -4.9177 0.0000 3.8627
#
#
#
# Elastic Compliance Matrix: (Units=1/GPa)
#
#
# Indices 1 2 3 4 5 6 
#
# 1 0.039576 0.004541 -0.007514 0.000000 -0.013511 0.000000
# 2 0.004541 0.017085 -0.008376 0.000000 0.000963 0.000000
# 3 -0.007514 -0.008376 0.009478 0.000000 0.003206 0.000000
# 4 0.000000 0.000000 0.000000 0.046778 0.000000 0.059553
# 5 -0.013511 0.000963 0.003206 0.000000 0.029574 0.000000
# 6 0.000000 0.000000 0.000000 0.059553 0.000000 0.334701
#
#
# Mechanical properties :
#
#
# Convention : Reuss Voigt Hill
#
# Bulk Modulus (GPa) = 23.01968 69.42499 46.22234
# Shear Modulus (GPa) = 9.72061 30.31325 20.01693
#
# Velocity S-wave (km/s) = 2.08979 3.69038 2.99885
# Velocity P-wave (km/s) = 4.02058 7.02491 5.72339
#
# Compressibility (1/GPa) = 0.04344109
#
# Stress axis : x y z
#
# Youngs Moduli (GPa) = 25.26801 58.52994 105.50479
#
# Poissons Ratio (x) = -0.26576 0.79273
# Poissons Ratio (y) = -0.11473 0.88370
# Poissons Ratio (z) = 0.18986 0.49024
#
# Static dielectric constant tensor:
#      x y z
#    x 1.891960 0.000000 0.037740 
#    y 0.000000 1.772240 0.000000 
#    z 0.037740 0.000000 1.844090 
# 
# From -- ./inp_files/257699.got.cif
#   From: 2010.05.17/outbox.cif.g08.bks.cpg/sg12_129_cif.got.tgz:257699.got - 2010.06.03 13:09:07.
