data_PCOD9223635
_publ_section_title
;
Structure prediction by ZEFSAII (Michael W. Deem and Ramdas Pophale) SiO2 
 PCOD9223635
Probable space group: C 2/M
;
_chemical_formula_sum "Si O2"
_cell_formula_units_Z 32
_cell_length_a 27.000000
_cell_length_b 9.000000
_cell_length_c 15.000000
_cell_angle_alpha 90.000000
_cell_angle_beta 110.000000
_cell_angle_gamma 90.000000
_cell_volume 3425.179603
_symmetry_space_group_name_H-M "C 2/M"
_symmetry_group_IT_number 12
_symmetry_cell_setting 'monoclinic'
loop_
_space_group_symop_operation_xyz
x,y,z
-x,y,-z
-x,-y,-z
x,-y,z
1/2+x,1/2+y,z
1/2-x,1/2+y,-z
1/2-x,1/2-y,-z
1/2+x,1/2-y,z
loop_
_atom_site_type_symbol
_atom_site_label
_atom_site_fract_x
_atom_site_fract_y
_atom_site_fract_z
Si Si1 0.527379 0.830532 0.643998
Si Si2 0.116337 0.175588 0.594609
Si Si3 0.149224 0.822797 0.931686
Si Si4 0.814967 0.180446 0.854895
Si Si5 0.695443 0.821619 0.781185
Si Si6 0.970205 0.823768 0.164603
Si Si7 0.403769 0.170654 0.592311
Si Si8 0.412080 0.320576 0.789870
O O1 0.559435 0.724778 0.598393
O O2 0.534720 0.771037 0.748531
O O3 0.464566 0.831816 0.596761
O O4 0.546623 0.000000 0.644796
O O5 0.157261 0.257408 0.683259
O O6 0.124714 0.233425 0.499937
O O7 0.121305 0.000000 0.603220
O O8 0.172715 0.740340 0.860655
O O9 0.086802 0.800977 0.914253
O O10 0.155957 0.000000 0.921214
O O11 0.178483 0.774330 0.038663
O O12 0.755446 0.224647 0.794363
O O13 0.865416 0.229889 0.827518
O O14 0.816917 0.000000 0.853811
O O15 0.693753 0.000000 0.783123
O O16 0.025803 0.786864 0.150332
O O17 0.973608 0.000000 0.189073
O O18 0.402545 0.246868 0.687834
O O19 0.385648 0.000000 0.585430
O O20 0.408769 0.500000 0.781458
#
# Coordination Sequence:
#
# PCOD9223635 Si02
#       8
#     8   8   8   8   8   8   8   8
#     4  10  19  32  52  79 115 149 177 215 271 331
#     4  12  23  35  54  81 110 143 184 230 276 330
#     4  10  19  34  56  85 115 144 182 230 278 333
#     4   9  20  37  58  81 109 147 193 234 273 321
#     4  11  22  37  56  80 111 149 187 232 280 325
#     4   9  17  29  52  83 115 147 180 221 273 324
#     4  10  21  36  55  82 113 146 181 221 271 332
#     4   9  18  36  57  80 112 150 188 228 269 321
#
# _framework density 9.3425759999999993
#
# number of rings (size 3 to 8) (size 9 to 14) (size 15 to 20)
#    0.000    2.000    1.250    3.000    0.000    3.500 
#    0.000    5.625    0.000    0.000    0.000    4.375 
#    0.000    0.000    0.000    0.000    0.000    0.000 
#
# Total GULP energy -178397.485752 kJ/mol
# GULP energy per Si atom -5574.921430 kJ/mol
# Density = 0.932131 g / cm^3
# Si number density = 9.342576 Si / 1000 Ang^3
#
#
#
# Elastic Constant Matrix: (Units=GPa)
#
#
# Indices 1 2 3 4 5 6 
#
# 1 57.7316 25.8754 0.0350 0.0000 -1.0690 0.0000
# 2 25.8754 47.9061 15.4110 0.0000 4.2742 0.0000
# 3 0.0350 15.4110 35.7791 0.0000 14.2558 0.0000
# 4 0.0000 0.0000 0.0000 -8.2225 0.0000 -4.6283
# 5 -1.0690 4.2742 14.2558 0.0000 -1.8862 0.0000
# 6 0.0000 0.0000 0.0000 -4.6283 0.0000 20.1595
#
#
#
# Elastic Compliance Matrix: (Units=1/GPa)
#
#
# Indices 1 2 3 4 5 6 
#
# 1 0.024081 -0.015078 0.006362 0.000000 0.000272 0.000000
# 2 -0.015078 0.033405 -0.011951 0.000000 -0.006081 0.000000
# 3 0.006362 -0.011951 0.011297 0.000000 0.054697 0.000000
# 4 0.000000 0.000000 0.000000 -0.107700 0.000000 -0.024726
# 5 0.000272 -0.006081 0.054697 0.000000 -0.130705 0.000000
# 6 0.000000 0.000000 0.000000 -0.024726 0.000000 0.043928
#
#
# Mechanical properties :
#
#
# Convention : Reuss Voigt Hill
#
# Bulk Modulus (GPa) = 36.42887 24.89551 30.66219
# Shear Modulus (GPa) = -66.47932 8.68319 -28.89807
#
# Velocity S-wave (km/s) = -5.97126 2.15805 -3.93692
# Velocity P-wave (km/s) = 5.29176 4.42292 2.05433
#
# Compressibility (1/GPa) = 0.02745076
#
# Stress axis : x y z
#
# Youngs Moduli (GPa) = 41.52733 29.93566 88.51615
#
# Poissons Ratio (x) = 0.45136 -0.56317
# Poissons Ratio (y) = 0.62613 1.05784
# Poissons Ratio (z) = -0.26421 0.35776
#
# Static dielectric constant tensor:
#      x y z
#    x 1.646680 0.000000 0.037840 
#    y 0.000000 1.626530 0.000000 
#    z 0.037840 0.000000 1.662680 
# 
# From -- ./inp_files/244270.got.cif
#   From: 2010.05.17/outbox.ucp.g08.bks.cvg/sg12_123_cif.got.tgz:244270.got - 2010.06.11 11:47:21.
