data_PCOD9223857
_publ_section_title
;
Structure prediction by ZEFSAII (Michael W. Deem and Ramdas Pophale) SiO2 
 PCOD9223857
Probable space group: C 2/M
;
_chemical_formula_sum "Si O2"
_cell_formula_units_Z 24
_cell_length_a 12.000000
_cell_length_b 27.000000
_cell_length_c 15.000000
_cell_angle_alpha 90.000000
_cell_angle_beta 150.000000
_cell_angle_gamma 90.000000
_cell_volume 2430.000000
_symmetry_space_group_name_H-M "C 2/M"
_symmetry_group_IT_number 12
_symmetry_cell_setting 'monoclinic'
loop_
_space_group_symop_operation_xyz
x,y,z
-x,y,-z
-x,-y,-z
x,-y,z
1/2+x,1/2+y,z
1/2-x,1/2+y,-z
1/2-x,1/2-y,-z
1/2+x,1/2-y,z
loop_
_atom_site_type_symbol
_atom_site_label
_atom_site_fract_x
_atom_site_fract_y
_atom_site_fract_z
Si Si1 0.039226 0.616313 0.792219
Si Si2 0.467723 0.285722 0.729727
Si Si3 0.898178 0.941019 0.525918
Si Si4 0.698191 0.940714 0.069493
Si Si5 0.693559 0.697057 0.067912
Si Si6 0.303704 0.695680 0.428845
O O1 0.840090 0.582312 0.621077
O O2 0.908077 0.663050 0.744483
O O3 0.191703 0.645009 0.827823
O O4 0.168647 0.586136 0.956069
O O5 0.637145 0.242950 0.813464
O O6 0.380371 0.314846 0.583462
O O7 0.260873 0.253176 0.621434
O O8 0.591028 0.310361 0.897839
O O9 0.000000 0.926350 0.500000
O O10 0.074489 0.928427 0.723582
O O11 0.874884 0.000000 0.505937
O O12 0.682999 0.000000 0.046641
O O13 0.500000 0.926631 0.000000
O O14 0.500000 0.709953 0.000000
O O15 0.500000 0.684031 0.500000
#
# Coordination Sequence:
#
# PCOD9223857 Si02
#       6
#     8   8   8   8   8   8
#     4  11  22  32  53  84 113 140 186 232 279 335
#     4   9  20  37  56  77 108 150 194 225 277 344
#     4  10  19  34  55  80 115 151 182 223 282 348
#     4  10  20  34  55  81 115 155 182 219 285 349
#     4  10  21  38  57  79 110 149 193 240 284 329
#     4  10  20  33  53  82 114 144 180 231 281 329
#
# _framework density 9.8765429999999999
#
# number of rings (size 3 to 8) (size 9 to 14) (size 15 to 20)
#    0.000    2.000    1.667    2.000    2.333    0.000 
#    0.000    1.667    0.000    2.000    0.000    2.333 
#    0.000    0.000    0.000    0.000    0.000    0.000 
#
# Total GULP energy -133794.554379 kJ/mol
# GULP energy per Si atom -5574.773099 kJ/mol
# Density = 0.985406 g / cm^3
# Si number density = 9.876543 Si / 1000 Ang^3
#
#
#
# Elastic Constant Matrix: (Units=GPa)
#
#
# Indices 1 2 3 4 5 6 
#
# 1 7.7752 12.7406 30.1721 0.0000 6.2033 -0.0003
# 2 12.7406 56.5120 47.2090 0.0000 1.4839 0.0001
# 3 30.1721 47.2090 80.4914 -0.0008 -10.1570 -0.0031
# 4 0.0000 0.0000 -0.0008 14.7935 -0.0005 -51.1628
# 5 6.2033 1.4839 -10.1570 -0.0005 19.1471 -0.0023
# 6 -0.0003 0.0001 -0.0031 -51.1628 -0.0023 -255.9016
#
#
#
# Elastic Compliance Matrix: (Units=1/GPa)
#
#
# Indices 1 2 3 4 5 6 
#
# 1 -0.080769 -0.028651 0.054297 0.000001 0.057191 -0.000001
# 2 -0.028651 0.028711 -0.005582 0.000000 0.004096 0.000000
# 3 0.054297 -0.005582 -0.007310 0.000000 -0.021036 0.000000
# 4 0.000001 0.000000 0.000000 0.039964 0.000000 -0.007990
# 5 0.057191 0.004096 -0.021036 0.000000 0.022222 0.000000
# 6 -0.000001 0.000000 0.000000 -0.007990 0.000000 -0.002310
#
#
# Mechanical properties :
#
#
# Convention : Reuss Voigt Hill
#
# Bulk Modulus (GPa) = -51.97196 36.11357 -7.92920
# Shear Modulus (GPa) = -108.61529 -40.74840 -74.68184
#
# Velocity S-wave (km/s) = -7.42333 -4.54683 -6.15547
# Velocity P-wave (km/s) = 9.99212 3.04018 7.38529
#
# Compressibility (1/GPa) = -0.01924114
#
# Stress axis : x y z
#
# Youngs Moduli (GPa) = -12.38093 34.83029 -136.80172
#
# Poissons Ratio (x) = 0.99792 7.42794
# Poissons Ratio (y) = -0.35473 -0.76369
# Poissons Ratio (z) = 0.67225 0.19444
#
# Static dielectric constant tensor:
#      x y z
#    x 1.662040 0.000000 -0.004840 
#    y 0.000000 1.727780 0.000000 
#    z -0.004840 0.000000 1.691740 
# 
# From -- ./inp_files/209277.got.cif
#   From: 2010.05.17/outbox.ucp.g08.bks.cvg/sg12_105_cif.got.tgz:209277.got - 2010.06.11 11:47:21.
