data_PCOD9223770
_publ_section_title
;
Structure prediction by ZEFSAII (Michael W. Deem and Ramdas Pophale) SiO2 
 PCOD9223770
Probable space group: C 2/M
;
_chemical_formula_sum "Si O2"
_cell_formula_units_Z 32
_cell_length_a 15.000000
_cell_length_b 9.000000
_cell_length_c 30.000000
_cell_angle_alpha 90.000000
_cell_angle_beta 50.000000
_cell_angle_gamma 90.000000
_cell_volume 3102.479995
_symmetry_space_group_name_H-M "C 2/M"
_symmetry_group_IT_number 12
_symmetry_cell_setting 'monoclinic'
loop_
_space_group_symop_operation_xyz
x,y,z
-x,y,-z
-x,-y,-z
x,-y,z
1/2+x,1/2+y,z
1/2-x,1/2+y,-z
1/2-x,1/2-y,-z
1/2+x,1/2-y,z
loop_
_atom_site_type_symbol
_atom_site_label
_atom_site_fract_x
_atom_site_fract_y
_atom_site_fract_z
Si Si1 0.824588 0.823543 0.515640
Si Si2 0.128394 0.327126 0.980207
Si Si3 0.218738 0.179296 0.809595
Si Si4 0.020515 0.321140 0.106268
Si Si5 0.474411 0.323162 0.613873
Si Si6 0.668550 0.821715 0.139650
Si Si7 0.656359 0.679062 0.634339
Si Si8 0.269974 0.322022 0.295741
O O1 0.750000 0.750000 0.500000
O O2 0.954057 0.802130 0.455093
O O3 0.774379 0.748277 0.575857
O O4 0.804074 0.000000 0.524559
O O5 0.165343 0.500000 0.964603
O O6 0.217773 0.227233 0.924471
O O7 0.112782 0.289731 0.037440
O O8 0.000000 0.316385 0.000000
O O9 0.316634 0.229910 0.813872
O O10 0.219094 0.235822 0.758523
O O11 0.097105 0.237188 0.867616
O O12 0.222080 0.000000 0.807429
O O13 0.002017 0.500000 0.111998
O O14 0.063848 0.271248 0.141234
O O15 0.448989 0.500000 0.625752
O O16 0.553757 0.282029 0.631979
O O17 0.359822 0.226216 0.649903
O O18 0.662276 0.000000 0.142633
O O19 0.664830 0.500000 0.630272
O O20 0.648301 0.726867 0.688883
O O21 0.280913 0.500000 0.289932
#
# Coordination Sequence:
#
# PCOD9223770 Si02
#       8
#     8   8   8   8   8   8   8   8
#     4   9  17  31  53  81 112 142 174 216 266 321
#     4  10  19  33  55  82 112 141 173 215 264 320
#     4  10  22  39  55  76 106 140 180 225 268 313
#     4  10  21  37  56  80 109 141 176 219 268 320
#     4   9  19  35  54  78 107 137 172 216 265 315
#     4  10  21  36  56  81 109 140 176 218 267 319
#     4   9  19  36  55  77 108 143 177 217 266 320
#     4  10  22  38  55  76 105 141 182 224 266 315
#
# _framework density 10.314329000000001
#
# number of rings (size 3 to 8) (size 9 to 14) (size 15 to 20)
#    0.000    2.375    1.250    1.500    0.000    6.250 
#    0.000    2.500    0.000    0.000    0.000    0.000 
#    0.000    0.000    0.000    0.000    0.000    0.000 
#
# Total GULP energy -178383.319965 kJ/mol
# GULP energy per Si atom -5574.478749 kJ/mol
# Density = 1.029085 g / cm^3
# Si number density = 10.314329 Si / 1000 Ang^3
#
#
#
# Elastic Constant Matrix: (Units=GPa)
#
#
# Indices 1 2 3 4 5 6 
#
# 1 91.0590 -2.7928 9.9707 0.0000 30.2681 -0.0001
# 2 -2.7928 -17.3838 -8.0977 0.0000 3.2877 -0.0001
# 3 9.9707 -8.0977 36.2589 0.0000 26.3546 0.0000
# 4 0.0000 0.0000 0.0000 21.8439 0.0000 -0.5750
# 5 30.2681 3.2877 26.3546 0.0000 37.6059 0.0000
# 6 -0.0001 -0.0001 0.0000 -0.5750 0.0000 20.1000
#
#
#
# Elastic Compliance Matrix: (Units=1/GPa)
#
#
# Indices 1 2 3 4 5 6 
#
# 1 0.015228 -0.007701 0.005120 0.000000 -0.015172 0.000000
# 2 -0.007701 -0.038205 -0.027206 0.000000 0.028604 0.000000
# 3 0.005120 -0.027206 0.043541 0.000000 -0.032257 0.000000
# 4 0.000000 0.000000 0.000000 0.045814 0.000000 0.001310
# 5 -0.015172 0.028604 -0.032257 0.000000 0.058908 0.000000
# 6 0.000000 0.000000 0.000000 0.001310 0.000000 0.049789
#
#
# Mechanical properties :
#
#
# Convention : Reuss Voigt Hill
#
# Bulk Modulus (GPa) = -25.63593 12.01049 -6.81272
# Shear Modulus (GPa) = 22.55852 23.30023 22.92938
#
# Velocity S-wave (km/s) = 3.31048 3.36446 3.33758
# Velocity P-wave (km/s) = 1.46903 4.57468 3.39748
#
# Compressibility (1/GPa) = -0.03900776
#
# Stress axis : x y z
#
# Youngs Moduli (GPa) = 65.66755 -26.17464 22.96660
#
# Poissons Ratio (x) = -0.20157 -0.11759
# Poissons Ratio (y) = 0.50570 0.62482
# Poissons Ratio (z) = -0.33623 -0.71210
#
# Static dielectric constant tensor:
#      x y z
#    x 1.777860 0.000000 0.029050 
#    y 0.000000 1.683700 0.000000 
#    z 0.029050 0.000000 1.765520 
# 
# From -- ./inp_files/375375.got.cif
#   From: 2010.05.17/outbox.ucp.g08.bks.cvg/sg12_188_cif.got.tgz:375375.got - 2010.06.11 11:47:21.
