data_PCOD9223869
_publ_section_title
;
Structure prediction by ZEFSAII (Michael W. Deem and Ramdas Pophale) SiO2 
 PCOD9223869
Probable space group: C 2/M
;
_chemical_formula_sum "Si O2"
_cell_formula_units_Z 24
_cell_length_a 15.000000
_cell_length_b 9.000000
_cell_length_c 27.000000
_cell_angle_alpha 90.000000
_cell_angle_beta 40.000000
_cell_angle_gamma 90.000000
_cell_volume 2342.960837
_symmetry_space_group_name_H-M "C 2/M"
_symmetry_group_IT_number 12
_symmetry_cell_setting 'monoclinic'
loop_
_space_group_symop_operation_xyz
x,y,z
-x,y,-z
-x,-y,-z
x,-y,z
1/2+x,1/2+y,z
1/2-x,1/2+y,-z
1/2-x,1/2-y,-z
1/2+x,1/2-y,z
loop_
_atom_site_type_symbol
_atom_site_label
_atom_site_fract_x
_atom_site_fract_y
_atom_site_fract_z
Si Si1 0.176805 0.680730 0.799684
Si Si2 0.049889 0.168193 0.360920
Si Si3 0.627116 0.831416 0.483832
Si Si4 0.924880 0.677027 0.842867
Si Si5 0.594266 0.328960 0.683500
Si Si6 0.658066 0.179259 0.920465
O O1 0.189245 0.500000 0.793402
O O2 0.295745 0.736064 0.711042
O O3 0.194664 0.727385 0.848730
O O4 0.023005 0.717806 0.847164
O O5 0.935084 0.250280 0.442233
O O6 0.997586 0.163414 0.326880
O O7 0.061178 0.000000 0.375710
O O8 0.500000 0.836888 0.500000
O O9 0.758214 0.767007 0.398449
O O10 0.668356 0.000000 0.480344
O O11 0.910073 0.500000 0.847338
O O12 0.775205 0.752329 0.905456
O O13 0.014226 0.733801 0.757933
O O14 0.613089 0.500000 0.693528
O O15 0.666861 0.000000 0.918866
O O16 0.500000 0.220867 0.000000
#
# Coordination Sequence:
#
# PCOD9223869 Si02
#       6
#     8   8   8   8   8   8
#     4   9  19  37  58  84 117 151 189 233 285 340
#     4  10  19  34  56  76 105 151 195 235 277 337
#     4  10  21  34  49  77 114 146 187 245 289 324
#     4  11  22  36  59  88 118 149 186 241 290 331
#     4  10  20  36  56  77 110 155 195 233 281 343
#     4  10  21  41  66  86 113 155 192 225 279 353
#
# _framework density 10.243449
#
# number of rings (size 3 to 8) (size 9 to 14) (size 15 to 20)
#    0.000    2.000    1.667    2.000    0.000    2.667 
#    0.000    2.500    0.000    0.000    0.000    0.000 
#    0.000    0.000    0.000    0.000    0.000    0.000 
#
# Total GULP energy -133928.612291 kJ/mol
# GULP energy per Si atom -5580.358845 kJ/mol
# Density = 1.022013 g / cm^3
# Si number density = 10.243449 Si / 1000 Ang^3
#
#
#
# Elastic Constant Matrix: (Units=GPa)
#
#
# Indices 1 2 3 4 5 6 
#
# 1 60.8477 2.8229 2.5857 0.0000 -28.1072 0.0000
# 2 2.8229 19.6358 9.9043 0.0000 -6.5856 0.0001
# 3 2.5857 9.9043 79.4439 0.0000 -36.5710 0.0000
# 4 0.0000 0.0000 0.0000 24.4489 0.0000 -11.3778
# 5 -28.1072 -6.5856 -36.5710 0.0000 41.0732 0.0000
# 6 0.0000 0.0001 0.0000 -11.3778 0.0000 14.7003
#
#
#
# Elastic Compliance Matrix: (Units=1/GPa)
#
#
# Indices 1 2 3 4 5 6 
#
# 1 0.032396 -0.000445 0.015545 0.000000 0.035939 0.000000
# 2 -0.000445 0.054856 -0.004941 0.000000 0.004092 -0.000001
# 3 0.015545 -0.004941 0.029197 0.000000 0.035842 0.000000
# 4 0.000000 0.000000 0.000000 0.063928 0.000000 0.049479
# 5 0.035939 0.004092 0.035842 0.000000 0.081510 0.000000
# 6 0.000000 -0.000001 0.000000 0.049479 0.000000 0.106322
#
#
# Mechanical properties :
#
#
# Convention : Reuss Voigt Hill
#
# Bulk Modulus (GPa) = 7.31169 21.17257 14.24213
# Shear Modulus (GPa) = 12.70717 25.68544 19.19631
#
# Velocity S-wave (km/s) = 2.49320 3.54467 3.06437
# Velocity P-wave (km/s) = 3.44453 5.20673 4.41446
#
# Compressibility (1/GPa) = 0.13676737
#
# Stress axis : x y z
#
# Youngs Moduli (GPa) = 30.86833 18.22961 34.25002
#
# Poissons Ratio (x) = 0.00811 -0.53242
# Poissons Ratio (y) = 0.01373 0.16922
# Poissons Ratio (z) = -0.47985 0.09007
#
# Static dielectric constant tensor:
#      x y z
#    x 1.768540 0.000000 -0.031810 
#    y 0.000000 1.723660 0.000000 
#    z -0.031810 0.000000 1.738580 
# 
# From -- ./inp_files/360243.got.cif
#   From: 2010.05.17/outbox.ucp.g08.bks.cvg/sg12_181_cif.got.tgz:360243.got - 2010.06.11 11:47:21.
