data_PCOD9223303
_publ_section_title
;
Structure prediction by ZEFSAII (Michael W. Deem and Ramdas Pophale) SiO2 
 PCOD9223303
Probable space group: C 2/M
;
_chemical_formula_sum "Si O2"
_cell_formula_units_Z 32
_cell_length_a 18.000000
_cell_length_b 30.000000
_cell_length_c 9.000000
_cell_angle_alpha 90.000000
_cell_angle_beta 140.000000
_cell_angle_gamma 90.000000
_cell_volume 3123.947783
_symmetry_space_group_name_H-M "C 2/M"
_symmetry_group_IT_number 12
_symmetry_cell_setting 'monoclinic'
loop_
_space_group_symop_operation_xyz
x,y,z
-x,y,-z
-x,-y,-z
x,-y,z
1/2+x,1/2+y,z
1/2-x,1/2+y,-z
1/2-x,1/2-y,-z
1/2+x,1/2-y,z
loop_
_atom_site_type_symbol
_atom_site_label
_atom_site_fract_x
_atom_site_fract_y
_atom_site_fract_z
Si Si1 0.928322 0.449080 0.542462
Si Si2 0.947221 0.049014 0.676429
Si Si3 0.329267 0.570849 0.783495
Si Si4 0.043508 0.148784 0.402020
Si Si5 0.603395 0.204446 0.774941
Si Si6 0.210261 0.831131 0.403256
Si Si7 0.340476 0.294816 0.964886
Si Si8 0.971469 0.360503 0.785474
O O1 0.948864 0.500000 0.623526
O O2 0.789970 0.441767 0.319466
O O3 0.963366 0.410107 0.707723
O O4 0.000000 0.442844 0.500000
O O5 0.847715 0.048661 0.650301
O O6 0.937240 0.095157 0.570132
O O7 0.948694 0.000000 0.605390
O O8 0.065561 0.056239 0.950904
O O9 0.332803 0.622713 0.740547
O O10 0.154962 0.169229 0.484102
O O11 0.000000 0.162011 0.500000
O O12 0.936674 0.167804 0.143734
O O13 0.500000 0.211969 0.500000
O O14 0.718816 0.192841 0.858099
O O15 0.562316 0.166028 0.823668
O O16 0.623519 0.248770 0.902586
O O17 0.172078 0.792133 0.232600
O O18 0.347637 0.835630 0.597484
O O19 0.000000 0.363243 0.000000
#
# Coordination Sequence:
#
# PCOD9223303 Si02
#       8
#     8   8   8   8   8   8   8   8
#     4  10  21  37  62  93 125 168 218 264 313 375
#     4  10  18  31  57  87 122 161 205 257 313 370
#     4   9  17  33  58  89 117 158 211 255 306 369
#     4  11  24  39  61  93 129 168 212 262 319 380
#     4  11  24  45  70 101 128 164 208 263 327 376
#     4  10  21  42  66  91 123 172 211 258 317 377
#     4  11  23  43  72  93 127 164 210 263 320 387
#     4  11  25  42  64  95 134 173 214 262 319 383
#
# _framework density 10.243449
#
# number of rings (size 3 to 8) (size 9 to 14) (size 15 to 20)
#    0.000    1.625    2.500    2.625    3.500    1.500 
#    0.000    1.250    0.000    0.000    0.000    0.000 
#    0.000    0.000    0.000    0.000    0.000    0.000 
#
# Total GULP energy -178528.048284 kJ/mol
# GULP energy per Si atom -5579.001509 kJ/mol
# Density = 1.022013 g / cm^3
# Si number density = 10.243449 Si / 1000 Ang^3
#
#
#
# Elastic Constant Matrix: (Units=GPa)
#
#
# Indices 1 2 3 4 5 6 
#
# 1 139.8354 19.9547 20.3858 0.0000 4.9613 0.0000
# 2 19.9547 35.2355 10.8083 0.0000 3.9589 0.0000
# 3 20.3858 10.8083 39.3888 0.0000 -4.3588 0.0000
# 4 0.0000 0.0000 0.0000 10.5456 0.0000 -7.1900
# 5 4.9613 3.9589 -4.3588 0.0000 33.8029 0.0000
# 6 0.0000 0.0000 0.0000 -7.1900 0.0000 95.8209
#
#
#
# Elastic Compliance Matrix: (Units=1/GPa)
#
#
# Indices 1 2 3 4 5 6 
#
# 1 0.008187 -0.003445 -0.003429 0.000000 -0.001240 0.000000
# 2 -0.003445 0.033224 -0.007820 0.000000 -0.004394 0.000000
# 3 -0.003429 -0.007820 0.029892 0.000000 0.005274 0.000000
# 4 0.000000 0.000000 0.000000 0.099939 0.000000 0.007499
# 5 -0.001240 -0.004394 0.005274 0.000000 0.030960 0.000000
# 6 0.000000 0.000000 0.000000 0.007499 0.000000 0.010999
#
#
# Mechanical properties :
#
#
# Convention : Reuss Voigt Hill
#
# Bulk Modulus (GPa) = 23.85798 35.19524 29.52661
# Shear Modulus (GPa) = 19.48862 38.92128 29.20495
#
# Velocity S-wave (km/s) = 3.08762 4.36341 3.77973
# Velocity P-wave (km/s) = 4.93781 6.52706 5.78725
#
# Compressibility (1/GPa) = 0.04191469
#
# Stress axis : x y z
#
# Youngs Moduli (GPa) = 122.14793 30.09878 33.45388
#
# Poissons Ratio (x) = 0.10370 0.11471
# Poissons Ratio (y) = 0.42083 0.26160
# Poissons Ratio (z) = 0.41884 0.23537
#
# Static dielectric constant tensor:
#      x y z
#    x 1.716980 0.000000 -0.000390 
#    y 0.000000 1.750030 0.000000 
#    z -0.000390 0.000000 1.767770 
# 
# From -- ./inp_files/80787.got.cif
#   From: 2010.05.17/outbox.ucp.g08.bks.cvg/sg12_41_cif.got.tgz:80787.got - 2010.06.11 11:47:21.
