data_PCOD9223818
_publ_section_title
;
Structure prediction by ZEFSAII (Michael W. Deem and Ramdas Pophale) SiO2 
 PCOD9223818
Probable space group: C 2/M
;
_chemical_formula_sum "Si O2"
_cell_formula_units_Z 28
_cell_length_a 18.000000
_cell_length_b 21.000000
_cell_length_c 21.000000
_cell_angle_alpha 90.000000
_cell_angle_beta 20.000000
_cell_angle_gamma 90.000000
_cell_volume 2714.955898
_symmetry_space_group_name_H-M "C 2/M"
_symmetry_group_IT_number 12
_symmetry_cell_setting 'monoclinic'
loop_
_space_group_symop_operation_xyz
x,y,z
-x,y,-z
-x,-y,-z
x,-y,z
1/2+x,1/2+y,z
1/2-x,1/2+y,-z
1/2-x,1/2-y,-z
1/2+x,1/2-y,z
loop_
_atom_site_type_symbol
_atom_site_label
_atom_site_fract_x
_atom_site_fract_y
_atom_site_fract_z
Si Si1 0.256218 0.065289 0.791719
Si Si2 0.914952 0.074726 0.264083
Si Si3 0.985851 0.263926 0.281343
Si Si4 0.087508 0.571823 0.089070
Si Si5 0.951357 0.407402 0.335031
Si Si6 0.239879 0.680024 0.301098
Si Si7 0.946885 0.288854 0.922110
O O1 0.351561 0.062979 0.784994
O O2 0.312283 0.130576 0.713295
O O3 0.335163 0.000000 0.695383
O O4 0.000000 0.064525 0.000000
O O5 0.760104 0.082182 0.450990
O O6 0.834607 0.129811 0.279022
O O7 0.894613 0.000000 0.258708
O O8 0.165664 0.083785 0.083443
O O9 0.750000 0.250000 0.500000
O O10 0.023464 0.334867 0.273713
O O11 0.992513 0.266936 0.199213
O O12 0.189523 0.222063 0.139169
O O13 0.082981 0.500000 0.064438
O O14 0.019477 0.634455 0.103317
O O15 0.939005 0.570956 0.272348
O O16 0.411376 0.737291 0.152784
O O17 0.000000 0.710879 0.500000
#
# Coordination Sequence:
#
# PCOD9223818 Si02
#       7
#     8   8   8   8   8   8   8
#     4  11  22  34  49  73 109 150 188 219 254 312
#     4  11  21  34  53  80 110 144 184 219 264 322
#     4  10  19  33  58  77 105 140 177 227 285 317
#     4  10  21  37  59  81 105 135 174 235 294 326
#     4  11  20  33  52  79 109 139 176 216 264 322
#     4  12  23  35  52  72 113 158 189 219 258 316
#     4  10  21  37  52  79 108 137 186 234 269 327
#
# _framework density 10.313243
#
# number of rings (size 3 to 8) (size 9 to 14) (size 15 to 20)
#    0.000    1.286    1.429    7.714    0.000    2.857 
#    0.000    0.000    0.000    0.429    0.000    0.000 
#    0.000    2.000    0.000    0.000    0.000    0.000 
#
# Total GULP energy -156091.108455 kJ/mol
# GULP energy per Si atom -5574.682445 kJ/mol
# Density = 1.028977 g / cm^3
# Si number density = 10.313243 Si / 1000 Ang^3
#
#
#
# Elastic Constant Matrix: (Units=GPa)
#
#
# Indices 1 2 3 4 5 6 
#
# 1 17.1029 23.5922 -0.8205 0.1834 -2.7148 -0.1937
# 2 23.5922 171.7487 10.0979 1.1288 -6.3918 -1.1684
# 3 -0.8205 10.0979 83.5848 0.5603 0.2903 -0.6238
# 4 0.1834 1.1288 0.5603 81.1845 -0.5869 -69.7003
# 5 -2.7148 -6.3918 0.2903 -0.5869 16.1611 0.6278
# 6 -0.1937 -1.1684 -0.6238 -69.7003 0.6278 89.4181
#
#
#
# Elastic Compliance Matrix: (Units=1/GPa)
#
#
# Indices 1 2 3 4 5 6 
#
# 1 0.073554 -0.009902 0.001889 0.000017 0.008406 -0.000003
# 2 -0.009902 0.007287 -0.000981 -0.000040 0.001234 0.000027
# 3 0.001889 -0.000981 0.012103 -0.000029 -0.000291 0.000055
# 4 0.000017 -0.000040 -0.000029 0.037240 0.000212 0.029026
# 5 0.008406 0.001234 -0.000291 0.000212 0.063800 -0.000250
# 6 -0.000003 0.000027 0.000055 0.029026 -0.000250 0.033811
#
#
# Mechanical properties :
#
#
# Convention : Reuss Voigt Hill
#
# Bulk Modulus (GPa) = 13.34150 37.57507 25.45829
# Shear Modulus (GPa) = 18.46608 53.32385 35.89496
#
# Velocity S-wave (km/s) = 2.99534 5.09001 4.17614
# Velocity P-wave (km/s) = 4.29475 7.26641 5.96849
#
# Compressibility (1/GPa) = 0.07495410
#
# Stress axis : x y z
#
# Youngs Moduli (GPa) = 13.59554 137.23641 82.62681
#
# Poissons Ratio (x) = 1.35891 -0.15608
# Poissons Ratio (y) = 0.13462 0.08108
# Poissons Ratio (z) = -0.02568 0.13467
#
# Static dielectric constant tensor:
#      x y z
#    x 1.764140 -0.000220 0.054080 
#    y -0.000220 1.332340 -0.001600 
#    z 0.054080 -0.001600 1.829340 
# 
# From -- ./inp_files/318015.got.cif
#   From: 2010.05.17/outbox.ucp.g08.bks.cvg/sg12_160_cif.got.tgz:318015.got - 2010.06.11 11:47:21.
