data_PCOD9223874
_publ_section_title
;
Structure prediction by ZEFSAII (Michael W. Deem and Ramdas Pophale) SiO2 
 PCOD9223874
Probable space group: C 2/M
;
_chemical_formula_sum "Si O2"
_cell_formula_units_Z 32
_cell_length_a 30.000000
_cell_length_b 9.000000
_cell_length_c 24.000000
_cell_angle_alpha 90.000000
_cell_angle_beta 150.000000
_cell_angle_gamma 90.000000
_cell_volume 3240.000000
_symmetry_space_group_name_H-M "C 2/M"
_symmetry_group_IT_number 12
_symmetry_cell_setting 'monoclinic'
loop_
_space_group_symop_operation_xyz
x,y,z
-x,y,-z
-x,-y,-z
x,-y,z
1/2+x,1/2+y,z
1/2-x,1/2+y,-z
1/2-x,1/2-y,-z
1/2+x,1/2-y,z
loop_
_atom_site_type_symbol
_atom_site_label
_atom_site_fract_x
_atom_site_fract_y
_atom_site_fract_z
Si Si1 0.259425 0.825119 0.182545
Si Si2 0.192696 0.329179 0.215583
Si Si3 0.929374 0.821965 0.325263
Si Si4 0.153594 0.178684 0.884392
Si Si5 0.373005 0.327615 0.484006
Si Si6 0.581109 0.675525 0.185160
Si Si7 0.760639 0.671893 0.453053
Si Si8 0.908357 0.819780 0.066958
O O1 0.206518 0.784589 0.180784
O O2 0.355660 0.748103 0.285844
O O3 0.272408 0.000000 0.190106
O O4 0.189401 0.770758 0.059898
O O5 0.180246 0.500000 0.184028
O O6 0.287133 0.322430 0.350829
O O7 0.111732 0.274065 0.166273
O O8 0.891140 0.782215 0.222664
O O9 0.033068 0.774857 0.440359
O O10 0.926526 0.000000 0.329632
O O11 0.088222 0.220903 0.864548
O O12 0.164549 0.000000 0.897059
O O13 0.250000 0.250000 0.000000
O O14 0.387740 0.500000 0.515424
O O15 0.339850 0.240476 0.502108
O O16 0.571314 0.500000 0.159550
O O17 0.666499 0.685805 0.318586
O O18 0.491430 0.728390 0.119100
O O19 0.778734 0.500000 0.480983
O O20 0.750000 0.750000 0.500000
O O21 0.909320 0.000000 0.064549
#
# Coordination Sequence:
#
# PCOD9223874 Si02
#       8
#     8   8   8   8   8   8   8   8
#     4  11  22  37  58  81 110 145 185 228 272 326
#     4  10  21  39  59  80 111 142 179 231 280 325
#     4  10  21  36  58  84 110 145 186 226 271 325
#     4  10  19  34  56  80 111 146 181 222 270 323
#     4   9  20  38  58  79 108 145 183 226 274 325
#     4   9  19  37  59  80 106 144 187 225 268 325
#     4  10  20  33  54  81 111 145 183 226 270 323
#     4   9  19  35  56  82 110 144 184 222 266 323
#
# _framework density 9.8765429999999999
#
# number of rings (size 3 to 8) (size 9 to 14) (size 15 to 20)
#    0.000    2.250    1.250    1.125    1.750    2.500 
#    0.000    6.875    0.000    0.000    0.000    0.000 
#    0.000    0.000    0.000    0.000    0.000    0.000 
#
# Total GULP energy -178481.229691 kJ/mol
# GULP energy per Si atom -5577.538428 kJ/mol
# Density = 0.985406 g / cm^3
# Si number density = 9.876543 Si / 1000 Ang^3
#
#
#
# Elastic Constant Matrix: (Units=GPa)
#
#
# Indices 1 2 3 4 5 6 
#
# 1 83.9125 4.5772 5.1064 0.0000 24.4656 0.0000
# 2 4.5772 17.0398 8.6416 0.0000 0.9237 0.0000
# 3 5.1064 8.6416 16.7262 0.0000 22.7503 0.0000
# 4 0.0000 0.0000 0.0000 21.3601 0.0000 5.9489
# 5 24.4656 0.9237 22.7503 0.0000 34.8213 0.0000
# 6 0.0000 0.0000 0.0000 5.9489 0.0000 32.2286
#
#
#
# Elastic Compliance Matrix: (Units=1/GPa)
#
#
# Indices 1 2 3 4 5 6 
#
# 1 0.006683 0.019237 -0.043987 0.000000 0.023533 0.000000
# 2 0.019237 -0.001204 0.117557 0.000000 -0.090289 0.000000
# 3 -0.043987 0.117557 -0.227353 0.000000 0.176327 0.000000
# 4 0.000000 0.000000 0.000000 0.049353 0.000000 -0.009110
# 5 0.023533 -0.090289 0.176327 0.000000 -0.100623 0.000000
# 6 0.000000 0.000000 0.000000 -0.009110 0.000000 0.032710
#
#
# Mechanical properties :
#
#
# Convention : Reuss Voigt Hill
#
# Bulk Modulus (GPa) = -27.57768 17.14765 -5.21501
# Shear Modulus (GPa) = -11.41208 24.30554 6.44673
#
# Velocity S-wave (km/s) = -2.40622 3.51161 1.80852
# Velocity P-wave (km/s) = 4.65955 5.01415 1.30964
#
# Compressibility (1/GPa) = -0.03626121
#
# Stress axis : x y z
#
# Youngs Moduli (GPa) = 149.62271 -830.48523 -4.39845
#
# Poissons Ratio (x) = 15.97566 -0.19347
# Poissons Ratio (y) = -2.87822 0.51707
# Poissons Ratio (z) = 6.58146 97.62899
#
# Static dielectric constant tensor:
#      x y z
#    x 1.695550 0.000000 -0.039610 
#    y 0.000000 1.663970 0.000000 
#    z -0.039610 0.000000 1.707420 
# 
# From -- ./inp_files/353424.got.cif
#   From: 2010.05.17/outbox.ucp.g08.bks.cvg/sg12_177_cif.got.tgz:353424.got - 2010.06.11 11:47:21.
