data_PCOD9223474
_publ_section_title
;
Structure prediction by ZEFSAII (Michael W. Deem and Ramdas Pophale) SiO2 
 PCOD9223474
Probable space group: C 2/M
;
_chemical_formula_sum "Si O2"
_cell_formula_units_Z 28
_cell_length_a 18.000000
_cell_length_b 9.000000
_cell_length_c 21.000000
_cell_angle_alpha 90.000000
_cell_angle_beta 60.000000
_cell_angle_gamma 90.000000
_cell_volume 2946.218424
_symmetry_space_group_name_H-M "C 2/M"
_symmetry_group_IT_number 12
_symmetry_cell_setting 'monoclinic'
loop_
_space_group_symop_operation_xyz
x,y,z
-x,y,-z
-x,-y,-z
x,-y,z
1/2+x,1/2+y,z
1/2-x,1/2+y,-z
1/2-x,1/2-y,-z
1/2+x,1/2-y,z
loop_
_atom_site_type_symbol
_atom_site_label
_atom_site_fract_x
_atom_site_fract_y
_atom_site_fract_z
Si Si1 0.927761 0.825827 0.942446
Si Si2 0.984586 0.820580 0.663418
Si Si3 0.372271 0.673770 0.099550
Si Si4 0.341540 0.679351 0.474786
Si Si5 0.848610 0.819471 0.615932
Si Si6 0.826091 0.321496 0.244495
Si Si7 0.481577 0.177023 0.796393
O O1 0.027441 0.816619 0.922437
O O2 0.924568 0.733068 0.879601
O O3 0.910209 0.000000 0.938482
O O4 0.871234 0.774161 0.026780
O O5 0.081996 0.775062 0.604961
O O6 0.955535 0.751316 0.741865
O O7 0.921574 0.772730 0.633788
O O8 0.982627 0.000000 0.667987
O O9 0.348943 0.500000 0.111153
O O10 0.320655 0.762332 0.174744
O O11 0.334520 0.500000 0.475316
O O12 0.250000 0.750000 0.500000
O O13 0.366666 0.723192 0.535883
O O14 0.754574 0.769236 0.679433
O O15 0.847720 0.000000 0.617376
O O16 0.825092 0.500000 0.243695
O O17 0.918986 0.276418 0.232355
O O18 0.479147 0.000000 0.793440
#
# Coordination Sequence:
#
# PCOD9223474 Si02
#       7
#     8   8   8   8   8   8   8
#     4   8  14  26  44  67  96 129 163 199 241 289
#     4  10  20  34  53  73  95 130 170 201 234 284
#     4   8  14  25  43  68  97 126 159 203 246 284
#     4  10  20  35  56  79 101 126 160 202 244 286
#     4   9  18  34  53  72  97 130 167 201 235 284
#     4   9  17  29  47  70  97 129 161 198 246 294
#     4  10  19  30  47  73 103 130 158 201 251 292
#
# _framework density 9.5037079999999996
#
# number of rings (size 3 to 8) (size 9 to 14) (size 15 to 20)
#    0.000    2.857    0.000    2.571    0.000    4.571 
#    0.000    5.000    0.000    2.571    0.000    0.000 
#    0.000    0.000    0.000    0.000    0.000    0.000 
#
# Total GULP energy -156080.458448 kJ/mol
# GULP energy per Si atom -5574.302087 kJ/mol
# Density = 0.948208 g / cm^3
# Si number density = 9.503708 Si / 1000 Ang^3
#
#
#
# Elastic Constant Matrix: (Units=GPa)
#
#
# Indices 1 2 3 4 5 6 
#
# 1 36.6014 6.5001 0.8264 0.0000 26.6770 0.0000
# 2 6.5001 4.5583 11.3285 0.0000 11.1801 0.0000
# 3 0.8264 11.3285 76.6856 0.0000 34.6286 0.0000
# 4 0.0000 0.0000 0.0000 26.1096 0.0000 2.1350
# 5 26.6770 11.1801 34.6286 0.0000 25.5838 0.0000
# 6 0.0000 0.0000 0.0000 2.1350 0.0000 14.2416
#
#
#
# Elastic Compliance Matrix: (Units=1/GPa)
#
#
# Indices 1 2 3 4 5 6 
#
# 1 0.012219 -0.145230 -0.004070 0.000000 0.056233 0.000000
# 2 -0.145230 0.495663 -0.108618 0.000000 0.081850 -0.000001
# 3 -0.004070 -0.108618 0.014865 0.000000 0.031590 0.000000
# 4 0.000000 0.000000 0.000000 0.038775 0.000000 -0.005813
# 5 0.056233 0.081850 0.031590 0.000000 -0.098075 0.000000
# 6 0.000000 -0.000001 0.000000 -0.005813 0.000000 0.071089
#
#
# Mechanical properties :
#
#
# Convention : Reuss Voigt Hill
#
# Bulk Modulus (GPa) = 144.69659 17.23949 80.96804
# Shear Modulus (GPa) = 4.74980 19.79969 12.27474
#
# Velocity S-wave (km/s) = 1.58251 3.23101 2.54399
# Velocity P-wave (km/s) = 8.92361 4.79675 7.16378
#
# Compressibility (1/GPa) = 0.00691101
#
# Stress axis : x y z
#
# Youngs Moduli (GPa) = 81.83904 2.01750 67.27200
#
# Poissons Ratio (x) = 0.29300 0.27382
# Poissons Ratio (y) = 11.88544 7.30698
# Poissons Ratio (z) = 0.33311 0.21914
#
# Static dielectric constant tensor:
#      x y z
#    x 1.661940 0.000000 0.012440 
#    y 0.000000 1.634390 0.000000 
#    z 0.012440 0.000000 1.666000 
# 
# From -- ./inp_files/313759.got.cif
#   From: 2010.05.17/outbox.ucp.g08.bks.cvg/sg12_157_cif.got.tgz:313759.got - 2010.06.11 11:47:21.
