data_PCOD9223607
_publ_section_title
;
Structure prediction by ZEFSAII (Michael W. Deem and Ramdas Pophale) SiO2 
 PCOD9223607
Probable space group: C 2/M
;
_chemical_formula_sum "Si O2"
_cell_formula_units_Z 32
_cell_length_a 30.000000
_cell_length_b 9.000000
_cell_length_c 15.000000
_cell_angle_alpha 90.000000
_cell_angle_beta 60.000000
_cell_angle_gamma 90.000000
_cell_volume 3507.402885
_symmetry_space_group_name_H-M "C 2/M"
_symmetry_group_IT_number 12
_symmetry_cell_setting 'monoclinic'
loop_
_space_group_symop_operation_xyz
x,y,z
-x,y,-z
-x,-y,-z
x,-y,z
1/2+x,1/2+y,z
1/2-x,1/2+y,-z
1/2-x,1/2-y,-z
1/2+x,1/2-y,z
loop_
_atom_site_type_symbol
_atom_site_label
_atom_site_fract_x
_atom_site_fract_y
_atom_site_fract_z
Si Si1 0.476818 0.177134 0.671003
Si Si2 0.420079 0.176624 0.239289
Si Si3 0.088664 0.823222 0.570790
Si Si4 0.186968 0.827492 0.159101
Si Si5 0.532446 0.321661 0.138892
Si Si6 0.614008 0.825584 0.370456
Si Si7 0.206287 0.171969 0.940423
Si Si8 0.613328 0.673233 0.901496
O O1 0.530882 0.261535 0.611589
O O2 0.450398 0.243307 0.786413
O O3 0.441281 0.201049 0.620966
O O4 0.485244 0.000000 0.672407
O O5 0.395076 0.245570 0.353275
O O6 0.476225 0.253964 0.176180
O O7 0.390745 0.223066 0.179619
O O8 0.425506 0.000000 0.242455
O O9 0.119962 0.769136 0.453791
O O10 0.088370 0.000000 0.580059
O O11 0.154320 0.723563 0.255609
O O12 0.246591 0.784239 0.111732
O O13 0.176999 0.000000 0.189773
O O14 0.177247 0.804713 0.063513
O O15 0.529622 0.500000 0.154550
O O16 0.569503 0.292386 0.018613
O O17 0.617823 0.000000 0.387103
O O18 0.167024 0.187087 0.899108
O O19 0.225274 0.000000 0.924132
O O20 0.606236 0.500000 0.881812
#
# Coordination Sequence:
#
# PCOD9223607 Si02
#       8
#     8   8   8   8   8   8   8   8
#     4  10  20  33  50  75 108 141 173 212 257 306
#     4  11  22  35  51  73 104 139 176 218 261 305
#     4  11  22  36  54  74 101 138 178 218 258 304
#     4  10  20  35  56  82 109 137 172 210 253 308
#     4  10  19  32  51  75 106 141 176 214 255 304
#     4  11  22  35  53  77 106 139 174 213 259 308
#     4   9  19  36  56  79 109 140 169 209 259 307
#     4  10  20  34  53  76 103 138 178 215 256 307
#
# _framework density 9.1235599999999994
#
# number of rings (size 3 to 8) (size 9 to 14) (size 15 to 20)
#    0.000    1.750    0.000    6.750    0.000    8.000 
#    0.000    0.000    0.000    0.750    0.000    0.000 
#    0.000    0.000    0.000    0.000    0.000    0.000 
#
# Total GULP energy -178719.813482 kJ/mol
# GULP energy per Si atom -5584.994171 kJ/mol
# Density = 0.910279 g / cm^3
# Si number density = 9.123560 Si / 1000 Ang^3
#
#
#
# Elastic Constant Matrix: (Units=GPa)
#
#
# Indices 1 2 3 4 5 6 
#
# 1 36.5379 20.2793 18.0419 0.0000 17.7741 0.0000
# 2 20.2793 81.8685 30.8068 0.0000 22.0448 0.0000
# 3 18.0419 30.8068 65.1037 0.0000 21.7692 0.0000
# 4 0.0000 0.0000 0.0000 27.0968 0.0000 7.4286
# 5 17.7741 22.0448 21.7692 0.0000 24.5945 0.0000
# 6 0.0000 0.0000 0.0000 7.4286 0.0000 21.4852
#
#
#
# Elastic Compliance Matrix: (Units=1/GPa)
#
#
# Indices 1 2 3 4 5 6 
#
# 1 0.042853 -0.002729 -0.001487 0.000000 -0.027207 0.000000
# 2 -0.002729 0.017030 -0.004059 0.000000 -0.009699 0.000000
# 3 -0.001487 -0.004059 0.022892 0.000000 -0.015550 0.000000
# 4 0.000000 0.000000 0.000000 0.040769 0.000000 -0.014096
# 5 -0.027207 -0.009699 -0.015550 0.000000 0.082779 0.000000
# 6 0.000000 0.000000 0.000000 -0.014096 0.000000 0.051418
#
#
# Mechanical properties :
#
#
# Convention : Reuss Voigt Hill
#
# Bulk Modulus (GPa) = 15.10005 35.75179 25.42592
# Shear Modulus (GPa) = 16.87104 22.26076 19.56590
#
# Velocity S-wave (km/s) = 3.04400 3.49658 3.27811
# Velocity P-wave (km/s) = 4.54399 5.99476 5.31907
#
# Compressibility (1/GPa) = 0.06622493
#
# Stress axis : x y z
#
# Youngs Moduli (GPa) = 23.33575 58.72031 43.68271
#
# Poissons Ratio (x) = 0.16027 0.06494
# Poissons Ratio (y) = 0.06369 0.17730
# Poissons Ratio (z) = 0.03469 0.23834
#
# Static dielectric constant tensor:
#      x y z
#    x 1.626410 0.000000 0.005780 
#    y 0.000000 1.607900 0.000000 
#    z 0.005780 0.000000 1.649290 
# 
# From -- ./inp_files/249008.got.cif
#   From: 2010.05.17/outbox.ucp.g08.bks.cvg/sg12_125_cif.got.tgz:249008.got - 2010.06.11 11:47:21.
