data_PCOD9223926
_publ_section_title
;
Structure prediction by ZEFSAII (Michael W. Deem and Ramdas Pophale) SiO2 
 PCOD9223926
Probable space group: C 2/M
;
_chemical_formula_sum "Si O2"
_cell_formula_units_Z 28
_cell_length_a 12.000000
_cell_length_b 15.000000
_cell_length_c 18.000000
_cell_angle_alpha 90.000000
_cell_angle_beta 60.000000
_cell_angle_gamma 90.000000
_cell_volume 2805.922308
_symmetry_space_group_name_H-M "C 2/M"
_symmetry_group_IT_number 12
_symmetry_cell_setting 'monoclinic'
loop_
_space_group_symop_operation_xyz
x,y,z
-x,y,-z
-x,-y,-z
x,-y,z
1/2+x,1/2+y,z
1/2-x,1/2+y,-z
1/2-x,1/2-y,-z
1/2+x,1/2-y,z
loop_
_atom_site_type_symbol
_atom_site_label
_atom_site_fract_x
_atom_site_fract_y
_atom_site_fract_z
Si Si1 0.912502 0.292620 0.602813
Si Si2 0.768287 0.894384 0.009760
Si Si3 0.724350 0.769361 0.889642
Si Si4 0.354042 0.604777 0.329101
Si Si5 0.045976 0.903986 0.400371
Si Si6 0.492479 0.218800 0.735591
Si Si7 0.039001 0.396751 0.857898
O O1 0.791447 0.358261 0.631155
O O2 0.874143 0.187939 0.629791
O O3 0.998707 0.310715 0.647439
O O4 0.000000 0.295560 0.500000
O O5 0.820074 0.821905 0.053216
O O6 0.612653 0.895553 0.070951
O O7 0.809544 0.000000 0.998767
O O8 0.786589 0.840598 0.926866
O O9 0.840746 0.735884 0.799577
O O10 0.616599 0.826400 0.882782
O O11 0.363057 0.500000 0.300211
O O12 0.420004 0.603780 0.389326
O O13 0.437716 0.687215 0.267808
O O14 0.000000 0.908712 0.500000
O O15 0.108540 0.000000 0.359667
O O16 0.542659 0.142186 0.773458
O O17 0.083201 0.500000 0.850830
#
# Coordination Sequence:
#
# PCOD9223926 Si02
#       7
#     8   8   8   8   8   8   8
#     4  10  21  37  60  82 108 145 193 247 297 348
#     4   9  19  35  58  88 119 154 194 235 279 329
#     4  10  19  34  59  86 119 154 193 236 278 337
#     4  10  21  37  54  75 107 144 181 228 290 348
#     4   8  16  32  54  78 103 133 171 219 278 340
#     4  10  22  38  55  82 115 149 191 237 288 344
#     4  10  20  36  59  85 115 152 192 235 283 335
#
# _framework density 9.9788940000000004
#
# number of rings (size 3 to 8) (size 9 to 14) (size 15 to 20)
#    0.000    2.429    0.000    1.714    0.000    8.286 
#    0.000    7.143    0.000   14.571    0.000    0.000 
#    0.000    0.000    0.000    0.000    0.000    0.000 
#
# Total GULP energy -155935.125445 kJ/mol
# GULP energy per Si atom -5569.111623 kJ/mol
# Density = 0.995618 g / cm^3
# Si number density = 9.978894 Si / 1000 Ang^3
#
#
#
# Elastic Constant Matrix: (Units=GPa)
#
#
# Indices 1 2 3 4 5 6 
#
# 1 55.4558 35.8221 11.9791 0.0000 9.4446 0.0000
# 2 35.8221 144.6030 11.0436 0.0000 16.6515 0.0000
# 3 11.9791 11.0436 60.1533 0.0000 21.2339 0.0000
# 4 0.0000 0.0000 0.0000 24.5016 0.0000 -0.1340
# 5 9.4446 16.6515 21.2339 0.0000 24.9326 0.0000
# 6 0.0000 0.0000 0.0000 -0.1340 0.0000 43.9315
#
#
#
# Elastic Compliance Matrix: (Units=1/GPa)
#
#
# Indices 1 2 3 4 5 6 
#
# 1 0.022301 -0.004989 -0.002458 0.000000 -0.003022 0.000000
# 2 -0.004989 0.008621 0.001110 0.000000 -0.004813 0.000000
# 3 -0.002458 0.001110 0.024083 0.000000 -0.020320 0.000000
# 4 0.000000 0.000000 0.000000 0.040814 0.000000 0.000125
# 5 -0.003022 -0.004813 -0.020320 0.000000 0.061773 0.000000
# 6 0.000000 0.000000 0.000000 0.000125 0.000000 0.022763
#
#
# Mechanical properties :
#
#
# Convention : Reuss Voigt Hill
#
# Bulk Modulus (GPa) = 23.62403 41.98906 32.80655
# Shear Modulus (GPa) = 24.13834 32.09763 28.11798
#
# Velocity S-wave (km/s) = 3.48152 4.01468 3.75757
# Velocity P-wave (km/s) = 5.29377 6.52494 5.94133
#
# Compressibility (1/GPa) = 0.04232978
#
# Stress axis : x y z
#
# Youngs Moduli (GPa) = 44.84182 115.99877 41.52305
#
# Poissons Ratio (x) = 0.57868 0.10207
# Poissons Ratio (y) = 0.22370 -0.04608
# Poissons Ratio (z) = 0.11023 -0.12872
#
# Static dielectric constant tensor:
#      x y z
#    x 1.700590 0.000000 0.014390 
#    y 0.000000 1.732790 0.000000 
#    z 0.014390 0.000000 1.740760 
# 
# From -- ./inp_files/263220.got.cif
#   From: 2010.05.17/outbox.ucp.g08.bks.cvg/sg12_132_cif.got.tgz:263220.got - 2010.06.11 11:47:21.
