data_PCOD9223108
_publ_section_title
;
Structure prediction by ZEFSAII (Michael W. Deem and Ramdas Pophale) SiO2 
 PCOD9223108
Probable space group: C 2/M
;
_chemical_formula_sum "Si O2"
_cell_formula_units_Z 56
_cell_length_a 14.569592
_cell_length_b 18.969601
_cell_length_c 23.455996
_cell_angle_alpha 90.000000
_cell_angle_beta 156.819121
_cell_angle_gamma 90.000000
_cell_volume 2551.839392
_symmetry_space_group_name_H-M "C 2/M"
_symmetry_group_IT_number 12
_symmetry_cell_setting 'monoclinic'
loop_
_space_group_symop_operation_xyz
x,y,z
-x,y,-z
-x,-y,-z
x,-y,z
1/2+x,1/2+y,z
1/2-x,1/2+y,-z
1/2-x,1/2-y,-z
1/2+x,1/2-y,z
loop_
_atom_site_type_symbol
_atom_site_label
_atom_site_fract_x
_atom_site_fract_y
_atom_site_fract_z
Si Si1 0.969573 0.169870 0.582525
Si Si2 0.235557 0.416908 0.783441
Si Si3 0.393633 0.173431 0.517762
Si Si4 0.209657 0.085060 0.007641
Si Si5 0.574817 0.420274 0.267293
Si Si6 0.210705 0.420108 0.160911
Si Si7 0.888286 0.582902 0.691652
O O1 0.794684 0.175225 0.537416
O O2 0.994553 0.248080 0.572027
O O3 0.835651 0.123166 0.459245
O O4 0.197975 0.131306 0.737748
O O5 0.242656 0.500000 0.776654
O O6 0.502579 0.392065 0.932416
O O7 0.084630 0.408835 0.754097
O O8 0.093334 0.379118 0.652707
O O9 0.261037 0.139854 0.388324
O O10 0.104441 0.099280 0.885430
O O11 0.230298 0.000000 0.024341
O O12 0.465236 0.111325 0.170773
O O13 0.667907 0.500000 0.308712
O O14 0.425231 0.426645 0.239627
O O15 0.152263 0.500000 0.148529
O O16 0.000000 0.395312 0.000000
O O17 0.832081 0.500000 0.665581
#
# Coordination Sequence:
#
# PCOD9223108 Si02
#       7
#     8   8   8   8   8   8   8
#     4   9  17  30  47  68  91 119 155 193 234 276
#     4   9  16  27  45  69  95 124 159 194 226 266
#     4   9  17  29  44  65  93 123 155 192 229 273
#     4   9  17  28  45  70  97 126 157 188 226 276
#     4   9  17  30  48  70  96 125 156 190 233 279
#     4   9  17  31  53  76  93 113 151 202 243 276
#     4   9  16  28  47  69  95 125 158 194 229 272
#
# _framework density 21.944953999999999
#
# number of rings (size 3 to 8) (size 9 to 14) (size 15 to 20)
#    0.000    3.000    0.000    1.286    0.000    5.714 
#    0.000    8.571    0.000    2.571    0.000    5.000 
#    0.000    0.000    0.000    0.000    0.000    0.000 
#
# Total GULP energy -156204.879939 kJ/mol
# GULP energy per Si atom -5578.745712 kJ/mol
# Density = 2.189501 g / cm^3
# Si number density = 21.944954 Si / 1000 Ang^3
#
#
#
# Elastic Constant Matrix: (Units=GPa)
#
#
# Indices 1 2 3 4 5 6 
#
# 1 66.6614 13.0350 1.3200 -0.0022 -5.1461 0.0109
# 2 13.0350 79.5268 97.7666 0.0174 -17.6974 0.0046
# 3 1.3200 97.7666 205.9223 0.0439 -20.3724 0.0233
# 4 -0.0022 0.0174 0.0439 -14.1666 0.0112 -0.8955
# 5 -5.1461 -17.6974 -20.3724 0.0112 19.7768 0.0107
# 6 0.0109 0.0046 0.0233 -0.8955 0.0107 8.5144
#
#
#
# Elastic Compliance Matrix: (Units=1/GPa)
#
#
# Indices 1 2 3 4 5 6 
#
# 1 0.016195 -0.005571 0.002745 0.000003 0.002056 -0.000028
# 2 -0.005571 0.035833 -0.015531 0.000008 0.014617 0.000013
# 3 0.002745 -0.015531 0.012146 0.000019 -0.000672 -0.000026
# 4 0.000003 0.000008 0.000019 -0.070122 0.000071 -0.007375
# 5 0.002056 0.014617 -0.000672 0.000071 0.063487 -0.000081
# 6 -0.000028 0.000013 -0.000026 -0.007375 -0.000081 0.116673
#
#
# Mechanical properties :
#
#
# Convention : Reuss Voigt Hill
#
# Bulk Modulus (GPa) = 36.41731 64.03929 50.22830
# Shear Modulus (GPa) = 22.71906 18.82419 20.77162
#
# Velocity S-wave (km/s) = 3.22106 2.93198 3.07992
# Velocity P-wave (km/s) = 5.51947 6.38022 5.96539
#
# Compressibility (1/GPa) = 0.02745947
#
# Stress axis : x y z
#
# Youngs Moduli (GPa) = 61.74787 27.90705 82.33328
#
# Poissons Ratio (x) = 0.15547 -0.22596
# Poissons Ratio (y) = 0.34399 1.27871
# Poissons Ratio (z) = -0.16947 0.43342
#
# Static dielectric constant tensor:
#      x y z
#    x 1.908370 0.000000 -0.005240 
#    y 0.000000 1.758720 -0.000010 
#    z -0.005240 -0.000010 1.807830 
# 
# From -- ./inp_files/344804.got.cif
#   From: 2010.05.17/outbox.cif.g08.bks.cpg/sg12_173_cif.got.tgz:344804.got - 2010.06.03 13:09:07.
