data_PCOD9223424
_publ_section_title
;
Structure prediction by ZEFSAII (Michael W. Deem and Ramdas Pophale) SiO2 
 PCOD9223424
Probable space group: C 2/M
;
_chemical_formula_sum "Si O2"
_cell_formula_units_Z 26
_cell_length_a 12.000000
_cell_length_b 27.000000
_cell_length_c 18.000000
_cell_angle_alpha 90.000000
_cell_angle_beta 30.000000
_cell_angle_gamma 90.000000
_cell_volume 2916.000000
_symmetry_space_group_name_H-M "C 2/M"
_symmetry_group_IT_number 12
_symmetry_cell_setting 'monoclinic'
loop_
_space_group_symop_operation_xyz
x,y,z
-x,y,-z
-x,-y,-z
x,-y,z
1/2+x,1/2+y,z
1/2-x,1/2+y,-z
1/2-x,1/2-y,-z
1/2+x,1/2-y,z
loop_
_atom_site_type_symbol
_atom_site_label
_atom_site_fract_x
_atom_site_fract_y
_atom_site_fract_z
Si Si1 0.414502 0.945502 0.465057
Si Si2 0.599620 0.441430 0.277490
Si Si3 0.500000 0.391999 0.500000
Si Si4 0.470527 0.834881 0.637334
Si Si5 0.061320 0.677188 0.754111
Si Si6 0.809856 0.350870 0.055383
Si Si7 0.343745 0.294071 0.308387
O O1 0.500000 0.945142 0.500000
O O2 0.502765 0.894535 0.379658
O O3 0.147626 0.942280 0.614686
O O4 0.477491 0.000000 0.396196
O O5 0.678250 0.500000 0.233368
O O6 0.558015 0.422037 0.388248
O O7 0.739390 0.403000 0.142026
O O8 0.717769 0.357052 0.383842
O O9 0.446574 0.821997 0.738240
O O10 0.683730 0.808626 0.471720
O O11 0.269864 0.818882 0.698699
O O12 0.132012 0.735200 0.722457
O O13 0.919729 0.654542 0.907231
O O14 0.584315 0.318759 0.183467
O O15 0.000000 0.329568 0.000000
#
# Coordination Sequence:
#
# PCOD9223424 Si02
#       7
#     8   8   4   8   8   8   8
#     4  10  18  35  64  94 120 155 203 261 320 368
#     4  11  23  42  68  92 127 169 209 266 323 383
#     4  12  21  44  62 102 128 156 225 264 318 380
#     4  11  21  42  68  95 124 164 219 272 308 381
#     4  12  26  39  66  94 129 177 206 272 314 379
#     4  12  25  44  61  92 138 169 212 257 321 387
#     4  11  24  43  64  94 129 171 217 258 324 375
#
# _framework density 8.9163239999999995
#
# number of rings (size 3 to 8) (size 9 to 14) (size 15 to 20)
#    0.000    0.769    6.154    2.077    2.154    0.923 
#    0.000    0.769    0.000    0.000    0.000    5.385 
#    0.000    0.000    0.000    0.000    0.000    0.000 
#
# Total GULP energy -144772.934187 kJ/mol
# GULP energy per Si atom -5568.189776 kJ/mol
# Density = 0.889603 g / cm^3
# Si number density = 8.916324 Si / 1000 Ang^3
#
#
#
# Elastic Constant Matrix: (Units=GPa)
#
#
# Indices 1 2 3 4 5 6 
#
# 1 131.1326 25.0910 54.4031 -0.0060 6.1701 0.0031
# 2 25.0910 152.6333 42.2244 -0.0016 7.9444 0.0011
# 3 54.4031 42.2244 98.4890 0.0154 12.4650 0.0042
# 4 -0.0060 -0.0016 0.0154 27.3768 -0.0076 -0.6671
# 5 6.1701 7.9444 12.4650 -0.0076 47.9931 -0.0033
# 6 0.0031 0.0011 0.0042 -0.6671 -0.0033 29.3643
#
#
#
# Elastic Compliance Matrix: (Units=1/GPa)
#
#
# Indices 1 2 3 4 5 6 
#
# 1 0.009896 -0.000133 -0.005430 0.000005 0.000160 0.000000
# 2 -0.000133 0.007443 -0.003064 0.000002 -0.000419 0.000000
# 3 -0.005430 -0.003064 0.014800 -0.000010 -0.002639 -0.000002
# 4 0.000005 0.000002 -0.000010 0.036547 0.000008 0.000830
# 5 0.000160 -0.000419 -0.002639 0.000008 0.021570 0.000003
# 6 0.000000 0.000000 -0.000002 0.000830 0.000003 0.034074
#
#
# Mechanical properties :
#
#
# Convention : Reuss Voigt Hill
#
# Bulk Modulus (GPa) = 67.18009 69.52134 68.35072
# Shear Modulus (GPa) = 34.11848 38.31595 36.21721
#
# Velocity S-wave (km/s) = 4.37883 4.64037 4.51150
# Velocity P-wave (km/s) = 7.95737 8.23291 8.09631
#
# Compressibility (1/GPa) = 0.01488536
#
# Stress axis : x y z
#
# Youngs Moduli (GPa) = 101.04623 134.35275 67.56546
#
# Poissons Ratio (x) = 0.01788 0.36686
# Poissons Ratio (y) = 0.01345 0.20705
# Poissons Ratio (z) = 0.54866 0.41172
#
# Static dielectric constant tensor:
#      x y z
#    x 1.628120 -0.000010 -0.000770 
#    y -0.000010 1.659500 0.000020 
#    z -0.000770 0.000020 1.613850 
# 
# From -- ./inp_files/265939.got.cif
#   From: 2010.05.17/outbox.ucp.g08.bks.cvg/sg12_133_cif.got.tgz:265939.got - 2010.06.11 11:47:21.
