data_PCOD9223814
_publ_section_title
;
Structure prediction by ZEFSAII (Michael W. Deem and Ramdas Pophale) SiO2 
 PCOD9223814
Probable space group: C 2/M
;
_chemical_formula_sum "Si O2"
_cell_formula_units_Z 28
_cell_length_a 21.000000
_cell_length_b 15.000000
_cell_length_c 15.000000
_cell_angle_alpha 90.000000
_cell_angle_beta 140.000000
_cell_angle_gamma 90.000000
_cell_volume 3037.171456
_symmetry_space_group_name_H-M "C 2/M"
_symmetry_group_IT_number 12
_symmetry_cell_setting 'monoclinic'
loop_
_space_group_symop_operation_xyz
x,y,z
-x,y,-z
-x,-y,-z
x,-y,z
1/2+x,1/2+y,z
1/2-x,1/2+y,-z
1/2-x,1/2-y,-z
1/2+x,1/2-y,z
loop_
_atom_site_type_symbol
_atom_site_label
_atom_site_fract_x
_atom_site_fract_y
_atom_site_fract_z
Si Si1 0.465857 0.106546 0.691097
Si Si2 0.736961 0.392622 0.451496
Si Si3 0.060767 0.396696 0.982941
Si Si4 0.362422 0.607530 0.472054
Si Si5 0.472748 0.390930 0.863939
Si Si6 0.948214 0.197845 0.235982
Si Si7 0.786983 0.108895 0.189714
O O1 0.350426 0.131474 0.548752
O O2 0.488313 0.103276 0.820696
O O3 0.532431 0.194134 0.735123
O O4 0.483374 0.000000 0.680175
O O5 0.737475 0.500000 0.451936
O O6 0.712707 0.365012 0.528065
O O7 0.642906 0.368055 0.286868
O O8 0.081478 0.500000 0.031560
O O9 0.170208 0.363970 0.071201
O O10 0.000000 0.354365 0.000000
O O11 0.372095 0.500000 0.486978
O O12 0.465096 0.651492 0.612403
O O13 0.330554 0.627798 0.336187
O O14 0.484741 0.500000 0.865174
O O15 0.534030 0.338885 0.848763
O O16 0.500000 0.373143 0.000000
O O17 0.847849 0.161378 0.177328
O O18 0.793640 0.000000 0.181720
#
# Coordination Sequence:
#
# PCOD9223814 Si02
#       7
#     8   8   8   8   8   8   8
#     4  10  21  36  52  72 106 150 194 237 275 318
#     4   8  15  31  55  80 108 146 187 229 279 329
#     4   9  18  34  57  83 111 144 181 224 278 339
#     4   9  17  31  54  84 113 136 167 221 288 349
#     4   9  18  33  53  81 117 151 188 235 282 331
#     4  11  21  32  52  81 112 147 189 229 278 337
#     4  10  19  33  57  87 116 143 173 221 287 347
#
# _framework density 9.2191039999999997
#
# number of rings (size 3 to 8) (size 9 to 14) (size 15 to 20)
#    0.000    2.571    0.000    3.429    0.000    8.000 
#    0.000    1.429    0.000    3.429    0.000    4.000 
#    0.000    7.429    0.000    0.000    0.000    0.000 
#
# Total GULP energy -155868.194129 kJ/mol
# GULP energy per Si atom -5566.721219 kJ/mol
# Density = 0.919812 g / cm^3
# Si number density = 9.219104 Si / 1000 Ang^3
#
#
#
# Elastic Constant Matrix: (Units=GPa)
#
#
# Indices 1 2 3 4 5 6 
#
# 1 124.3573 34.5325 49.1149 0.0000 10.4553 0.0000
# 2 34.5325 76.1324 14.5510 0.0000 1.4637 0.0000
# 3 49.1149 14.5510 101.4303 0.0000 -4.4919 0.0000
# 4 0.0000 0.0000 0.0000 17.7506 0.0000 3.2988
# 5 10.4553 1.4637 -4.4919 0.0000 36.4650 0.0000
# 6 0.0000 0.0000 0.0000 3.2988 0.0000 18.5560
#
#
#
# Elastic Compliance Matrix: (Units=1/GPa)
#
#
# Indices 1 2 3 4 5 6 
#
# 1 0.011561 -0.004184 -0.005166 0.000000 -0.003783 0.000000
# 2 -0.004184 0.015042 -0.000106 0.000000 0.000583 0.000000
# 3 -0.005166 -0.000106 0.012510 0.000000 0.003026 0.000000
# 4 0.000000 0.000000 0.000000 0.058261 0.000000 -0.010357
# 5 -0.003783 0.000583 0.003026 0.000000 0.028858 0.000000
# 6 0.000000 0.000000 0.000000 -0.010357 0.000000 0.055732
#
#
# Mechanical properties :
#
#
# Convention : Reuss Voigt Hill
#
# Bulk Modulus (GPa) = 49.50150 55.36853 52.43502
# Shear Modulus (GPa) = 24.08375 28.13577 26.10976
#
# Velocity S-wave (km/s) = 3.61804 3.91058 3.76715
# Velocity P-wave (km/s) = 6.66027 7.10525 6.88635
#
# Compressibility (1/GPa) = 0.02020141
#
# Stress axis : x y z
#
# Youngs Moduli (GPa) = 86.49431 66.48096 79.93895
#
# Poissons Ratio (x) = 0.27816 0.41294
# Poissons Ratio (y) = 0.36190 0.00848
# Poissons Ratio (z) = 0.44680 0.00705
#
# Static dielectric constant tensor:
#      x y z
#    x 1.664470 0.000000 0.021140 
#    y 0.000000 1.687010 0.000000 
#    z 0.021140 0.000000 1.643450 
# 
# From -- ./inp_files/233721.got.cif
#   From: 2010.05.17/outbox.ucp.g08.bks.cvg/sg12_117_cif.got.tgz:233721.got - 2010.06.11 11:47:21.
