data_PCOD9223357
_publ_section_title
;
Structure prediction by ZEFSAII (Michael W. Deem and Ramdas Pophale) SiO2 
 PCOD9223357
Probable space group: C 2/M
;
_chemical_formula_sum "Si O2"
_cell_formula_units_Z 32
_cell_length_a 21.000000
_cell_length_b 9.000000
_cell_length_c 21.000000
_cell_angle_alpha 90.000000
_cell_angle_beta 120.000000
_cell_angle_gamma 90.000000
_cell_volume 3437.254828
_symmetry_space_group_name_H-M "C 2/M"
_symmetry_group_IT_number 12
_symmetry_cell_setting 'monoclinic'
loop_
_space_group_symop_operation_xyz
x,y,z
-x,y,-z
-x,-y,-z
x,-y,z
1/2+x,1/2+y,z
1/2-x,1/2+y,-z
1/2-x,1/2-y,-z
1/2+x,1/2-y,z
loop_
_atom_site_type_symbol
_atom_site_label
_atom_site_fract_x
_atom_site_fract_y
_atom_site_fract_z
Si Si1 0.521392 0.680465 0.250961
Si Si2 0.699136 0.321648 0.700198
Si Si3 0.775114 0.323238 0.948542
Si Si4 0.141193 0.175662 0.208226
Si Si5 0.637213 0.319288 0.797370
Si Si6 0.710159 0.678107 0.568343
Si Si7 0.914504 0.326201 0.942735
Si Si8 0.356877 0.321358 0.596375
O O1 0.518271 0.500000 0.244759
O O2 0.578791 0.730900 0.226149
O O3 0.437742 0.735383 0.207583
O O4 0.563552 0.719345 0.337282
O O5 0.706979 0.500000 0.709340
O O6 0.780172 0.254001 0.748103
O O7 0.643763 0.273643 0.727363
O O8 0.673656 0.284797 0.616792
O O9 0.769200 0.500000 0.950759
O O10 0.714738 0.273751 0.866593
O O11 0.858870 0.290422 0.972131
O O12 0.750000 0.250000 0.000000
O O13 0.108302 0.215534 0.123772
O O14 0.151047 0.000000 0.222820
O O15 0.634759 0.500000 0.799016
O O16 0.720360 0.500000 0.569826
O O17 0.661481 0.725423 0.484305
O O18 0.790149 0.752733 0.603533
O O19 0.899853 0.500000 0.917259
O O20 0.000000 0.313207 0.000000
O O21 0.351186 0.500000 0.597959
#
# Coordination Sequence:
#
# PCOD9223357 Si02
#       8
#     8   8   8   8   8   8   8   8
#     4   9  18  31  49  75 105 136 167 209 260 304
#     4  10  18  33  54  75 101 136 176 211 252 305
#     4  10  21  37  56  76 101 136 170 203 251 306
#     4  11  21  33  54  80 104 132 173 216 256 297
#     4   9  18  34  53  71 100 138 169 202 254 313
#     4   9  17  27  47  75 100 132 171 210 253 302
#     4  10  22  40  58  78 106 138 170 209 259 306
#     4   9  16  29  46  71 105 133 165 210 257 302
#
# _framework density 9.3097549999999991
#
# number of rings (size 3 to 8) (size 9 to 14) (size 15 to 20)
#    0.000    2.375    2.500    0.375    1.750    0.750 
#    0.000    0.625    0.000    6.750    0.000    0.000 
#    0.000    5.000    0.000    0.000    0.000    0.000 
#
# Total GULP energy -178162.674071 kJ/mol
# GULP energy per Si atom -5567.583565 kJ/mol
# Density = 0.928857 g / cm^3
# Si number density = 9.309755 Si / 1000 Ang^3
#
#
#
# Elastic Constant Matrix: (Units=GPa)
#
#
# Indices 1 2 3 4 5 6 
#
# 1 112.5279 7.3197 28.9001 0.0000 -2.8942 0.0000
# 2 7.3197 -10.1592 5.2771 0.0000 -2.8256 0.0000
# 3 28.9001 5.2771 37.5840 0.0000 -13.2957 0.0000
# 4 0.0000 0.0000 0.0000 14.4740 0.0000 -1.2588
# 5 -2.8942 -2.8256 -13.2957 0.0000 21.4386 0.0000
# 6 0.0000 0.0000 0.0000 -1.2588 0.0000 18.6508
#
#
#
# Elastic Compliance Matrix: (Units=1/GPa)
#
#
# Indices 1 2 3 4 5 6 
#
# 1 0.011321 0.003805 -0.010916 0.000000 -0.004740 0.000000
# 2 0.003805 -0.090003 0.007298 0.000000 -0.006823 0.000000
# 3 -0.010916 0.007298 0.043294 0.000000 0.026338 0.000000
# 4 0.000000 0.000000 0.000000 0.069497 0.000000 0.004691
# 5 -0.004740 -0.006823 0.026338 0.000000 0.061440 0.000000
# 6 0.000000 0.000000 0.000000 0.004691 0.000000 0.053933
#
#
# Mechanical properties :
#
#
# Convention : Reuss Voigt Hill
#
# Bulk Modulus (GPa) = -28.55854 24.77185 -1.89334
# Shear Modulus (GPa) = 36.38029 17.47641 26.92835
#
# Velocity S-wave (km/s) = 4.42507 3.06699 3.80708
# Velocity P-wave (km/s) = 3.27674 5.08675 4.27856
#
# Compressibility (1/GPa) = -0.03501580
#
# Stress axis : x y z
#
# Youngs Moduli (GPa) = 88.33255 -11.11071 23.09807
#
# Poissons Ratio (x) = 0.04227 0.25214
# Poissons Ratio (y) = -0.33608 -0.16857
# Poissons Ratio (z) = 0.96426 0.08109
#
# Static dielectric constant tensor:
#      x y z
#    x 1.705070 0.000000 -0.068620 
#    y 0.000000 1.057580 0.000000 
#    z -0.068620 0.000000 1.732370 
# 
# From -- ./inp_files/320050.got.cif
#   From: 2010.05.17/outbox.ucp.g08.bks.cvg/sg12_161_cif.got.tgz:320050.got - 2010.06.11 11:47:21.
