data_PCOD9223498
_publ_section_title
;
Structure prediction by ZEFSAII (Michael W. Deem and Ramdas Pophale) SiO2 
 PCOD9223498
Probable space group: C 2/M
;
_chemical_formula_sum "Si O2"
_cell_formula_units_Z 28
_cell_length_a 27.000000
_cell_length_b 9.000000
_cell_length_c 18.000000
_cell_angle_alpha 90.000000
_cell_angle_beta 50.000000
_cell_angle_gamma 90.000000
_cell_volume 3350.678394
_symmetry_space_group_name_H-M "C 2/M"
_symmetry_group_IT_number 12
_symmetry_cell_setting 'monoclinic'
loop_
_space_group_symop_operation_xyz
x,y,z
-x,y,-z
-x,-y,-z
x,-y,z
1/2+x,1/2+y,z
1/2-x,1/2+y,-z
1/2-x,1/2-y,-z
1/2+x,1/2-y,z
loop_
_atom_site_type_symbol
_atom_site_label
_atom_site_fract_x
_atom_site_fract_y
_atom_site_fract_z
Si Si1 0.505757 0.670107 0.729362
Si Si2 0.674223 0.828170 0.440377
Si Si3 0.512339 0.177978 0.102632
Si Si4 0.404945 0.321632 0.102955
Si Si5 0.521504 0.174586 0.561154
Si Si6 0.160473 0.827512 0.606650
Si Si7 0.293712 0.824034 0.284669
O O1 0.483029 0.500000 0.757485
O O2 0.479201 0.773314 0.820655
O O3 0.495234 0.734646 0.657133
O O4 0.582949 0.669171 0.671103
O O5 0.599217 0.816176 0.492192
O O6 0.683278 0.772771 0.516114
O O7 0.718981 0.718985 0.350452
O O8 0.694001 0.000000 0.413469
O O9 0.447922 0.250346 0.128142
O O10 0.509961 0.000000 0.096954
O O11 0.566751 0.252957 0.999316
O O12 0.410029 0.500000 0.100480
O O13 0.333672 0.260977 0.183655
O O14 0.500000 0.225250 0.500000
O O15 0.503708 0.000000 0.586002
O O16 0.181065 0.750383 0.662983
O O17 0.182497 0.000000 0.581343
O O18 0.304641 0.000000 0.274464
#
# Coordination Sequence:
#
# PCOD9223498 Si02
#       7
#     8   8   8   8   8   8   8
#     4  10  19  31  50  74 101 133 168 206 248 295
#     4  10  20  33  49  69  96 128 164 203 248 298
#     4  11  20  32  49  71  99 133 171 207 246 289
#     4  11  21  33  48  68  98 134 172 210 246 285
#     4   9  19  36  56  77 100 127 163 208 255 302
#     4  10  19  31  46  66  96 131 168 204 241 287
#     4  12  22  32  46  67  97 133 171 204 243 290
#
# _framework density 8.3565170000000002
#
# number of rings (size 3 to 8) (size 9 to 14) (size 15 to 20)
#    0.000    1.571    1.429    6.429    0.000    2.000 
#    0.000    0.000    0.000    0.000    0.000    1.000 
#    0.000    0.000    0.000    0.000    0.000    0.000 
#
# Total GULP energy -156219.010917 kJ/mol
# GULP energy per Si atom -5579.250390 kJ/mol
# Density = 0.833750 g / cm^3
# Si number density = 8.356517 Si / 1000 Ang^3
#
#
#
# Elastic Constant Matrix: (Units=GPa)
#
#
# Indices 1 2 3 4 5 6 
#
# 1 40.9469 24.2699 20.7660 0.0002 20.0557 0.0002
# 2 24.2699 152.1899 40.1232 -0.0022 13.6898 -0.0021
# 3 20.7660 40.1232 80.7172 0.0002 11.1071 -0.0001
# 4 0.0002 -0.0022 0.0002 24.5227 0.0000 0.8416
# 5 20.0557 13.6898 11.1071 0.0000 21.3305 0.0000
# 6 0.0002 -0.0021 -0.0001 0.8416 0.0000 18.0723
#
#
#
# Elastic Compliance Matrix: (Units=1/GPa)
#
#
# Indices 1 2 3 4 5 6 
#
# 1 0.049253 -0.002619 -0.005632 -0.000001 -0.041696 -0.000001
# 2 -0.002619 0.007899 -0.003117 0.000001 -0.000984 0.000001
# 3 -0.005632 -0.003117 0.015494 0.000000 -0.000772 0.000000
# 4 -0.000001 0.000001 0.000000 0.040844 0.000000 -0.001902
# 5 -0.041696 -0.000984 -0.000772 0.000000 0.087119 0.000000
# 6 -0.000001 0.000001 0.000000 -0.001902 0.000000 0.055422
#
#
# Mechanical properties :
#
#
# Convention : Reuss Voigt Hill
#
# Bulk Modulus (GPa) = 20.03630 49.35247 34.69439
# Shear Modulus (GPa) = 16.92605 25.36474 21.14539
#
# Velocity S-wave (km/s) = 3.18582 3.89994 3.56083
# Velocity P-wave (km/s) = 5.05441 7.06207 6.14084
#
# Compressibility (1/GPa) = 0.04990940
#
# Stress axis : x y z
#
# Youngs Moduli (GPa) = 20.30327 126.60337 64.54307
#
# Poissons Ratio (x) = 0.33158 0.36349
# Poissons Ratio (y) = 0.05318 0.20119
# Poissons Ratio (z) = 0.11434 0.39464
#
# Static dielectric constant tensor:
#      x y z
#    x 1.547870 0.000000 -0.043680 
#    y 0.000000 1.554940 0.000000 
#    z -0.043680 0.000000 1.673220 
# 
# From -- ./inp_files/291855.got.cif
#   From: 2010.05.17/outbox.ucp.g08.bks.cvg/sg12_146_cif.got.tgz:291855.got - 2010.06.11 11:47:21.
