data_PCOD9223316
_publ_section_title
;
Structure prediction by ZEFSAII (Michael W. Deem and Ramdas Pophale) SiO2 
 PCOD9223316
Probable space group: C 2/M
;
_chemical_formula_sum "Si O2"
_cell_formula_units_Z 32
_cell_length_a 15.000000
_cell_length_b 9.000000
_cell_length_c 30.000000
_cell_angle_alpha 90.000000
_cell_angle_beta 60.000000
_cell_angle_gamma 90.000000
_cell_volume 3507.402885
_symmetry_space_group_name_H-M "C 2/M"
_symmetry_group_IT_number 12
_symmetry_cell_setting 'monoclinic'
loop_
_space_group_symop_operation_xyz
x,y,z
-x,y,-z
-x,-y,-z
x,-y,z
1/2+x,1/2+y,z
1/2-x,1/2+y,-z
1/2-x,1/2-y,-z
1/2+x,1/2-y,z
loop_
_atom_site_type_symbol
_atom_site_label
_atom_site_fract_x
_atom_site_fract_y
_atom_site_fract_z
Si Si1 0.852839 0.319295 0.107998
Si Si2 0.148489 0.820186 0.503311
Si Si3 0.033106 0.324894 0.758413
Si Si4 0.237551 0.181388 0.304897
Si Si5 0.081868 0.180454 0.420038
Si Si6 0.743798 0.323003 0.049664
Si Si7 0.465084 0.824656 0.875743
Si Si8 0.824575 0.820731 0.779095
O O1 0.851593 0.500000 0.109323
O O2 0.831422 0.273903 0.062769
O O3 0.960135 0.275511 0.103135
O O4 0.759498 0.269519 0.163478
O O5 0.250000 0.750000 0.500000
O O6 0.131583 0.779142 0.455401
O O7 0.038311 0.774653 0.552652
O O8 0.156663 0.000000 0.503831
O O9 0.022861 0.500000 0.750556
O O10 0.145226 0.272068 0.714769
O O11 0.025461 0.311920 0.814052
O O12 0.936911 0.238878 0.762513
O O13 0.154111 0.232179 0.361794
O O14 0.207951 0.226485 0.262300
O O15 0.238235 0.000000 0.305204
O O16 0.080378 0.000000 0.419783
O O17 0.748316 0.500000 0.044124
O O18 0.636791 0.272618 0.098568
O O19 0.750000 0.250000 0.000000
O O20 0.438856 0.000000 0.887982
O O21 0.825158 0.000000 0.780100
#
# Coordination Sequence:
#
# PCOD9223316 Si02
#       8
#     8   8   8   8   8   8   8   8
#     4   9  18  34  56  76  99 133 169 200 242 303
#     4   9  17  31  52  74 100 136 180 220 260 309
#     4  10  19  31  51  78 103 130 166 210 255 302
#     4   9  17  31  52  75 103 138 176 212 251 308
#     4   8  16  31  49  72 102 139 177 214 256 309
#     4  11  23  39  57  79 106 134 167 211 257 302
#     4  10  19  35  57  78 100 131 170 207 248 302
#     4  10  18  32  53  76 100 133 173 207 246 306
#
# _framework density 9.1235599999999994
#
# number of rings (size 3 to 8) (size 9 to 14) (size 15 to 20)
#    0.000    2.500    2.500    1.125    0.000    1.500 
#    0.000    6.250    0.000    1.500    0.000    0.000 
#    0.000    0.000    0.000    0.000    0.000    0.000 
#
# Total GULP energy -178409.256285 kJ/mol
# GULP energy per Si atom -5575.289259 kJ/mol
# Density = 0.910279 g / cm^3
# Si number density = 9.123560 Si / 1000 Ang^3
#
#
#
# Elastic Constant Matrix: (Units=GPa)
#
#
# Indices 1 2 3 4 5 6 
#
# 1 71.1191 4.9372 -29.4071 0.0000 8.1348 0.0000
# 2 4.9372 11.5846 1.1649 0.0000 1.8649 0.0000
# 3 -29.4071 1.1649 21.1736 0.0000 6.5754 0.0000
# 4 0.0000 0.0000 0.0000 14.7660 0.0000 -3.7322
# 5 8.1348 1.8649 6.5754 0.0000 16.4705 0.0000
# 6 0.0000 0.0000 0.0000 -3.7322 0.0000 30.2218
#
#
#
# Elastic Compliance Matrix: (Units=1/GPa)
#
#
# Indices 1 2 3 4 5 6 
#
# 1 0.131197 -0.054911 0.232217 0.000000 -0.151287 0.000000
# 2 -0.054911 0.110981 -0.099186 0.000000 0.054152 0.000000
# 3 0.232217 -0.099186 0.464979 0.000000 -0.289092 0.000000
# 4 0.000000 0.000000 0.000000 0.069905 0.000000 0.008633
# 5 -0.151287 0.054152 -0.289092 0.000000 0.244716 0.000000
# 6 0.000000 0.000000 0.000000 0.008633 0.000000 0.034155
#
#
# Mechanical properties :
#
#
# Convention : Reuss Voigt Hill
#
# Bulk Modulus (GPa) = 1.15822 6.36303 3.76062
# Shear Modulus (GPa) = 4.21056 20.77048 12.49052
#
# Velocity S-wave (km/s) = 1.52070 3.37751 2.61917
# Velocity P-wave (km/s) = 1.92860 4.32491 3.34846
#
# Compressibility (1/GPa) = 0.86339727
#
# Stress axis : x y z
#
# Youngs Moduli (GPa) = 7.62210 9.01059 2.15063
#
# Poissons Ratio (x) = 0.49478 -0.49941
# Poissons Ratio (y) = 0.41854 0.21331
# Poissons Ratio (z) = -1.76998 0.89373
#
# Static dielectric constant tensor:
#      x y z
#    x 1.622350 0.000000 0.002940 
#    y 0.000000 1.610410 0.000000 
#    z 0.002940 0.000000 1.642770 
# 
# From -- ./inp_files/375012.got.cif
#   From: 2010.05.17/outbox.ucp.g08.bks.cvg/sg12_188_cif.got.tgz:375012.got - 2010.06.11 11:47:21.
