data_PCOD9223738
_publ_section_title
;
Structure prediction by ZEFSAII (Michael W. Deem and Ramdas Pophale) SiO2 
 PCOD9223738
Probable space group: C 2/M
;
_chemical_formula_sum "Si O2"
_cell_formula_units_Z 28
_cell_length_a 15.000000
_cell_length_b 9.000000
_cell_length_c 27.000000
_cell_angle_alpha 90.000000
_cell_angle_beta 120.000000
_cell_angle_gamma 90.000000
_cell_volume 3156.662597
_symmetry_space_group_name_H-M "C 2/M"
_symmetry_group_IT_number 12
_symmetry_cell_setting 'monoclinic'
loop_
_space_group_symop_operation_xyz
x,y,z
-x,y,-z
-x,-y,-z
x,-y,z
1/2+x,1/2+y,z
1/2-x,1/2+y,-z
1/2-x,1/2-y,-z
1/2+x,1/2-y,z
loop_
_atom_site_type_symbol
_atom_site_label
_atom_site_fract_x
_atom_site_fract_y
_atom_site_fract_z
Si Si1 0.956433 0.680473 0.059056
Si Si2 0.972540 0.321735 0.377798
Si Si3 0.282917 0.321490 0.372011
Si Si4 0.658203 0.820885 0.505816
Si Si5 0.547898 0.820623 0.286823
Si Si6 0.893059 0.320607 0.154313
Si Si7 0.657342 0.318900 0.063934
O O1 0.957090 0.500000 0.053245
O O2 0.936937 0.714806 0.111573
O O3 0.065092 0.751067 0.071706
O O4 0.870074 0.750997 0.998154
O O5 0.954395 0.500000 0.375600
O O6 0.869220 0.230077 0.357625
O O7 0.054800 0.287135 0.444880
O O8 0.012237 0.288231 0.333349
O O9 0.280451 0.500000 0.378290
O O10 0.322944 0.246782 0.434429
O O11 0.168848 0.273561 0.321433
O O12 0.750000 0.750000 0.500000
O O13 0.664459 0.000000 0.510493
O O14 0.468407 0.767914 0.220877
O O15 0.549342 0.000000 0.282350
O O16 0.892016 0.500000 0.158188
O O17 0.771030 0.277554 0.116855
O O18 0.650913 0.500000 0.059953
#
# Coordination Sequence:
#
# PCOD9223738 Si02
#       7
#     8   8   8   8   8   8   8
#     4  10  19  33  54  81 109 140 176 219 273 319
#     4  10  21  38  58  80 108 145 181 221 275 327
#     4  11  22  37  58  84 110 144 183 225 275 324
#     4  11  21  36  59  85 112 143 180 225 278 328
#     4   9  19  38  56  75 109 147 182 219 270 327
#     4   9  19  34  55  78 105 145 184 218 264 323
#     4  10  19  33  54  81 108 139 178 220 268 317
#
# _framework density 8.8701279999999993
#
# number of rings (size 3 to 8) (size 9 to 14) (size 15 to 20)
#    0.000    2.000    1.429    3.429    0.000    4.000 
#    0.000    2.143    0.000    8.571    0.000    0.000 
#    0.000    0.000    0.000    0.000    0.000    0.000 
#
# Total GULP energy -156039.725988 kJ/mol
# GULP energy per Si atom -5572.847357 kJ/mol
# Density = 0.884994 g / cm^3
# Si number density = 8.870128 Si / 1000 Ang^3
#
#
#
# Elastic Constant Matrix: (Units=GPa)
#
#
# Indices 1 2 3 4 5 6 
#
# 1 118.7510 31.0515 73.3319 0.0000 24.2699 0.0000
# 2 31.0515 57.1827 33.0840 0.0000 8.1530 0.0000
# 3 73.3319 33.0840 176.4853 0.0000 28.1744 0.0000
# 4 0.0000 0.0000 0.0000 28.9276 0.0000 0.1509
# 5 24.2699 8.1530 28.1744 0.0000 29.9883 0.0000
# 6 0.0000 0.0000 0.0000 0.1509 0.0000 27.3185
#
#
#
# Elastic Compliance Matrix: (Units=1/GPa)
#
#
# Indices 1 2 3 4 5 6 
#
# 1 0.012969 -0.004068 -0.003679 0.000000 -0.005934 0.000000
# 2 -0.004068 0.021016 -0.002192 0.000000 -0.000362 0.000000
# 3 -0.003679 -0.002192 0.008277 0.000000 -0.004203 0.000000
# 4 0.000000 0.000000 0.000000 0.034570 0.000000 -0.000191
# 5 -0.005934 -0.000362 -0.004203 0.000000 0.042196 0.000000
# 6 0.000000 0.000000 0.000000 -0.000191 0.000000 0.036606
#
#
# Mechanical properties :
#
#
# Convention : Reuss Voigt Hill
#
# Bulk Modulus (GPa) = 44.67252 69.70599 57.18926
# Shear Modulus (GPa) = 27.32640 31.57701 29.45170
#
# Velocity S-wave (km/s) = 3.92900 4.22354 4.07893
# Velocity P-wave (km/s) = 6.76896 7.94747 7.38177
#
# Compressibility (1/GPa) = 0.02238513
#
# Stress axis : x y z
#
# Youngs Moduli (GPa) = 77.10489 47.58171 120.82191
#
# Poissons Ratio (x) = 0.19356 0.44451
# Poissons Ratio (y) = 0.31367 0.26479
# Poissons Ratio (z) = 0.28367 0.10428
#
# Static dielectric constant tensor:
#      x y z
#    x 1.651760 0.000000 -0.014950 
#    y 0.000000 1.597230 0.000000 
#    z -0.014950 0.000000 1.616690 
# 
# From -- ./inp_files/360014.got.cif
#   From: 2010.05.17/outbox.ucp.g08.bks.cvg/sg12_181_cif.got.tgz:360014.got - 2010.06.11 11:47:21.
